# generated using pymatgen
data_In86Cu29Se144
_symmetry_space_group_name_H-M   'P 1'
_cell_length_a   17.57643929
_cell_length_b   17.57482531
_cell_length_c   23.43822162
_cell_angle_alpha   89.94993052
_cell_angle_beta   90.00564285
_cell_angle_gamma   89.98868965
_symmetry_Int_Tables_number   1
_chemical_formula_structural   In86Cu29Se144
_chemical_formula_sum   'In86 Cu29 Se144'
_cell_volume   7240.13051967
_cell_formula_units_Z   1
loop_
 _symmetry_equiv_pos_site_id
 _symmetry_equiv_pos_as_xyz
  1  'x, y, z'
loop_
 _atom_site_type_symbol
 _atom_site_label
 _atom_site_symmetry_multiplicity
 _atom_site_fract_x
 _atom_site_fract_y
 _atom_site_fract_z
 _atom_site_occupancy
  In  In0  1  0.01511662  0.15223598  0.13567383  1
  In  In1  1  -0.01159634  0.17141283  0.62388706  1
  In  In2  1  -0.01398528  0.50824224  0.12213691  1
  In  In3  1  0.01570830  0.50670601  0.62128026  1
  In  In4  1  0.00848534  0.85402979  0.10920365  1
  In  In5  1  -0.00188167  0.83581551  0.62725795  1
  In  In6  1  0.31971881  0.16652998  0.12775543  1
  In  In7  1  0.34107203  0.15286168  0.62069079  1
  In  In8  1  0.34888550  0.49759736  0.12780413  1
  In  In9  1  0.33381030  0.52345271  0.61977829  1
  In  In10  1  0.32553754  0.84174828  0.13556185  1
  In  In11  1  0.32588570  0.81401112  0.60700771  1
  In  In12  1  0.66371275  0.16462575  0.14051129  1
  In  In13  1  0.65064069  0.14486067  0.61216129  1
  In  In14  1  0.66294495  0.50284150  0.12157419  1
  In  In15  1  0.67634619  0.50014233  0.62764584  1
  In  In16  1  0.67880010  0.83961800  0.12500737  1
  In  In17  1  0.67207080  0.83285514  0.61880604  1
  In  In18  1  0.15832027  -0.01070612  0.37227096  1
  In  In19  1  0.14882432  0.01003602  0.88894631  1
  In  In20  1  0.16914175  0.34470053  0.37306303  1
  In  In21  1  0.15605399  0.32676722  0.87984670  1
  In  In22  1  0.17916614  0.66227725  0.39034225  1
  In  In23  1  0.17487385  0.68138091  0.86737068  1
  In  In24  1  0.50176298  0.00001179  0.36916485  1
  In  In25  1  0.50018290  -0.01121806  0.86860685  1
  In  In26  1  0.49910203  0.30369509  0.37538915  1
  In  In27  1  0.51214989  0.33738468  0.87731512  1
  In  In28  1  0.48418669  0.68939331  0.39370793  1
  In  In29  1  0.49210806  0.66563930  0.86743116  1
  In  In30  1  0.83560228  -0.00134100  0.37520037  1
  In  In31  1  0.83104646  -0.00587562  0.87172908  1
  In  In32  1  0.81684538  0.32095030  0.36082160  1
  In  In33  1  0.84647891  0.33479852  0.87932607  1
  In  In34  1  0.83551533  0.67361836  0.38302496  1
  In  In35  1  0.83346808  0.67007569  0.87063607  1
  In  In36  1  -0.01166994  0.15586629  0.36648218  1
  In  In37  1  0.01010036  0.15494412  0.87840163  1
  In  In38  1  0.01097818  0.50237831  0.37317364  1
  In  In39  1  -0.01239075  0.49654453  0.87753258  1
  In  In40  1  -0.00370505  0.84014970  0.38303636  1
  In  In41  1  0.00179024  0.83593796  0.87143472  1
  In  In42  1  0.36097504  0.16102298  0.37767279  1
  In  In43  1  0.32326369  0.15305792  0.87369815  1
  In  In44  1  0.31640453  0.49105155  0.37858456  1
  In  In45  1  0.33427002  0.51780567  0.87527440  1
  In  In46  1  0.32970615  0.83480950  0.37573885  1
  In  In47  1  0.32977117  0.82348911  0.87219431  1
  In  In48  1  0.66468992  0.16375909  0.37004116  1
  In  In49  1  0.67286299  0.16138160  0.87037580  1
  In  In50  1  0.67258305  0.49976523  0.37090529  1
  In  In51  1  0.65755303  0.50929921  0.87902465  1
  In  In52  1  0.65178574  0.84610401  0.39207538  1
  In  In53  1  0.67689618  0.84288880  0.86343077  1
  In  In54  1  0.16367684  -0.00232465  0.12791664  1
  In  In55  1  0.17241468  -0.01115516  0.62592235  1
  In  In56  1  0.17057771  0.31544559  0.12775277  1
  In  In57  1  0.15299315  0.33567667  0.61927011  1
  In  In58  1  0.16553572  0.68358267  0.12495467  1
  In  In59  1  0.16654097  0.67115980  0.62660477  1
  In  In60  1  0.49852385  0.00410853  0.14355490  1
  In  In61  1  0.51322832  0.00137171  0.61809095  1
  In  In62  1  0.49728072  0.34374634  0.12861241  1
  In  In63  1  0.50601412  0.32245715  0.61876225  1
  In  In64  1  0.49962838  0.65369526  0.12923194  1
  In  In65  1  0.49802094  0.67603478  0.62297256  1
  In  In66  1  0.83631278  -0.00174566  0.13128140  1
  In  In67  1  0.83314763  -0.00169030  0.62266062  1
  In  In68  1  0.82786605  0.33900411  0.13031710  1
  In  In69  1  0.84480549  0.32721149  0.62013277  1
  In  In70  1  0.83716449  0.67660155  0.11394368  1
  In  In71  1  0.81443745  0.68693660  0.63942637  1
  In  In72  1  0.33729141  -0.00793779  0.74315332  1
  In  In73  1  0.00051979  0.67282440  0.25061355  1
  In  In74  1  -0.00045544  0.33251602  0.75178069  1
  In  In75  1  0.83716164  0.16378742  -0.00063383  1
  In  In76  1  0.49790069  0.49590025  0.50324775  1
  In  In77  1  0.50069939  0.82938602  -0.00128702  1
  In  In78  1  0.84315608  0.50229439  0.49993275  1
  In  In79  1  0.16440515  0.50197066  -0.00096690  1
  In  In80  1  0.33576240  0.32687155  0.25340223  1
  In  In81  1  0.49577232  0.17229886  0.00801397  1
  In  In82  1  0.17237745  0.16557194  0.49671685  1
  In  In83  1  0.33162216  0.33219762  0.74277443  1
  In  In84  1  0.66953111  0.33056832  0.74962721  1
  In  In85  1  0.66310327  0.67020240  0.25535675  1
  Cu  Cu86  1  -0.00297911  0.32995062  0.00489411  1
  Cu  Cu87  1  0.00013935  -0.00171614  0.49981710  1
  Cu  Cu88  1  0.83453546  0.84092663  0.25156700  1
  Cu  Cu89  1  0.49523959  0.50727199  0.74883911  1
  Cu  Cu90  1  0.67257903  -0.00030895  0.49596681  1
  Cu  Cu91  1  0.49939369  0.50218465  0.25355715  1
  Cu  Cu92  1  0.32003179  -0.00313081  0.00481174  1
  Cu  Cu93  1  0.83617948  0.16721880  0.25188137  1
  Cu  Cu94  1  0.16502952  0.83649611  0.74710358  1
  Cu  Cu95  1  0.34462950  -0.00566138  0.49720370  1
  Cu  Cu96  1  0.33700669  0.66537915  -0.00197964  1
  Cu  Cu97  1  0.33575174  0.33400525  0.00513988  1
  Cu  Cu98  1  -0.00465801  0.32915408  0.49325201  1
  Cu  Cu99  1  0.16688952  0.15927255  0.25327527  1
  Cu  Cu100  1  0.83562418  0.83578757  0.74777265  1
  Cu  Cu101  1  0.66801844  0.32328146  0.49229251  1
  Cu  Cu102  1  0.66956132  0.66585421  -0.00404755  1
  Cu  Cu103  1  0.00228050  0.67315904  0.50510845  1
  Cu  Cu104  1  0.16732928  0.50172455  0.25428899  1
  Cu  Cu105  1  0.83252008  0.49725184  0.24557223  1
  Cu  Cu106  1  0.17100354  0.51196244  0.74827685  1
  Cu  Cu107  1  0.66411895  -0.00004284  -0.00154712  1
  Cu  Cu108  1  0.83487308  0.50730516  0.75255320  1
  Cu  Cu109  1  -0.00490200  0.67357990  -0.00572477  1
  Cu  Cu110  1  0.16710025  0.83359199  0.25185224  1
  Cu  Cu111  1  0.67101993  0.34688501  0.00343358  1
  Cu  Cu112  1  0.49855540  0.83086706  0.25981699  1
  Cu  Cu113  1  0.50552821  0.83336469  0.74150768  1
  Cu  Cu114  1  0.82864922  0.15510494  0.74548512  1
  Se  Se115  1  0.08372779  0.08000126  0.05695092  1
  Se  Se116  1  0.08052608  0.08049772  0.55999529  1
  Se  Se117  1  0.08082557  0.41054980  0.06346092  1
  Se  Se118  1  0.07581118  0.41494634  0.54622460  1
  Se  Se119  1  0.08067641  0.75033481  0.05070053  1
  Se  Se120  1  0.08499636  0.75730470  0.55797034  1
  Se  Se121  1  0.40945958  0.07199800  0.06212227  1
  Se  Se122  1  0.42538124  0.08148026  0.54854432  1
  Se  Se123  1  0.42172192  0.41941477  0.05143068  1
  Se  Se124  1  0.40645476  0.40956507  0.56531686  1
  Se  Se125  1  0.41166134  0.74557121  0.06366348  1
  Se  Se126  1  0.42175046  0.74254349  0.54308518  1
  Se  Se127  1  0.73853389  0.08339091  0.06023217  1
  Se  Se128  1  0.75549692  0.08372872  0.55011307  1
  Se  Se129  1  0.75687517  0.42550504  0.05706692  1
  Se  Se130  1  0.74508511  0.40551686  0.55388115  1
  Se  Se131  1  0.74539132  0.75515907  0.04951197  1
  Se  Se132  1  0.75667619  0.74905353  0.55151769  1
  Se  Se133  1  0.25015218  0.24689393  0.05030661  1
  Se  Se134  1  0.25566277  0.25364652  0.56237993  1
  Se  Se135  1  0.25648369  0.58716311  0.06153461  1
  Se  Se136  1  0.23273417  0.57933720  0.55427201  1
  Se  Se137  1  0.24389734  0.90888622  0.05860495  1
  Se  Se138  1  0.25351563  0.91968656  0.55034441  1
  Se  Se139  1  0.59484076  0.25990466  0.06232749  1
  Se  Se140  1  0.58139493  0.24269254  0.54562584  1
  Se  Se141  1  0.58334003  0.58846800  0.05245099  1
  Se  Se142  1  0.59176165  0.58346374  0.56031964  1
  Se  Se143  1  0.58065349  0.92639722  0.06129744  1
  Se  Se144  1  0.58807537  0.91439156  0.54800023  1
  Se  Se145  1  0.92106721  0.24881061  0.06720493  1
  Se  Se146  1  0.91359457  0.24424877  0.54495911  1
  Se  Se147  1  0.91399516  0.58682500  0.04630263  1
  Se  Se148  1  0.91843438  0.59568131  0.56618616  1
  Se  Se149  1  0.89376125  0.90922695  0.05547545  1
  Se  Se150  1  0.91686300  0.91534425  0.55447535  1
  Se  Se151  1  0.07772648  0.24877302  0.43451000  1
  Se  Se152  1  0.07808317  0.24619114  0.95078167  1
  Se  Se153  1  0.07779478  0.58530814  0.44881726  1
  Se  Se154  1  0.07931517  0.59230269  0.93628778  1
  Se  Se155  1  0.08761770  0.91477260  0.45180314  1
  Se  Se156  1  0.09584721  0.89665084  0.94435192  1
  Se  Se157  1  0.40382144  0.26079343  0.45146596  1
  Se  Se158  1  0.40905505  0.25445310  0.93748738  1
  Se  Se159  1  0.40336688  0.58185714  0.44488629  1
  Se  Se160  1  0.42412192  0.58503815  0.94710858  1
  Se  Se161  1  0.42498388  0.91321644  0.43987148  1
  Se  Se162  1  0.40527952  0.92354951  0.94318677  1
  Se  Se163  1  0.75417664  0.24185302  0.44108664  1
  Se  Se164  1  0.74169374  0.25888198  0.94259901  1
  Se  Se165  1  0.74243347  0.58741066  0.44589211  1
  Se  Se166  1  0.75368060  0.58397500  0.94174295  1
  Se  Se167  1  0.75948381  0.91409702  0.44787196  1
  Se  Se168  1  0.74537712  0.91828685  0.94378727  1
  Se  Se169  1  0.25980581  0.07318352  0.43685076  1
  Se  Se170  1  0.24468761  0.08760311  0.95217775  1
  Se  Se171  1  0.24505853  0.40980353  0.45204038  1
  Se  Se172  1  0.25760029  0.41204094  0.93924708  1
  Se  Se173  1  0.24575030  0.76357489  0.45039522  1
  Se  Se174  1  0.25137200  0.74902095  0.94821457  1
  Se  Se175  1  0.58591192  0.07974568  0.44102213  1
  Se  Se176  1  0.58119581  0.08099123  0.94152815  1
  Se  Se177  1  0.58774273  0.40981099  0.43789794  1
  Se  Se178  1  0.58120270  0.42266426  0.94997468  1
  Se  Se179  1  0.59688537  0.73682705  0.45207957  1
  Se  Se180  1  0.59083656  0.74746362  0.93392952  1
  Se  Se181  1  0.91791568  0.08215794  0.44620404  1
  Se  Se182  1  0.92411818  0.06740825  0.94570496  1
  Se  Se183  1  0.91601861  0.40899944  0.43124321  1
  Se  Se184  1  0.91587447  0.41726911  0.95447518  1
  Se  Se185  1  0.91684822  0.75368966  0.45186408  1
  Se  Se186  1  0.91231968  0.75580885  0.93978893  1
  Se  Se187  1  0.24744060  0.23701428  0.31545777  1
  Se  Se188  1  0.24069809  0.24607458  0.80741263  1
  Se  Se189  1  0.24716849  0.58422931  0.30934436  1
  Se  Se190  1  0.25671001  0.59262414  0.80102687  1
  Se  Se191  1  0.25103871  0.91859778  0.30344911  1
  Se  Se192  1  0.24431818  0.91593268  0.80990394  1
  Se  Se193  1  0.59522994  0.25953783  0.30191330  1
  Se  Se194  1  0.57444406  0.24016153  0.80591192  1
  Se  Se195  1  0.57018817  0.58653756  0.31764418  1
  Se  Se196  1  0.58350461  0.58568803  0.80221886  1
  Se  Se197  1  0.59035103  0.91204634  0.30544134  1
  Se  Se198  1  0.58486661  0.91890459  0.79632055  1
  Se  Se199  1  0.92168199  0.25482744  0.29999095  1
  Se  Se200  1  0.90784790  0.23577572  0.80804244  1
  Se  Se201  1  0.90719776  0.57950336  0.30861055  1
  Se  Se202  1  0.92239153  0.58540515  0.80482576  1
  Se  Se203  1  0.92307618  0.91770520  0.30591872  1
  Se  Se204  1  0.91833015  0.91916477  0.80185481  1
  Se  Se205  1  0.07996076  0.07555175  0.30317020  1
  Se  Se206  1  0.08559438  0.07926292  0.80447048  1
  Se  Se207  1  0.08140102  0.41525141  0.30024320  1
  Se  Se208  1  0.09324660  0.42791020  0.80847294  1
  Se  Se209  1  0.09005416  0.75350344  0.31584733  1
  Se  Se210  1  0.08177131  0.75120131  0.79964237  1
  Se  Se211  1  0.42369682  0.08454354  0.29839865  1
  Se  Se212  1  0.42271024  0.08790191  0.80568685  1
  Se  Se213  1  0.42340697  0.41833288  0.31520268  1
  Se  Se214  1  0.42000950  0.42164178  0.80866319  1
  Se  Se215  1  0.41267389  0.74654680  0.30738402  1
  Se  Se216  1  0.41874556  0.75706902  0.79923129  1
  Se  Se217  1  0.75465417  0.08146976  0.30508799  1
  Se  Se218  1  0.74574714  0.07500574  0.80131911  1
  Se  Se219  1  0.74362258  0.41816056  0.29639316  1
  Se  Se220  1  0.75857155  0.42002644  0.81163385  1
  Se  Se221  1  0.75584974  0.75986098  0.31224131  1
  Se  Se222  1  0.75047424  0.74910961  0.79844536  1
  Se  Se223  1  0.24996620  0.07784414  0.19820222  1
  Se  Se224  1  0.24401592  0.09075309  0.69247488  1
  Se  Se225  1  0.24594663  0.42037940  0.19150513  1
  Se  Se226  1  0.24031396  0.42513703  0.68681780  1
  Se  Se227  1  0.25013701  0.74681547  0.20145835  1
  Se  Se228  1  0.25231548  0.75630088  0.69343132  1
  Se  Se229  1  0.58614127  0.08111923  0.20830535  1
  Se  Se230  1  0.58241999  0.08134975  0.69538864  1
  Se  Se231  1  0.58276540  0.42511632  0.19565193  1
  Se  Se232  1  0.57343103  0.42177817  0.69142024  1
  Se  Se233  1  0.57606108  0.75967869  0.18951767  1
  Se  Se234  1  0.59021054  0.74921810  0.69051328  1
  Se  Se235  1  0.91785123  0.08086746  0.19982517  1
  Se  Se236  1  0.91897626  0.07995328  0.69287302  1
  Se  Se237  1  0.92195169  0.41832201  0.19508620  1
  Se  Se238  1  0.91195352  0.42616240  0.69014150  1
  Se  Se239  1  0.91272855  0.76140162  0.18919739  1
  Se  Se240  1  0.92140300  0.74949829  0.69919011  1
  Se  Se241  1  0.08609524  0.24874405  0.20274063  1
  Se  Se242  1  0.08932910  0.24168563  0.69348421  1
  Se  Se243  1  0.08973328  0.57948344  0.18942279  1
  Se  Se244  1  0.08086271  0.59004678  0.69774347  1
  Se  Se245  1  0.07997066  0.91168895  0.19595830  1
  Se  Se246  1  0.08128222  0.92146728  0.69630299  1
  Se  Se247  1  0.42467973  0.24001914  0.19011426  1
  Se  Se248  1  0.42635541  0.23801981  0.69231487  1
  Se  Se249  1  0.41255819  0.58498358  0.20324511  1
  Se  Se250  1  0.41612852  0.59307347  0.69472304  1
  Se  Se251  1  0.41500919  0.91426203  0.20456602  1
  Se  Se252  1  0.42138186  0.90504859  0.67790821  1
  Se  Se253  1  0.75207818  0.25218340  0.19976898  1
  Se  Se254  1  0.75593174  0.24319264  0.68595818  1
  Se  Se255  1  0.75740565  0.58916247  0.18950436  1
  Se  Se256  1  0.74466803  0.58425841  0.70152222  1
  Se  Se257  1  0.74609524  0.92233664  0.20074944  1
  Se  Se258  1  0.75019155  0.91607909  0.69199369  1
