# generated using pymatgen
data_In86Cu29Se144
_symmetry_space_group_name_H-M   'P 1'
_cell_length_a   17.59151612
_cell_length_b   17.58429040
_cell_length_c   23.45304802
_cell_angle_alpha   90.01026045
_cell_angle_beta   89.99636043
_cell_angle_gamma   89.99830259
_symmetry_Int_Tables_number   1
_chemical_formula_structural   In86Cu29Se144
_chemical_formula_sum   'In86 Cu29 Se144'
_cell_volume   7254.83271959
_cell_formula_units_Z   1
loop_
 _symmetry_equiv_pos_site_id
 _symmetry_equiv_pos_as_xyz
  1  'x, y, z'
loop_
 _atom_site_type_symbol
 _atom_site_label
 _atom_site_symmetry_multiplicity
 _atom_site_fract_x
 _atom_site_fract_y
 _atom_site_fract_z
 _atom_site_occupancy
  In  In0  1  0.00233936  0.17282827  0.12532647  1
  In  In1  1  0.01644235  0.16353242  0.62996519  1
  In  In2  1  0.00913548  0.50981761  0.11667658  1
  In  In3  1  0.00202180  0.50693779  0.62676776  1
  In  In4  1  -0.01561246  0.81316156  0.11142287  1
  In  In5  1  0.00097353  0.81602803  0.62881537  1
  In  In6  1  0.33419267  0.13983310  0.12979264  1
  In  In7  1  0.32297827  0.16148067  0.62297660  1
  In  In8  1  0.33438384  0.51980396  0.12521003  1
  In  In9  1  0.33369597  0.52086706  0.62336939  1
  In  In10  1  0.33315410  0.83065589  0.12127926  1
  In  In11  1  0.33184657  0.83604438  0.62223159  1
  In  In12  1  0.64979553  0.16060870  0.11852411  1
  In  In13  1  0.65901177  0.16135610  0.62512448  1
  In  In14  1  0.68370950  0.50322021  0.12064919  1
  In  In15  1  0.68964416  0.50909926  0.61642726  1
  In  In16  1  0.66731003  0.83377515  0.12781476  1
  In  In17  1  0.66630396  0.84107510  0.63519969  1
  In  In18  1  0.17974591  -0.00812209  0.38769956  1
  In  In19  1  0.16405163  -0.02000664  0.87422522  1
  In  In20  1  0.16654854  0.33659055  0.38792630  1
  In  In21  1  0.16170680  0.34774834  0.87407011  1
  In  In22  1  0.16600706  0.66597239  0.37252952  1
  In  In23  1  0.16340455  0.66790474  0.87197501  1
  In  In24  1  0.47823611  -0.02336836  0.36542990  1
  In  In25  1  0.49884281  -0.00612641  0.87749072  1
  In  In26  1  0.50450888  0.33662721  0.37539888  1
  In  In27  1  0.48955518  0.32583040  0.87725191  1
  In  In28  1  0.50888846  0.68576569  0.37053159  1
  In  In29  1  0.51342572  0.68124492  0.86828698  1
  In  In30  1  0.82549199  -0.00889795  0.36555839  1
  In  In31  1  0.81523260  -0.00603569  0.86875046  1
  In  In32  1  0.84357230  0.33929343  0.37708646  1
  In  In33  1  0.85018481  0.33145548  0.86819129  1
  In  In34  1  0.82280077  0.66161902  0.36324418  1
  In  In35  1  0.83222971  0.66877549  0.87956102  1
  In  In36  1  0.00210716  0.17290526  0.37888827  1
  In  In37  1  -0.01352232  0.17278563  0.86464758  1
  In  In38  1  -0.01045277  0.50851741  0.38302797  1
  In  In39  1  -0.00140357  0.50509214  0.87308504  1
  In  In40  1  0.01443962  0.83072048  0.37482229  1
  In  In41  1  0.01231421  0.82107413  0.88231345  1
  In  In42  1  0.32826187  0.15034483  0.37601424  1
  In  In43  1  0.34781242  0.16175027  0.87766739  1
  In  In44  1  0.31706941  0.50485561  0.37809177  1
  In  In45  1  0.31605655  0.50137247  0.87610981  1
  In  In46  1  0.33323412  0.83558417  0.37640410  1
  In  In47  1  0.33226387  0.83204251  0.87304090  1
  In  In48  1  0.67474986  0.15522780  0.37339214  1
  In  In49  1  0.66539658  0.14015126  0.87053014  1
  In  In50  1  0.66563709  0.52905916  0.38579759  1
  In  In51  1  0.66893855  0.52496733  0.87392099  1
  In  In52  1  0.65345838  0.81770755  0.36599482  1
  In  In53  1  0.66490014  0.82921909  0.88008876  1
  In  In54  1  0.18776567  -0.00859983  0.13613510  1
  In  In55  1  0.17844665  0.00427671  0.61457020  1
  In  In56  1  0.15513962  0.33303441  0.12619338  1
  In  In57  1  0.15815531  0.33101090  0.62199440  1
  In  In58  1  0.16651818  0.66733532  0.12205869  1
  In  In59  1  0.16778536  0.67061921  0.62213498  1
  In  In60  1  0.49852096  -0.00762577  0.12331307  1
  In  In61  1  0.50615435  -0.00903690  0.63057906  1
  In  In62  1  0.51285370  0.33169360  0.12036368  1
  In  In63  1  0.50660444  0.32212922  0.62510081  1
  In  In64  1  0.48654916  0.68157203  0.12922001  1
  In  In65  1  0.48967980  0.68042066  0.63161326  1
  In  In66  1  0.83323361  -0.02516818  0.12692217  1
  In  In67  1  0.82397308  -0.01642424  0.63435807  1
  In  In68  1  0.82608324  0.34329105  0.11987371  1
  In  In69  1  0.83148760  0.35496021  0.62615912  1
  In  In70  1  0.83652791  0.66967261  0.12738727  1
  In  In71  1  0.84549956  0.67159798  0.63652610  1
  In  In72  1  0.82813966  0.16208317  -0.01259249  1
  In  In73  1  0.67044515  0.33636312  0.74469558  1
  In  In74  1  0.66940014  0.33846168  0.24956055  1
  In  In75  1  0.00879547  -0.00728193  0.25503436  1
  In  In76  1  0.32759959  0.33588016  0.74933059  1
  In  In77  1  0.49880947  0.16264232  0.50243772  1
  In  In78  1  0.83622238  0.17124203  0.50031381  1
  In  In79  1  -0.00213493  -0.00614383  0.75067683  1
  In  In80  1  0.33578575  0.33394931  0.25599987  1
  In  In81  1  0.49838656  0.50483315  -0.00138459  1
  In  In82  1  0.50034096  0.50582332  0.50160267  1
  In  In83  1  0.83594179  0.82805705  0.50410117  1
  In  In84  1  0.16586854  0.16333133  0.00602215  1
  In  In85  1  0.00206176  0.33310561  0.24988294  1
  Cu  Cu86  1  0.33786120  -0.00484925  0.00090788  1
  Cu  Cu87  1  0.00131298  0.34002767  0.50427354  1
  Cu  Cu88  1  0.32640358  0.66871716  -0.00315854  1
  Cu  Cu89  1  0.33127581  0.32950732  -0.00103011  1
  Cu  Cu90  1  0.00400137  0.00189437  0.50029598  1
  Cu  Cu91  1  0.66857150  0.33501008  -0.00402770  1
  Cu  Cu92  1  0.15898778  0.50877594  0.74981634  1
  Cu  Cu93  1  0.33169370  0.33401613  0.50383081  1
  Cu  Cu94  1  0.49994366  0.50474837  0.74536056  1
  Cu  Cu95  1  0.16483509  0.50450850  0.24932981  1
  Cu  Cu96  1  0.49924533  0.83761247  0.75370411  1
  Cu  Cu97  1  0.82625552  0.15459622  0.24407195  1
  Cu  Cu98  1  0.32971283  0.67377949  0.49856007  1
  Cu  Cu99  1  0.00049038  0.65997401  -0.00205279  1
  Cu  Cu100  1  0.17309081  0.83049523  0.74778982  1
  Cu  Cu101  1  0.66049964  -0.00460025  0.00056437  1
  Cu  Cu102  1  0.66023219  -0.00635359  0.50054593  1
  Cu  Cu103  1  -0.00124388  0.34027216  -0.00419101  1
  Cu  Cu104  1  0.83426749  0.50913616  0.25084802  1
  Cu  Cu105  1  0.00239305  -0.00690490  0.00036855  1
  Cu  Cu106  1  0.17009398  0.82898094  0.24969210  1
  Cu  Cu107  1  0.49603370  0.83715573  0.24672997  1
  Cu  Cu108  1  0.49735738  0.15777268  0.24628304  1
  Cu  Cu109  1  0.00398538  0.66375249  0.50179236  1
  Cu  Cu110  1  0.84039272  0.50761053  0.75136320  1
  Cu  Cu111  1  0.17107048  0.16481017  0.74649286  1
  Cu  Cu112  1  0.66849297  0.67309550  0.00247384  1
  Cu  Cu113  1  0.50282131  0.15395686  0.75313193  1
  Cu  Cu114  1  0.50288892  0.51659449  0.25140381  1
  Se  Se115  1  0.07805672  0.06990014  0.06516363  1
  Se  Se116  1  0.08603563  0.08738337  0.55189257  1
  Se  Se117  1  0.08591881  0.41559039  0.05180847  1
  Se  Se118  1  0.08523573  0.42456328  0.55608267  1
  Se  Se119  1  0.08598008  0.74626310  0.04875598  1
  Se  Se120  1  0.08457195  0.75288456  0.55138941  1
  Se  Se121  1  0.41980508  0.08115237  0.05273089  1
  Se  Se122  1  0.41189161  0.07181863  0.56099853  1
  Se  Se123  1  0.40952476  0.41256609  0.06110017  1
  Se  Se124  1  0.41307382  0.41063075  0.56449888  1
  Se  Se125  1  0.41387931  0.74976305  0.04832917  1
  Se  Se126  1  0.41616390  0.75232544  0.55245232  1
  Se  Se127  1  0.74817078  0.07617295  0.05795847  1
  Se  Se128  1  0.74655366  0.07271338  0.55682700  1
  Se  Se129  1  0.75261955  0.42046289  0.04431158  1
  Se  Se130  1  0.74911560  0.41290893  0.54770262  1
  Se  Se131  1  0.75266456  0.75263647  0.05848276  1
  Se  Se132  1  0.74667735  0.74635955  0.56806971  1
  Se  Se133  1  0.25848859  0.25167844  0.06664720  1
  Se  Se134  1  0.24816302  0.25090202  0.55647335  1
  Se  Se135  1  0.24750604  0.58171377  0.05046950  1
  Se  Se136  1  0.24789662  0.58666591  0.54952155  1
  Se  Se137  1  0.24925781  0.91661168  0.05324208  1
  Se  Se138  1  0.23959884  0.90318340  0.55108444  1
  Se  Se139  1  0.58391543  0.25042253  0.04537188  1
  Se  Se140  1  0.59790505  0.25822052  0.55030291  1
  Se  Se141  1  0.58573913  0.59134707  0.06260321  1
  Se  Se142  1  0.58423692  0.59385668  0.56467391  1
  Se  Se143  1  0.58149100  0.90977804  0.05509755  1
  Se  Se144  1  0.58358418  0.91025869  0.55776046  1
  Se  Se145  1  0.91803419  0.25473228  0.05299909  1
  Se  Se146  1  0.92502070  0.25534742  0.56488641  1
  Se  Se147  1  0.91273548  0.58304819  0.05421385  1
  Se  Se148  1  0.91657407  0.59031922  0.55968684  1
  Se  Se149  1  0.91189699  0.91109413  0.04730545  1
  Se  Se150  1  0.92481195  0.92404079  0.56260612  1
  Se  Se151  1  0.07988716  0.25123691  0.45145372  1
  Se  Se152  1  0.07632365  0.25061397  0.94032130  1
  Se  Se153  1  0.08671110  0.58228791  0.44525054  1
  Se  Se154  1  0.08652475  0.58068041  0.94302270  1
  Se  Se155  1  0.08393898  0.91363121  0.44951427  1
  Se  Se156  1  0.08981929  0.90919583  0.95229723  1
  Se  Se157  1  0.41051059  0.25781000  0.44071489  1
  Se  Se158  1  0.41843371  0.24525031  0.95260561  1
  Se  Se159  1  0.41182724  0.59261166  0.43812361  1
  Se  Se160  1  0.41086821  0.59123563  0.93520161  1
  Se  Se161  1  0.41753777  0.91018660  0.44955884  1
  Se  Se162  1  0.41643916  0.91010324  0.94542108  1
  Se  Se163  1  0.74361561  0.25645745  0.43818480  1
  Se  Se164  1  0.74056506  0.25601820  0.92915512  1
  Se  Se165  1  0.76488639  0.59137463  0.44957176  1
  Se  Se166  1  0.75088504  0.58540274  0.95292265  1
  Se  Se167  1  0.74566322  0.91678132  0.44231139  1
  Se  Se168  1  0.74832971  0.91624960  0.94785897  1
  Se  Se169  1  0.24927652  0.08800762  0.45415642  1
  Se  Se170  1  0.25324440  0.07583632  0.94181967  1
  Se  Se171  1  0.24953855  0.42175508  0.45394808  1
  Se  Se172  1  0.24751924  0.41402539  0.94936320  1
  Se  Se173  1  0.24523218  0.75154171  0.44177213  1
  Se  Se174  1  0.24512986  0.75190383  0.94153323  1
  Se  Se175  1  0.58339866  0.07301780  0.43778078  1
  Se  Se176  1  0.57961884  0.08156593  0.94765023  1
  Se  Se177  1  0.59320887  0.41564250  0.44198652  1
  Se  Se178  1  0.58726602  0.41544528  0.93493463  1
  Se  Se179  1  0.59008577  0.74754010  0.44903044  1
  Se  Se180  1  0.57816467  0.75159773  0.95206522  1
  Se  Se181  1  0.91722951  0.07201725  0.43821257  1
  Se  Se182  1  0.92646021  0.07149317  0.93610810  1
  Se  Se183  1  0.91405686  0.41967536  0.45221567  1
  Se  Se184  1  0.91413164  0.41979417  0.94211631  1
  Se  Se185  1  0.92431273  0.74319185  0.43965848  1
  Se  Se186  1  0.91790549  0.74888219  0.94886671  1
  Se  Se187  1  0.24293706  0.24850463  0.31454915  1
  Se  Se188  1  0.24495916  0.24326218  0.81437348  1
  Se  Se189  1  0.25154861  0.58605840  0.30083569  1
  Se  Se190  1  0.24897940  0.58606807  0.80177549  1
  Se  Se191  1  0.24605447  0.91546682  0.30635340  1
  Se  Se192  1  0.25296341  0.91719047  0.80079589  1
  Se  Se193  1  0.57710670  0.24108790  0.30532438  1
  Se  Se194  1  0.57926869  0.24570096  0.80738649  1
  Se  Se195  1  0.58966015  0.59366301  0.30513002  1
  Se  Se196  1  0.58324024  0.58798774  0.79816515  1
  Se  Se197  1  0.58264614  0.91669461  0.30194678  1
  Se  Se198  1  0.58605860  0.91601801  0.80904591  1
  Se  Se199  1  0.90422170  0.23790614  0.30383476  1
  Se  Se200  1  0.91881237  0.25529624  0.79082787  1
  Se  Se201  1  0.92399793  0.58622564  0.30313089  1
  Se  Se202  1  0.91879770  0.59331852  0.80665049  1
  Se  Se203  1  0.91285475  0.90043462  0.30584694  1
  Se  Se204  1  0.91646149  0.90630750  0.81665912  1
  Se  Se205  1  0.09049421  0.08475499  0.31751037  1
  Se  Se206  1  0.09113778  0.08677125  0.81066809  1
  Se  Se207  1  0.08893031  0.42282655  0.31188244  1
  Se  Se208  1  0.07936406  0.42005436  0.80140074  1
  Se  Se209  1  0.08411438  0.74638545  0.30042598  1
  Se  Se210  1  0.08445320  0.75175165  0.80044176  1
  Se  Se211  1  0.41274198  0.08052418  0.30248588  1
  Se  Se212  1  0.41523330  0.07514400  0.80502637  1
  Se  Se213  1  0.42655482  0.43226245  0.31082407  1
  Se  Se214  1  0.42221356  0.42569184  0.80805032  1
  Se  Se215  1  0.41391234  0.75432836  0.30319397  1
  Se  Se216  1  0.41511599  0.74974217  0.80326932  1
  Se  Se217  1  0.74263704  0.07389402  0.29702200  1
  Se  Se218  1  0.77089050  0.10132498  0.80200779  1
  Se  Se219  1  0.75510311  0.42789516  0.31219161  1
  Se  Se220  1  0.75416509  0.42820107  0.81003262  1
  Se  Se221  1  0.75523563  0.75941686  0.30024832  1
  Se  Se222  1  0.72678040  0.72672668  0.81527069  1
  Se  Se223  1  0.24504966  0.08794353  0.20613857  1
  Se  Se224  1  0.25088541  0.07788702  0.69607858  1
  Se  Se225  1  0.24566603  0.42121601  0.19124902  1
  Se  Se226  1  0.24287083  0.42916710  0.68923472  1
  Se  Se227  1  0.25141746  0.74753976  0.19135886  1
  Se  Se228  1  0.25460892  0.74734549  0.69235757  1
  Se  Se229  1  0.58239288  0.07724747  0.19305711  1
  Se  Se230  1  0.58955702  0.07700762  0.69838689  1
  Se  Se231  1  0.57756446  0.43163116  0.19085901  1
  Se  Se232  1  0.57948196  0.42729524  0.68455668  1
  Se  Se233  1  0.58063915  0.75124500  0.19622065  1
  Se  Se234  1  0.58099558  0.75333395  0.69968885  1
  Se  Se235  1  0.91669835  0.08207369  0.18838366  1
  Se  Se236  1  0.91275351  0.08523143  0.68788499  1
  Se  Se237  1  0.91159787  0.42410362  0.19075130  1
  Se  Se238  1  0.92043461  0.42255046  0.69759948  1
  Se  Se239  1  0.92463140  0.74607516  0.19611099  1
  Se  Se240  1  0.90347468  0.77454744  0.70301633  1
  Se  Se241  1  0.09618321  0.23481778  0.20046449  1
  Se  Se242  1  0.08733186  0.25345204  0.70060639  1
  Se  Se243  1  0.08290017  0.58524037  0.19329336  1
  Se  Se244  1  0.08088207  0.59508766  0.69460185  1
  Se  Se245  1  0.08600685  0.90296195  0.18630442  1
  Se  Se246  1  0.09241996  0.91312270  0.68762652  1
  Se  Se247  1  0.42392316  0.24787845  0.18883693  1
  Se  Se248  1  0.42250652  0.23930247  0.69537569  1
  Se  Se249  1  0.41236930  0.59264205  0.20009735  1
  Se  Se250  1  0.41173225  0.59028079  0.70001941  1
  Se  Se251  1  0.40980016  0.91730876  0.19285883  1
  Se  Se252  1  0.41434872  0.91487086  0.69601634  1
  Se  Se253  1  0.75288792  0.24273297  0.18544566  1
  Se  Se254  1  0.75728478  0.24545871  0.68440757  1
  Se  Se255  1  0.74831388  0.58728941  0.19621129  1
  Se  Se256  1  0.75301638  0.58544460  0.69752743  1
  Se  Se257  1  0.74537806  0.91578724  0.20037579  1
  Se  Se258  1  0.74771173  0.91431117  0.71023128  1
