# generated using pymatgen
data_In86Cu29Se144
_symmetry_space_group_name_H-M   'P 1'
_cell_length_a   17.56305593
_cell_length_b   17.56582878
_cell_length_c   23.42866009
_cell_angle_alpha   89.96049504
_cell_angle_beta   89.99259418
_cell_angle_gamma   90.00341335
_symmetry_Int_Tables_number   1
_chemical_formula_structural   In86Cu29Se144
_chemical_formula_sum   'In86 Cu29 Se144'
_cell_volume   7227.96554124
_cell_formula_units_Z   1
loop_
 _symmetry_equiv_pos_site_id
 _symmetry_equiv_pos_as_xyz
  1  'x, y, z'
loop_
 _atom_site_type_symbol
 _atom_site_label
 _atom_site_symmetry_multiplicity
 _atom_site_fract_x
 _atom_site_fract_y
 _atom_site_fract_z
 _atom_site_occupancy
  In  In0  1  0.00850826  0.17316437  0.11711534  1
  In  In1  1  0.00005897  0.16884794  0.62917745  1
  In  In2  1  0.00385956  0.49307535  0.13144391  1
  In  In3  1  -0.00618838  0.51146535  0.63794535  1
  In  In4  1  -0.01107697  0.82093295  0.11492228  1
  In  In5  1  0.00271695  0.82826509  0.63895222  1
  In  In6  1  0.31818222  0.17364698  0.13427120  1
  In  In7  1  0.33108145  0.17994785  0.61854786  1
  In  In8  1  0.31909145  0.50673011  0.12795568  1
  In  In9  1  0.34599121  0.50570679  0.61904515  1
  In  In10  1  0.33856565  0.83714077  0.12046218  1
  In  In11  1  0.33721642  0.81884684  0.61691200  1
  In  In12  1  0.66628452  0.15646197  0.12176718  1
  In  In13  1  0.68264264  0.15696283  0.62276428  1
  In  In14  1  0.68000827  0.50131361  0.12925713  1
  In  In15  1  0.66222374  0.50224250  0.62339645  1
  In  In16  1  0.65665984  0.82746723  0.11764289  1
  In  In17  1  0.65469639  0.82787515  0.61728590  1
  In  In18  1  0.18729618  0.00560710  0.37324186  1
  In  In19  1  0.15921155  0.01110849  0.88374571  1
  In  In20  1  0.15339875  0.32682096  0.37011106  1
  In  In21  1  0.15302716  0.34484553  0.88280900  1
  In  In22  1  0.16389356  0.67537768  0.37144067  1
  In  In23  1  0.17097393  0.66925168  0.87446222  1
  In  In24  1  0.47916585  -0.00151414  0.38203059  1
  In  In25  1  0.49209819  -0.00401512  0.87414988  1
  In  In26  1  0.49810704  0.35334275  0.37379077  1
  In  In27  1  0.51103983  0.32748487  0.86645724  1
  In  In28  1  0.51315734  0.64552771  0.40494407  1
  In  In29  1  0.50783603  0.67331000  0.86763243  1
  In  In30  1  0.84332386  0.00603658  0.37796532  1
  In  In31  1  0.84380569  -0.00888151  0.87909714  1
  In  In32  1  0.83937435  0.33288479  0.38290714  1
  In  In33  1  0.83658153  0.33172941  0.86866024  1
  In  In34  1  0.82588940  0.66072848  0.37160054  1
  In  In35  1  0.84095632  0.67194654  0.86799908  1
  In  In36  1  -0.00995753  0.17806244  0.38217831  1
  In  In37  1  0.00073559  0.16565032  0.87382706  1
  In  In38  1  -0.00740226  0.49648340  0.37332935  1
  In  In39  1  0.02578058  0.51614950  0.85281211  1
  In  In40  1  0.00998689  0.82985089  0.37105639  1
  In  In41  1  0.00051555  0.83423011  0.87606247  1
  In  In42  1  0.31704687  0.15842944  0.37011374  1
  In  In43  1  0.33285161  0.15806972  0.87524002  1
  In  In44  1  0.35926089  0.49785353  0.37453481  1
  In  In45  1  0.31101739  0.50348203  0.87345545  1
  In  In46  1  0.33744622  0.83827907  0.37749681  1
  In  In47  1  0.34375084  0.82534049  0.88297543  1
  In  In48  1  0.67270851  0.17913646  0.38052544  1
  In  In49  1  0.67489637  0.18410849  0.86481338  1
  In  In50  1  0.66251683  0.51823715  0.39261431  1
  In  In51  1  0.67172447  0.50200917  0.86330499  1
  In  In52  1  0.65898366  0.80844048  0.38283461  1
  In  In53  1  0.67484962  0.82709369  0.87913120  1
  In  In54  1  0.17373008  0.00540569  0.11938855  1
  In  In55  1  0.15456139  -0.00441844  0.62973596  1
  In  In56  1  0.16219198  0.33378155  0.12460286  1
  In  In57  1  0.16980084  0.32379420  0.62683184  1
  In  In58  1  0.15631124  0.65535643  0.11573117  1
  In  In59  1  0.16832856  0.66173188  0.64290020  1
  In  In60  1  0.49697742  -0.01569826  0.12715335  1
  In  In61  1  0.50967644  -0.00995246  0.61574501  1
  In  In62  1  0.49913435  0.32272748  0.13225993  1
  In  In63  1  0.49548426  0.34749698  0.62444574  1
  In  In64  1  0.49367912  0.67859398  0.12817634  1
  In  In65  1  0.50529495  0.66303555  0.62164912  1
  In  In66  1  0.83734245  0.00335858  0.11480638  1
  In  In67  1  0.83437985  0.00990954  0.62164599  1
  In  In68  1  0.84731620  0.33815290  0.12273035  1
  In  In69  1  0.83352322  0.33279306  0.62558143  1
  In  In70  1  0.82482374  0.66853790  0.12886302  1
  In  In71  1  0.83478980  0.66155422  0.62760911  1
  In  In72  1  0.66357282  -0.00703024  0.25212442  1
  In  In73  1  0.33229444  0.00043001  0.75439112  1
  In  In74  1  0.84404932  0.50125034  -0.01148832  1
  In  In75  1  0.00513487  -0.00085980  0.24611446  1
  In  In76  1  0.50269868  0.16688107  0.49906804  1
  In  In77  1  0.16946753  0.83905062  0.49838208  1
  In  In78  1  0.33380863  0.66407982  0.25313288  1
  In  In79  1  0.66673230  0.34163477  0.25605010  1
  In  In80  1  0.49289801  0.50390055  0.00504993  1
  In  In81  1  0.67028766  -0.00516807  0.73797696  1
  In  In82  1  0.49916140  0.15967795  -0.00437841  1
  In  In83  1  0.33222992  0.34209069  0.74810638  1
  In  In84  1  0.17080169  0.49944927  0.50597079  1
  In  In85  1  0.82901527  0.83350578  0.50364741  1
  Cu  Cu86  1  0.83875887  0.16456214  0.74736367  1
  Cu  Cu87  1  0.67349573  0.33589958  0.50307818  1
  Cu  Cu88  1  0.16530709  0.82839436  0.24679213  1
  Cu  Cu89  1  0.00256431  0.33030000  -0.00202817  1
  Cu  Cu90  1  0.16456796  0.49426874  0.24961092  1
  Cu  Cu91  1  0.16246265  0.16897161  0.75354883  1
  Cu  Cu92  1  0.82834964  0.82461338  0.24665683  1
  Cu  Cu93  1  0.82540011  0.49043840  0.74452860  1
  Cu  Cu94  1  0.67101184  0.33307634  -0.01009215  1
  Cu  Cu95  1  -0.00036577  0.66639512  0.50762607  1
  Cu  Cu96  1  0.33175698  -0.00256746  0.00043950  1
  Cu  Cu97  1  0.16741303  0.83269175  0.75535131  1
  Cu  Cu98  1  -0.00147066  0.33228435  0.50327670  1
  Cu  Cu99  1  0.83407567  0.82480788  0.75421404  1
  Cu  Cu100  1  0.00104905  0.66583083  -0.00769255  1
  Cu  Cu101  1  0.16220527  0.16856901  0.24608534  1
  Cu  Cu102  1  0.32412461  0.32960247  0.00277949  1
  Cu  Cu103  1  0.49992118  0.82743518  0.74715975  1
  Cu  Cu104  1  0.66443559  0.67561487  0.00018451  1
  Cu  Cu105  1  0.00007423  -0.00163200  -0.00225868  1
  Cu  Cu106  1  0.83656838  0.17768568  0.25129613  1
  Cu  Cu107  1  0.00162752  0.01149567  0.50369368  1
  Cu  Cu108  1  0.50088419  0.50674237  0.74530475  1
  Cu  Cu109  1  0.49733373  0.82752270  0.25151837  1
  Cu  Cu110  1  0.67257865  0.00058442  -0.00254010  1
  Cu  Cu111  1  0.32867502  0.33040413  0.49399129  1
  Cu  Cu112  1  0.83536525  0.50817772  0.25430390  1
  Cu  Cu113  1  0.48552639  0.16414860  0.25525902  1
  Cu  Cu114  1  0.32966872  0.66845557  0.00062864  1
  Se  Se115  1  0.08384415  0.08152878  0.05189639  1
  Se  Se116  1  0.08735819  0.08767953  0.55961760  1
  Se  Se117  1  0.07970604  0.41757341  0.05483654  1
  Se  Se118  1  0.07589745  0.41396963  0.56502778  1
  Se  Se119  1  0.08361159  0.74853665  0.04861072  1
  Se  Se120  1  0.08411800  0.74623716  0.56331465  1
  Se  Se121  1  0.41022550  0.07985013  0.06367980  1
  Se  Se122  1  0.41054442  0.07901047  0.55884313  1
  Se  Se123  1  0.40826821  0.40569173  0.06306404  1
  Se  Se124  1  0.41197128  0.41319075  0.54760008  1
  Se  Se125  1  0.41820989  0.75038689  0.05094775  1
  Se  Se126  1  0.44345056  0.76595133  0.55252259  1
  Se  Se127  1  0.75247455  0.08890400  0.04906219  1
  Se  Se128  1  0.74577319  0.07139374  0.54768382  1
  Se  Se129  1  0.74867548  0.41375182  0.05185750  1
  Se  Se130  1  0.75340910  0.42027436  0.55801536  1
  Se  Se131  1  0.75344717  0.75239197  0.05421364  1
  Se  Se132  1  0.74071244  0.73426909  0.55436966  1
  Se  Se133  1  0.24264758  0.24510087  0.05587718  1
  Se  Se134  1  0.24341418  0.25079269  0.54728274  1
  Se  Se135  1  0.24777438  0.57868457  0.04852604  1
  Se  Se136  1  0.25374761  0.60031030  0.56090548  1
  Se  Se137  1  0.24804550  0.91252068  0.05260740  1
  Se  Se138  1  0.25613061  0.92584321  0.56296629  1
  Se  Se139  1  0.59001531  0.25712370  0.05354684  1
  Se  Se140  1  0.58997119  0.25649189  0.56240036  1
  Se  Se141  1  0.59185872  0.58991579  0.06158947  1
  Se  Se142  1  0.56949993  0.56753544  0.55191913  1
  Se  Se143  1  0.58394396  0.92216939  0.05108851  1
  Se  Se144  1  0.61136316  0.93546521  0.54948535  1
  Se  Se145  1  0.91544342  0.25021859  0.05092070  1
  Se  Se146  1  0.91634708  0.24707617  0.55742592  1
  Se  Se147  1  0.92232539  0.58829338  0.05878922  1
  Se  Se148  1  0.91773381  0.57984259  0.55735962  1
  Se  Se149  1  0.91435809  0.91426943  0.04886391  1
  Se  Se150  1  0.93104659  0.91710625  0.56024229  1
  Se  Se151  1  0.08347449  0.25050897  0.44974310  1
  Se  Se152  1  0.08592366  0.24373281  0.94604410  1
  Se  Se153  1  0.08036890  0.58987034  0.44376058  1
  Se  Se154  1  0.08536055  0.58137882  0.94114097  1
  Se  Se155  1  0.07654208  0.93089047  0.43905188  1
  Se  Se156  1  0.08468881  0.91436118  0.94656359  1
  Se  Se157  1  0.41332305  0.25312834  0.43421117  1
  Se  Se158  1  0.41186990  0.26091987  0.94029902  1
  Se  Se159  1  0.40023695  0.58317823  0.45701578  1
  Se  Se160  1  0.41025617  0.58939822  0.93766379  1
  Se  Se161  1  0.40807248  0.91613620  0.45456995  1
  Se  Se162  1  0.42104836  0.91740123  0.95019330  1
  Se  Se163  1  0.75697726  0.24989973  0.45289090  1
  Se  Se164  1  0.75741790  0.24956142  0.94218610  1
  Se  Se165  1  0.76360356  0.58696441  0.45338443  1
  Se  Se166  1  0.74170863  0.59146841  0.94026652  1
  Se  Se167  1  0.74725088  0.91622522  0.43198852  1
  Se  Se168  1  0.75415890  0.91332189  0.94639989  1
  Se  Se169  1  0.25116682  0.08428795  0.45154628  1
  Se  Se170  1  0.25232128  0.08727090  0.95036122  1
  Se  Se171  1  0.25001794  0.41402017  0.43464712  1
  Se  Se172  1  0.24623862  0.41841070  0.94992253  1
  Se  Se173  1  0.25667612  0.74061504  0.44415151  1
  Se  Se174  1  0.24728230  0.75344852  0.94773905  1
  Se  Se175  1  0.58953567  0.07798498  0.43551844  1
  Se  Se176  1  0.59538012  0.07931515  0.93272635  1
  Se  Se177  1  0.58622536  0.41470854  0.44925699  1
  Se  Se178  1  0.58642139  0.41893090  0.94012451  1
  Se  Se179  1  0.56166790  0.76456668  0.45923026  1
  Se  Se180  1  0.57833921  0.75377161  0.94488520  1
  Se  Se181  1  0.91289666  0.08982057  0.45161624  1
  Se  Se182  1  0.91739509  0.08455833  0.94506452  1
  Se  Se183  1  0.91886438  0.42044964  0.45091346  1
  Se  Se184  1  0.93594727  0.41411781  0.93086577  1
  Se  Se185  1  0.92644697  0.74889551  0.44302857  1
  Se  Se186  1  0.91398135  0.74999829  0.94416232  1
  Se  Se187  1  0.24475171  0.25085746  0.30253428  1
  Se  Se188  1  0.24742827  0.24825039  0.81130007  1
  Se  Se189  1  0.24424688  0.57139560  0.31369742  1
  Se  Se190  1  0.24893738  0.58993779  0.79999283  1
  Se  Se191  1  0.24783488  0.90665434  0.30415028  1
  Se  Se192  1  0.24612018  0.91282026  0.81776014  1
  Se  Se193  1  0.57398878  0.24310479  0.30944491  1
  Se  Se194  1  0.58464822  0.24835791  0.79388368  1
  Se  Se195  1  0.57688619  0.58421924  0.31794739  1
  Se  Se196  1  0.58686703  0.58759658  0.79936160  1
  Se  Se197  1  0.57413815  0.90842925  0.31519917  1
  Se  Se198  1  0.58015156  0.91078872  0.80572824  1
  Se  Se199  1  0.91854806  0.25879170  0.30572031  1
  Se  Se200  1  0.92123407  0.24804540  0.80192568  1
  Se  Se201  1  0.92253348  0.59123382  0.30509629  1
  Se  Se202  1  0.90578414  0.57151419  0.80326772  1
  Se  Se203  1  0.90884770  0.90825691  0.30433582  1
  Se  Se204  1  0.91660907  0.91300023  0.80294185  1
  Se  Se205  1  0.08506825  0.08977343  0.31253697  1
  Se  Se206  1  0.08262085  0.07952929  0.80425019  1
  Se  Se207  1  0.07584658  0.41623158  0.30321224  1
  Se  Se208  1  0.08908613  0.40699125  0.79634203  1
  Se  Se209  1  0.07941295  0.74527907  0.29678341  1
  Se  Se210  1  0.08145971  0.74974897  0.80698477  1
  Se  Se211  1  0.40625448  0.07518694  0.30487951  1
  Se  Se212  1  0.43081422  0.09594075  0.80289636  1
  Se  Se213  1  0.41400821  0.41249329  0.29563396  1
  Se  Se214  1  0.42317777  0.42995376  0.81209174  1
  Se  Se215  1  0.42518187  0.74596402  0.31623787  1
  Se  Se216  1  0.41327610  0.75019000  0.80301484  1
  Se  Se217  1  0.75589186  0.09199334  0.30635230  1
  Se  Se218  1  0.75733587  0.08038925  0.80620300  1
  Se  Se219  1  0.75535297  0.42884971  0.31751557  1
  Se  Se220  1  0.74486842  0.40607534  0.80024011  1
  Se  Se221  1  0.74456917  0.74833554  0.30461526  1
  Se  Se222  1  0.74359142  0.74486423  0.80270077  1
  Se  Se223  1  0.24578202  0.07740958  0.20016878  1
  Se  Se224  1  0.24610280  0.09345584  0.69187001  1
  Se  Se225  1  0.24810197  0.41367276  0.19491875  1
  Se  Se226  1  0.24556769  0.43005056  0.68532211  1
  Se  Se227  1  0.24595936  0.74783035  0.18580671  1
  Se  Se228  1  0.25362597  0.75919952  0.69680547  1
  Se  Se229  1  0.57069759  0.08874746  0.19461401  1
  Se  Se230  1  0.57530085  0.08872243  0.68708821  1
  Se  Se231  1  0.57720536  0.42612008  0.19149163  1
  Se  Se232  1  0.58231736  0.41752774  0.69642472  1
  Se  Se233  1  0.58545984  0.75077088  0.19677820  1
  Se  Se234  1  0.58579351  0.74724826  0.69394329  1
  Se  Se235  1  0.91097193  0.09175314  0.19103255  1
  Se  Se236  1  0.92006050  0.07731099  0.69598621  1
  Se  Se237  1  0.91233002  0.41909992  0.20034516  1
  Se  Se238  1  0.91758313  0.41118817  0.69699873  1
  Se  Se239  1  0.91762389  0.74618958  0.19453012  1
  Se  Se240  1  0.91743769  0.74007526  0.70012572  1
  Se  Se241  1  0.07712237  0.25201069  0.19506559  1
  Se  Se242  1  0.08219543  0.25351211  0.69878645  1
  Se  Se243  1  0.08524683  0.58271554  0.19651772  1
  Se  Se244  1  0.07983849  0.58581115  0.70784401  1
  Se  Se245  1  0.08711424  0.90638836  0.18350027  1
  Se  Se246  1  0.08191020  0.91738604  0.70547449  1
  Se  Se247  1  0.40902309  0.25121465  0.20045789  1
  Se  Se248  1  0.42189090  0.24684004  0.69193126  1
  Se  Se249  1  0.42437787  0.57486603  0.19153232  1
  Se  Se250  1  0.41577769  0.58931770  0.69386921  1
  Se  Se251  1  0.41274941  0.91162761  0.19997363  1
  Se  Se252  1  0.42125968  0.91283730  0.69005213  1
  Se  Se253  1  0.74989802  0.24906832  0.18930227  1
  Se  Se254  1  0.75191069  0.24479931  0.69466723  1
  Se  Se255  1  0.74677213  0.58730370  0.20269785  1
  Se  Se256  1  0.74664880  0.58137230  0.69462730  1
  Se  Se257  1  0.75603704  0.91292490  0.18670772  1
  Se  Se258  1  0.76258122  0.90063324  0.68357057  1
