# generated using pymatgen
data_In86Cu29Se144
_symmetry_space_group_name_H-M   'P 1'
_cell_length_a   17.57327811
_cell_length_b   17.56906502
_cell_length_c   23.42380257
_cell_angle_alpha   90.01616711
_cell_angle_beta   89.98724426
_cell_angle_gamma   89.99402727
_symmetry_Int_Tables_number   1
_chemical_formula_structural   In86Cu29Se144
_chemical_formula_sum   'In86 Cu29 Se144'
_cell_volume   7232.00638067
_cell_formula_units_Z   1
loop_
 _symmetry_equiv_pos_site_id
 _symmetry_equiv_pos_as_xyz
  1  'x, y, z'
loop_
 _atom_site_type_symbol
 _atom_site_label
 _atom_site_symmetry_multiplicity
 _atom_site_fract_x
 _atom_site_fract_y
 _atom_site_fract_z
 _atom_site_occupancy
  In  In0  1  0.00417064  0.16083952  0.13354997  1
  In  In1  1  0.00081202  0.16145989  0.62884975  1
  In  In2  1  -0.00462284  0.48422609  0.12963872  1
  In  In3  1  -0.01096467  0.49621790  0.62247306  1
  In  In4  1  0.01929481  0.83604997  0.12550266  1
  In  In5  1  0.01663038  0.84351791  0.62306481  1
  In  In6  1  0.33679499  0.17226481  0.12179271  1
  In  In7  1  0.33500244  0.15904905  0.61830498  1
  In  In8  1  0.34445398  0.49939725  0.13687064  1
  In  In9  1  0.33241330  0.47975109  0.62549866  1
  In  In10  1  0.33110920  0.83462953  0.12386068  1
  In  In11  1  0.33592486  0.84872131  0.61696912  1
  In  In12  1  0.66609615  0.17416444  0.12745851  1
  In  In13  1  0.66006234  0.16045387  0.60038344  1
  In  In14  1  0.65701796  0.49799159  0.13210491  1
  In  In15  1  0.66977831  0.49839470  0.61521809  1
  In  In16  1  0.66054763  0.84598233  0.12189905  1
  In  In17  1  0.64825788  0.85066512  0.63061744  1
  In  In18  1  0.16161284  0.01689929  0.39658867  1
  In  In19  1  0.17552059  -0.00076386  0.87172842  1
  In  In20  1  0.15846338  0.32207104  0.37016945  1
  In  In21  1  0.14890691  0.32089619  0.85742581  1
  In  In22  1  0.18079563  0.66361803  0.37433193  1
  In  In23  1  0.17723099  0.67864253  0.87469772  1
  In  In24  1  0.48839497  0.01251487  0.40820782  1
  In  In25  1  0.49344327  0.00157600  0.87049835  1
  In  In26  1  0.49948369  0.33576678  0.37687735  1
  In  In27  1  0.48330747  0.33289552  0.86973511  1
  In  In28  1  0.49321132  0.66550057  0.38003005  1
  In  In29  1  0.51079959  0.67019323  0.86666285  1
  In  In30  1  0.84290828  0.00584394  0.37569080  1
  In  In31  1  0.84196210  0.01825791  0.84964234  1
  In  In32  1  0.83599286  0.32627121  0.38403230  1
  In  In33  1  0.84498201  0.31407070  0.86878413  1
  In  In34  1  0.81881980  0.66371330  0.37702209  1
  In  In35  1  0.83338982  0.67877375  0.86765716  1
  In  In36  1  0.00135997  0.16624158  0.38162696  1
  In  In37  1  0.00484235  0.17721297  0.86191249  1
  In  In38  1  -0.00472170  0.48640473  0.37230680  1
  In  In39  1  0.00666461  0.47860832  0.86990518  1
  In  In40  1  -0.00031391  0.85362259  0.37563260  1
  In  In41  1  0.01070651  0.84868380  0.86684588  1
  In  In42  1  0.32084282  0.16289717  0.38863280  1
  In  In43  1  0.33380763  0.16583756  0.87202014  1
  In  In44  1  0.34326251  0.50576490  0.37034539  1
  In  In45  1  0.33643593  0.49849903  0.86564217  1
  In  In46  1  0.34211533  0.83026198  0.38640101  1
  In  In47  1  0.31883619  0.85151001  0.87940276  1
  In  In48  1  0.64321212  0.19567643  0.41098103  1
  In  In49  1  0.66286049  0.15371941  0.86508237  1
  In  In50  1  0.69300524  0.46166222  0.41369494  1
  In  In51  1  0.65351456  0.50378232  0.86724915  1
  In  In52  1  0.65549364  0.82991150  0.38006490  1
  In  In53  1  0.65984832  0.83043097  0.86055000  1
  In  In54  1  0.16379783  0.00065195  0.12178168  1
  In  In55  1  0.16467729  -0.00176750  0.62760965  1
  In  In56  1  0.17574547  0.32598779  0.13104119  1
  In  In57  1  0.18430881  0.31972320  0.63800511  1
  In  In58  1  0.17304696  0.68302777  0.12647759  1
  In  In59  1  0.15866831  0.67630638  0.62346668  1
  In  In60  1  0.49874726  -0.00118374  0.11442688  1
  In  In61  1  0.49676719  0.00518695  0.61374864  1
  In  In62  1  0.50076973  0.32770909  0.13297985  1
  In  In63  1  0.49687123  0.31065207  0.60358056  1
  In  In64  1  0.49329011  0.66560517  0.12689092  1
  In  In65  1  0.50778028  0.67862896  0.62115944  1
  In  In66  1  0.83634836  0.01827785  0.12927261  1
  In  In67  1  0.81812242  0.02053803  0.64301078  1
  In  In68  1  0.84184144  0.32958402  0.14513586  1
  In  In69  1  0.83287125  0.33793343  0.61103100  1
  In  In70  1  0.82144150  0.66332288  0.12940811  1
  In  In71  1  0.82672072  0.64980500  0.62157663  1
  In  In72  1  0.33068893  0.00242760  0.26136255  1
  In  In73  1  0.33128645  0.67097895  0.75068569  1
  In  In74  1  0.83216164  0.16342155  -0.00212122  1
  In  In75  1  0.83552665  0.84871936  -0.01331149  1
  In  In76  1  0.66849244  0.00523452  0.26230566  1
  In  In77  1  0.17484462  0.50212050  -0.00463948  1
  In  In78  1  -0.00868572  0.66057254  0.74637017  1
  In  In79  1  0.49523515  0.50274588  0.00285857  1
  In  In80  1  0.66606910  0.32881876  0.73520360  1
  In  In81  1  0.83319922  0.83467520  0.50408636  1
  In  In82  1  0.16388026  0.49696983  0.49785839  1
  In  In83  1  0.00832702  0.66184680  0.24974520  1
  In  In84  1  0.65966568  0.65619215  0.25270789  1
  In  In85  1  0.82796234  0.50098995  0.01291430  1
  Cu  Cu86  1  0.50763373  0.49270289  0.25950136  1
  Cu  Cu87  1  0.49909593  0.49876640  0.74125347  1
  Cu  Cu88  1  0.32934866  0.66773683  0.50222214  1
  Cu  Cu89  1  0.17289385  0.84128959  0.25082085  1
  Cu  Cu90  1  0.17324918  0.15961956  0.74765040  1
  Cu  Cu91  1  0.00002847  0.00343797  0.50778904  1
  Cu  Cu92  1  0.49562717  0.16409297  0.73582288  1
  Cu  Cu93  1  0.16271737  0.16628875  0.25781714  1
  Cu  Cu94  1  0.65648002  0.32598419  0.00495255  1
  Cu  Cu95  1  0.00285762  0.32597921  -0.00316670  1
  Cu  Cu96  1  0.33606709  0.67593884  0.00225071  1
  Cu  Cu97  1  0.49558431  0.83567881  0.25869029  1
  Cu  Cu98  1  0.32931424  0.32963356  0.49866911  1
  Cu  Cu99  1  0.67143431  0.67672934  -0.01048434  1
  Cu  Cu100  1  0.00752857  0.00029665  -0.00306875  1
  Cu  Cu101  1  0.50521426  0.16857362  0.25819623  1
  Cu  Cu102  1  0.33424730  0.00475599  -0.00278624  1
  Cu  Cu103  1  0.00845821  0.32691264  0.50086985  1
  Cu  Cu104  1  0.65931653  0.66941609  0.50162310  1
  Cu  Cu105  1  0.32518962  0.32348434  -0.00402788  1
  Cu  Cu106  1  0.84113809  0.83632827  0.25239733  1
  Cu  Cu107  1  0.01174926  0.67135062  0.00183450  1
  Cu  Cu108  1  0.82504286  0.82528279  0.74124544  1
  Cu  Cu109  1  0.49576667  0.84318577  0.74301700  1
  Cu  Cu110  1  0.82510067  0.49003604  0.74338125  1
  Cu  Cu111  1  0.17457582  0.49570707  0.25456543  1
  Cu  Cu112  1  -0.00252851  0.66824261  0.50096403  1
  Cu  Cu113  1  0.65554713  -0.00615449  -0.01159512  1
  Cu  Cu114  1  0.83321305  0.17192422  0.26243672  1
  Se  Se115  1  0.08046878  0.08778626  0.05578329  1
  Se  Se116  1  0.08779380  0.08624739  0.55680149  1
  Se  Se117  1  0.08162212  0.41089549  0.05473318  1
  Se  Se118  1  0.08608651  0.40620944  0.56447434  1
  Se  Se119  1  0.09463566  0.75770361  0.05073090  1
  Se  Se120  1  0.08176557  0.75315457  0.54895883  1
  Se  Se121  1  0.41667884  0.08757652  0.05231633  1
  Se  Se122  1  0.43101815  0.10222770  0.54518869  1
  Se  Se123  1  0.40517297  0.40659594  0.05698712  1
  Se  Se124  1  0.41504016  0.41352050  0.54910576  1
  Se  Se125  1  0.42186805  0.75453843  0.05744434  1
  Se  Se126  1  0.41295647  0.75033964  0.55592857  1
  Se  Se127  1  0.73493788  0.07154456  0.05444039  1
  Se  Se128  1  0.76346270  0.07656475  0.55075618  1
  Se  Se129  1  0.74011396  0.40147390  0.06664303  1
  Se  Se130  1  0.75004490  0.42065611  0.54329504  1
  Se  Se131  1  0.74978085  0.75425845  0.05406011  1
  Se  Se132  1  0.73884062  0.74886303  0.56461413  1
  Se  Se133  1  0.24300765  0.24448878  0.05325445  1
  Se  Se134  1  0.24726040  0.24806465  0.55404234  1
  Se  Se135  1  0.26327153  0.58809126  0.06186764  1
  Se  Se136  1  0.25196106  0.58509742  0.56249851  1
  Se  Se137  1  0.25401503  0.92271410  0.05656902  1
  Se  Se138  1  0.23761523  0.91442878  0.55226682  1
  Se  Se139  1  0.57411869  0.24349179  0.05803866  1
  Se  Se140  1  0.60722305  0.26975576  0.53676092  1
  Se  Se141  1  0.59580168  0.59566382  0.05542587  1
  Se  Se142  1  0.57821981  0.58325641  0.55419377  1
  Se  Se143  1  0.57727678  0.91046866  0.04599145  1
  Se  Se144  1  0.57748240  0.91347627  0.54821712  1
  Se  Se145  1  0.91829785  0.25535057  0.06150198  1
  Se  Se146  1  0.92417960  0.24659962  0.55587227  1
  Se  Se147  1  0.92859155  0.59524653  0.06323266  1
  Se  Se148  1  0.91549068  0.58092687  0.54951551  1
  Se  Se149  1  0.92176001  0.92753426  0.06047490  1
  Se  Se150  1  0.91545269  0.92542020  0.56689639  1
  Se  Se151  1  0.09318978  0.24354671  0.44973611  1
  Se  Se152  1  0.08465736  0.24625327  0.94050002  1
  Se  Se153  1  0.07481155  0.58910200  0.43644385  1
  Se  Se154  1  0.07620646  0.58606833  0.93607182  1
  Se  Se155  1  0.08059448  0.91700720  0.45363350  1
  Se  Se156  1  0.08996975  0.91684592  0.94416164  1
  Se  Se157  1  0.41567448  0.24906497  0.44491530  1
  Se  Se158  1  0.41744095  0.24785265  0.94435290  1
  Se  Se159  1  0.41090562  0.58211842  0.45002269  1
  Se  Se160  1  0.40952513  0.59388136  0.93812664  1
  Se  Se161  1  0.41582550  0.90887357  0.46146832  1
  Se  Se162  1  0.41675083  0.91938949  0.94470436  1
  Se  Se163  1  0.76983551  0.23683024  0.45677917  1
  Se  Se164  1  0.73992368  0.25515995  0.93907046  1
  Se  Se165  1  0.75132763  0.58854138  0.45534042  1
  Se  Se166  1  0.74853086  0.58546887  0.93765927  1
  Se  Se167  1  0.74744199  0.91928532  0.43848694  1
  Se  Se168  1  0.74598457  0.93305579  0.92427834  1
  Se  Se169  1  0.27272123  0.06112613  0.46017447  1
  Se  Se170  1  0.25023939  0.08611216  0.94310743  1
  Se  Se171  1  0.25353929  0.41114327  0.43547769  1
  Se  Se172  1  0.25422178  0.40690320  0.93231972  1
  Se  Se173  1  0.24562103  0.74961166  0.44883742  1
  Se  Se174  1  0.24983688  0.75642976  0.94998043  1
  Se  Se175  1  0.60168696  0.07065954  0.46082565  1
  Se  Se176  1  0.57791624  0.08681385  0.93988061  1
  Se  Se177  1  0.55946592  0.43104955  0.45007182  1
  Se  Se178  1  0.58506955  0.41058331  0.94194651  1
  Se  Se179  1  0.57420979  0.75100654  0.44952670  1
  Se  Se180  1  0.58311295  0.75578660  0.93908688  1
  Se  Se181  1  0.91793473  0.08347346  0.45111923  1
  Se  Se182  1  0.92403630  0.07819776  0.93600509  1
  Se  Se183  1  0.92413791  0.41359363  0.45111587  1
  Se  Se184  1  0.91385630  0.40911362  0.94514244  1
  Se  Se185  1  0.92113537  0.74726035  0.43646847  1
  Se  Se186  1  0.92908710  0.74702750  0.93917170  1
  Se  Se187  1  0.25448631  0.24265313  0.30887363  1
  Se  Se188  1  0.25348463  0.24871544  0.80095834  1
  Se  Se189  1  0.25655331  0.58537679  0.30052807  1
  Se  Se190  1  0.23585593  0.57690259  0.80466339  1
  Se  Se191  1  0.24277784  0.91471827  0.32247784  1
  Se  Se192  1  0.24569108  0.91283195  0.79779900  1
  Se  Se193  1  0.58883591  0.24737577  0.31490724  1
  Se  Se194  1  0.57229552  0.24664645  0.80095747  1
  Se  Se195  1  0.58478825  0.57153715  0.32280036  1
  Se  Se196  1  0.58112676  0.58415397  0.79285692  1
  Se  Se197  1  0.56835457  0.92094561  0.31796425  1
  Se  Se198  1  0.58041760  0.92432224  0.79951702  1
  Se  Se199  1  0.92393587  0.25238681  0.31104960  1
  Se  Se200  1  0.91045216  0.23907191  0.79058269  1
  Se  Se201  1  0.90983669  0.58266805  0.30948918  1
  Se  Se202  1  0.90470154  0.56686653  0.81007017  1
  Se  Se203  1  0.92030131  0.92645336  0.30002444  1
  Se  Se204  1  0.90777015  0.90404185  0.79994204  1
  Se  Se205  1  0.08634803  0.07998132  0.31356796  1
  Se  Se206  1  0.08821757  0.08222755  0.80449837  1
  Se  Se207  1  0.08559980  0.41556341  0.30334380  1
  Se  Se208  1  0.07893377  0.41375864  0.78979784  1
  Se  Se209  1  0.08930770  0.75910129  0.31103667  1
  Se  Se210  1  0.08739559  0.75118705  0.80139135  1
  Se  Se211  1  0.42752498  0.08768920  0.31925402  1
  Se  Se212  1  0.41664507  0.08731902  0.79931787  1
  Se  Se213  1  0.41407618  0.41102495  0.30320649  1
  Se  Se214  1  0.41531296  0.41702349  0.79440470  1
  Se  Se215  1  0.41310595  0.74943840  0.30881876  1
  Se  Se216  1  0.42067585  0.76360700  0.80946970  1
  Se  Se217  1  0.74785500  0.09939490  0.32314006  1
  Se  Se218  1  0.74936829  0.09548364  0.78890831  1
  Se  Se219  1  0.75133535  0.41511043  0.32038455  1
  Se  Se220  1  0.74873403  0.41209342  0.81047338  1
  Se  Se221  1  0.75148835  0.76020547  0.30487256  1
  Se  Se222  1  0.74328236  0.74130546  0.79539734  1
  Se  Se223  1  0.24575286  0.08884350  0.19515552  1
  Se  Se224  1  0.25684839  0.07985755  0.69227380  1
  Se  Se225  1  0.25638800  0.41324412  0.19762044  1
  Se  Se226  1  0.24832151  0.42098946  0.70236285  1
  Se  Se227  1  0.25610097  0.75535991  0.20031699  1
  Se  Se228  1  0.24716199  0.76072757  0.68805445  1
  Se  Se229  1  0.57532905  0.08305720  0.19333184  1
  Se  Se230  1  0.58398368  0.08982872  0.68069111  1
  Se  Se231  1  0.58604585  0.40939324  0.20134430  1
  Se  Se232  1  0.57171932  0.41576495  0.67834596  1
  Se  Se233  1  0.57838626  0.76116846  0.19523563  1
  Se  Se234  1  0.58183637  0.75254919  0.69948356  1
  Se  Se235  1  0.91453181  0.08899721  0.20522553  1
  Se  Se236  1  0.94182502  0.05709116  0.69491058  1
  Se  Se237  1  0.91826308  0.42083090  0.20849884  1
  Se  Se238  1  0.91040650  0.41044069  0.69110697  1
  Se  Se239  1  0.91510830  0.75484862  0.18858979  1
  Se  Se240  1  0.90934832  0.75237417  0.68062197  1
  Se  Se241  1  0.08487000  0.25010878  0.19845865  1
  Se  Se242  1  0.08606741  0.24432136  0.69826389  1
  Se  Se243  1  0.09894434  0.57321947  0.18614029  1
  Se  Se244  1  0.08604288  0.57544851  0.68767563  1
  Se  Se245  1  0.08715371  0.92251115  0.19871055  1
  Se  Se246  1  0.08461249  0.91761115  0.70127506  1
  Se  Se247  1  0.41768100  0.24222392  0.19968690  1
  Se  Se248  1  0.41544834  0.25218395  0.68495920  1
  Se  Se249  1  0.42937154  0.58169961  0.20406294  1
  Se  Se250  1  0.41732301  0.58326324  0.68489875  1
  Se  Se251  1  0.42247140  0.91849680  0.19493949  1
  Se  Se252  1  0.41628027  0.92686872  0.68949009  1
  Se  Se253  1  0.74763940  0.24536600  0.20227475  1
  Se  Se254  1  0.75178783  0.24089945  0.67497615  1
  Se  Se255  1  0.76034414  0.56583252  0.19996271  1
  Se  Se256  1  0.74254262  0.57661087  0.69446988  1
  Se  Se257  1  0.75637500  0.91515359  0.19331791  1
  Se  Se258  1  0.74160427  0.91899360  0.70002243  1
