# generated using pymatgen
data_In86Cu29Se144
_symmetry_space_group_name_H-M   'P 1'
_cell_length_a   17.59281414
_cell_length_b   17.58839681
_cell_length_c   23.45508434
_cell_angle_alpha   89.97816726
_cell_angle_beta   90.02207071
_cell_angle_gamma   90.00178485
_symmetry_Int_Tables_number   1
_chemical_formula_structural   In86Cu29Se144
_chemical_formula_sum   'In86 Cu29 Se144'
_cell_volume   7257.69151073
_cell_formula_units_Z   1
loop_
 _symmetry_equiv_pos_site_id
 _symmetry_equiv_pos_as_xyz
  1  'x, y, z'
loop_
 _atom_site_type_symbol
 _atom_site_label
 _atom_site_symmetry_multiplicity
 _atom_site_fract_x
 _atom_site_fract_y
 _atom_site_fract_z
 _atom_site_occupancy
  In  In0  1  -0.00201591  0.16610036  0.11156429  1
  In  In1  1  0.00074938  0.16102910  0.63962044  1
  In  In2  1  0.00274125  0.50117777  0.12500099  1
  In  In3  1  -0.00549969  0.51186977  0.63499232  1
  In  In4  1  -0.00992047  0.82669182  0.12090028  1
  In  In5  1  -0.00938437  0.82885317  0.62491408  1
  In  In6  1  0.32575928  0.16011465  0.11178875  1
  In  In7  1  0.33807741  0.15944682  0.62534358  1
  In  In8  1  0.32953138  0.49386845  0.11516869  1
  In  In9  1  0.34295772  0.49491062  0.62272671  1
  In  In10  1  0.33647968  0.84732095  0.12745789  1
  In  In11  1  0.33161666  0.82964920  0.60925126  1
  In  In12  1  0.66892498  0.16521930  0.12570641  1
  In  In13  1  0.66417854  0.17599146  0.62560557  1
  In  In14  1  0.65851586  0.51181236  0.13606584  1
  In  In15  1  0.66306163  0.49318745  0.61783397  1
  In  In16  1  0.67180957  0.82926149  0.13437322  1
  In  In17  1  0.66959180  0.83569209  0.61268000  1
  In  In18  1  0.16732085  -0.01707980  0.37283285  1
  In  In19  1  0.15393825  0.01118125  0.88212081  1
  In  In20  1  0.16539323  0.32539069  0.37389248  1
  In  In21  1  0.16012951  0.34253064  0.88373123  1
  In  In22  1  0.17057017  0.68415270  0.37394061  1
  In  In23  1  0.15937540  0.67214278  0.88380855  1
  In  In24  1  0.50053017  0.00121535  0.37240284  1
  In  In25  1  0.51324947  0.01937994  0.87518346  1
  In  In26  1  0.51649203  0.32678814  0.37850312  1
  In  In27  1  0.52295419  0.31602089  0.88913060  1
  In  In28  1  0.50494817  0.65506323  0.38764955  1
  In  In29  1  0.48870141  0.66546147  0.87760075  1
  In  In30  1  0.82335695  0.00276372  0.37580954  1
  In  In31  1  0.83843116  -0.01428711  0.88895297  1
  In  In32  1  0.82275417  0.34971015  0.37555917  1
  In  In33  1  0.81915633  0.32422974  0.86538056  1
  In  In34  1  0.83722838  0.66595497  0.36869577  1
  In  In35  1  0.84582928  0.67193156  0.87268703  1
  In  In36  1  -0.00348468  0.16267719  0.37444316  1
  In  In37  1  -0.00606896  0.16414586  0.87352390  1
  In  In38  1  -0.02153055  0.50711062  0.37948844  1
  In  In39  1  0.00609080  0.50985036  0.86941984  1
  In  In40  1  0.01660689  0.82622603  0.38485889  1
  In  In41  1  -0.00326526  0.83662120  0.87459664  1
  In  In42  1  0.35164287  0.17144718  0.37120473  1
  In  In43  1  0.34117010  0.17041570  0.88637136  1
  In  In44  1  0.34526186  0.51366106  0.37645643  1
  In  In45  1  0.34497601  0.48114199  0.89549214  1
  In  In46  1  0.32269738  0.83899537  0.38130881  1
  In  In47  1  0.32763752  0.82165166  0.87553884  1
  In  In48  1  0.65850760  0.15362511  0.36346185  1
  In  In49  1  0.65896769  0.16976810  0.88618368  1
  In  In50  1  0.66923176  0.50145521  0.36915791  1
  In  In51  1  0.67660227  0.48778794  0.87608878  1
  In  In52  1  0.66894908  0.83322457  0.37518975  1
  In  In53  1  0.67828463  0.84663188  0.87729656  1
  In  In54  1  0.17405041  0.00507689  0.11505870  1
  In  In55  1  0.15806933  -0.01310458  0.62605250  1
  In  In56  1  0.16710915  0.33107177  0.10623672  1
  In  In57  1  0.16280805  0.32589309  0.63299442  1
  In  In58  1  0.15558600  0.65899656  0.12111701  1
  In  In59  1  0.14981700  0.66791696  0.62834896  1
  In  In60  1  0.49434283  0.00451607  0.13070205  1
  In  In61  1  0.50365917  0.00250567  0.61442978  1
  In  In62  1  0.50612742  0.34361358  0.11617176  1
  In  In63  1  0.50827789  0.33663054  0.61924570  1
  In  In64  1  0.51301470  0.66599262  0.13123298  1
  In  In65  1  0.50135611  0.66955458  0.60740609  1
  In  In66  1  0.82051662  -0.00930833  0.11216071  1
  In  In67  1  0.84386034  -0.01172721  0.62818063  1
  In  In68  1  0.83092351  0.32305640  0.12385341  1
  In  In69  1  0.82391993  0.33961887  0.63204196  1
  In  In70  1  0.81860304  0.67444934  0.13988267  1
  In  In71  1  0.84725677  0.67624571  0.61387661  1
  In  In72  1  0.33772696  0.67325855  0.25528501  1
  In  In73  1  -0.00187731  -0.00178768  0.24721359  1
  In  In74  1  0.17166822  0.16202557  0.51202702  1
  In  In75  1  0.50126552  0.83210613  0.00259376  1
  In  In76  1  0.17362233  0.50461736  0.50583974  1
  In  In77  1  0.67197242  0.66231291  0.74731098  1
  In  In78  1  0.67175839  0.00465013  0.74575322  1
  In  In79  1  0.33328896  0.33362903  0.75246752  1
  In  In80  1  0.33092159  0.00098972  0.75791074  1
  In  In81  1  -0.00430462  0.33513857  0.24130799  1
  In  In82  1  0.33749944  0.33513737  0.23459326  1
  In  In83  1  0.83563583  0.50104480  -0.00106212  1
  In  In84  1  0.83021774  0.15994545  0.50310353  1
  In  In85  1  0.32339501  0.65970752  0.74744679  1
  Cu  Cu86  1  0.17506802  0.16026970  0.23865606  1
  Cu  Cu87  1  0.00337580  -0.00229633  -0.00261024  1
  Cu  Cu88  1  0.82888357  0.16837539  0.24601063  1
  Cu  Cu89  1  0.16511370  0.50374683  0.76264210  1
  Cu  Cu90  1  0.67687959  0.66295442  0.49387124  1
  Cu  Cu91  1  0.83572079  0.49653970  0.74822415  1
  Cu  Cu92  1  0.66859762  0.33382548  0.49799090  1
  Cu  Cu93  1  0.15305511  0.50308796  0.24860326  1
  Cu  Cu94  1  0.50081400  0.49813739  0.25170518  1
  Cu  Cu95  1  0.66253046  -0.00244329  0.49319348  1
  Cu  Cu96  1  0.66508486  0.33483824  0.00165920  1
  Cu  Cu97  1  0.83086358  0.16222326  0.75447382  1
  Cu  Cu98  1  0.50140844  0.83899964  0.73970623  1
  Cu  Cu99  1  0.15132870  0.83105289  0.75173008  1
  Cu  Cu100  1  0.50459187  0.16293495  0.24687695  1
  Cu  Cu101  1  0.66645610  0.66846798  0.00978158  1
  Cu  Cu102  1  0.33727487  -0.00753651  -0.00137798  1
  Cu  Cu103  1  0.50733032  0.49397445  0.74762753  1
  Cu  Cu104  1  -0.00502897  0.33331708  0.50565770  1
  Cu  Cu105  1  0.83484210  0.83560298  0.25199890  1
  Cu  Cu106  1  0.15947525  0.16653394  0.75704574  1
  Cu  Cu107  1  -0.00164170  0.66549595  0.50112640  1
  Cu  Cu108  1  0.32884876  0.66353633  0.00128703  1
  Cu  Cu109  1  0.33478963  0.00656008  0.49634703  1
  Cu  Cu110  1  0.34631452  0.34148939  0.49678760  1
  Cu  Cu111  1  0.16707763  0.83493554  0.25162572  1
  Cu  Cu112  1  0.50704900  0.83624691  0.25483632  1
  Cu  Cu113  1  -0.00226871  0.33331382  -0.00745645  1
  Cu  Cu114  1  -0.00277356  0.67260656  -0.00000501  1
  Se  Se115  1  0.08683393  0.08417012  0.04800809  1
  Se  Se116  1  0.06949817  0.07613418  0.56031476  1
  Se  Se117  1  0.07345573  0.41854465  0.05040012  1
  Se  Se118  1  0.08047893  0.41187229  0.56283579  1
  Se  Se119  1  0.08348423  0.75296191  0.05411739  1
  Se  Se120  1  0.08044134  0.75042501  0.55428789  1
  Se  Se121  1  0.41994098  0.07669977  0.05143175  1
  Se  Se122  1  0.41832947  0.08942167  0.54985437  1
  Se  Se123  1  0.40820780  0.40822353  0.04998756  1
  Se  Se124  1  0.42803990  0.42392453  0.55082901  1
  Se  Se125  1  0.41079679  0.74130214  0.06420460  1
  Se  Se126  1  0.42447429  0.75950028  0.54437158  1
  Se  Se127  1  0.77172378  0.10760657  0.05849966  1
  Se  Se128  1  0.73913236  0.07053187  0.56335608  1
  Se  Se129  1  0.74283247  0.41854517  0.06201210  1
  Se  Se130  1  0.75439834  0.41371045  0.55160806  1
  Se  Se131  1  0.75131770  0.75182477  0.05950561  1
  Se  Se132  1  0.75432644  0.75038716  0.54854925  1
  Se  Se133  1  0.24791735  0.24441406  0.04371045  1
  Se  Se134  1  0.26394617  0.26542096  0.55975612  1
  Se  Se135  1  0.24352907  0.58127620  0.05346723  1
  Se  Se136  1  0.25844872  0.59624010  0.56729065  1
  Se  Se137  1  0.25190823  0.91069213  0.05048062  1
  Se  Se138  1  0.25033953  0.92727559  0.55256570  1
  Se  Se139  1  0.58533518  0.24831344  0.05545297  1
  Se  Se140  1  0.58489674  0.24845734  0.54949069  1
  Se  Se141  1  0.58121981  0.58175815  0.05599817  1
  Se  Se142  1  0.59023988  0.58259004  0.54833098  1
  Se  Se143  1  0.58715128  0.91814734  0.06560581  1
  Se  Se144  1  0.57896541  0.91342315  0.54719629  1
  Se  Se145  1  0.91397587  0.25450139  0.04851329  1
  Se  Se146  1  0.92002807  0.24866191  0.56546972  1
  Se  Se147  1  0.91541950  0.59521104  0.06195356  1
  Se  Se148  1  0.91976718  0.57492365  0.55197407  1
  Se  Se149  1  0.91797198  0.91608095  0.05113006  1
  Se  Se150  1  0.91100215  0.90926670  0.55245932  1
  Se  Se151  1  0.07605387  0.25197128  0.44814380  1
  Se  Se152  1  0.07997652  0.24558493  0.94252643  1
  Se  Se153  1  0.08245674  0.58641978  0.44037759  1
  Se  Se154  1  0.07773918  0.58315041  0.94929358  1
  Se  Se155  1  0.08758133  0.92141143  0.45014416  1
  Se  Se156  1  0.08576221  0.91124967  0.94565659  1
  Se  Se157  1  0.42379733  0.25141682  0.44557417  1
  Se  Se158  1  0.41185276  0.26602432  0.94952639  1
  Se  Se159  1  0.40790411  0.58936884  0.45537814  1
  Se  Se160  1  0.42042631  0.58419431  0.95285529  1
  Se  Se161  1  0.41535217  0.92185783  0.44236441  1
  Se  Se162  1  0.41688172  0.91892670  0.93304714  1
  Se  Se163  1  0.74423944  0.24676462  0.43750289  1
  Se  Se164  1  0.75118531  0.25456012  0.94796913  1
  Se  Se165  1  0.75675377  0.57990398  0.43827854  1
  Se  Se166  1  0.74459096  0.59502240  0.94091217  1
  Se  Se167  1  0.75200958  0.91535330  0.44661099  1
  Se  Se168  1  0.73730523  0.92564489  0.95609900  1
  Se  Se169  1  0.25394673  0.08717248  0.43579289  1
  Se  Se170  1  0.25585295  0.07823470  0.94500248  1
  Se  Se171  1  0.25603419  0.41102362  0.43830436  1
  Se  Se172  1  0.23945802  0.42096532  0.95472905  1
  Se  Se173  1  0.25186665  0.74742459  0.44976603  1
  Se  Se174  1  0.24813136  0.75154149  0.95125368  1
  Se  Se175  1  0.58166789  0.08626016  0.44331118  1
  Se  Se176  1  0.58563934  0.08132281  0.95607426  1
  Se  Se177  1  0.58828208  0.42120291  0.44376051  1
  Se  Se178  1  0.58668290  0.42461326  0.94909439  1
  Se  Se179  1  0.58988439  0.74841275  0.44586477  1
  Se  Se180  1  0.59186778  0.74364886  0.93919218  1
  Se  Se181  1  0.92534408  0.07220467  0.44473115  1
  Se  Se182  1  0.91767977  0.08314107  0.94768538  1
  Se  Se183  1  0.91336409  0.41286120  0.44948913  1
  Se  Se184  1  0.91654098  0.41282719  0.93199149  1
  Se  Se185  1  0.91869032  0.74625170  0.44218661  1
  Se  Se186  1  0.91332922  0.75553897  0.94744875  1
  Se  Se187  1  0.24809031  0.24579882  0.30021876  1
  Se  Se188  1  0.24429521  0.24434994  0.81416041  1
  Se  Se189  1  0.24138281  0.57638194  0.30750509  1
  Se  Se190  1  0.25315534  0.57431100  0.82220536  1
  Se  Se191  1  0.25547645  0.91683563  0.29997748  1
  Se  Se192  1  0.23695271  0.90806111  0.81116681  1
  Se  Se193  1  0.58471015  0.25048327  0.29908210  1
  Se  Se194  1  0.59035141  0.24794208  0.80778071  1
  Se  Se195  1  0.57709191  0.58625562  0.30617162  1
  Se  Se196  1  0.57873207  0.57878654  0.81104130  1
  Se  Se197  1  0.59029089  0.92157448  0.30625619  1
  Se  Se198  1  0.57582617  0.91328243  0.80609889  1
  Se  Se199  1  0.90955467  0.24626128  0.30819011  1
  Se  Se200  1  0.91560983  0.24976933  0.80263064  1
  Se  Se201  1  0.91996020  0.58391845  0.29915574  1
  Se  Se202  1  0.91481743  0.58368576  0.80110978  1
  Se  Se203  1  0.91627548  0.91164395  0.31434189  1
  Se  Se204  1  0.91017973  0.91796454  0.80846465  1
  Se  Se205  1  0.09299401  0.09046455  0.30512715  1
  Se  Se206  1  0.07558103  0.07803381  0.80344838  1
  Se  Se207  1  0.08224829  0.41862242  0.31172601  1
  Se  Se208  1  0.08086785  0.41260290  0.80582719  1
  Se  Se209  1  0.08160765  0.75166988  0.30160001  1
  Se  Se210  1  0.07812398  0.74405613  0.80893619  1
  Se  Se211  1  0.41800865  0.08271854  0.29972843  1
  Se  Se212  1  0.42399629  0.09855171  0.80551500  1
  Se  Se213  1  0.41842999  0.41662252  0.30886378  1
  Se  Se214  1  0.42523094  0.42135837  0.81097559  1
  Se  Se215  1  0.42679307  0.75810681  0.31753026  1
  Se  Se216  1  0.42221812  0.75626584  0.79944489  1
  Se  Se217  1  0.75172314  0.07844616  0.29803976  1
  Se  Se218  1  0.75310446  0.08479795  0.81768679  1
  Se  Se219  1  0.74362336  0.41364324  0.29867919  1
  Se  Se220  1  0.74544475  0.41538987  0.79617860  1
  Se  Se221  1  0.75000266  0.75186475  0.30403444  1
  Se  Se222  1  0.75519880  0.75805651  0.80632107  1
  Se  Se223  1  0.25880798  0.07621830  0.18954417  1
  Se  Se224  1  0.23884838  0.08937853  0.69361935  1
  Se  Se225  1  0.23159775  0.42279595  0.18799837  1
  Se  Se226  1  0.24242426  0.43006956  0.69446513  1
  Se  Se227  1  0.24561137  0.75333008  0.18944822  1
  Se  Se228  1  0.24286935  0.76277424  0.69129457  1
  Se  Se229  1  0.58934720  0.07903767  0.19558633  1
  Se  Se230  1  0.57214456  0.09018545  0.69179846  1
  Se  Se231  1  0.57969022  0.41374073  0.19633527  1
  Se  Se232  1  0.58933662  0.41228513  0.69342798  1
  Se  Se233  1  0.58673878  0.74819332  0.20332076  1
  Se  Se234  1  0.57990953  0.75250030  0.68573341  1
  Se  Se235  1  0.91333671  0.09124286  0.18749384  1
  Se  Se236  1  0.91127277  0.07683543  0.70102230  1
  Se  Se237  1  0.90190887  0.42664596  0.18912420  1
  Se  Se238  1  0.92084944  0.41244690  0.69670830  1
  Se  Se239  1  0.91830897  0.75225582  0.19925161  1
  Se  Se240  1  0.92424370  0.73490232  0.69518005  1
  Se  Se241  1  0.09105239  0.24362094  0.18519427  1
  Se  Se242  1  0.07876488  0.25311316  0.70438680  1
  Se  Se243  1  0.07304940  0.58943358  0.19755479  1
  Se  Se244  1  0.08443516  0.58503382  0.70499888  1
  Se  Se245  1  0.09045273  0.91291650  0.18609166  1
  Se  Se246  1  0.07212630  0.91488969  0.69655243  1
  Se  Se247  1  0.42526462  0.23864217  0.18166471  1
  Se  Se248  1  0.42280676  0.24752862  0.69019774  1
  Se  Se249  1  0.41547499  0.57466651  0.19171249  1
  Se  Se250  1  0.43036568  0.58111845  0.69096912  1
  Se  Se251  1  0.41987749  0.91580124  0.20189177  1
  Se  Se252  1  0.41412883  0.91674748  0.68578577  1
  Se  Se253  1  0.74479575  0.25457714  0.19744263  1
  Se  Se254  1  0.75019697  0.24542343  0.69825218  1
  Se  Se255  1  0.74517093  0.58380026  0.20534341  1
  Se  Se256  1  0.75885417  0.57617689  0.68405133  1
  Se  Se257  1  0.75537473  0.92092668  0.19690238  1
  Se  Se258  1  0.75374495  0.90117091  0.69372030  1
