# generated using pymatgen
data_In86Cu29Se144
_symmetry_space_group_name_H-M   'P 1'
_cell_length_a   17.58775934
_cell_length_b   17.58747983
_cell_length_c   23.44985344
_cell_angle_alpha   90.00456363
_cell_angle_beta   90.00393863
_cell_angle_gamma   89.99496402
_symmetry_Int_Tables_number   1
_chemical_formula_structural   In86Cu29Se144
_chemical_formula_sum   'In86 Cu29 Se144'
_cell_volume   7253.61089888
_cell_formula_units_Z   1
loop_
 _symmetry_equiv_pos_site_id
 _symmetry_equiv_pos_as_xyz
  1  'x, y, z'
loop_
 _atom_site_type_symbol
 _atom_site_label
 _atom_site_symmetry_multiplicity
 _atom_site_fract_x
 _atom_site_fract_y
 _atom_site_fract_z
 _atom_site_occupancy
  In  In0  1  -0.00302911  0.17832896  0.12435563  1
  In  In1  1  -0.00540355  0.17582815  0.63599944  1
  In  In2  1  -0.00981118  0.49345066  0.13150647  1
  In  In3  1  -0.01646589  0.50733872  0.63005634  1
  In  In4  1  0.00408997  0.83353627  0.11112788  1
  In  In5  1  0.01191146  0.82165162  0.63936591  1
  In  In6  1  0.33566882  0.15804386  0.13101846  1
  In  In7  1  0.33729867  0.14894174  0.62155398  1
  In  In8  1  0.33039771  0.49803408  0.13777463  1
  In  In9  1  0.34340236  0.51092595  0.62609363  1
  In  In10  1  0.33481754  0.83369932  0.12063043  1
  In  In11  1  0.31980145  0.84443948  0.64365897  1
  In  In12  1  0.65268992  0.15598862  0.11713028  1
  In  In13  1  0.68431843  0.18494238  0.60127305  1
  In  In14  1  0.68501424  0.50890896  0.13414761  1
  In  In15  1  0.67197677  0.49211664  0.62648941  1
  In  In16  1  0.66529272  0.83584157  0.12509625  1
  In  In17  1  0.65862258  0.82604281  0.62876745  1
  In  In18  1  0.17040385  -0.01312073  0.37946087  1
  In  In19  1  0.15919140  -0.01826570  0.85992446  1
  In  In20  1  0.16799913  0.33829926  0.36128750  1
  In  In21  1  0.16448387  0.34312001  0.87458476  1
  In  In22  1  0.18006240  0.66623327  0.37501903  1
  In  In23  1  0.18889097  0.69558032  0.84888184  1
  In  In24  1  0.50055498  0.00077106  0.36690952  1
  In  In25  1  0.49258314  0.00296623  0.87829295  1
  In  In26  1  0.49240134  0.34021611  0.37351657  1
  In  In27  1  0.50081087  0.31431633  0.87726900  1
  In  In28  1  0.49903074  0.66914696  0.36872545  1
  In  In29  1  0.51515274  0.67283419  0.87294845  1
  In  In30  1  0.83264217  0.01561705  0.37918794  1
  In  In31  1  0.83923318  -0.00690037  0.88196713  1
  In  In32  1  0.83275638  0.32876862  0.38153772  1
  In  In33  1  0.82720018  0.32773669  0.87103614  1
  In  In34  1  0.81731490  0.66380739  0.37810027  1
  In  In35  1  0.84378773  0.67470572  0.86609308  1
  In  In36  1  -0.01298583  0.17360142  0.37888323  1
  In  In37  1  -0.00650208  0.15554842  0.86800897  1
  In  In38  1  -0.00218033  0.48746728  0.37412172  1
  In  In39  1  0.00090619  0.50294584  0.86593754  1
  In  In40  1  0.00524520  0.84832001  0.38317390  1
  In  In41  1  0.00235767  0.83161961  0.87260518  1
  In  In42  1  0.33650283  0.16808497  0.36943105  1
  In  In43  1  0.35269513  0.15923534  0.88019510  1
  In  In44  1  0.33209532  0.50726547  0.35844735  1
  In  In45  1  0.32083993  0.50062590  0.87838950  1
  In  In46  1  0.33120860  0.82878104  0.36909903  1
  In  In47  1  0.33737065  0.83782363  0.87581719  1
  In  In48  1  0.67282260  0.16317576  0.37878181  1
  In  In49  1  0.65889466  0.16880726  0.87761319  1
  In  In50  1  0.66862272  0.50865527  0.38141912  1
  In  In51  1  0.67591784  0.50154786  0.86784757  1
  In  In52  1  0.65587693  0.82750241  0.36709376  1
  In  In53  1  0.67713143  0.82626828  0.88271879  1
  In  In54  1  0.17892454  -0.00503335  0.12419221  1
  In  In55  1  0.17769485  -0.01822062  0.64449679  1
  In  In56  1  0.16608351  0.33150557  0.13850953  1
  In  In57  1  0.16096030  0.32182897  0.62660968  1
  In  In58  1  0.16322485  0.68219434  0.12021330  1
  In  In59  1  0.16048928  0.67829108  0.63536089  1
  In  In60  1  0.49744109  -0.00150219  0.12275801  1
  In  In61  1  0.48936636  0.00579854  0.62314086  1
  In  In62  1  0.49530301  0.31881891  0.12112425  1
  In  In63  1  0.52145065  0.33084175  0.61960618  1
  In  In64  1  0.49170745  0.67624155  0.12768775  1
  In  In65  1  0.49669879  0.66514162  0.63517016  1
  In  In66  1  0.82300897  -0.00962270  0.11657735  1
  In  In67  1  0.83266085  0.01537622  0.62662446  1
  In  In68  1  0.84203029  0.33384296  0.12607985  1
  In  In69  1  0.83065258  0.33397510  0.62259796  1
  In  In70  1  0.82600630  0.66814526  0.12723842  1
  In  In71  1  0.83081728  0.66100270  0.62645945  1
  In  In72  1  0.33401056  0.33311939  0.75259444  1
  In  In73  1  0.83759460  0.83585602  0.50874866  1
  In  In74  1  0.00359521  0.66527295  0.24854792  1
  In  In75  1  0.49765586  0.83209893  0.49710994  1
  In  In76  1  0.16467093  0.50048116  0.49431427  1
  In  In77  1  0.66232648  0.00314816  0.74621071  1
  In  In78  1  -0.00119899  0.00714367  0.25455890  1
  In  In79  1  0.50624603  0.49888882  0.49491936  1
  In  In80  1  0.16335357  0.50445335  -0.00046026  1
  In  In81  1  0.16219765  0.16179983  0.50141243  1
  In  In82  1  0.50080154  0.50197779  0.00870372  1
  In  In83  1  0.66568642  0.33527609  0.25149020  1
  In  In84  1  0.16910200  0.16033839  0.00241712  1
  In  In85  1  0.83568611  0.50478437  0.00639339  1
  Cu  Cu86  1  0.66753849  0.00074941  0.49385309  1
  Cu  Cu87  1  0.16652097  0.16649507  0.24820419  1
  Cu  Cu88  1  0.50350879  0.50062899  0.25017375  1
  Cu  Cu89  1  0.66263348  0.32860419  -0.00445437  1
  Cu  Cu90  1  0.50409405  0.16665738  0.74792613  1
  Cu  Cu91  1  0.82995054  0.16964403  0.25284886  1
  Cu  Cu92  1  -0.00070781  0.66968397  0.50945412  1
  Cu  Cu93  1  0.16026324  0.49987149  0.74803259  1
  Cu  Cu94  1  0.00513615  0.67238994  -0.01159505  1
  Cu  Cu95  1  -0.00627884  0.33365464  0.50294204  1
  Cu  Cu96  1  0.82912655  0.49172933  0.74637555  1
  Cu  Cu97  1  0.16796661  0.16521088  0.75050541  1
  Cu  Cu98  1  0.33925255  0.32977461  0.49340719  1
  Cu  Cu99  1  0.49774896  0.83477860  0.24497315  1
  Cu  Cu100  1  0.50308971  0.50009179  0.75116716  1
  Cu  Cu101  1  0.01054125  0.00238989  0.50782498  1
  Cu  Cu102  1  0.33307328  -0.00505087  0.00014296  1
  Cu  Cu103  1  0.17283645  0.83368816  0.24810071  1
  Cu  Cu104  1  0.33076252  0.67611334  0.49991416  1
  Cu  Cu105  1  -0.00395288  0.32905335  -0.00020958  1
  Cu  Cu106  1  0.82466134  0.83445449  0.24849546  1
  Cu  Cu107  1  0.33432425  0.67379669  -0.00301799  1
  Cu  Cu108  1  0.67150720  0.67743115  0.00250508  1
  Cu  Cu109  1  0.49580078  0.16162929  0.24574271  1
  Cu  Cu110  1  0.83475829  0.83200545  0.75627686  1
  Cu  Cu111  1  0.83036125  0.17104014  0.74870106  1
  Cu  Cu112  1  0.50035408  0.83062766  0.75326496  1
  Cu  Cu113  1  0.66223708  0.00149495  -0.00042959  1
  Cu  Cu114  1  -0.00309387  0.00099152  -0.00794662  1
  Se  Se115  1  0.07355789  0.07310897  0.06213730  1
  Se  Se116  1  0.08422258  0.08012784  0.57401785  1
  Se  Se117  1  0.07591913  0.40908470  0.05984848  1
  Se  Se118  1  0.07800423  0.41368996  0.56060145  1
  Se  Se119  1  0.08967432  0.75529170  0.04198125  1
  Se  Se120  1  0.08554308  0.75295359  0.55754281  1
  Se  Se121  1  0.41170445  0.08223772  0.05459853  1
  Se  Se122  1  0.41983533  0.08334674  0.54647878  1
  Se  Se123  1  0.40491722  0.41240205  0.06135917  1
  Se  Se124  1  0.41226508  0.41141997  0.55788646  1
  Se  Se125  1  0.42068464  0.75364188  0.05026430  1
  Se  Se126  1  0.41147927  0.74776507  0.56383224  1
  Se  Se127  1  0.74852924  0.08476044  0.05130775  1
  Se  Se128  1  0.75744972  0.07964266  0.54489174  1
  Se  Se129  1  0.73970929  0.40900889  0.05804086  1
  Se  Se130  1  0.73769419  0.40409616  0.55432770  1
  Se  Se131  1  0.75693375  0.75691709  0.05674791  1
  Se  Se132  1  0.73935488  0.74385783  0.55665989  1
  Se  Se133  1  0.25079556  0.25275204  0.06492922  1
  Se  Se134  1  0.25889577  0.25597648  0.55646997  1
  Se  Se135  1  0.25954023  0.59053620  0.05883104  1
  Se  Se136  1  0.25181738  0.59030025  0.55802288  1
  Se  Se137  1  0.24650287  0.91112358  0.04970994  1
  Se  Se138  1  0.25602232  0.92105874  0.56353598  1
  Se  Se139  1  0.57796395  0.24623541  0.04801706  1
  Se  Se140  1  0.56522162  0.23128679  0.54724295  1
  Se  Se141  1  0.59771489  0.59168912  0.06301577  1
  Se  Se142  1  0.58421902  0.58825900  0.56238500  1
  Se  Se143  1  0.58218666  0.91626815  0.05467632  1
  Se  Se144  1  0.59127683  0.92326423  0.55751182  1
  Se  Se145  1  0.91009191  0.24803310  0.05106891  1
  Se  Se146  1  0.91774683  0.24577016  0.55737730  1
  Se  Se147  1  0.93243718  0.59735354  0.05858432  1
  Se  Se148  1  0.91154907  0.58327117  0.55220299  1
  Se  Se149  1  0.91620828  0.91796994  0.04931648  1
  Se  Se150  1  0.92870355  0.92339539  0.56873783  1
  Se  Se151  1  0.08213012  0.26297049  0.44138366  1
  Se  Se152  1  0.07980041  0.25192768  0.94072552  1
  Se  Se153  1  0.07355716  0.59487530  0.43936846  1
  Se  Se154  1  0.08646606  0.59229740  0.93081189  1
  Se  Se155  1  0.09112280  0.91572383  0.45686626  1
  Se  Se156  1  0.08309057  0.91801749  0.94195364  1
  Se  Se157  1  0.42029147  0.24672698  0.44033835  1
  Se  Se158  1  0.41283515  0.25282538  0.95073196  1
  Se  Se159  1  0.40641799  0.58953961  0.44048368  1
  Se  Se160  1  0.41341992  0.58743828  0.94089383  1
  Se  Se161  1  0.41002475  0.92173405  0.43825766  1
  Se  Se162  1  0.42101907  0.91375355  0.94900321  1
  Se  Se163  1  0.76005121  0.23694148  0.44750954  1
  Se  Se164  1  0.74994105  0.24785374  0.94413617  1
  Se  Se165  1  0.75334373  0.58052604  0.45367940  1
  Se  Se166  1  0.74887059  0.59254016  0.94231800  1
  Se  Se167  1  0.74634793  0.91402169  0.43763685  1
  Se  Se168  1  0.75002346  0.91795732  0.94994368  1
  Se  Se169  1  0.25642514  0.07869327  0.44220511  1
  Se  Se170  1  0.25197868  0.07175626  0.93652945  1
  Se  Se171  1  0.26093519  0.41350716  0.43630799  1
  Se  Se172  1  0.25747339  0.40428649  0.95066141  1
  Se  Se173  1  0.24767004  0.75711791  0.44564808  1
  Se  Se174  1  0.24866482  0.75127482  0.94060503  1
  Se  Se175  1  0.58136741  0.07873748  0.43969402  1
  Se  Se176  1  0.57828357  0.08457806  0.94581644  1
  Se  Se177  1  0.59560082  0.40154067  0.44215734  1
  Se  Se178  1  0.58782881  0.41788989  0.93942692  1
  Se  Se179  1  0.59034124  0.73738201  0.44450279  1
  Se  Se180  1  0.58203036  0.75461592  0.95037923  1
  Se  Se181  1  0.92570736  0.07978519  0.45111748  1
  Se  Se182  1  0.91315702  0.09019478  0.94686508  1
  Se  Se183  1  0.91414034  0.41837366  0.44854167  1
  Se  Se184  1  0.92099942  0.41632274  0.94124645  1
  Se  Se185  1  0.92289437  0.74750327  0.44196770  1
  Se  Se186  1  0.91279430  0.75431065  0.94345368  1
  Se  Se187  1  0.25251554  0.24926125  0.30037082  1
  Se  Se188  1  0.24772602  0.24178704  0.81507853  1
  Se  Se189  1  0.24705844  0.59200843  0.29635646  1
  Se  Se190  1  0.25039843  0.57635832  0.80085433  1
  Se  Se191  1  0.25164997  0.91983335  0.30223845  1
  Se  Se192  1  0.26158424  0.91560889  0.80021931  1
  Se  Se193  1  0.57528261  0.24196228  0.30793952  1
  Se  Se194  1  0.58623128  0.25023877  0.80107745  1
  Se  Se195  1  0.58472601  0.58031834  0.30730371  1
  Se  Se196  1  0.58841354  0.58361470  0.80343837  1
  Se  Se197  1  0.58265329  0.91653318  0.29882776  1
  Se  Se198  1  0.58306000  0.91170561  0.81264965  1
  Se  Se199  1  0.91347077  0.25348745  0.30452879  1
  Se  Se200  1  0.91665158  0.25010879  0.80412592  1
  Se  Se201  1  0.91296234  0.58361441  0.31215978  1
  Se  Se202  1  0.91085642  0.57814804  0.79929813  1
  Se  Se203  1  0.90619332  0.91186192  0.31056291  1
  Se  Se204  1  0.91646955  0.91867078  0.80631543  1
  Se  Se205  1  0.09046344  0.09288447  0.31710145  1
  Se  Se206  1  0.08239624  0.08042723  0.80031758  1
  Se  Se207  1  0.08758979  0.42850350  0.30050077  1
  Se  Se208  1  0.08097193  0.41282131  0.80063006  1
  Se  Se209  1  0.08672266  0.76248642  0.31046900  1
  Se  Se210  1  0.06512396  0.73680968  0.80150036  1
  Se  Se211  1  0.41156587  0.07936583  0.29960563  1
  Se  Se212  1  0.42132602  0.08293541  0.80064167  1
  Se  Se213  1  0.41673370  0.41586619  0.29813709  1
  Se  Se214  1  0.42421954  0.42198446  0.81499130  1
  Se  Se215  1  0.41613119  0.74956866  0.30006292  1
  Se  Se216  1  0.42023485  0.74808252  0.80949476  1
  Se  Se217  1  0.74858839  0.08249942  0.30337893  1
  Se  Se218  1  0.75410664  0.08609524  0.81009982  1
  Se  Se219  1  0.75435594  0.42227362  0.31196980  1
  Se  Se220  1  0.74606235  0.40844799  0.80033616  1
  Se  Se221  1  0.74785634  0.74789732  0.30334821  1
  Se  Se222  1  0.74534754  0.74885844  0.80330174  1
  Se  Se223  1  0.24759761  0.07843702  0.19870108  1
  Se  Se224  1  0.25598448  0.08526567  0.69982821  1
  Se  Se225  1  0.24506459  0.41827541  0.20315865  1
  Se  Se226  1  0.24509064  0.42247346  0.68744174  1
  Se  Se227  1  0.25186259  0.75060764  0.19180903  1
  Se  Se228  1  0.26020605  0.73684520  0.70259480  1
  Se  Se229  1  0.58159555  0.07910870  0.19453609  1
  Se  Se230  1  0.58563161  0.09622509  0.68126445  1
  Se  Se231  1  0.57780948  0.42202724  0.18470164  1
  Se  Se232  1  0.58285657  0.41511922  0.69698027  1
  Se  Se233  1  0.58436614  0.75028290  0.19437977  1
  Se  Se234  1  0.58455039  0.74618284  0.70206860  1
  Se  Se235  1  0.90760116  0.08818133  0.18971252  1
  Se  Se236  1  0.91591507  0.08362614  0.70176637  1
  Se  Se237  1  0.90490114  0.41993667  0.20028075  1
  Se  Se238  1  0.91612788  0.40904437  0.69542710  1
  Se  Se239  1  0.91724811  0.76436760  0.19081917  1
  Se  Se240  1  0.90930838  0.74670017  0.69598556  1
  Se  Se241  1  0.07581834  0.24823306  0.20116546  1
  Se  Se242  1  0.08369545  0.25386878  0.70452072  1
  Se  Se243  1  0.09227515  0.57895950  0.18517706  1
  Se  Se244  1  0.07778203  0.58310959  0.69417689  1
  Se  Se245  1  0.08355753  0.91209027  0.19248832  1
  Se  Se246  1  0.07984577  0.91403159  0.70773797  1
  Se  Se247  1  0.41359608  0.25058002  0.19735849  1
  Se  Se248  1  0.42131124  0.24771439  0.68748022  1
  Se  Se249  1  0.42022997  0.58485624  0.19674772  1
  Se  Se250  1  0.41390096  0.58389271  0.70519366  1
  Se  Se251  1  0.41274543  0.91741595  0.19206354  1
  Se  Se252  1  0.42539525  0.91914011  0.69860109  1
  Se  Se253  1  0.74795033  0.24228743  0.18738922  1
  Se  Se254  1  0.74614703  0.24679689  0.69021548  1
  Se  Se255  1  0.76144475  0.58840118  0.20467435  1
  Se  Se256  1  0.74702555  0.58039187  0.69603058  1
  Se  Se257  1  0.74597124  0.92175795  0.19562785  1
  Se  Se258  1  0.75763046  0.91000379  0.69037574  1
