# generated using pymatgen
data_In86Cu29Se144
_symmetry_space_group_name_H-M   'P 1'
_cell_length_a   17.57538502
_cell_length_b   17.57245706
_cell_length_c   23.41098185
_cell_angle_alpha   89.97193774
_cell_angle_beta   90.02165726
_cell_angle_gamma   90.00426277
_symmetry_Int_Tables_number   1
_chemical_formula_structural   In86Cu29Se144
_chemical_formula_sum   'In86 Cu29 Se144'
_cell_volume   7230.30940369
_cell_formula_units_Z   1
loop_
 _symmetry_equiv_pos_site_id
 _symmetry_equiv_pos_as_xyz
  1  'x, y, z'
loop_
 _atom_site_type_symbol
 _atom_site_label
 _atom_site_symmetry_multiplicity
 _atom_site_fract_x
 _atom_site_fract_y
 _atom_site_fract_z
 _atom_site_occupancy
  In  In0  1  0.00677213  0.18742086  0.11645762  1
  In  In1  1  -0.00407914  0.15500259  0.62606234  1
  In  In2  1  -0.00960279  0.47912482  0.10975064  1
  In  In3  1  0.00883812  0.50074216  0.63404618  1
  In  In4  1  0.00158752  0.83581428  0.11233674  1
  In  In5  1  0.00231104  0.85166078  0.62819145  1
  In  In6  1  0.32139314  0.16473894  0.13353170  1
  In  In7  1  0.31824817  0.16827882  0.62198487  1
  In  In8  1  0.33782993  0.50356540  0.12626231  1
  In  In9  1  0.33511452  0.48458405  0.61923611  1
  In  In10  1  0.33308162  0.83596855  0.12894111  1
  In  In11  1  0.34800151  0.83942843  0.62901947  1
  In  In12  1  0.67696385  0.16238685  0.13308325  1
  In  In13  1  0.68099722  0.16993194  0.62849605  1
  In  In14  1  0.66090308  0.50269943  0.13601086  1
  In  In15  1  0.66278513  0.51015381  0.63033460  1
  In  In16  1  0.66200907  0.83238874  0.12519563  1
  In  In17  1  0.65932919  0.81913459  0.62608385  1
  In  In18  1  0.17983702  0.00152574  0.37408361  1
  In  In19  1  0.16245374  0.00497235  0.88385292  1
  In  In20  1  0.16334244  0.32051777  0.35184383  1
  In  In21  1  0.16392904  0.32500330  0.89966781  1
  In  In22  1  0.16996533  0.65665349  0.36689498  1
  In  In23  1  0.16835854  0.66653956  0.88926482  1
  In  In24  1  0.50572662  -0.00331194  0.35795406  1
  In  In25  1  0.48049521  0.00172906  0.88297694  1
  In  In26  1  0.50765934  0.34459594  0.35852632  1
  In  In27  1  0.51200114  0.33775109  0.88028171  1
  In  In28  1  0.49080831  0.65326455  0.35061208  1
  In  In29  1  0.50509660  0.66625161  0.88270842  1
  In  In30  1  0.82294805  -0.00323249  0.36477635  1
  In  In31  1  0.84298307  -0.01354134  0.88053158  1
  In  In32  1  0.83467238  0.31643756  0.35593437  1
  In  In33  1  0.82454348  0.34268271  0.89266367  1
  In  In34  1  0.83311374  0.68055138  0.37632602  1
  In  In35  1  0.81686990  0.67345028  0.88465508  1
  In  In36  1  0.00347346  0.18045697  0.36647528  1
  In  In37  1  0.00865360  0.15773843  0.89153721  1
  In  In38  1  0.01112044  0.49166721  0.36805201  1
  In  In39  1  -0.00490994  0.48777426  0.90044558  1
  In  In40  1  -0.01337577  0.82438784  0.37383362  1
  In  In41  1  -0.01150028  0.84716275  0.88093823  1
  In  In42  1  0.32117497  0.15874990  0.36081426  1
  In  In43  1  0.32422885  0.15288228  0.88371458  1
  In  In44  1  0.34694060  0.50661275  0.34995402  1
  In  In45  1  0.33560786  0.50275002  0.89242984  1
  In  In46  1  0.35204100  0.84000075  0.35344433  1
  In  In47  1  0.31512249  0.86009508  0.90371304  1
  In  In48  1  0.67499559  0.15844842  0.35563885  1
  In  In49  1  0.65991562  0.18616988  0.87814612  1
  In  In50  1  0.65160803  0.48989657  0.35749716  1
  In  In51  1  0.66245680  0.50391769  0.88378714  1
  In  In52  1  0.66868117  0.83647005  0.35956577  1
  In  In53  1  0.67705603  0.81863747  0.88296267  1
  In  In54  1  0.18832977  0.01314884  0.10868889  1
  In  In55  1  0.15797575  0.00727933  0.63120372  1
  In  In56  1  0.16242043  0.32637987  0.12313408  1
  In  In57  1  0.18131322  0.32892943  0.62176067  1
  In  In58  1  0.17651235  0.67400715  0.11673687  1
  In  In59  1  0.16758617  0.65564157  0.63097904  1
  In  In60  1  0.50049973  -0.01184248  0.13129235  1
  In  In61  1  0.49874660  -0.01371895  0.63246253  1
  In  In62  1  0.49541737  0.35235081  0.14080648  1
  In  In63  1  0.49906710  0.34885026  0.62052623  1
  In  In64  1  0.50055422  0.66632915  0.13935729  1
  In  In65  1  0.51065007  0.67171253  0.62412710  1
  In  In66  1  0.82445818  -0.00353973  0.11171133  1
  In  In67  1  0.84511968  0.00463124  0.62707137  1
  In  In68  1  0.82621247  0.33525462  0.12911453  1
  In  In69  1  0.83001041  0.31913133  0.62944682  1
  In  In70  1  0.82530932  0.65853564  0.11593808  1
  In  In71  1  0.81281896  0.66271270  0.62583548  1
  In  In72  1  0.49889304  0.16733241  0.49179107  1
  In  In73  1  0.49674604  0.17060722  0.01461520  1
  In  In74  1  -0.02247093  0.68457034  0.77306882  1
  In  In75  1  0.66607648  -0.00136477  0.75435214  1
  In  In76  1  0.33927378  0.32710153  0.75558082  1
  In  In77  1  0.00348525  0.01125411  0.23050511  1
  In  In78  1  0.82836340  0.49763461  0.49558957  1
  In  In79  1  0.17153903  0.83454367  0.49445592  1
  In  In80  1  0.34221020  0.67520635  0.75076272  1
  In  In81  1  -0.00538564  0.33124728  0.75757719  1
  In  In82  1  0.00273879  0.65945874  0.24522182  1
  In  In83  1  0.17311473  0.49593552  0.48183193  1
  In  In84  1  0.83697057  0.16655379  0.49365993  1
  In  In85  1  0.50170709  0.82609129  0.48806457  1
  Cu  Cu86  1  0.01176042  0.33484067  0.48976090  1
  Cu  Cu87  1  0.50040002  0.16407869  0.24326070  1
  Cu  Cu88  1  0.66006450  0.33913270  0.49199341  1
  Cu  Cu89  1  0.83291957  0.83522032  0.23990561  1
  Cu  Cu90  1  0.82259726  0.49803157  0.76281275  1
  Cu  Cu91  1  0.83818639  0.49745057  0.24088280  1
  Cu  Cu92  1  0.17179975  0.84727263  0.75913702  1
  Cu  Cu93  1  0.66423933  0.66554359  0.00948021  1
  Cu  Cu94  1  0.33803329  0.65968163  0.48294676  1
  Cu  Cu95  1  0.66374875  0.34328280  0.00977577  1
  Cu  Cu96  1  0.83159971  0.16938693  0.75931769  1
  Cu  Cu97  1  0.17349088  0.83205538  0.24161319  1
  Cu  Cu98  1  0.50804129  0.50410427  0.75255601  1
  Cu  Cu99  1  0.66999951  -0.00896750  0.48978339  1
  Cu  Cu100  1  0.32992236  0.00855212  0.49659051  1
  Cu  Cu101  1  0.34823144  0.66688493  0.01026690  1
  Cu  Cu102  1  -0.00595466  -0.00330666  0.00399440  1
  Cu  Cu103  1  0.16186343  0.50225125  0.76502230  1
  Cu  Cu104  1  0.66317497  0.00326667  0.00222299  1
  Cu  Cu105  1  0.33746808  0.33429890  0.48972778  1
  Cu  Cu106  1  0.49330810  0.83525125  0.76195624  1
  Cu  Cu107  1  0.33815054  0.33121790  0.01298695  1
  Cu  Cu108  1  0.16187015  0.16172298  0.75555032  1
  Cu  Cu109  1  0.00230648  0.66151364  0.00143462  1
  Cu  Cu110  1  0.00316872  0.00433179  0.50195884  1
  Cu  Cu111  1  0.16606043  0.49511860  0.23785752  1
  Cu  Cu112  1  0.66067972  0.66280987  0.49744472  1
  Cu  Cu113  1  0.49625591  0.16653435  0.75817095  1
  Cu  Cu114  1  -0.00996378  0.67566023  0.50517560  1
  Se  Se115  1  0.07603391  0.08012137  0.05711604  1
  Se  Se116  1  0.08621674  0.08756229  0.55426645  1
  Se  Se117  1  0.10042352  0.42253738  0.05167989  1
  Se  Se118  1  0.08406622  0.41545194  0.55622015  1
  Se  Se119  1  0.08629838  0.74938354  0.04848129  1
  Se  Se120  1  0.08472941  0.74499979  0.56139331  1
  Se  Se121  1  0.40772512  0.07422648  0.06496959  1
  Se  Se122  1  0.41747372  0.07605196  0.56006299  1
  Se  Se123  1  0.42350222  0.41876842  0.05730972  1
  Se  Se124  1  0.41897233  0.41816859  0.54330581  1
  Se  Se125  1  0.42470171  0.75202544  0.06575674  1
  Se  Se126  1  0.40760879  0.74043197  0.55261376  1
  Se  Se127  1  0.74541603  0.09280729  0.04921963  1
  Se  Se128  1  0.74371445  0.07482963  0.55290500  1
  Se  Se129  1  0.74654584  0.42664074  0.06315561  1
  Se  Se130  1  0.74391160  0.40649251  0.55997338  1
  Se  Se131  1  0.75027080  0.75580896  0.05398635  1
  Se  Se132  1  0.74234148  0.74697341  0.55126385  1
  Se  Se133  1  0.25118849  0.24357759  0.05514113  1
  Se  Se134  1  0.25369553  0.25201177  0.54450628  1
  Se  Se135  1  0.25609411  0.58171654  0.05300812  1
  Se  Se136  1  0.25673296  0.58724876  0.55177374  1
  Se  Se137  1  0.23762763  0.89525487  0.05582616  1
  Se  Se138  1  0.25828889  0.92271033  0.56015575  1
  Se  Se139  1  0.58664355  0.26158079  0.07138484  1
  Se  Se140  1  0.59182658  0.25154708  0.55602574  1
  Se  Se141  1  0.58098847  0.58563827  0.06452397  1
  Se  Se142  1  0.58003559  0.58058870  0.55393347  1
  Se  Se143  1  0.58204704  0.91793087  0.05417720  1
  Se  Se144  1  0.58611965  0.91978581  0.55318352  1
  Se  Se145  1  0.91485704  0.26800295  0.05258730  1
  Se  Se146  1  0.92914177  0.25930332  0.55453263  1
  Se  Se147  1  0.91430750  0.57887769  0.05020670  1
  Se  Se148  1  0.92130864  0.58213094  0.56224775  1
  Se  Se149  1  0.90616291  0.90721016  0.04679043  1
  Se  Se150  1  0.91798286  0.92141995  0.55307762  1
  Se  Se151  1  0.09336570  0.25200774  0.43696682  1
  Se  Se152  1  0.07517691  0.24758675  0.96300055  1
  Se  Se153  1  0.06924793  0.59586265  0.44127654  1
  Se  Se154  1  0.09062468  0.57538043  0.95464961  1
  Se  Se155  1  0.07495064  0.92168431  0.43610283  1
  Se  Se156  1  0.08080659  0.91537613  0.95004200  1
  Se  Se157  1  0.41500446  0.25384304  0.42715243  1
  Se  Se158  1  0.41196326  0.25511483  0.94185572  1
  Se  Se159  1  0.42143450  0.57714993  0.43124422  1
  Se  Se160  1  0.42779228  0.58145273  0.95439555  1
  Se  Se161  1  0.41181259  0.92725236  0.43748277  1
  Se  Se162  1  0.42420309  0.91865728  0.96227021  1
  Se  Se163  1  0.74139283  0.25460707  0.43582660  1
  Se  Se164  1  0.73977064  0.25305010  0.95589231  1
  Se  Se165  1  0.74110345  0.58558133  0.43387901  1
  Se  Se166  1  0.74787320  0.58190117  0.95450309  1
  Se  Se167  1  0.75216667  0.90854226  0.43663910  1
  Se  Se168  1  0.74495469  0.91919657  0.94712236  1
  Se  Se169  1  0.24780474  0.09250278  0.44525417  1
  Se  Se170  1  0.24074281  0.08581624  0.95688074  1
  Se  Se171  1  0.26182340  0.41000414  0.42161782  1
  Se  Se172  1  0.25435885  0.41415564  0.95639458  1
  Se  Se173  1  0.26048982  0.74794203  0.42863307  1
  Se  Se174  1  0.25731070  0.74386966  0.95627147  1
  Se  Se175  1  0.59231556  0.07610362  0.43350446  1
  Se  Se176  1  0.58183609  0.08664750  0.94327393  1
  Se  Se177  1  0.57750043  0.42146773  0.43937708  1
  Se  Se178  1  0.57862552  0.42271953  0.95462498  1
  Se  Se179  1  0.58747005  0.73726557  0.42811096  1
  Se  Se180  1  0.58451664  0.75076746  0.95282332  1
  Se  Se181  1  0.92355323  0.07563032  0.43263709  1
  Se  Se182  1  0.90936156  0.08007872  0.95077777  1
  Se  Se183  1  0.91955733  0.40705154  0.43446349  1
  Se  Se184  1  0.92108082  0.39580381  0.96730474  1
  Se  Se185  1  0.90754752  0.75913772  0.45319874  1
  Se  Se186  1  0.92151751  0.74359942  0.94332067  1
  Se  Se187  1  0.26399946  0.25572042  0.28970504  1
  Se  Se188  1  0.23812047  0.24786058  0.81434668  1
  Se  Se189  1  0.24520226  0.58329541  0.29151447  1
  Se  Se190  1  0.25281793  0.58229088  0.81377962  1
  Se  Se191  1  0.24843825  0.91697158  0.30023768  1
  Se  Se192  1  0.25411150  0.92554321  0.81563878  1
  Se  Se193  1  0.58445383  0.24555313  0.29878114  1
  Se  Se194  1  0.57895886  0.25726287  0.80166925  1
  Se  Se195  1  0.60068429  0.59550189  0.29179997  1
  Se  Se196  1  0.58569641  0.58764503  0.80923040  1
  Se  Se197  1  0.58129054  0.90999517  0.29121777  1
  Se  Se198  1  0.57729686  0.91552169  0.81985769  1
  Se  Se199  1  0.92032848  0.24061591  0.28896431  1
  Se  Se200  1  0.90994241  0.24626912  0.82324720  1
  Se  Se201  1  0.91031165  0.57630189  0.31052280  1
  Se  Se202  1  0.91074945  0.56782882  0.82352445  1
  Se  Se203  1  0.91999886  0.91317908  0.29731437  1
  Se  Se204  1  0.91039254  0.91056085  0.80112083  1
  Se  Se205  1  0.08843657  0.08252359  0.30689022  1
  Se  Se206  1  0.07760377  0.08257527  0.81081610  1
  Se  Se207  1  0.08023199  0.41432249  0.29127782  1
  Se  Se208  1  0.08675726  0.41638767  0.82160731  1
  Se  Se209  1  0.08947545  0.75896900  0.30497103  1
  Se  Se210  1  0.09485985  0.75900396  0.81641194  1
  Se  Se211  1  0.41631874  0.08155527  0.29805545  1
  Se  Se212  1  0.40956289  0.08630637  0.80788661  1
  Se  Se213  1  0.41823706  0.41147318  0.28574809  1
  Se  Se214  1  0.42156058  0.42849499  0.81192880  1
  Se  Se215  1  0.42112284  0.75001856  0.28647232  1
  Se  Se216  1  0.41084221  0.76115339  0.82494985  1
  Se  Se217  1  0.76041818  0.08086355  0.28932179  1
  Se  Se218  1  0.74934642  0.08954731  0.81876805  1
  Se  Se219  1  0.75793692  0.41855292  0.30143430  1
  Se  Se220  1  0.74262582  0.41292962  0.81630212  1
  Se  Se221  1  0.75721023  0.74898060  0.29727550  1
  Se  Se222  1  0.75480027  0.75198006  0.80411800  1
  Se  Se223  1  0.24651472  0.07119877  0.19898593  1
  Se  Se224  1  0.24901584  0.08589112  0.69745678  1
  Se  Se225  1  0.25130875  0.41264617  0.18768096  1
  Se  Se226  1  0.24219196  0.42423336  0.69978347  1
  Se  Se227  1  0.25464137  0.74060553  0.19619569  1
  Se  Se228  1  0.24118609  0.76283069  0.69262648  1
  Se  Se229  1  0.58492169  0.07863606  0.19390465  1
  Se  Se230  1  0.57683234  0.09202525  0.69178794  1
  Se  Se231  1  0.58995547  0.41712308  0.20987381  1
  Se  Se232  1  0.58382202  0.41715315  0.69503374  1
  Se  Se233  1  0.59440639  0.74799573  0.20058205  1
  Se  Se234  1  0.57378954  0.75440357  0.70263826  1
  Se  Se235  1  0.90771152  0.09454200  0.17397668  1
  Se  Se236  1  0.91337250  0.08846748  0.70261015  1
  Se  Se237  1  0.92425325  0.41224775  0.19448401  1
  Se  Se238  1  0.90412011  0.42513892  0.69623403  1
  Se  Se239  1  0.91625416  0.75240607  0.18514309  1
  Se  Se240  1  0.91510107  0.74866828  0.68341810  1
  Se  Se241  1  0.09038419  0.24234317  0.19745734  1
  Se  Se242  1  0.08897838  0.24793606  0.69230550  1
  Se  Se243  1  0.08534105  0.57668278  0.17787934  1
  Se  Se244  1  0.08075194  0.58771632  0.70963199  1
  Se  Se245  1  0.09286744  0.91016566  0.18208712  1
  Se  Se246  1  0.08296974  0.92286412  0.70345282  1
  Se  Se247  1  0.41641211  0.24727650  0.19293671  1
  Se  Se248  1  0.42478126  0.24264694  0.68541591  1
  Se  Se249  1  0.42333271  0.57031563  0.20196396  1
  Se  Se250  1  0.42031515  0.57422061  0.68835204  1
  Se  Se251  1  0.41046443  0.91728220  0.20160417  1
  Se  Se252  1  0.41273002  0.92023384  0.70754864  1
  Se  Se253  1  0.74206637  0.25925169  0.20020987  1
  Se  Se254  1  0.74789001  0.25181617  0.70571492  1
  Se  Se255  1  0.75527520  0.58840207  0.19722060  1
  Se  Se256  1  0.74644672  0.58341091  0.70420523  1
  Se  Se257  1  0.75049898  0.92066217  0.18928065  1
  Se  Se258  1  0.74929894  0.91450524  0.68569139  1
