# generated using pymatgen
data_In86Cu29Se144
_symmetry_space_group_name_H-M   'P 1'
_cell_length_a   17.58249765
_cell_length_b   17.58641493
_cell_length_c   23.43904289
_cell_angle_alpha   90.02154294
_cell_angle_beta   90.02507907
_cell_angle_gamma   90.01570629
_symmetry_Int_Tables_number   1
_chemical_formula_structural   In86Cu29Se144
_chemical_formula_sum   'In86 Cu29 Se144'
_cell_volume   7247.65761291
_cell_formula_units_Z   1
loop_
 _symmetry_equiv_pos_site_id
 _symmetry_equiv_pos_as_xyz
  1  'x, y, z'
loop_
 _atom_site_type_symbol
 _atom_site_label
 _atom_site_symmetry_multiplicity
 _atom_site_fract_x
 _atom_site_fract_y
 _atom_site_fract_z
 _atom_site_occupancy
  In  In0  1  -0.00378449  0.16902325  0.12663164  1
  In  In1  1  0.00036133  0.16544310  0.61181356  1
  In  In2  1  0.01643694  0.48980056  0.14666159  1
  In  In3  1  0.00111157  0.50902719  0.62599325  1
  In  In4  1  -0.00194103  0.83172866  0.13280224  1
  In  In5  1  -0.01203636  0.82718158  0.61977565  1
  In  In6  1  0.32128603  0.14899018  0.10978780  1
  In  In7  1  0.34063348  0.17717357  0.61602130  1
  In  In8  1  0.33659763  0.50628819  0.12302601  1
  In  In9  1  0.32337420  0.48657049  0.62228840  1
  In  In10  1  0.31997236  0.84679482  0.13472078  1
  In  In11  1  0.34270702  0.83603545  0.62271144  1
  In  In12  1  0.67673584  0.17290295  0.12350074  1
  In  In13  1  0.67065260  0.16905300  0.60793375  1
  In  In14  1  0.65918479  0.50121467  0.13314145  1
  In  In15  1  0.66768878  0.50049033  0.61277056  1
  In  In16  1  0.67159565  0.81784835  0.13268599  1
  In  In17  1  0.67494914  0.81941270  0.61810246  1
  In  In18  1  0.16949592  0.00538524  0.36451146  1
  In  In19  1  0.16273889  0.00640532  0.89407036  1
  In  In20  1  0.15375197  0.33468213  0.36671146  1
  In  In21  1  0.17577037  0.32482285  0.88701616  1
  In  In22  1  0.17198003  0.65774579  0.36066622  1
  In  In23  1  0.15687339  0.67474643  0.88973810  1
  In  In24  1  0.50393581  0.01247384  0.37318600  1
  In  In25  1  0.50481926  0.00602711  0.88319851  1
  In  In26  1  0.50781938  0.32439772  0.37771035  1
  In  In27  1  0.49361635  0.34715747  0.88361994  1
  In  In28  1  0.48937846  0.65287397  0.36918625  1
  In  In29  1  0.48618021  0.66479838  0.87988499  1
  In  In30  1  0.83931100  -0.00680953  0.38143647  1
  In  In31  1  0.83460333  -0.00430392  0.88883670  1
  In  In32  1  0.83246193  0.33645269  0.37058687  1
  In  In33  1  0.82901051  0.33354758  0.87734030  1
  In  In34  1  0.82789918  0.66541571  0.36930118  1
  In  In35  1  0.85383115  0.66030026  0.87887704  1
  In  In36  1  0.00264753  0.16694231  0.37001720  1
  In  In37  1  0.00229383  0.17059088  0.89222626  1
  In  In38  1  -0.00269521  0.48672574  0.36144302  1
  In  In39  1  -0.00738201  0.51722253  0.87974448  1
  In  In40  1  -0.02997023  0.81739647  0.34700241  1
  In  In41  1  0.00863638  0.82380550  0.88648865  1
  In  In42  1  0.33973383  0.15960743  0.37642865  1
  In  In43  1  0.32103174  0.18066820  0.89015854  1
  In  In44  1  0.33848661  0.51965282  0.37037486  1
  In  In45  1  0.34277971  0.49409432  0.88476691  1
  In  In46  1  0.32668434  0.82552370  0.36339860  1
  In  In47  1  0.32655729  0.82500319  0.88394509  1
  In  In48  1  0.65363069  0.17014722  0.38220720  1
  In  In49  1  0.66956471  0.16572382  0.88598820  1
  In  In50  1  0.66659590  0.50114202  0.37248957  1
  In  In51  1  0.66967854  0.49023221  0.87712089  1
  In  In52  1  0.69456471  0.83232016  0.37065622  1
  In  In53  1  0.66942440  0.84241825  0.88207684  1
  In  In54  1  0.16609513  -0.00498587  0.12473329  1
  In  In55  1  0.15763530  0.00071087  0.62217928  1
  In  In56  1  0.14749402  0.33009729  0.11300500  1
  In  In57  1  0.17726566  0.33749424  0.62535163  1
  In  In58  1  0.16194934  0.66530660  0.12993986  1
  In  In59  1  0.15864217  0.65158052  0.62433688  1
  In  In60  1  0.48352305  0.00159302  0.12470161  1
  In  In61  1  0.49526570  0.00690908  0.61822039  1
  In  In62  1  0.50448454  0.33537001  0.12325558  1
  In  In63  1  0.49304387  0.33117588  0.61922914  1
  In  In64  1  0.50419292  0.65656135  0.13321553  1
  In  In65  1  0.50822432  0.66896621  0.61497696  1
  In  In66  1  0.84328657  0.00656139  0.12759213  1
  In  In67  1  0.83023711  -0.00236611  0.60517634  1
  In  In68  1  0.84615899  0.32041695  0.13466180  1
  In  In69  1  0.83339871  0.33126205  0.61524062  1
  In  In70  1  0.83278355  0.67508104  0.13554454  1
  In  In71  1  0.83745031  0.66634201  0.61551934  1
  In  In72  1  0.31778180  0.01262403  0.76990053  1
  In  In73  1  0.00388652  0.33544457  0.75261138  1
  In  In74  1  -0.00029128  0.00007053  0.75425581  1
  In  In75  1  0.33197393  0.33096571  0.23797406  1
  In  In76  1  0.49888836  0.83154527  0.00631419  1
  In  In77  1  0.66863296  -0.00022264  0.25521197  1
  In  In78  1  0.16290357  0.83323311  0.47835647  1
  In  In79  1  0.67040440  0.00680298  0.73435713  1
  In  In80  1  0.16585345  0.49458599  0.49489630  1
  In  In81  1  0.50715070  0.83546349  0.49399397  1
  In  In82  1  0.32820277  0.65790564  0.74703245  1
  In  In83  1  0.66907922  0.66657554  0.74330206  1
  In  In84  1  0.66928341  0.33569601  0.75367280  1
  In  In85  1  0.84030822  0.49606319  0.00614492  1
  Cu  Cu86  1  0.32970796  0.66771023  0.00649891  1
  Cu  Cu87  1  0.66853402  0.34124380  0.49350657  1
  Cu  Cu88  1  0.16811814  0.16641691  0.23885978  1
  Cu  Cu89  1  -0.00266935  -0.00167875  0.01024499  1
  Cu  Cu90  1  0.32668926  -0.00002829  0.49474283  1
  Cu  Cu91  1  0.49041752  0.18395605  0.74853879  1
  Cu  Cu92  1  0.67011527  0.66361013  0.01079865  1
  Cu  Cu93  1  0.67286358  -0.00164719  0.00838341  1
  Cu  Cu94  1  0.83541966  0.16020617  0.74893836  1
  Cu  Cu95  1  0.83407445  0.17186901  0.25253587  1
  Cu  Cu96  1  0.16780267  0.50096988  0.75694402  1
  Cu  Cu97  1  0.49754909  0.49894937  0.75280304  1
  Cu  Cu98  1  0.33295385  0.33287572  0.49566398  1
  Cu  Cu99  1  0.15763641  0.81836565  0.75566148  1
  Cu  Cu100  1  0.49858516  0.82836372  0.24924846  1
  Cu  Cu101  1  0.66996260  0.33273270  0.00287340  1
  Cu  Cu102  1  0.16930371  0.83714592  0.24577431  1
  Cu  Cu103  1  -0.00421424  0.33077629  0.48962885  1
  Cu  Cu104  1  -0.00284070  0.66898697  0.49057229  1
  Cu  Cu105  1  0.49676758  0.16600771  0.24999981  1
  Cu  Cu106  1  0.82872304  0.50276937  0.24900753  1
  Cu  Cu107  1  -0.00153276  0.66949686  0.01123106  1
  Cu  Cu108  1  0.67127516  0.66591220  0.49267470  1
  Cu  Cu109  1  0.49222710  0.85044383  0.75084101  1
  Cu  Cu110  1  0.33729822  0.33876903  0.00779665  1
  Cu  Cu111  1  0.84112802  0.82106939  0.74922463  1
  Cu  Cu112  1  0.50075774  0.49288947  0.25146947  1
  Cu  Cu113  1  0.00577151  0.00230372  0.49093091  1
  Cu  Cu114  1  0.17340625  0.17283351  0.75517050  1
  Se  Se115  1  0.08138685  0.08329186  0.06008652  1
  Se  Se116  1  0.08871471  0.08270171  0.54745083  1
  Se  Se117  1  0.07622643  0.43469456  0.05614142  1
  Se  Se118  1  0.07366585  0.40695024  0.55788615  1
  Se  Se119  1  0.08379691  0.75467575  0.06068635  1
  Se  Se120  1  0.08237918  0.74403275  0.55182173  1
  Se  Se121  1  0.42651491  0.08703877  0.04741559  1
  Se  Se122  1  0.41198170  0.08293542  0.54812707  1
  Se  Se123  1  0.42308402  0.42263964  0.05701878  1
  Se  Se124  1  0.41254510  0.41811350  0.55124361  1
  Se  Se125  1  0.41161613  0.74556373  0.06886815  1
  Se  Se126  1  0.40899090  0.74468158  0.55048102  1
  Se  Se127  1  0.75694156  0.08471840  0.05747956  1
  Se  Se128  1  0.75464152  0.08871487  0.54253433  1
  Se  Se129  1  0.74814607  0.41074665  0.06697496  1
  Se  Se130  1  0.75570479  0.41962222  0.54833653  1
  Se  Se131  1  0.75495573  0.74985202  0.05665887  1
  Se  Se132  1  0.75703455  0.74896232  0.54408072  1
  Se  Se133  1  0.24905437  0.25470583  0.05438893  1
  Se  Se134  1  0.24695458  0.25336162  0.55090921  1
  Se  Se135  1  0.24491936  0.58481056  0.05770540  1
  Se  Se136  1  0.25595107  0.58879431  0.55438526  1
  Se  Se137  1  0.25657092  0.92246279  0.05488548  1
  Se  Se138  1  0.25056340  0.91527412  0.55418118  1
  Se  Se139  1  0.58642348  0.24920415  0.05549348  1
  Se  Se140  1  0.58422516  0.26004921  0.54988871  1
  Se  Se141  1  0.58248832  0.57991779  0.05722107  1
  Se  Se142  1  0.58472109  0.58481355  0.54612982  1
  Se  Se143  1  0.59159037  0.91893092  0.06755608  1
  Se  Se144  1  0.59324409  0.92269491  0.56046145  1
  Se  Se145  1  0.91493030  0.24938610  0.05512308  1
  Se  Se146  1  0.91448835  0.24772586  0.54715810  1
  Se  Se147  1  0.92062646  0.58653969  0.07024395  1
  Se  Se148  1  0.92317343  0.58178614  0.54925062  1
  Se  Se149  1  0.91442769  0.91213772  0.06002076  1
  Se  Se150  1  0.92547668  0.91618024  0.54618679  1
  Se  Se151  1  0.08596899  0.25032448  0.44171645  1
  Se  Se152  1  0.09189946  0.24678794  0.95576464  1
  Se  Se153  1  0.07872138  0.58640419  0.43442983  1
  Se  Se154  1  0.07799384  0.58394487  0.95503184  1
  Se  Se155  1  0.06924466  0.91901136  0.42267309  1
  Se  Se156  1  0.08055311  0.91539006  0.95478237  1
  Se  Se157  1  0.41744290  0.24706641  0.44503325  1
  Se  Se158  1  0.41994004  0.25623222  0.95113862  1
  Se  Se159  1  0.42092226  0.57824131  0.44908058  1
  Se  Se160  1  0.41677389  0.58524004  0.95486249  1
  Se  Se161  1  0.40674828  0.91836953  0.43530803  1
  Se  Se162  1  0.41105300  0.92117925  0.94389794  1
  Se  Se163  1  0.74805059  0.25517943  0.44062150  1
  Se  Se164  1  0.75498993  0.25106782  0.94970549  1
  Se  Se165  1  0.75369265  0.58012738  0.44214841  1
  Se  Se166  1  0.74774256  0.58775111  0.94335814  1
  Se  Se167  1  0.74282637  0.92378006  0.44720479  1
  Se  Se168  1  0.75295170  0.91043967  0.95643915  1
  Se  Se169  1  0.24487464  0.08375697  0.44148647  1
  Se  Se170  1  0.25952087  0.07898720  0.95429309  1
  Se  Se171  1  0.25677420  0.41067053  0.43186042  1
  Se  Se172  1  0.25224582  0.41935150  0.95172244  1
  Se  Se173  1  0.25877862  0.73357646  0.43790767  1
  Se  Se174  1  0.24530609  0.75352478  0.95771940  1
  Se  Se175  1  0.58048571  0.07940778  0.45090988  1
  Se  Se176  1  0.58926801  0.08069587  0.95376912  1
  Se  Se177  1  0.58019334  0.42104386  0.44245766  1
  Se  Se178  1  0.58800565  0.41985219  0.95104265  1
  Se  Se179  1  0.59005292  0.74468409  0.43098218  1
  Se  Se180  1  0.59036855  0.73982255  0.94395635  1
  Se  Se181  1  0.92033271  0.08775991  0.44228485  1
  Se  Se182  1  0.91613482  0.08214157  0.95311485  1
  Se  Se183  1  0.91704701  0.42041306  0.44038159  1
  Se  Se184  1  0.92701249  0.40744881  0.94214166  1
  Se  Se185  1  0.91438270  0.75146553  0.43705351  1
  Se  Se186  1  0.91526538  0.74942773  0.95361261  1
  Se  Se187  1  0.24790651  0.24265143  0.30529701  1
  Se  Se188  1  0.25550126  0.25584111  0.80780320  1
  Se  Se189  1  0.24786014  0.56944293  0.29355459  1
  Se  Se190  1  0.24461021  0.58121554  0.81966992  1
  Se  Se191  1  0.25486492  0.92060039  0.29888172  1
  Se  Se192  1  0.23178890  0.90464924  0.81612787  1
  Se  Se193  1  0.58317079  0.24633950  0.30187609  1
  Se  Se194  1  0.57979444  0.24671511  0.81433305  1
  Se  Se195  1  0.58297351  0.58184300  0.30144769  1
  Se  Se196  1  0.57729268  0.58107174  0.81090847  1
  Se  Se197  1  0.57815404  0.90526880  0.31350585  1
  Se  Se198  1  0.58356442  0.92134528  0.80580132  1
  Se  Se199  1  0.92062780  0.25531672  0.30391736  1
  Se  Se200  1  0.91335007  0.23837590  0.81050750  1
  Se  Se201  1  0.91547902  0.58191499  0.30292870  1
  Se  Se202  1  0.91548537  0.58126483  0.79961708  1
  Se  Se203  1  0.91346735  0.93486268  0.29741731  1
  Se  Se204  1  0.91062494  0.90777128  0.81321016  1
  Se  Se205  1  0.08415957  0.08721774  0.29720400  1
  Se  Se206  1  0.09054736  0.09161904  0.81306984  1
  Se  Se207  1  0.09463518  0.42450894  0.29331620  1
  Se  Se208  1  0.08946859  0.42043843  0.81866414  1
  Se  Se209  1  0.09131938  0.75560587  0.30444462  1
  Se  Se210  1  0.07515830  0.73859631  0.80997474  1
  Se  Se211  1  0.41452146  0.07987874  0.30053089  1
  Se  Se212  1  0.42392919  0.09867854  0.81527161  1
  Se  Se213  1  0.41808229  0.41184942  0.30916938  1
  Se  Se214  1  0.41411084  0.41719396  0.80585356  1
  Se  Se215  1  0.41394222  0.74215094  0.30006577  1
  Se  Se216  1  0.41784839  0.75931602  0.80517396  1
  Se  Se217  1  0.75343387  0.09369614  0.31435077  1
  Se  Se218  1  0.75493500  0.08264389  0.81027276  1
  Se  Se219  1  0.74617128  0.41697344  0.30212934  1
  Se  Se220  1  0.76629821  0.43009018  0.80308515  1
  Se  Se221  1  0.75464049  0.74845003  0.29439466  1
  Se  Se222  1  0.75288949  0.75353427  0.81240087  1
  Se  Se223  1  0.25338633  0.07976310  0.19283170  1
  Se  Se224  1  0.24421189  0.08948850  0.68925761  1
  Se  Se225  1  0.24026091  0.41793359  0.18093992  1
  Se  Se226  1  0.24820495  0.41763396  0.70192448  1
  Se  Se227  1  0.25161198  0.74664936  0.19748037  1
  Se  Se228  1  0.24264616  0.75563975  0.68787337  1
  Se  Se229  1  0.58051310  0.08571527  0.18980931  1
  Se  Se230  1  0.57150782  0.10383961  0.68772729  1
  Se  Se231  1  0.58371121  0.40822859  0.19997373  1
  Se  Se232  1  0.58057521  0.42388652  0.69042309  1
  Se  Se233  1  0.58420380  0.74343691  0.20141539  1
  Se  Se234  1  0.57107641  0.76486579  0.69259382  1
  Se  Se235  1  0.91808499  0.08788751  0.20125716  1
  Se  Se236  1  0.91253473  0.08288445  0.68516879  1
  Se  Se237  1  0.91440641  0.41462433  0.20321084  1
  Se  Se238  1  0.91240225  0.41702610  0.68892508  1
  Se  Se239  1  0.91654184  0.75361616  0.20522313  1
  Se  Se240  1  0.91996352  0.73955795  0.69251506  1
  Se  Se241  1  0.08192600  0.25354355  0.19427194  1
  Se  Se242  1  0.08897575  0.24107964  0.68993938  1
  Se  Se243  1  0.06380196  0.60707528  0.20122884  1
  Se  Se244  1  0.08355817  0.58065667  0.70195154  1
  Se  Se245  1  0.08172845  0.92110637  0.19772524  1
  Se  Se246  1  0.08622104  0.90441430  0.69323226  1
  Se  Se247  1  0.41867159  0.23473229  0.18166491  1
  Se  Se248  1  0.40673827  0.26129935  0.69374083  1
  Se  Se249  1  0.41588053  0.57774554  0.20090237  1
  Se  Se250  1  0.42575932  0.57796281  0.68544623  1
  Se  Se251  1  0.41753479  0.91766559  0.20102215  1
  Se  Se252  1  0.40912015  0.93110956  0.69640447  1
  Se  Se253  1  0.74677744  0.25261871  0.20109568  1
  Se  Se254  1  0.75461244  0.24088195  0.69033429  1
  Se  Se255  1  0.74560598  0.58608626  0.19687888  1
  Se  Se256  1  0.75691114  0.57463710  0.68619721  1
  Se  Se257  1  0.75631981  0.91386104  0.19254753  1
  Se  Se258  1  0.76406608  0.90417091  0.68806558  1
