# generated using pymatgen
data_In86Cu29Se144
_symmetry_space_group_name_H-M   'P 1'
_cell_length_a   17.58476252
_cell_length_b   17.58570066
_cell_length_c   23.44819344
_cell_angle_alpha   90.01422683
_cell_angle_beta   90.02604176
_cell_angle_gamma   89.98536115
_symmetry_Int_Tables_number   1
_chemical_formula_structural   In86Cu29Se144
_chemical_formula_sum   'In86 Cu29 Se144'
_cell_volume   7251.12680368
_cell_formula_units_Z   1
loop_
 _symmetry_equiv_pos_site_id
 _symmetry_equiv_pos_as_xyz
  1  'x, y, z'
loop_
 _atom_site_type_symbol
 _atom_site_label
 _atom_site_symmetry_multiplicity
 _atom_site_fract_x
 _atom_site_fract_y
 _atom_site_fract_z
 _atom_site_occupancy
  In  In0  1  -0.00587836  0.17769264  0.13223406  1
  In  In1  1  0.01088603  0.15379213  0.63492222  1
  In  In2  1  -0.01511565  0.49950204  0.12324585  1
  In  In3  1  -0.01014483  0.50564929  0.63469835  1
  In  In4  1  0.01321223  0.83572888  0.12212202  1
  In  In5  1  0.00142390  0.83275585  0.63492093  1
  In  In6  1  0.33530705  0.15210862  0.12729967  1
  In  In7  1  0.32757999  0.17060313  0.63088375  1
  In  In8  1  0.35402173  0.50369648  0.12919125  1
  In  In9  1  0.32236457  0.49826711  0.62830462  1
  In  In10  1  0.34019801  0.83404775  0.12117326  1
  In  In11  1  0.35358384  0.84311735  0.62253488  1
  In  In12  1  0.66376133  0.16603133  0.12293824  1
  In  In13  1  0.66389682  0.16756880  0.61951978  1
  In  In14  1  0.66397518  0.49735119  0.13484965  1
  In  In15  1  0.68171346  0.50044486  0.62005777  1
  In  In16  1  0.64922966  0.84933917  0.13126076  1
  In  In17  1  0.64907682  0.82891687  0.62472304  1
  In  In18  1  0.18095407  0.01299777  0.37197264  1
  In  In19  1  0.16384276  -0.00897481  0.87377030  1
  In  In20  1  0.15504345  0.33459143  0.37413560  1
  In  In21  1  0.16442463  0.33178751  0.86909407  1
  In  In22  1  0.17387937  0.64975283  0.36787277  1
  In  In23  1  0.16980897  0.68381397  0.87706823  1
  In  In24  1  0.48315876  -0.00796791  0.35669909  1
  In  In25  1  0.49432211  0.00228076  0.88049087  1
  In  In26  1  0.50672739  0.32613265  0.36401252  1
  In  In27  1  0.49849731  0.34053059  0.88058742  1
  In  In28  1  0.51127519  0.67324517  0.36048670  1
  In  In29  1  0.49759615  0.66126840  0.88648021  1
  In  In30  1  0.83840485  0.00564445  0.36201458  1
  In  In31  1  0.84509433  0.00323120  0.87738686  1
  In  In32  1  0.83468186  0.33394772  0.37474535  1
  In  In33  1  0.83476304  0.33039347  0.88207911  1
  In  In34  1  0.81432220  0.66014643  0.37052858  1
  In  In35  1  0.82174452  0.65672674  0.87300928  1
  In  In36  1  0.00908343  0.17422617  0.37293416  1
  In  In37  1  -0.00179457  0.16206996  0.87524951  1
  In  In38  1  -0.00136903  0.47323714  0.37218783  1
  In  In39  1  -0.00921573  0.49040133  0.87206772  1
  In  In40  1  -0.00966538  0.83695913  0.37337162  1
  In  In41  1  0.00883007  0.84341445  0.87027475  1
  In  In42  1  0.33457852  0.14129092  0.37583840  1
  In  In43  1  0.33932872  0.17313196  0.87166859  1
  In  In44  1  0.31459990  0.50820453  0.35957657  1
  In  In45  1  0.35061629  0.50429023  0.87632523  1
  In  In46  1  0.34821420  0.84585457  0.37132824  1
  In  In47  1  0.32459648  0.83208989  0.88331785  1
  In  In48  1  0.66219252  0.16833391  0.35660902  1
  In  In49  1  0.66294801  0.17156401  0.88709480  1
  In  In50  1  0.66666583  0.50379246  0.36701925  1
  In  In51  1  0.65777957  0.51131240  0.88639022  1
  In  In52  1  0.65230992  0.82426759  0.36475416  1
  In  In53  1  0.66337978  0.81821012  0.87448158  1
  In  In54  1  0.17920990  -0.00952699  0.13469554  1
  In  In55  1  0.16864523  0.00285306  0.62825883  1
  In  In56  1  0.16430642  0.32344598  0.12997408  1
  In  In57  1  0.17269336  0.32201710  0.63470558  1
  In  In58  1  0.17020967  0.68334300  0.12001471  1
  In  In59  1  0.16245172  0.65825699  0.62978800  1
  In  In60  1  0.49969848  0.00126348  0.12012469  1
  In  In61  1  0.49835273  -0.01695360  0.62255158  1
  In  In62  1  0.51530470  0.34526140  0.12170368  1
  In  In63  1  0.49533096  0.32221429  0.62653848  1
  In  In64  1  0.49879347  0.66882535  0.12980101  1
  In  In65  1  0.49895876  0.68436165  0.62609178  1
  In  In66  1  0.82172030  0.01532719  0.13038153  1
  In  In67  1  0.83953638  0.00983308  0.62872180  1
  In  In68  1  0.83144213  0.33398460  0.12648916  1
  In  In69  1  0.83059790  0.34990329  0.62389437  1
  In  In70  1  0.82772177  0.65085856  0.12020943  1
  In  In71  1  0.83786245  0.65990981  0.63212182  1
  In  In72  1  0.33439728  0.33275174  0.24636203  1
  In  In73  1  0.49801009  0.50414666  0.48596085  1
  In  In74  1  0.83179847  0.83228098  -0.00386998  1
  In  In75  1  0.16589575  0.16105076  0.00790918  1
  In  In76  1  0.16758831  0.83269216  0.50656394  1
  In  In77  1  0.33044966  0.66782065  0.75352940  1
  In  In78  1  0.50219749  0.16499503  0.49487092  1
  In  In79  1  0.83504209  0.17154993  0.49627525  1
  In  In80  1  0.82674379  0.83172009  0.49838410  1
  In  In81  1  0.67098954  -0.00566207  0.75030439  1
  In  In82  1  0.66664001  0.33578303  0.74465313  1
  In  In83  1  0.00269713  0.66712692  0.24455451  1
  In  In84  1  0.16101045  0.49537458  0.50198330  1
  In  In85  1  0.17548895  0.50515824  0.00227728  1
  Cu  Cu86  1  -0.00272978  0.33016798  0.50220589  1
  Cu  Cu87  1  0.66300948  0.00218523  0.00443021  1
  Cu  Cu88  1  0.83363935  0.83426692  0.24712445  1
  Cu  Cu89  1  0.16102563  0.49580608  0.75056989  1
  Cu  Cu90  1  0.16874357  0.83694623  0.75111620  1
  Cu  Cu91  1  -0.00203897  0.00272991  -0.00039591  1
  Cu  Cu92  1  0.16987406  0.83842106  0.24913927  1
  Cu  Cu93  1  0.66135331  -0.00631482  0.49113155  1
  Cu  Cu94  1  0.82995537  0.50052124  0.75272228  1
  Cu  Cu95  1  0.83488600  0.17160462  0.24793806  1
  Cu  Cu96  1  0.00115951  0.66639883  -0.00021032  1
  Cu  Cu97  1  0.00925333  0.00172081  0.50401970  1
  Cu  Cu98  1  0.33702803  0.67643861  0.49384978  1
  Cu  Cu99  1  -0.01116289  0.65384722  0.50300144  1
  Cu  Cu100  1  0.33429478  0.33037994  0.50265528  1
  Cu  Cu101  1  0.49421116  0.16211534  0.75192128  1
  Cu  Cu102  1  0.50186836  0.50170076  0.75818341  1
  Cu  Cu103  1  0.67170530  0.33664903  0.00683275  1
  Cu  Cu104  1  0.16616741  0.16206303  0.75388272  1
  Cu  Cu105  1  0.49691568  0.83685386  0.24232808  1
  Cu  Cu106  1  0.66099565  0.66315672  0.49274507  1
  Cu  Cu107  1  0.84256199  0.16892600  0.75492690  1
  Cu  Cu108  1  0.33246430  -0.00490806  0.00305870  1
  Cu  Cu109  1  0.83545841  0.82843557  0.75548825  1
  Cu  Cu110  1  0.16285775  0.16467721  0.25208211  1
  Cu  Cu111  1  -0.00824100  0.33482977  0.00192010  1
  Cu  Cu112  1  0.34641315  0.33384028  -0.00072777  1
  Cu  Cu113  1  0.83407562  0.49539312  0.24878620  1
  Cu  Cu114  1  0.66172746  0.66683366  0.00596978  1
  Se  Se115  1  0.07628339  0.07401177  0.06823932  1
  Se  Se116  1  0.08953488  0.08608703  0.55641353  1
  Se  Se117  1  0.08105628  0.41073789  0.05832313  1
  Se  Se118  1  0.07552432  0.40914754  0.56685393  1
  Se  Se119  1  0.08403890  0.75420443  0.04666386  1
  Se  Se120  1  0.07008295  0.73684435  0.55863047  1
  Se  Se121  1  0.41531083  0.08400426  0.05010434  1
  Se  Se122  1  0.41670274  0.08388600  0.56287667  1
  Se  Se123  1  0.42322650  0.42055634  0.05357476  1
  Se  Se124  1  0.41228849  0.41652630  0.55796241  1
  Se  Se125  1  0.43406349  0.76005508  0.05687842  1
  Se  Se126  1  0.42067668  0.75512432  0.54865010  1
  Se  Se127  1  0.75073097  0.08727786  0.05029801  1
  Se  Se128  1  0.74273916  0.07113248  0.55250819  1
  Se  Se129  1  0.75066512  0.42302030  0.06097983  1
  Se  Se130  1  0.74451210  0.40996723  0.54886875  1
  Se  Se131  1  0.74248021  0.75183060  0.06308436  1
  Se  Se132  1  0.74063114  0.73988541  0.55859929  1
  Se  Se133  1  0.26188954  0.25714976  0.05841290  1
  Se  Se134  1  0.24988171  0.25087491  0.55675089  1
  Se  Se135  1  0.26443640  0.59237276  0.06170877  1
  Se  Se136  1  0.25758677  0.59471636  0.55335609  1
  Se  Se137  1  0.24607988  0.91398125  0.05516091  1
  Se  Se138  1  0.26112468  0.92597607  0.55698775  1
  Se  Se139  1  0.58351388  0.25065609  0.05259796  1
  Se  Se140  1  0.59196290  0.26292673  0.55226767  1
  Se  Se141  1  0.58526036  0.58227170  0.06370811  1
  Se  Se142  1  0.58085849  0.58748812  0.55821383  1
  Se  Se143  1  0.57732505  0.91389599  0.04827550  1
  Se  Se144  1  0.58250716  0.91242983  0.54818256  1
  Se  Se145  1  0.91361706  0.24846804  0.05635957  1
  Se  Se146  1  0.92259914  0.24918384  0.56654086  1
  Se  Se147  1  0.91540214  0.58173856  0.04749002  1
  Se  Se148  1  0.90683707  0.57339678  0.55739412  1
  Se  Se149  1  0.91624217  0.92247522  0.06052669  1
  Se  Se150  1  0.92312220  0.92053340  0.55815183  1
  Se  Se151  1  0.08450636  0.25150006  0.44952955  1
  Se  Se152  1  0.08010588  0.25564878  0.94689472  1
  Se  Se153  1  0.07297159  0.58422917  0.43882769  1
  Se  Se154  1  0.07984670  0.58495110  0.93783933  1
  Se  Se155  1  0.08071769  0.91882583  0.44044969  1
  Se  Se156  1  0.08226125  0.91766284  0.94918629  1
  Se  Se157  1  0.41001477  0.25630159  0.43637600  1
  Se  Se158  1  0.42306398  0.24536848  0.94538152  1
  Se  Se159  1  0.40437049  0.59241420  0.42930495  1
  Se  Se160  1  0.41897864  0.57622274  0.95486741  1
  Se  Se161  1  0.41767869  0.93172314  0.44331356  1
  Se  Se162  1  0.41531903  0.91396937  0.94755293  1
  Se  Se163  1  0.73763203  0.24919317  0.43660798  1
  Se  Se164  1  0.75176996  0.25072050  0.95194746  1
  Se  Se165  1  0.74600481  0.57712417  0.44562400  1
  Se  Se166  1  0.75006777  0.58599913  0.95382472  1
  Se  Se167  1  0.74697652  0.92043651  0.43081704  1
  Se  Se168  1  0.74038913  0.92500693  0.93772839  1
  Se  Se169  1  0.24549680  0.08842858  0.45244151  1
  Se  Se170  1  0.25377652  0.07857601  0.94187039  1
  Se  Se171  1  0.25783240  0.41400826  0.44087234  1
  Se  Se172  1  0.25729989  0.40763031  0.94043928  1
  Se  Se173  1  0.24883670  0.74861048  0.43499151  1
  Se  Se174  1  0.25489107  0.74120423  0.95330628  1
  Se  Se175  1  0.58886344  0.07846387  0.43110968  1
  Se  Se176  1  0.57866145  0.08413869  0.94908715  1
  Se  Se177  1  0.58884424  0.40710921  0.43729976  1
  Se  Se178  1  0.58547262  0.41538234  0.95017541  1
  Se  Se179  1  0.57831912  0.74906893  0.44240774  1
  Se  Se180  1  0.58189152  0.75080611  0.95083564  1
  Se  Se181  1  0.92471668  0.07502602  0.44192842  1
  Se  Se182  1  0.91530822  0.08921047  0.95040146  1
  Se  Se183  1  0.91390858  0.41318612  0.44998297  1
  Se  Se184  1  0.91121644  0.42132186  0.94997863  1
  Se  Se185  1  0.91713552  0.73736153  0.44014473  1
  Se  Se186  1  0.92266878  0.74489801  0.93508032  1
  Se  Se187  1  0.24695904  0.24445815  0.31223695  1
  Se  Se188  1  0.24982034  0.24905305  0.80397888  1
  Se  Se189  1  0.25141869  0.59529722  0.28513560  1
  Se  Se190  1  0.24143572  0.57456925  0.81341600  1
  Se  Se191  1  0.25319509  0.91979920  0.30531644  1
  Se  Se192  1  0.25408230  0.91445287  0.80663405  1
  Se  Se193  1  0.58058363  0.25115902  0.28864652  1
  Se  Se194  1  0.57980176  0.24441471  0.80710945  1
  Se  Se195  1  0.58029153  0.57701750  0.29700356  1
  Se  Se196  1  0.58108139  0.58728782  0.81067490  1
  Se  Se197  1  0.58381014  0.91861668  0.29683856  1
  Se  Se198  1  0.57877663  0.91159423  0.81091822  1
  Se  Se199  1  0.91781993  0.25068107  0.30687910  1
  Se  Se200  1  0.91937496  0.25453158  0.81032632  1
  Se  Se201  1  0.91590395  0.57751858  0.30975343  1
  Se  Se202  1  0.91481587  0.58331230  0.80592453  1
  Se  Se203  1  0.92046160  0.91653383  0.29745028  1
  Se  Se204  1  0.91531543  0.91860076  0.80393058  1
  Se  Se205  1  0.08103522  0.07978454  0.30643847  1
  Se  Se206  1  0.08255745  0.07969998  0.80841893  1
  Se  Se207  1  0.10303627  0.43324387  0.30297280  1
  Se  Se208  1  0.07744953  0.41220643  0.80328223  1
  Se  Se209  1  0.08994211  0.75648063  0.31004555  1
  Se  Se210  1  0.08498866  0.75205039  0.80221148  1
  Se  Se211  1  0.42889467  0.10406212  0.29827968  1
  Se  Se212  1  0.41382690  0.07872167  0.80601405  1
  Se  Se213  1  0.41971419  0.42565060  0.30806244  1
  Se  Se214  1  0.41756939  0.41342355  0.80420288  1
  Se  Se215  1  0.41611032  0.75460607  0.30051096  1
  Se  Se216  1  0.41986459  0.75250484  0.81470796  1
  Se  Se217  1  0.75062125  0.08248127  0.29521683  1
  Se  Se218  1  0.75281419  0.09339217  0.81130412  1
  Se  Se219  1  0.75178796  0.41383776  0.30474134  1
  Se  Se220  1  0.74756223  0.42196840  0.81349411  1
  Se  Se221  1  0.74949296  0.75114506  0.29983017  1
  Se  Se222  1  0.74776012  0.74544573  0.80241299  1
  Se  Se223  1  0.25157463  0.08339353  0.20223197  1
  Se  Se224  1  0.25172615  0.08165267  0.69943671  1
  Se  Se225  1  0.24580640  0.42422499  0.18585646  1
  Se  Se226  1  0.25014384  0.41536246  0.70034000  1
  Se  Se227  1  0.25165742  0.75763795  0.19326537  1
  Se  Se228  1  0.24694198  0.75832220  0.68636052  1
  Se  Se229  1  0.59983800  0.06381451  0.18672073  1
  Se  Se230  1  0.57977305  0.08842067  0.69079824  1
  Se  Se231  1  0.58823410  0.40878098  0.20380756  1
  Se  Se232  1  0.57423539  0.42707342  0.68700840  1
  Se  Se233  1  0.58700032  0.75042079  0.19882173  1
  Se  Se234  1  0.58332448  0.74838016  0.70100067  1
  Se  Se235  1  0.91832086  0.08435442  0.19745820  1
  Se  Se236  1  0.92080630  0.07827087  0.70404728  1
  Se  Se237  1  0.91958952  0.41268509  0.19763118  1
  Se  Se238  1  0.91280753  0.41430358  0.70166165  1
  Se  Se239  1  0.91005550  0.75420090  0.18320975  1
  Se  Se240  1  0.91864479  0.74629072  0.69910768  1
  Se  Se241  1  0.08081382  0.25330062  0.20374968  1
  Se  Se242  1  0.08158713  0.24798816  0.70235289  1
  Se  Se243  1  0.08841755  0.58102370  0.18029801  1
  Se  Se244  1  0.07960744  0.58460162  0.70139741  1
  Se  Se245  1  0.08033423  0.91824539  0.19887145  1
  Se  Se246  1  0.08483018  0.92022901  0.69714966  1
  Se  Se247  1  0.42252418  0.24883940  0.18264365  1
  Se  Se248  1  0.41387038  0.25143742  0.70036461  1
  Se  Se249  1  0.42254788  0.58593464  0.20329457  1
  Se  Se250  1  0.42182425  0.57776363  0.69138899  1
  Se  Se251  1  0.41377240  0.92344853  0.19192024  1
  Se  Se252  1  0.42035945  0.91874306  0.70129433  1
  Se  Se253  1  0.74834236  0.24890585  0.19281282  1
  Se  Se254  1  0.75993597  0.23960409  0.68971151  1
  Se  Se255  1  0.75213426  0.58460400  0.20019916  1
  Se  Se256  1  0.74594460  0.58231011  0.69818902  1
  Se  Se257  1  0.75046946  0.91781624  0.19431670  1
  Se  Se258  1  0.76031617  0.90498261  0.68661550  1
