# generated using pymatgen
data_In86Cu29Se144
_symmetry_space_group_name_H-M   'P 1'
_cell_length_a   17.57895677
_cell_length_b   17.58063322
_cell_length_c   23.44157723
_cell_angle_alpha   89.98854694
_cell_angle_beta   90.00696261
_cell_angle_gamma   89.97899555
_symmetry_Int_Tables_number   1
_chemical_formula_structural   In86Cu29Se144
_chemical_formula_sum   'In86 Cu29 Se144'
_cell_volume   7244.59980052
_cell_formula_units_Z   1
loop_
 _symmetry_equiv_pos_site_id
 _symmetry_equiv_pos_as_xyz
  1  'x, y, z'
loop_
 _atom_site_type_symbol
 _atom_site_label
 _atom_site_symmetry_multiplicity
 _atom_site_fract_x
 _atom_site_fract_y
 _atom_site_fract_z
 _atom_site_occupancy
  In  In0  1  0.00195985  0.16349435  0.13370336  1
  In  In1  1  0.00466577  0.15271175  0.62552704  1
  In  In2  1  -0.00659576  0.48555549  0.11872714  1
  In  In3  1  0.00064093  0.50888178  0.61924242  1
  In  In4  1  0.01326039  0.84858945  0.12167947  1
  In  In5  1  0.01339509  0.81868477  0.62139855  1
  In  In6  1  0.33637821  0.16725189  0.12868739  1
  In  In7  1  0.34012967  0.17778491  0.61178122  1
  In  In8  1  0.32915876  0.50575448  0.12988305  1
  In  In9  1  0.33424596  0.49825569  0.63996424  1
  In  In10  1  0.33443624  0.83606422  0.12672651  1
  In  In11  1  0.32647058  0.82676073  0.61463158  1
  In  In12  1  0.67289501  0.16989521  0.12686828  1
  In  In13  1  0.65284350  0.18049031  0.61634743  1
  In  In14  1  0.67999156  0.49497489  0.13306038  1
  In  In15  1  0.66535131  0.48852113  0.61771389  1
  In  In16  1  0.65634961  0.82543083  0.12239331  1
  In  In17  1  0.66416338  0.84734031  0.62238985  1
  In  In18  1  0.17591892  0.00278332  0.37610713  1
  In  In19  1  0.16669501  0.00122879  0.88530539  1
  In  In20  1  0.15797561  0.32159551  0.36798391  1
  In  In21  1  0.17102125  0.33416143  0.88271691  1
  In  In22  1  0.17981046  0.66450197  0.37200357  1
  In  In23  1  0.18247237  0.65684143  0.88731979  1
  In  In24  1  0.47046687  0.01798478  0.39007890  1
  In  In25  1  0.49900323  0.00101916  0.88716670  1
  In  In26  1  0.48880722  0.31276221  0.34708930  1
  In  In27  1  0.48647164  0.33369679  0.87962217  1
  In  In28  1  0.51149738  0.67813173  0.37090458  1
  In  In29  1  0.49580730  0.67028983  0.87405691  1
  In  In30  1  0.84303946  -0.00005997  0.36377473  1
  In  In31  1  0.83165377  0.00022227  0.89394356  1
  In  In32  1  0.84547197  0.33579043  0.35941511  1
  In  In33  1  0.83289274  0.33409839  0.89110092  1
  In  In34  1  0.81424162  0.66173748  0.37105808  1
  In  In35  1  0.83770794  0.66002484  0.89308105  1
  In  In36  1  0.01550877  0.18508914  0.35737458  1
  In  In37  1  0.00288195  0.16728764  0.89004408  1
  In  In38  1  -0.00589192  0.47264657  0.37606539  1
  In  In39  1  0.00320876  0.49719551  0.88678702  1
  In  In40  1  0.00392656  0.84731871  0.36798757  1
  In  In41  1  0.00516033  0.82280804  0.88965438  1
  In  In42  1  0.33266910  0.16438633  0.36992062  1
  In  In43  1  0.32547489  0.17386304  0.88812956  1
  In  In44  1  0.33594740  0.50362215  0.36229517  1
  In  In45  1  0.32344959  0.48894553  0.86000729  1
  In  In46  1  0.33523995  0.83363793  0.37660336  1
  In  In47  1  0.34030227  0.82546313  0.88357140  1
  In  In48  1  0.65290893  0.16163797  0.36403654  1
  In  In49  1  0.66307005  0.17228205  0.89144017  1
  In  In50  1  0.67158164  0.50777569  0.37511977  1
  In  In51  1  0.66978724  0.50404720  0.87893294  1
  In  In52  1  0.65933160  0.82022463  0.36954114  1
  In  In53  1  0.66106536  0.83319804  0.89099762  1
  In  In54  1  0.16896048  0.00183698  0.12890775  1
  In  In55  1  0.19105767  0.01371404  0.60068102  1
  In  In56  1  0.16820218  0.33019341  0.12558312  1
  In  In57  1  0.18282754  0.34386926  0.61899062  1
  In  In58  1  0.17706163  0.67467498  0.11934626  1
  In  In59  1  0.16844627  0.66975225  0.62119716  1
  In  In60  1  0.49185614  -0.00711760  0.12300709  1
  In  In61  1  0.47751527  -0.00922689  0.59595132  1
  In  In62  1  0.50722492  0.32048991  0.13714054  1
  In  In63  1  0.49437687  0.33031851  0.62040698  1
  In  In64  1  0.49384929  0.67837022  0.13416982  1
  In  In65  1  0.48357030  0.65674906  0.62301225  1
  In  In66  1  0.84660466  0.01432203  0.12492691  1
  In  In67  1  0.83426528  -0.00257835  0.62014320  1
  In  In68  1  0.83348169  0.32549587  0.13631012  1
  In  In69  1  0.81637307  0.33560658  0.61991448  1
  In  In70  1  0.82650724  0.65680520  0.12087119  1
  In  In71  1  0.84710073  0.66222249  0.62185014  1
  In  In72  1  0.65919679  0.66177579  0.75310492  1
  In  In73  1  0.33364905  0.00065881  0.74927270  1
  In  In74  1  0.01099159  -0.01044853  0.75108147  1
  In  In75  1  0.83402915  0.17226151  0.49299522  1
  In  In76  1  0.65973166  -0.00571296  0.24773824  1
  In  In77  1  0.65417936  0.33571202  0.74637831  1
  In  In78  1  0.00586211  0.33717805  0.75320254  1
  In  In79  1  0.01154406  0.66185877  0.74836822  1
  In  In80  1  0.65379759  0.00889280  0.74646968  1
  In  In81  1  0.50770119  0.50101964  0.49695146  1
  In  In82  1  0.49967808  0.49874920  0.00228081  1
  In  In83  1  0.83459198  0.83245845  0.49516972  1
  In  In84  1  -0.00099265  0.66431065  0.24082461  1
  In  In85  1  0.16057259  0.49775717  0.49951903  1
  Cu  Cu86  1  0.66091529  0.33694021  0.48986573  1
  Cu  Cu87  1  0.66535148  -0.00087962  0.01097263  1
  Cu  Cu88  1  0.17325219  0.83195821  0.74454701  1
  Cu  Cu89  1  0.49597613  0.83028486  0.75081959  1
  Cu  Cu90  1  0.00097719  0.32974513  0.00895520  1
  Cu  Cu91  1  0.32814833  0.00003608  0.00698408  1
  Cu  Cu92  1  0.83361404  0.50011763  0.75231700  1
  Cu  Cu93  1  0.17272853  0.83666296  0.24690273  1
  Cu  Cu94  1  0.33468537  0.33081121  0.00425663  1
  Cu  Cu95  1  0.83513205  0.50392809  0.24792105  1
  Cu  Cu96  1  0.66395190  0.66148292  0.00308909  1
  Cu  Cu97  1  0.33665750  0.66954067  0.49791001  1
  Cu  Cu98  1  0.17338157  0.17529816  0.75350425  1
  Cu  Cu99  1  0.49306323  0.83742149  0.25356858  1
  Cu  Cu100  1  0.33290412  0.33564319  0.48993597  1
  Cu  Cu101  1  -0.00096790  0.67082369  0.00974513  1
  Cu  Cu102  1  0.66012220  0.00214169  0.48821984  1
  Cu  Cu103  1  -0.00161913  0.66602865  0.49444178  1
  Cu  Cu104  1  0.67084071  0.32981351  0.01429840  1
  Cu  Cu105  1  0.83131154  0.16333523  0.76112871  1
  Cu  Cu106  1  0.33422917  0.66695764  0.00533775  1
  Cu  Cu107  1  0.01402597  0.00427366  0.49279435  1
  Cu  Cu108  1  0.49157342  0.16787113  0.74507314  1
  Cu  Cu109  1  0.16412107  0.49543517  0.24767552  1
  Cu  Cu110  1  0.50103832  0.50517356  0.24739381  1
  Cu  Cu111  1  0.83448364  0.83365374  0.24463310  1
  Cu  Cu112  1  0.83143939  0.83077205  0.76369029  1
  Cu  Cu113  1  0.17283354  0.16174434  0.24798511  1
  Cu  Cu114  1  0.00077154  0.00428109  0.00764488  1
  Se  Se115  1  0.08526218  0.08598563  0.06047966  1
  Se  Se116  1  0.08895380  0.09347361  0.54744931  1
  Se  Se117  1  0.09028868  0.41589630  0.05342600  1
  Se  Se118  1  0.07049378  0.40495785  0.55658683  1
  Se  Se119  1  0.08701768  0.75535235  0.05527770  1
  Se  Se120  1  0.08846558  0.74369229  0.54544904  1
  Se  Se121  1  0.41503617  0.08353665  0.05574443  1
  Se  Se122  1  0.40877838  0.09200075  0.53866548  1
  Se  Se123  1  0.41579654  0.40883975  0.06557189  1
  Se  Se124  1  0.40390903  0.41898083  0.55476286  1
  Se  Se125  1  0.41793898  0.75151540  0.05668238  1
  Se  Se126  1  0.42297038  0.74974941  0.55130076  1
  Se  Se127  1  0.75158911  0.08488604  0.05746595  1
  Se  Se128  1  0.74014844  0.07872102  0.55506276  1
  Se  Se129  1  0.75772041  0.41281974  0.06246447  1
  Se  Se130  1  0.74697684  0.41702947  0.54305262  1
  Se  Se131  1  0.74620317  0.74684272  0.05532798  1
  Se  Se132  1  0.75002582  0.74819094  0.56311037  1
  Se  Se133  1  0.25191543  0.24703110  0.05709037  1
  Se  Se134  1  0.24772142  0.25597889  0.54566202  1
  Se  Se135  1  0.25016016  0.57919008  0.05311363  1
  Se  Se136  1  0.26058727  0.58178266  0.55628243  1
  Se  Se137  1  0.24597124  0.91454245  0.05829981  1
  Se  Se138  1  0.25901544  0.91386980  0.54200125  1
  Se  Se139  1  0.58133808  0.24611286  0.05862798  1
  Se  Se140  1  0.57386164  0.25766936  0.54386500  1
  Se  Se141  1  0.58530599  0.58555042  0.06755147  1
  Se  Se142  1  0.59323334  0.59390829  0.55907162  1
  Se  Se143  1  0.57720073  0.91212248  0.05431605  1
  Se  Se144  1  0.58487419  0.91451803  0.54516824  1
  Se  Se145  1  0.91857510  0.24844341  0.06431340  1
  Se  Se146  1  0.91770052  0.25138629  0.56609565  1
  Se  Se147  1  0.91641335  0.57989969  0.05458802  1
  Se  Se148  1  0.91658096  0.58063072  0.54580628  1
  Se  Se149  1  0.91489316  0.91851953  0.05668659  1
  Se  Se150  1  0.93235219  0.92226207  0.55449319  1
  Se  Se151  1  0.07050218  0.25824364  0.44235315  1
  Se  Se152  1  0.08822625  0.25295584  0.95235805  1
  Se  Se153  1  0.07502734  0.58469914  0.43162028  1
  Se  Se154  1  0.08001666  0.59056835  0.94983292  1
  Se  Se155  1  0.09034035  0.91282474  0.44209017  1
  Se  Se156  1  0.08131905  0.91912546  0.95117596  1
  Se  Se157  1  0.41745283  0.25708256  0.43497486  1
  Se  Se158  1  0.42125863  0.24722805  0.95373086  1
  Se  Se159  1  0.41328636  0.58770262  0.43748488  1
  Se  Se160  1  0.40779159  0.58397753  0.94130923  1
  Se  Se161  1  0.42994245  0.89944402  0.44614739  1
  Se  Se162  1  0.41274025  0.91797440  0.95106484  1
  Se  Se163  1  0.74040596  0.25349100  0.43100926  1
  Se  Se164  1  0.75473498  0.24651157  0.95758072  1
  Se  Se165  1  0.74837311  0.58598967  0.44955600  1
  Se  Se166  1  0.74899247  0.57453610  0.95486110  1
  Se  Se167  1  0.74797456  0.92444098  0.43384185  1
  Se  Se168  1  0.74768857  0.91278599  0.95702418  1
  Se  Se169  1  0.24947716  0.09259377  0.44423517  1
  Se  Se170  1  0.24529748  0.08581619  0.95365194  1
  Se  Se171  1  0.25217894  0.41809815  0.43291409  1
  Se  Se172  1  0.26068508  0.41838579  0.94608323  1
  Se  Se173  1  0.24909020  0.74873775  0.44554400  1
  Se  Se174  1  0.24940578  0.75446728  0.95372625  1
  Se  Se175  1  0.57793472  0.09305945  0.44410134  1
  Se  Se176  1  0.58258138  0.08236154  0.95467742  1
  Se  Se177  1  0.57606483  0.40761152  0.42681890  1
  Se  Se178  1  0.59433776  0.40434696  0.94534844  1
  Se  Se179  1  0.59284592  0.74466714  0.44799407  1
  Se  Se180  1  0.57640465  0.74140963  0.94994413  1
  Se  Se181  1  0.92525565  0.07986771  0.43703381  1
  Se  Se182  1  0.91456038  0.08920971  0.95630292  1
  Se  Se183  1  0.90589423  0.40429117  0.44612283  1
  Se  Se184  1  0.91920786  0.41692743  0.95481614  1
  Se  Se185  1  0.92221769  0.74509154  0.43012207  1
  Se  Se186  1  0.91125215  0.75349487  0.95761496  1
  Se  Se187  1  0.25109335  0.25080777  0.30104581  1
  Se  Se188  1  0.25408284  0.25363881  0.81098935  1
  Se  Se189  1  0.24767830  0.58346239  0.29571513  1
  Se  Se190  1  0.25137594  0.59367002  0.80432314  1
  Se  Se191  1  0.25441428  0.91634506  0.30563881  1
  Se  Se192  1  0.24458356  0.91202646  0.81146989  1
  Se  Se193  1  0.60462018  0.25979963  0.28921387  1
  Se  Se194  1  0.57685391  0.23831237  0.80913798  1
  Se  Se195  1  0.58509779  0.58475623  0.30432073  1
  Se  Se196  1  0.57085649  0.56697559  0.80959438  1
  Se  Se197  1  0.56970466  0.91786085  0.31656801  1
  Se  Se198  1  0.57643888  0.90970566  0.81146122  1
  Se  Se199  1  0.90888045  0.23667551  0.29295071  1
  Se  Se200  1  0.91229268  0.24661420  0.81520976  1
  Se  Se201  1  0.91732308  0.57877727  0.31113359  1
  Se  Se202  1  0.91257698  0.58037748  0.81178047  1
  Se  Se203  1  0.92135222  0.91695519  0.29296103  1
  Se  Se204  1  0.91384917  0.91347537  0.81849294  1
  Se  Se205  1  0.08927481  0.07948041  0.30400875  1
  Se  Se206  1  0.08984368  0.09339039  0.81047985  1
  Se  Se207  1  0.08054237  0.41220028  0.29950672  1
  Se  Se208  1  0.09234738  0.42955585  0.81162111  1
  Se  Se209  1  0.08941988  0.75212152  0.30351238  1
  Se  Se210  1  0.09022869  0.75948293  0.80858131  1
  Se  Se211  1  0.42542728  0.09118716  0.30216745  1
  Se  Se212  1  0.42046607  0.08937724  0.81312790  1
  Se  Se213  1  0.41360063  0.41844869  0.29333899  1
  Se  Se214  1  0.42099591  0.41042489  0.80231816  1
  Se  Se215  1  0.41405806  0.74700378  0.30559168  1
  Se  Se216  1  0.41166520  0.74996068  0.80421451  1
  Se  Se217  1  0.75585393  0.08742583  0.30091494  1
  Se  Se218  1  0.74715583  0.08491310  0.81722958  1
  Se  Se219  1  0.75151422  0.42404107  0.30440880  1
  Se  Se220  1  0.75583999  0.41519877  0.80943759  1
  Se  Se221  1  0.75128264  0.75310295  0.29835888  1
  Se  Se222  1  0.75090403  0.74853479  0.81849981  1
  Se  Se223  1  0.25781556  0.07784396  0.19766720  1
  Se  Se224  1  0.24715170  0.09325657  0.68900585  1
  Se  Se225  1  0.25042220  0.41456967  0.19487921  1
  Se  Se226  1  0.24794884  0.41162484  0.70089867  1
  Se  Se227  1  0.25312699  0.74908500  0.19593177  1
  Se  Se228  1  0.25409545  0.74727911  0.69098451  1
  Se  Se229  1  0.57421374  0.08678897  0.18852870  1
  Se  Se230  1  0.56373214  0.08821882  0.67859322  1
  Se  Se231  1  0.58374851  0.42114773  0.19571806  1
  Se  Se232  1  0.56640341  0.42999670  0.68970001  1
  Se  Se233  1  0.58248772  0.75514994  0.20326096  1
  Se  Se234  1  0.57951413  0.75656714  0.68891825  1
  Se  Se235  1  0.91499721  0.08766583  0.20421287  1
  Se  Se236  1  0.90763279  0.08261960  0.69899642  1
  Se  Se237  1  0.91898812  0.41712051  0.19884344  1
  Se  Se238  1  0.90940662  0.42030610  0.68882693  1
  Se  Se239  1  0.91329978  0.75719092  0.18144811  1
  Se  Se240  1  0.91267967  0.75909089  0.69713309  1
  Se  Se241  1  0.08879179  0.24913169  0.19820605  1
  Se  Se242  1  0.08949801  0.24571208  0.68942658  1
  Se  Se243  1  0.08926023  0.57548579  0.18230977  1
  Se  Se244  1  0.09954402  0.56858874  0.69060562  1
  Se  Se245  1  0.08483617  0.92144866  0.20086220  1
  Se  Se246  1  0.10064757  0.91455648  0.68076417  1
  Se  Se247  1  0.40884946  0.25449354  0.20078057  1
  Se  Se248  1  0.41039348  0.25289317  0.69165730  1
  Se  Se249  1  0.41339392  0.58818183  0.19757718  1
  Se  Se250  1  0.41347140  0.58893532  0.70275587  1
  Se  Se251  1  0.41218322  0.91971214  0.19888885  1
  Se  Se252  1  0.42297624  0.91326702  0.68634578  1
  Se  Se253  1  0.72960503  0.26273365  0.20238566  1
  Se  Se254  1  0.75151480  0.23783465  0.69509762  1
  Se  Se255  1  0.74907267  0.59111242  0.20139027  1
  Se  Se256  1  0.75497236  0.57692560  0.68961081  1
  Se  Se257  1  0.75349161  0.91314863  0.18370374  1
  Se  Se258  1  0.75855738  0.91370772  0.69943786  1
