# generated using pymatgen
data_In86Cu29Se144
_symmetry_space_group_name_H-M   'P 1'
_cell_length_a   17.64019514
_cell_length_b   17.63778049
_cell_length_c   23.50988813
_cell_angle_alpha   90.00921124
_cell_angle_beta   89.97987176
_cell_angle_gamma   90.01156583
_symmetry_Int_Tables_number   1
_chemical_formula_structural   In86Cu29Se144
_chemical_formula_sum   'In86 Cu29 Se144'
_cell_volume   7314.72224726
_cell_formula_units_Z   1
loop_
 _symmetry_equiv_pos_site_id
 _symmetry_equiv_pos_as_xyz
  1  'x, y, z'
loop_
 _atom_site_type_symbol
 _atom_site_label
 _atom_site_symmetry_multiplicity
 _atom_site_fract_x
 _atom_site_fract_y
 _atom_site_fract_z
 _atom_site_occupancy
  In  In0  1  0.00359971  0.15991367  0.13441988  1
  In  In1  1  0.00476497  0.15578915  0.61961504  1
  In  In2  1  0.00369460  0.49744488  0.13027696  1
  In  In3  1  -0.00835144  0.51083127  0.61904528  1
  In  In4  1  -0.01079629  0.84680679  0.13849855  1
  In  In5  1  0.00035321  0.82943753  0.61195863  1
  In  In6  1  0.34743790  0.17994771  0.11863008  1
  In  In7  1  0.33527874  0.16481038  0.62065532  1
  In  In8  1  0.31774527  0.49320810  0.11376153  1
  In  In9  1  0.35077744  0.49575646  0.62499782  1
  In  In10  1  0.33092832  0.83070533  0.12483990  1
  In  In11  1  0.33767051  0.83334318  0.62938572  1
  In  In12  1  0.66230926  0.17808448  0.11989100  1
  In  In13  1  0.65942050  0.18224978  0.62568351  1
  In  In14  1  0.68134063  0.51482556  0.11187642  1
  In  In15  1  0.66973076  0.50739910  0.62766737  1
  In  In16  1  0.67242181  0.80746165  0.12705848  1
  In  In17  1  0.66071598  0.81965006  0.62549544  1
  In  In18  1  0.16015844  -0.00122038  0.37453737  1
  In  In19  1  0.17406095  0.00256394  0.87553600  1
  In  In20  1  0.16200492  0.32165070  0.36690443  1
  In  In21  1  0.15426865  0.33855043  0.89247626  1
  In  In22  1  0.16174208  0.67836983  0.37291497  1
  In  In23  1  0.16922222  0.66255831  0.87681241  1
  In  In24  1  0.49594680  0.00044167  0.38695324  1
  In  In25  1  0.49507853  0.01817475  0.87146565  1
  In  In26  1  0.49477497  0.34174476  0.38122896  1
  In  In27  1  0.50203659  0.32943822  0.87500212  1
  In  In28  1  0.50906479  0.66131238  0.38430516  1
  In  In29  1  0.49264693  0.66461980  0.86507489  1
  In  In30  1  0.83162310  -0.00795594  0.37654706  1
  In  In31  1  0.82356475  -0.01115488  0.87644466  1
  In  In32  1  0.84492268  0.32882714  0.37431510  1
  In  In33  1  0.81918400  0.40678837  0.90294880  1
  In  In34  1  0.82984481  0.66561965  0.37160090  1
  In  In35  1  0.82333664  0.65951074  0.88867787  1
  In  In36  1  0.00926015  0.17934271  0.36148322  1
  In  In37  1  -0.00463629  0.18347648  0.88495786  1
  In  In38  1  -0.00858658  0.48909954  0.36549305  1
  In  In39  1  0.00088043  0.50284947  0.88714263  1
  In  In40  1  -0.00238183  0.82997033  0.36961676  1
  In  In41  1  -0.01131420  0.81966933  0.88145035  1
  In  In42  1  0.32606705  0.16791292  0.37694643  1
  In  In43  1  0.32930840  0.16925426  0.87741910  1
  In  In44  1  0.35119535  0.49893883  0.37625277  1
  In  In45  1  0.32681116  0.50649262  0.87733896  1
  In  In46  1  0.32888717  0.83571526  0.38720275  1
  In  In47  1  0.34253712  0.84174635  0.85232513  1
  In  In48  1  0.66697630  0.16183041  0.38157011  1
  In  In49  1  0.65498628  0.17014393  0.87609965  1
  In  In50  1  0.65236976  0.50588159  0.38155265  1
  In  In51  1  0.65936227  0.49801226  0.86818932  1
  In  In52  1  0.67792189  0.82334632  0.38610755  1
  In  In53  1  0.67214802  0.82559331  0.87218425  1
  In  In54  1  0.14859456  0.00135083  0.13209561  1
  In  In55  1  0.18123615  0.00701522  0.61901260  1
  In  In56  1  0.16794096  0.33686829  0.12443159  1
  In  In57  1  0.17660088  0.32351398  0.62142604  1
  In  In58  1  0.16536868  0.65453242  0.12806095  1
  In  In59  1  0.16294377  0.68229344  0.62149362  1
  In  In60  1  0.49140474  0.00050097  0.12219198  1
  In  In61  1  0.48496401  -0.01640033  0.62008218  1
  In  In62  1  0.49780204  0.33729102  0.11940304  1
  In  In63  1  0.52857685  0.35657862  0.59948900  1
  In  In64  1  0.51583940  0.65740982  0.12378244  1
  In  In65  1  0.50445142  0.67096395  0.63112733  1
  In  In66  1  0.84704571  0.00177779  0.12615950  1
  In  In67  1  0.83916766  -0.00961334  0.62297896  1
  In  In68  1  0.83591016  0.33894990  0.13083398  1
  In  In69  1  0.81766942  0.33950222  0.62454739  1
  In  In70  1  0.83300057  0.66661167  0.12571147  1
  In  In71  1  0.82952945  0.65741558  0.62026316  1
  In  In72  1  0.32904314  0.00016744  0.25861263  1
  In  In73  1  0.33880323  0.32454365  0.74882150  1
  In  In74  1  0.00256277  0.66825958  0.74949764  1
  In  In75  1  0.33132822  0.65946543  0.25005813  1
  In  In76  1  0.65862697  -0.00909908  0.73981337  1
  In  In77  1  0.82847760  0.17105145  0.00385902  1
  In  In78  1  0.50506224  0.83611379  -0.01265676  1
  In  In79  1  0.16849677  0.49806450  0.49881018  1
  In  In80  1  -0.00046119  -0.00284514  0.75508128  1
  In  In81  1  -0.00798687  0.33428902  0.76435131  1
  In  In82  1  0.16423665  0.83068510  0.00018482  1
  In  In83  1  0.67142412  0.33817533  0.24831927  1
  In  In84  1  0.66893254  -0.00300764  0.26015643  1
  In  In85  1  0.83548801  0.16695571  0.49518610  1
  Cu  Cu86  1  0.17748383  0.50693270  0.75377191  1
  Cu  Cu87  1  0.16703855  0.49356231  0.24746552  1
  Cu  Cu88  1  0.34065131  0.67345760  -0.00525344  1
  Cu  Cu89  1  0.50129677  0.82433219  0.25547616  1
  Cu  Cu90  1  0.50421082  0.17348269  0.24488518  1
  Cu  Cu91  1  0.66136998  -0.00699936  -0.00468569  1
  Cu  Cu92  1  0.83217755  0.50529826  0.24790717  1
  Cu  Cu93  1  0.82954657  0.83014529  0.25396660  1
  Cu  Cu94  1  -0.00519287  -0.00182447  0.00797982  1
  Cu  Cu95  1  0.17043223  0.83990505  0.74310071  1
  Cu  Cu96  1  0.33132805  -0.00735480  0.50269237  1
  Cu  Cu97  1  0.66006525  0.33441959  -0.00288114  1
  Cu  Cu98  1  0.00748005  -0.00320580  0.49625027  1
  Cu  Cu99  1  0.66624156  -0.00038020  0.50392150  1
  Cu  Cu100  1  0.66433081  0.66715911  0.50409114  1
  Cu  Cu101  1  0.16440798  0.17026446  0.74865647  1
  Cu  Cu102  1  0.33417966  0.33721097  -0.00229880  1
  Cu  Cu103  1  0.32932379  0.01121895  -0.00010680  1
  Cu  Cu104  1  -0.00314702  0.66369764  0.00840644  1
  Cu  Cu105  1  -0.00680274  0.66717501  0.49238431  1
  Cu  Cu106  1  0.82603257  0.50279737  0.75167700  1
  Cu  Cu107  1  0.33762366  0.66739671  0.50265583  1
  Cu  Cu108  1  0.00242816  0.32981815  0.49181362  1
  Cu  Cu109  1  0.50141015  0.49763625  0.25080424  1
  Cu  Cu110  1  0.49464450  0.17409576  0.74792356  1
  Cu  Cu111  1  0.50525350  0.50001790  0.74496049  1
  Cu  Cu112  1  0.82559159  0.16802205  0.75178173  1
  Cu  Cu113  1  0.33269767  0.32281812  0.49797934  1
  Cu  Cu114  1  0.17694614  0.16940693  0.24699984  1
  Se  Se115  1  0.07929704  0.08207578  0.05682016  1
  Se  Se116  1  0.08892275  0.08115171  0.55035372  1
  Se  Se117  1  0.10083460  0.43650597  0.06078284  1
  Se  Se118  1  0.07706580  0.40755414  0.56005530  1
  Se  Se119  1  0.07623739  0.74854092  0.06578438  1
  Se  Se120  1  0.08202117  0.74681056  0.54359682  1
  Se  Se121  1  0.42120180  0.08651038  0.05117073  1
  Se  Se122  1  0.41532022  0.07878228  0.55281225  1
  Se  Se123  1  0.41647139  0.42142289  0.05108342  1
  Se  Se124  1  0.41218474  0.41423350  0.54645999  1
  Se  Se125  1  0.41859652  0.75024980  0.05724127  1
  Se  Se126  1  0.41766779  0.74848644  0.56005592  1
  Se  Se127  1  0.73980664  0.07228775  0.05998603  1
  Se  Se128  1  0.74821164  0.08113212  0.56295575  1
  Se  Se129  1  0.74802213  0.40457023  0.05696805  1
  Se  Se130  1  0.75671156  0.43254014  0.55654917  1
  Se  Se131  1  0.74656059  0.73616544  0.05139066  1
  Se  Se132  1  0.75116834  0.74910283  0.55541025  1
  Se  Se133  1  0.25406055  0.25490259  0.05516878  1
  Se  Se134  1  0.24739405  0.24069798  0.54891670  1
  Se  Se135  1  0.25301213  0.59666044  0.05039799  1
  Se  Se136  1  0.25579211  0.58601549  0.56221518  1
  Se  Se137  1  0.25326458  0.92605058  0.05952458  1
  Se  Se138  1  0.25004160  0.90789165  0.55628981  1
  Se  Se139  1  0.57716515  0.25041396  0.04960531  1
  Se  Se140  1  0.58117995  0.24138113  0.54542041  1
  Se  Se141  1  0.57992979  0.57682791  0.04743116  1
  Se  Se142  1  0.58121295  0.58639980  0.55959983  1
  Se  Se143  1  0.58764440  0.91466886  0.06267293  1
  Se  Se144  1  0.58736165  0.91500722  0.55935754  1
  Se  Se145  1  0.92291108  0.25213521  0.06434397  1
  Se  Se146  1  0.92314079  0.25649379  0.56061810  1
  Se  Se147  1  0.91686103  0.57718532  0.06085718  1
  Se  Se148  1  0.91175802  0.58241727  0.54549246  1
  Se  Se149  1  0.91291413  0.90952101  0.05530401  1
  Se  Se150  1  0.91820119  0.91802698  0.54787221  1
  Se  Se151  1  0.08601110  0.24485308  0.44291317  1
  Se  Se152  1  0.09400347  0.23469713  0.95471634  1
  Se  Se153  1  0.07656063  0.58213075  0.43734939  1
  Se  Se154  1  0.08402113  0.59209457  0.94925272  1
  Se  Se155  1  0.08325433  0.90912596  0.44104398  1
  Se  Se156  1  0.07234928  0.92272219  0.94034404  1
  Se  Se157  1  0.41764332  0.24431609  0.44258154  1
  Se  Se158  1  0.41433783  0.25219781  0.94293874  1
  Se  Se159  1  0.41993968  0.58173572  0.45092179  1
  Se  Se160  1  0.41817771  0.58634262  0.94107905  1
  Se  Se161  1  0.42013645  0.91028841  0.45310763  1
  Se  Se162  1  0.40401890  0.92756274  0.93772841  1
  Se  Se163  1  0.74358020  0.26227068  0.44361988  1
  Se  Se164  1  0.74694766  0.25967087  0.93707506  1
  Se  Se165  1  0.74378367  0.58868079  0.44290973  1
  Se  Se166  1  0.76552018  0.54320577  0.94250930  1
  Se  Se167  1  0.75157590  0.91889504  0.45067913  1
  Se  Se168  1  0.74610400  0.90838975  0.94745510  1
  Se  Se169  1  0.25356706  0.07244493  0.44125442  1
  Se  Se170  1  0.24312103  0.08990145  0.94710414  1
  Se  Se171  1  0.25490592  0.40762058  0.43735843  1
  Se  Se172  1  0.24943689  0.42272835  0.94773747  1
  Se  Se173  1  0.24878902  0.74227198  0.44853592  1
  Se  Se174  1  0.26338012  0.75694237  0.93478125  1
  Se  Se175  1  0.58449961  0.08284222  0.45057213  1
  Se  Se176  1  0.58164016  0.08285252  0.94700074  1
  Se  Se177  1  0.58184724  0.41507815  0.44956962  1
  Se  Se178  1  0.57946609  0.41824355  0.94171839  1
  Se  Se179  1  0.58152368  0.75357382  0.45179474  1
  Se  Se180  1  0.58987806  0.73418800  0.93873287  1
  Se  Se181  1  0.92878057  0.08042624  0.43639360  1
  Se  Se182  1  0.91500797  0.07440661  0.94258756  1
  Se  Se183  1  0.91809900  0.41624205  0.44519477  1
  Se  Se184  1  0.95333252  0.38388305  0.94082710  1
  Se  Se185  1  0.91103692  0.75173136  0.43981783  1
  Se  Se186  1  0.91106646  0.74303992  0.95386575  1
  Se  Se187  1  0.25938350  0.25179511  0.30089732  1
  Se  Se188  1  0.23493440  0.25582367  0.81136108  1
  Se  Se189  1  0.24360101  0.57073463  0.31398874  1
  Se  Se190  1  0.25677212  0.59421577  0.80381667  1
  Se  Se191  1  0.24256149  0.90142891  0.30906579  1
  Se  Se192  1  0.24635560  0.92757786  0.79806762  1
  Se  Se193  1  0.58336685  0.24723228  0.30972932  1
  Se  Se194  1  0.58207990  0.25177700  0.80144189  1
  Se  Se195  1  0.57889479  0.58431005  0.30511386  1
  Se  Se196  1  0.58461625  0.58509385  0.79966182  1
  Se  Se197  1  0.57553883  0.90771492  0.31690505  1
  Se  Se198  1  0.57607551  0.91621402  0.81396249  1
  Se  Se199  1  0.91384407  0.25176996  0.29841993  1
  Se  Se200  1  0.89574635  0.24714396  0.81741520  1
  Se  Se201  1  0.91660987  0.58541344  0.30317579  1
  Se  Se202  1  0.91604798  0.57646161  0.81058148  1
  Se  Se203  1  0.91212176  0.91697364  0.30364045  1
  Se  Se204  1  0.90791924  0.90233047  0.80701620  1
  Se  Se205  1  0.09328847  0.08727767  0.30123911  1
  Se  Se206  1  0.08251650  0.09640839  0.81159960  1
  Se  Se207  1  0.08280959  0.41030646  0.30139307  1
  Se  Se208  1  0.09336924  0.42888454  0.81074931  1
  Se  Se209  1  0.07626773  0.74420165  0.30076130  1
  Se  Se210  1  0.09247453  0.76302024  0.80870246  1
  Se  Se211  1  0.42972451  0.08991082  0.30780398  1
  Se  Se212  1  0.40937674  0.09422637  0.80151879  1
  Se  Se213  1  0.41866481  0.41322935  0.30192668  1
  Se  Se214  1  0.42023581  0.42416689  0.80646835  1
  Se  Se215  1  0.41570468  0.74992416  0.31491155  1
  Se  Se216  1  0.43019024  0.75809701  0.79349244  1
  Se  Se217  1  0.76058284  0.09445646  0.30976661  1
  Se  Se218  1  0.74617173  0.08220632  0.80773869  1
  Se  Se219  1  0.75501914  0.42686160  0.31310611  1
  Se  Se220  1  0.75144440  0.41240278  0.80546609  1
  Se  Se221  1  0.74233121  0.74875744  0.30427867  1
  Se  Se222  1  0.76175151  0.74299532  0.81147442  1
  Se  Se223  1  0.25484540  0.08755551  0.18610596  1
  Se  Se224  1  0.24879717  0.09204990  0.69407757  1
  Se  Se225  1  0.25540215  0.41582370  0.19530381  1
  Se  Se226  1  0.24625024  0.42084257  0.69144318  1
  Se  Se227  1  0.24270381  0.75470456  0.19366573  1
  Se  Se228  1  0.24842995  0.74820078  0.69518857  1
  Se  Se229  1  0.58141588  0.08481690  0.19124382  1
  Se  Se230  1  0.57124052  0.08944783  0.68710409  1
  Se  Se231  1  0.58472727  0.42666584  0.18626511  1
  Se  Se232  1  0.58556793  0.41515231  0.69080313  1
  Se  Se233  1  0.58100124  0.74347798  0.19945291  1
  Se  Se234  1  0.57452021  0.76036402  0.70238167  1
  Se  Se235  1  0.91994963  0.07641446  0.20059714  1
  Se  Se236  1  0.90837754  0.09070746  0.69438556  1
  Se  Se237  1  0.91685504  0.41831361  0.20040242  1
  Se  Se238  1  0.91419891  0.42548661  0.69427030  1
  Se  Se239  1  0.91207056  0.74889506  0.19761966  1
  Se  Se240  1  0.91577049  0.75323296  0.68619288  1
  Se  Se241  1  0.09027196  0.24969323  0.19434734  1
  Se  Se242  1  0.07998547  0.24932910  0.69245098  1
  Se  Se243  1  0.08344161  0.58259053  0.20185868  1
  Se  Se244  1  0.09266629  0.57577723  0.68928623  1
  Se  Se245  1  0.08955102  0.91040440  0.20303849  1
  Se  Se246  1  0.08468397  0.91570056  0.68533136  1
  Se  Se247  1  0.42129201  0.25772261  0.19462738  1
  Se  Se248  1  0.42983383  0.25604854  0.67835064  1
  Se  Se249  1  0.41946869  0.57334733  0.18713321  1
  Se  Se250  1  0.41770148  0.58279258  0.69654322  1
  Se  Se251  1  0.42296223  0.90685343  0.19722912  1
  Se  Se252  1  0.40728964  0.92358614  0.70014772  1
  Se  Se253  1  0.75692781  0.23794961  0.19310356  1
  Se  Se254  1  0.74762837  0.25291821  0.69680502  1
  Se  Se255  1  0.74625379  0.58499137  0.19516099  1
  Se  Se256  1  0.74960342  0.59085481  0.69890192  1
  Se  Se257  1  0.75018652  0.91037267  0.19079965  1
  Se  Se258  1  0.76013017  0.90381901  0.69174000  1
