# generated using pymatgen
data_In86Cu29Se144
_symmetry_space_group_name_H-M   'P 1'
_cell_length_a   17.53404905
_cell_length_b   17.53173186
_cell_length_c   23.39043818
_cell_angle_alpha   89.98570542
_cell_angle_beta   89.98407223
_cell_angle_gamma   90.00300128
_symmetry_Int_Tables_number   1
_chemical_formula_structural   In86Cu29Se144
_chemical_formula_sum   'In86 Cu29 Se144'
_cell_volume   7190.27272878
_cell_formula_units_Z   1
loop_
 _symmetry_equiv_pos_site_id
 _symmetry_equiv_pos_as_xyz
  1  'x, y, z'
loop_
 _atom_site_type_symbol
 _atom_site_label
 _atom_site_symmetry_multiplicity
 _atom_site_fract_x
 _atom_site_fract_y
 _atom_site_fract_z
 _atom_site_occupancy
  In  In0  1  0.01980023  0.15388851  0.14740305  1
  In  In1  1  0.00374577  0.18062919  0.62419158  1
  In  In2  1  0.00462937  0.49296131  0.13550823  1
  In  In3  1  0.00087209  0.50332791  0.62636027  1
  In  In4  1  0.01316846  0.82143118  0.13335334  1
  In  In5  1  -0.01872594  0.81013021  0.61115170  1
  In  In6  1  0.33888370  0.15493927  0.11427281  1
  In  In7  1  0.34155339  0.15914472  0.62437467  1
  In  In8  1  0.32238420  0.51666666  0.12396729  1
  In  In9  1  0.33512031  0.50453794  0.62465627  1
  In  In10  1  0.32206758  0.84940767  0.12364769  1
  In  In11  1  0.32219812  0.81844153  0.61348690  1
  In  In12  1  0.65375595  0.15861956  0.12587307  1
  In  In13  1  0.65775425  0.17739617  0.62764293  1
  In  In14  1  0.67872682  0.50249717  0.12860640  1
  In  In15  1  0.67215620  0.50340343  0.62308676  1
  In  In16  1  0.65857754  0.83488408  0.14783157  1
  In  In17  1  0.66839475  0.83264762  0.62359355  1
  In  In18  1  0.15123336  -0.00231411  0.36867526  1
  In  In19  1  0.17639133  -0.00770275  0.89350091  1
  In  In20  1  0.16567437  0.33937526  0.37654923  1
  In  In21  1  0.16033010  0.34232852  0.88589995  1
  In  In22  1  0.15771579  0.67538379  0.38242729  1
  In  In23  1  0.16414810  0.66665346  0.86915560  1
  In  In24  1  0.51014448  -0.01195413  0.37758674  1
  In  In25  1  0.50742533  0.00111450  0.87307297  1
  In  In26  1  0.50510829  0.32798957  0.39210127  1
  In  In27  1  0.49717545  0.32404357  0.87112491  1
  In  In28  1  0.50780195  0.66316110  0.38127916  1
  In  In29  1  0.49449419  0.67075555  0.85856156  1
  In  In30  1  0.82466884  -0.00868317  0.37055620  1
  In  In31  1  0.82472971  0.01081202  0.87077613  1
  In  In32  1  0.83974378  0.33507061  0.38189688  1
  In  In33  1  0.85112193  0.35180822  0.85340190  1
  In  In34  1  0.83522331  0.66746963  0.38240708  1
  In  In35  1  0.83721500  0.65504627  0.85601278  1
  In  In36  1  0.00441664  0.16948577  0.36125060  1
  In  In37  1  0.00651137  0.17802047  0.87651523  1
  In  In38  1  -0.00089108  0.50382172  0.38179791  1
  In  In39  1  0.02571416  0.52436881  0.84053693  1
  In  In40  1  0.00141875  0.82924994  0.37717336  1
  In  In41  1  0.01164568  0.83191266  0.87495160  1
  In  In42  1  0.33225456  0.17564427  0.37151334  1
  In  In43  1  0.33994886  0.16284675  0.89075259  1
  In  In44  1  0.33216770  0.49808352  0.38792775  1
  In  In45  1  0.31710107  0.50252750  0.86796482  1
  In  In46  1  0.34278473  0.82457409  0.38269863  1
  In  In47  1  0.32748993  0.82233233  0.86971352  1
  In  In48  1  0.66248331  0.16124065  0.37503090  1
  In  In49  1  0.65994752  0.16437798  0.86498603  1
  In  In50  1  0.65634667  0.50923500  0.39396143  1
  In  In51  1  0.67438996  0.50407079  0.85514481  1
  In  In52  1  0.66826506  0.83507145  0.37786858  1
  In  In53  1  0.65977983  0.83182028  0.86289703  1
  In  In54  1  0.16982583  -0.00623782  0.11858200  1
  In  In55  1  0.17859852  -0.00527641  0.62376282  1
  In  In56  1  0.15890612  0.32644709  0.11830303  1
  In  In57  1  0.14491646  0.34600507  0.63824253  1
  In  In58  1  0.15849797  0.65869207  0.11923025  1
  In  In59  1  0.16144504  0.66087219  0.62707785  1
  In  In60  1  0.50039785  0.00869403  0.13409237  1
  In  In61  1  0.51021265  0.01098794  0.61450136  1
  In  In62  1  0.50753677  0.31496375  0.12700927  1
  In  In63  1  0.53199003  0.35576450  0.59486204  1
  In  In64  1  0.50373112  0.67363257  0.13144567  1
  In  In65  1  0.50301383  0.66913992  0.62245109  1
  In  In66  1  0.83142236  0.00454700  0.13548404  1
  In  In67  1  0.83196340  -0.01839788  0.62055551  1
  In  In68  1  0.84283311  0.34747896  0.12558790  1
  In  In69  1  0.81673839  0.36861767  0.64455675  1
  In  In70  1  0.83061617  0.67320290  0.13625403  1
  In  In71  1  0.83009235  0.66049206  0.62667799  1
  In  In72  1  0.67197398  0.33014705  0.25904734  1
  In  In73  1  0.82943491  0.17045167  0.49336857  1
  In  In74  1  0.33687963  0.33648912  0.74454469  1
  In  In75  1  0.49024612  0.49299077  -0.00629169  1
  In  In76  1  0.33918328  -0.00502493  0.75417022  1
  In  In77  1  -0.00567633  -0.00626690  0.74979566  1
  In  In78  1  0.48720307  0.84218523  0.00399911  1
  In  In79  1  0.17101529  0.16799321  0.49906824  1
  In  In80  1  0.33618175  -0.00084485  0.24693144  1
  In  In81  1  0.33665726  0.66875297  0.26080253  1
  In  In82  1  0.83918935  0.17554043  -0.00562696  1
  In  In83  1  0.83538640  0.82952913  0.00228399  1
  In  In84  1  0.84105891  0.49877642  -0.00669416  1
  In  In85  1  0.32777788  0.32779562  0.24502269  1
  Cu  Cu86  1  0.66471479  0.32149309  -0.00883610  1
  Cu  Cu87  1  0.33707693  0.33448130  -0.00171104  1
  Cu  Cu88  1  0.50810284  0.17746393  0.74294884  1
  Cu  Cu89  1  0.31680737  0.66934061  -0.00435739  1
  Cu  Cu90  1  0.82593312  0.82628224  0.74159827  1
  Cu  Cu91  1  0.66933125  -0.00276259  0.49689271  1
  Cu  Cu92  1  0.67365812  0.67073152  0.50373498  1
  Cu  Cu93  1  0.50375969  0.49280718  0.26317178  1
  Cu  Cu94  1  0.16534126  0.83272378  0.25087288  1
  Cu  Cu95  1  -0.00600169  0.34250830  0.50591406  1
  Cu  Cu96  1  0.15379606  0.50150282  0.25450517  1
  Cu  Cu97  1  0.00389504  0.66175896  -0.00253043  1
  Cu  Cu98  1  0.15437352  0.82374738  0.74245913  1
  Cu  Cu99  1  0.33624388  -0.00480715  0.49936894  1
  Cu  Cu100  1  0.66063221  0.67021597  -0.00243101  1
  Cu  Cu101  1  0.83335087  0.51228513  0.25860739  1
  Cu  Cu102  1  0.83849452  0.83317688  0.26054227  1
  Cu  Cu103  1  0.83323507  0.17352117  0.25252292  1
  Cu  Cu104  1  0.00566480  0.33354975  0.00266294  1
  Cu  Cu105  1  0.00154351  -0.00594364  0.49319696  1
  Cu  Cu106  1  0.50383574  0.50379103  0.73844216  1
  Cu  Cu107  1  0.32668582  0.33222851  0.50389996  1
  Cu  Cu108  1  0.66210320  0.00210039  -0.00222975  1
  Cu  Cu109  1  0.33598161  0.66383529  0.50323546  1
  Cu  Cu110  1  0.82741971  0.16331043  0.74697801  1
  Cu  Cu111  1  0.00517879  -0.00017488  0.00946118  1
  Cu  Cu112  1  0.50014150  0.83877565  0.73862764  1
  Cu  Cu113  1  0.16784538  0.17122233  0.76328195  1
  Cu  Cu114  1  0.00370196  0.66409714  0.50296873  1
  Se  Se115  1  0.08363688  0.08983237  0.05993716  1
  Se  Se116  1  0.07659560  0.07586263  0.55807653  1
  Se  Se117  1  0.08282636  0.42481478  0.05572555  1
  Se  Se118  1  0.08655922  0.42164420  0.55412678  1
  Se  Se119  1  0.08286574  0.75029091  0.05093574  1
  Se  Se120  1  0.09094399  0.74984888  0.55209062  1
  Se  Se121  1  0.42968685  0.07349782  0.05217428  1
  Se  Se122  1  0.41706356  0.08618050  0.54697664  1
  Se  Se123  1  0.41027679  0.41007104  0.06920104  1
  Se  Se124  1  0.41150341  0.41998300  0.55206251  1
  Se  Se125  1  0.40196390  0.74006313  0.06064338  1
  Se  Se126  1  0.42279003  0.75146384  0.54959876  1
  Se  Se127  1  0.75033195  0.08046071  0.05398226  1
  Se  Se128  1  0.74659702  0.07930242  0.55913259  1
  Se  Se129  1  0.74236780  0.40702851  0.05095251  1
  Se  Se130  1  0.74590467  0.41065618  0.55468014  1
  Se  Se131  1  0.73701492  0.74747905  0.06205340  1
  Se  Se132  1  0.75777760  0.75353659  0.55668297  1
  Se  Se133  1  0.25629830  0.25141764  0.05595266  1
  Se  Se134  1  0.24748374  0.25745207  0.57002629  1
  Se  Se135  1  0.23863631  0.57859890  0.04599551  1
  Se  Se136  1  0.24851381  0.58329415  0.55583101  1
  Se  Se137  1  0.25225865  0.92036628  0.04497372  1
  Se  Se138  1  0.24643380  0.91348537  0.54749363  1
  Se  Se139  1  0.58467034  0.24207652  0.04947802  1
  Se  Se140  1  0.57163673  0.22988546  0.54745480  1
  Se  Se141  1  0.58377432  0.58278531  0.05724820  1
  Se  Se142  1  0.58680281  0.58618661  0.55411832  1
  Se  Se143  1  0.59312931  0.91689843  0.06238710  1
  Se  Se144  1  0.58567163  0.91418216  0.55217281  1
  Se  Se145  1  0.92747962  0.25333683  0.06414917  1
  Se  Se146  1  0.90950761  0.26028835  0.56154618  1
  Se  Se147  1  0.91990531  0.59031135  0.06243877  1
  Se  Se148  1  0.91640984  0.58219494  0.55558368  1
  Se  Se149  1  0.92040072  0.92061194  0.06569952  1
  Se  Se150  1  0.91612392  0.91274484  0.54629648  1
  Se  Se151  1  0.07045929  0.25609518  0.44587245  1
  Se  Se152  1  0.08907288  0.24590818  0.95276330  1
  Se  Se153  1  0.08874790  0.58094270  0.45079080  1
  Se  Se154  1  0.07931256  0.57884252  0.93562479  1
  Se  Se155  1  0.08994669  0.91146781  0.44553774  1
  Se  Se156  1  0.07978209  0.91093023  0.95274923  1
  Se  Se157  1  0.40704484  0.24677271  0.45018162  1
  Se  Se158  1  0.42728814  0.25194069  0.95219467  1
  Se  Se159  1  0.42108378  0.58219239  0.44937107  1
  Se  Se160  1  0.40896144  0.59600037  0.93806467  1
  Se  Se161  1  0.42287867  0.91287068  0.44836792  1
  Se  Se162  1  0.40312536  0.92541590  0.93432189  1
  Se  Se163  1  0.73260501  0.26297735  0.44183485  1
  Se  Se164  1  0.75469420  0.25988791  0.92664465  1
  Se  Se165  1  0.75673211  0.58253725  0.45376109  1
  Se  Se166  1  0.74227962  0.58988465  0.93866362  1
  Se  Se167  1  0.75705783  0.91261581  0.44945548  1
  Se  Se168  1  0.74155183  0.91872360  0.94017699  1
  Se  Se169  1  0.25467310  0.07311279  0.43654206  1
  Se  Se170  1  0.24209242  0.09418225  0.95391807  1
  Se  Se171  1  0.24234709  0.41575819  0.45171133  1
  Se  Se172  1  0.25430576  0.42199715  0.94875504  1
  Se  Se173  1  0.25303810  0.74746044  0.44881270  1
  Se  Se174  1  0.23761225  0.75505524  0.94203771  1
  Se  Se175  1  0.58326863  0.08041292  0.44658603  1
  Se  Se176  1  0.58389612  0.08773352  0.94307770  1
  Se  Se177  1  0.57755779  0.41857032  0.45836597  1
  Se  Se178  1  0.59295147  0.41513750  0.93382525  1
  Se  Se179  1  0.58799446  0.75065700  0.44821327  1
  Se  Se180  1  0.57678069  0.74985382  0.94011309  1
  Se  Se181  1  0.92514281  0.08218621  0.43609809  1
  Se  Se182  1  0.92735461  0.07245991  0.94130809  1
  Se  Se183  1  0.91106334  0.42511811  0.45153159  1
  Se  Se184  1  0.93460915  0.41326464  0.93564499  1
  Se  Se185  1  0.92060271  0.75051185  0.45044501  1
  Se  Se186  1  0.91653456  0.73569434  0.93730398  1
  Se  Se187  1  0.23161694  0.24091876  0.30364905  1
  Se  Se188  1  0.25729446  0.24917119  0.81682264  1
  Se  Se189  1  0.24208821  0.57531027  0.31327392  1
  Se  Se190  1  0.25903865  0.59964755  0.79977024  1
  Se  Se191  1  0.25119555  0.90623199  0.31132530  1
  Se  Se192  1  0.23168113  0.90935964  0.80340102  1
  Se  Se193  1  0.56869675  0.24523119  0.30843285  1
  Se  Se194  1  0.58853966  0.26081924  0.79833074  1
  Se  Se195  1  0.58800507  0.57952533  0.31048423  1
  Se  Se196  1  0.58374354  0.58952837  0.79478227  1
  Se  Se197  1  0.60040960  0.92540212  0.30472718  1
  Se  Se198  1  0.58027622  0.92178724  0.79727907  1
  Se  Se199  1  0.91397901  0.25949516  0.30452323  1
  Se  Se200  1  0.91834810  0.23926130  0.80080958  1
  Se  Se201  1  0.92237063  0.59102584  0.31072374  1
  Se  Se202  1  0.89472443  0.54938626  0.79398654  1
  Se  Se203  1  0.92500860  0.91978709  0.30796392  1
  Se  Se204  1  0.90202316  0.90350511  0.81110387  1
  Se  Se205  1  0.08811418  0.08633276  0.29621497  1
  Se  Se206  1  0.08936447  0.07668309  0.81448383  1
  Se  Se207  1  0.07570993  0.41623086  0.30977542  1
  Se  Se208  1  0.08759116  0.40207176  0.80231047  1
  Se  Se209  1  0.08292420  0.74782675  0.30399611  1
  Se  Se210  1  0.07186758  0.74384593  0.79943687  1
  Se  Se211  1  0.42217217  0.08494992  0.31220080  1
  Se  Se212  1  0.42536048  0.09933034  0.80501547  1
  Se  Se213  1  0.41646536  0.41201334  0.31472978  1
  Se  Se214  1  0.42649729  0.43036260  0.80713155  1
  Se  Se215  1  0.43619528  0.75979629  0.30738684  1
  Se  Se216  1  0.41277485  0.75831330  0.79276853  1
  Se  Se217  1  0.75152755  0.08830200  0.30594098  1
  Se  Se218  1  0.74129262  0.07832381  0.79595882  1
  Se  Se219  1  0.75212615  0.42974679  0.31700419  1
  Se  Se220  1  0.74449027  0.40882629  0.79100710  1
  Se  Se221  1  0.75255690  0.74807411  0.31116829  1
  Se  Se222  1  0.74447753  0.74412315  0.79962518  1
  Se  Se223  1  0.24515372  0.09020209  0.18972009  1
  Se  Se224  1  0.24387495  0.09183308  0.69882254  1
  Se  Se225  1  0.24025817  0.42813960  0.19239520  1
  Se  Se226  1  0.23970330  0.43238896  0.69892519  1
  Se  Se227  1  0.24694555  0.75067770  0.19138868  1
  Se  Se228  1  0.24882084  0.74760456  0.69328661  1
  Se  Se229  1  0.59256099  0.07596257  0.20328568  1
  Se  Se230  1  0.58404896  0.08188162  0.69466180  1
  Se  Se231  1  0.57971740  0.41901252  0.19330172  1
  Se  Se232  1  0.58395057  0.41497756  0.68821822  1
  Se  Se233  1  0.59525778  0.72807143  0.20555181  1
  Se  Se234  1  0.58628014  0.75003575  0.69360204  1
  Se  Se235  1  0.91609146  0.08282106  0.20552054  1
  Se  Se236  1  0.91011647  0.08630274  0.68492406  1
  Se  Se237  1  0.91185566  0.42208086  0.20514764  1
  Se  Se238  1  0.94875461  0.38917352  0.68830631  1
  Se  Se239  1  0.91985394  0.75123376  0.20225215  1
  Se  Se240  1  0.91719604  0.74345974  0.69663687  1
  Se  Se241  1  0.07038554  0.27372337  0.19754319  1
  Se  Se242  1  0.08272149  0.24424035  0.70506835  1
  Se  Se243  1  0.07969941  0.59132348  0.19856229  1
  Se  Se244  1  0.07050094  0.59284911  0.69871691  1
  Se  Se245  1  0.08872060  0.91957829  0.19478356  1
  Se  Se246  1  0.07978885  0.90844054  0.68193762  1
  Se  Se247  1  0.42224487  0.23168120  0.19546512  1
  Se  Se248  1  0.42938368  0.25516309  0.68064684  1
  Se  Se249  1  0.42346549  0.57217736  0.19885731  1
  Se  Se250  1  0.41630479  0.58914339  0.69263216  1
  Se  Se251  1  0.42702641  0.90052559  0.19435651  1
  Se  Se252  1  0.41650362  0.91558361  0.67813454  1
  Se  Se253  1  0.75558325  0.24808435  0.18584910  1
  Se  Se254  1  0.74969562  0.25208281  0.69399304  1
  Se  Se255  1  0.74622055  0.58794344  0.20264177  1
  Se  Se256  1  0.75056363  0.58003562  0.69803336  1
  Se  Se257  1  0.75564472  0.91632785  0.20438405  1
  Se  Se258  1  0.74565349  0.91931910  0.69678122  1
