# generated using pymatgen
data_In86Cu29Se144
_symmetry_space_group_name_H-M   'P 1'
_cell_length_a   17.59147173
_cell_length_b   17.59184138
_cell_length_c   23.44471364
_cell_angle_alpha   90.00232924
_cell_angle_beta   89.98585810
_cell_angle_gamma   90.01682498
_symmetry_Int_Tables_number   1
_chemical_formula_structural   In86Cu29Se144
_chemical_formula_sum   'In86 Cu29 Se144'
_cell_volume   7255.35013009
_cell_formula_units_Z   1
loop_
 _symmetry_equiv_pos_site_id
 _symmetry_equiv_pos_as_xyz
  1  'x, y, z'
loop_
 _atom_site_type_symbol
 _atom_site_label
 _atom_site_symmetry_multiplicity
 _atom_site_fract_x
 _atom_site_fract_y
 _atom_site_fract_z
 _atom_site_occupancy
  In  In0  1  0.01715429  0.17082295  0.12973034  1
  In  In1  1  -0.00021896  0.17846634  0.61208745  1
  In  In2  1  0.00632188  0.49249118  0.13792474  1
  In  In3  1  0.02288791  0.51529957  0.59481679  1
  In  In4  1  -0.00282297  0.81958549  0.13096117  1
  In  In5  1  0.00456138  0.81194665  0.61981958  1
  In  In6  1  0.33037027  0.17185395  0.11836611  1
  In  In7  1  0.33384201  0.16502518  0.63065341  1
  In  In8  1  0.31298913  0.47903382  0.10053852  1
  In  In9  1  0.32837075  0.50434650  0.63531011  1
  In  In10  1  0.33413149  0.83498210  0.11466008  1
  In  In11  1  0.33181088  0.83138597  0.62754595  1
  In  In12  1  0.64690778  0.17561075  0.12370366  1
  In  In13  1  0.67479988  0.18021971  0.61341610  1
  In  In14  1  0.66415315  0.49900679  0.11840165  1
  In  In15  1  0.66852867  0.49253069  0.63475421  1
  In  In16  1  0.65889928  0.83216655  0.12196334  1
  In  In17  1  0.65085446  0.84095952  0.62536463  1
  In  In18  1  0.16852497  0.00301462  0.38470104  1
  In  In19  1  0.17695443  -0.01240207  0.87570182  1
  In  In20  1  0.17088259  0.33517927  0.38227847  1
  In  In21  1  0.18740946  0.32011855  0.89754437  1
  In  In22  1  0.15373321  0.67357368  0.39037629  1
  In  In23  1  0.17131101  0.66259987  0.87248242  1
  In  In24  1  0.50109821  -0.00021508  0.38197543  1
  In  In25  1  0.48411392  0.01446172  0.87966034  1
  In  In26  1  0.48655264  0.32774896  0.37161131  1
  In  In27  1  0.49698281  0.33384524  0.88097377  1
  In  In28  1  0.50823415  0.66787646  0.37728034  1
  In  In29  1  0.49922316  0.66801182  0.87202076  1
  In  In30  1  0.84532443  0.00496188  0.38059979  1
  In  In31  1  0.81843876  0.00171999  0.86815939  1
  In  In32  1  0.85249661  0.32555800  0.39421319  1
  In  In33  1  0.83527071  0.34313925  0.86728118  1
  In  In34  1  0.84889302  0.64165444  0.39544759  1
  In  In35  1  0.83606101  0.66505932  0.86059363  1
  In  In36  1  -0.00152886  0.18202512  0.39370101  1
  In  In37  1  0.00309663  0.18184554  0.87235829  1
  In  In38  1  0.00645997  0.49993730  0.38005168  1
  In  In39  1  0.00893529  0.50636454  0.87051698  1
  In  In40  1  0.01561879  0.83493214  0.37877516  1
  In  In41  1  0.01466633  0.82946596  0.87102453  1
  In  In42  1  0.32621865  0.17431406  0.38422084  1
  In  In43  1  0.33661574  0.16860676  0.87323059  1
  In  In44  1  0.33130002  0.48218594  0.37180432  1
  In  In45  1  0.33058859  0.49728298  0.87732365  1
  In  In46  1  0.33254223  0.82783344  0.37934747  1
  In  In47  1  0.33330739  0.83316324  0.87158146  1
  In  In48  1  0.66176481  0.16662237  0.38950491  1
  In  In49  1  0.65823271  0.16606484  0.87173461  1
  In  In50  1  0.67145789  0.51056225  0.37519624  1
  In  In51  1  0.64952007  0.48258236  0.85582984  1
  In  In52  1  0.66170755  0.82543646  0.38172243  1
  In  In53  1  0.66546499  0.82309087  0.86855210  1
  In  In54  1  0.17378113  0.00686860  0.11844458  1
  In  In55  1  0.17905210  0.00721553  0.62294994  1
  In  In56  1  0.16474631  0.33569492  0.12680169  1
  In  In57  1  0.16806805  0.33956916  0.61622601  1
  In  In58  1  0.15973058  0.66050134  0.12104241  1
  In  In59  1  0.16808052  0.66477855  0.62357763  1
  In  In60  1  0.49085849  -0.00375142  0.11739363  1
  In  In61  1  0.49724099  -0.00912762  0.61790606  1
  In  In62  1  0.46982340  0.30737186  0.08944942  1
  In  In63  1  0.50587449  0.32556559  0.63636160  1
  In  In64  1  0.49559502  0.66314304  0.11479014  1
  In  In65  1  0.48701548  0.67512327  0.63782443  1
  In  In66  1  0.82680232  -0.00296515  0.12926726  1
  In  In67  1  0.82344733  0.02097266  0.61863510  1
  In  In68  1  0.83678961  0.34586860  0.12929890  1
  In  In69  1  0.83043490  0.33508622  0.61678272  1
  In  In70  1  0.83940778  0.66610186  0.12939680  1
  In  In71  1  0.85002483  0.65106684  0.63217935  1
  In  In72  1  0.33673246  0.00255811  0.24380863  1
  In  In73  1  0.33102890  0.65946229  0.24848913  1
  In  In74  1  0.66802465  0.33779289  0.24605672  1
  In  In75  1  0.82838965  0.50146129  0.00081768  1
  In  In76  1  0.67001854  -0.00338433  0.26367482  1
  In  In77  1  0.83801969  0.83036465  0.00808083  1
  In  In78  1  0.00294044  0.00145893  0.73749078  1
  In  In79  1  0.00154417  0.34345766  0.73997186  1
  In  In80  1  0.49870549  0.50318215  0.49968756  1
  In  In81  1  0.82370445  0.84026703  0.50698452  1
  In  In82  1  0.00686876  0.00299790  0.25906979  1
  In  In83  1  0.83438092  0.16418552  -0.00762851  1
  In  In84  1  0.66954488  0.66095840  0.24490693  1
  In  In85  1  0.66171272  0.00886646  0.74492922  1
  Cu  Cu86  1  0.49558356  0.16999348  0.24442029  1
  Cu  Cu87  1  0.66306787  0.34065240  0.50495533  1
  Cu  Cu88  1  0.83652172  0.50014858  0.74163110  1
  Cu  Cu89  1  0.84699074  0.49474546  0.26183887  1
  Cu  Cu90  1  0.65670799  0.67501063  0.51026412  1
  Cu  Cu91  1  0.16485808  0.83138242  0.25256443  1
  Cu  Cu92  1  0.17156888  0.16546882  0.75462980  1
  Cu  Cu93  1  0.83241471  0.81454217  0.25697674  1
  Cu  Cu94  1  0.16900859  0.18628200  0.25755693  1
  Cu  Cu95  1  0.66116457  0.66065391  -0.01103229  1
  Cu  Cu96  1  0.49550437  0.83828898  0.75003921  1
  Cu  Cu97  1  0.00880175  0.00239196  -0.00472195  1
  Cu  Cu98  1  0.49268848  0.49180528  0.23866627  1
  Cu  Cu99  1  0.33078035  -0.00029617  -0.00441578  1
  Cu  Cu100  1  0.33471654  0.67238236  -0.00748802  1
  Cu  Cu101  1  0.00610030  0.66964540  -0.00152547  1
  Cu  Cu102  1  0.83920928  0.83422332  0.74451500  1
  Cu  Cu103  1  0.00331402  0.00036980  0.50334498  1
  Cu  Cu104  1  0.49700054  0.50188917  0.75527643  1
  Cu  Cu105  1  0.49559897  0.17162138  0.75066295  1
  Cu  Cu106  1  0.33234868  0.66720396  0.50715731  1
  Cu  Cu107  1  0.33896013  0.33077701  0.50486340  1
  Cu  Cu108  1  0.16993861  0.82132017  0.74872679  1
  Cu  Cu109  1  0.66103236  -0.00292006  0.00026717  1
  Cu  Cu110  1  0.00466308  0.33335356  0.00482860  1
  Cu  Cu111  1  0.33460623  -0.00498997  0.50365681  1
  Cu  Cu112  1  0.84526764  0.17756046  0.25621311  1
  Cu  Cu113  1  0.16771529  0.49738598  0.25158313  1
  Cu  Cu114  1  0.16188070  0.49402050  0.74931864  1
  Se  Se115  1  0.08338827  0.08728285  0.05369046  1
  Se  Se116  1  0.08622229  0.08338842  0.55695417  1
  Se  Se117  1  0.08089731  0.42231190  0.05838866  1
  Se  Se118  1  0.05538609  0.38375254  0.55307122  1
  Se  Se119  1  0.08271410  0.75587727  0.05518833  1
  Se  Se120  1  0.08706794  0.74023752  0.54869826  1
  Se  Se121  1  0.41204529  0.08298316  0.05218238  1
  Se  Se122  1  0.41228014  0.08242540  0.55794820  1
  Se  Se123  1  0.43679807  0.43883296  0.05009544  1
  Se  Se124  1  0.41584804  0.41482985  0.56513666  1
  Se  Se125  1  0.41920028  0.75331547  0.04796841  1
  Se  Se126  1  0.41829812  0.75033933  0.55746817  1
  Se  Se127  1  0.74253789  0.07810761  0.05966720  1
  Se  Se128  1  0.73985619  0.08461782  0.54418283  1
  Se  Se129  1  0.74106139  0.40058856  0.05289394  1
  Se  Se130  1  0.74542995  0.42728431  0.55412957  1
  Se  Se131  1  0.74043597  0.73268287  0.05771109  1
  Se  Se132  1  0.74502126  0.74477129  0.57023653  1
  Se  Se133  1  0.24164589  0.25249654  0.05559908  1
  Se  Se134  1  0.25494643  0.24775671  0.55794564  1
  Se  Se135  1  0.25117986  0.59443878  0.04987671  1
  Se  Se136  1  0.25339300  0.57754393  0.55682628  1
  Se  Se137  1  0.24699652  0.91720005  0.05029720  1
  Se  Se138  1  0.24955069  0.91232544  0.55592561  1
  Se  Se139  1  0.58649768  0.24533000  0.04128689  1
  Se  Se140  1  0.57541551  0.25772494  0.55325876  1
  Se  Se141  1  0.58393696  0.58137938  0.04983750  1
  Se  Se142  1  0.58032559  0.58864692  0.56878285  1
  Se  Se143  1  0.57919965  0.91277558  0.05278524  1
  Se  Se144  1  0.59042165  0.92328226  0.54848781  1
  Se  Se145  1  0.91918850  0.25253765  0.06138411  1
  Se  Se146  1  0.91381381  0.25712152  0.54616523  1
  Se  Se147  1  0.92618396  0.58771412  0.05898121  1
  Se  Se148  1  0.91480927  0.59077670  0.54557527  1
  Se  Se149  1  0.92852751  0.92911363  0.06162325  1
  Se  Se150  1  0.92237502  0.92490632  0.56630536  1
  Se  Se151  1  0.10639524  0.23975095  0.45241972  1
  Se  Se152  1  0.08173093  0.24401487  0.95217598  1
  Se  Se153  1  0.09432159  0.56983369  0.45281974  1
  Se  Se154  1  0.08517767  0.58376524  0.94468403  1
  Se  Se155  1  0.08765502  0.91692803  0.45170871  1
  Se  Se156  1  0.08579474  0.91174998  0.94471220  1
  Se  Se157  1  0.42160085  0.24835802  0.45037876  1
  Se  Se158  1  0.41333098  0.24874247  0.94688576  1
  Se  Se159  1  0.40604046  0.58988127  0.43824996  1
  Se  Se160  1  0.41677548  0.58660556  0.94119846  1
  Se  Se161  1  0.41453465  0.91380773  0.44498979  1
  Se  Se162  1  0.41520846  0.91557364  0.94375074  1
  Se  Se163  1  0.74588944  0.25630667  0.45046680  1
  Se  Se164  1  0.74868877  0.25803734  0.93550805  1
  Se  Se165  1  0.73515796  0.58971843  0.45458110  1
  Se  Se166  1  0.74776452  0.58615690  0.93165521  1
  Se  Se167  1  0.74122173  0.92842493  0.43935319  1
  Se  Se168  1  0.74581266  0.91680094  0.94468568  1
  Se  Se169  1  0.25375799  0.08263553  0.45160631  1
  Se  Se170  1  0.24977733  0.08276618  0.94032104  1
  Se  Se171  1  0.25668860  0.41690801  0.45275884  1
  Se  Se172  1  0.24275143  0.43244607  0.95325615  1
  Se  Se173  1  0.25061800  0.75166843  0.45082208  1
  Se  Se174  1  0.24715167  0.75306675  0.94081922  1
  Se  Se175  1  0.57370499  0.08620214  0.45093486  1
  Se  Se176  1  0.58429389  0.08272909  0.94429534  1
  Se  Se177  1  0.58582159  0.41167788  0.43502878  1
  Se  Se178  1  0.58759691  0.42112525  0.94181981  1
  Se  Se179  1  0.57437253  0.75270669  0.45302008  1
  Se  Se180  1  0.58225538  0.75356058  0.94251323  1
  Se  Se181  1  0.91798631  0.08544747  0.45349995  1
  Se  Se182  1  0.92478533  0.07144501  0.93216592  1
  Se  Se183  1  0.89261247  0.44984055  0.44234622  1
  Se  Se184  1  0.92594594  0.41229188  0.94268479  1
  Se  Se185  1  0.91852593  0.75759861  0.44551416  1
  Se  Se186  1  0.91968375  0.74430341  0.93963909  1
  Se  Se187  1  0.26020344  0.26082663  0.30915652  1
  Se  Se188  1  0.24721576  0.25422042  0.80903528  1
  Se  Se189  1  0.24188670  0.57936475  0.31511867  1
  Se  Se190  1  0.24751719  0.57519412  0.80305916  1
  Se  Se191  1  0.24507823  0.91508667  0.30814708  1
  Se  Se192  1  0.24961389  0.91184439  0.79837433  1
  Se  Se193  1  0.58201303  0.24156062  0.30616671  1
  Se  Se194  1  0.57796975  0.25276577  0.80624751  1
  Se  Se195  1  0.57038731  0.56974206  0.30112570  1
  Se  Se196  1  0.58515079  0.59120985  0.79918825  1
  Se  Se197  1  0.57307452  0.90280917  0.30963198  1
  Se  Se198  1  0.57716223  0.92004195  0.81049542  1
  Se  Se199  1  0.92582199  0.25536357  0.31338398  1
  Se  Se200  1  0.91147167  0.24832072  0.79931199  1
  Se  Se201  1  0.92395517  0.58768390  0.30969783  1
  Se  Se202  1  0.92184239  0.57755073  0.79865610  1
  Se  Se203  1  0.91034589  0.90542885  0.30983668  1
  Se  Se204  1  0.91414537  0.91520243  0.80731818  1
  Se  Se205  1  0.09245337  0.09866938  0.31560543  1
  Se  Se206  1  0.08604250  0.08453058  0.80946493  1
  Se  Se207  1  0.08874935  0.41618194  0.31088513  1
  Se  Se208  1  0.09444007  0.40762825  0.81414873  1
  Se  Se209  1  0.08529955  0.74704639  0.30668357  1
  Se  Se210  1  0.08298776  0.74043026  0.80062922  1
  Se  Se211  1  0.42030200  0.09126489  0.30936652  1
  Se  Se212  1  0.41207382  0.08364230  0.79908745  1
  Se  Se213  1  0.41457579  0.41061072  0.29753628  1
  Se  Se214  1  0.41596871  0.41636536  0.80882387  1
  Se  Se215  1  0.42184927  0.75024172  0.30711811  1
  Se  Se216  1  0.41638442  0.75091910  0.80264210  1
  Se  Se217  1  0.76155349  0.09745391  0.31296322  1
  Se  Se218  1  0.75846119  0.10111150  0.79913132  1
  Se  Se219  1  0.75624265  0.41659139  0.31444374  1
  Se  Se220  1  0.75355901  0.41572207  0.79385336  1
  Se  Se221  1  0.75315402  0.73763481  0.31891318  1
  Se  Se222  1  0.75250766  0.75328181  0.79697933  1
  Se  Se223  1  0.23925371  0.09791216  0.19644061  1
  Se  Se224  1  0.25257340  0.08013120  0.70166065  1
  Se  Se225  1  0.25112428  0.42250131  0.19186634  1
  Se  Se226  1  0.24436399  0.41123576  0.69505432  1
  Se  Se227  1  0.24618160  0.75759837  0.18931396  1
  Se  Se228  1  0.25429308  0.74029281  0.69519185  1
  Se  Se229  1  0.57752299  0.07926846  0.19474431  1
  Se  Se230  1  0.57436576  0.09668030  0.68388160  1
  Se  Se231  1  0.57453389  0.41254362  0.18084043  1
  Se  Se232  1  0.58058367  0.41684590  0.70339419  1
  Se  Se233  1  0.57418815  0.75045043  0.19159203  1
  Se  Se234  1  0.58233146  0.75612119  0.69941452  1
  Se  Se235  1  0.91320691  0.08740488  0.19476874  1
  Se  Se236  1  0.91183758  0.09914637  0.68807168  1
  Se  Se237  1  0.92275689  0.40852234  0.20518989  1
  Se  Se238  1  0.91936954  0.43263930  0.67584632  1
  Se  Se239  1  0.92077140  0.73832839  0.20369049  1
  Se  Se240  1  0.92358069  0.74666497  0.69802623  1
  Se  Se241  1  0.08053318  0.26060943  0.20245944  1
  Se  Se242  1  0.09135114  0.24096947  0.69075404  1
  Se  Se243  1  0.08685765  0.58576050  0.19991909  1
  Se  Se244  1  0.08292685  0.57211007  0.68676440  1
  Se  Se245  1  0.09001496  0.91586549  0.19080854  1
  Se  Se246  1  0.09269653  0.90358111  0.68596490  1
  Se  Se247  1  0.41894627  0.25229656  0.18565078  1
  Se  Se248  1  0.40830288  0.25511027  0.70107711  1
  Se  Se249  1  0.41146305  0.57279626  0.18102576  1
  Se  Se250  1  0.41117092  0.58512409  0.70449426  1
  Se  Se251  1  0.42445803  0.90339930  0.19250820  1
  Se  Se252  1  0.41523438  0.92015852  0.69386895  1
  Se  Se253  1  0.75801450  0.23917455  0.18911310  1
  Se  Se254  1  0.74320119  0.26340201  0.68812407  1
  Se  Se255  1  0.76411139  0.56340219  0.19399258  1
  Se  Se256  1  0.74757244  0.58800835  0.69694730  1
  Se  Se257  1  0.75504254  0.89842074  0.19822366  1
  Se  Se258  1  0.75872421  0.91748969  0.68842704  1
