# generated using pymatgen
data_In86Cu29Se144
_symmetry_space_group_name_H-M   'P 1'
_cell_length_a   17.57671248
_cell_length_b   17.57459608
_cell_length_c   23.43076469
_cell_angle_alpha   90.00786252
_cell_angle_beta   90.00994207
_cell_angle_gamma   89.98075248
_symmetry_Int_Tables_number   1
_chemical_formula_structural   In86Cu29Se144
_chemical_formula_sum   'In86 Cu29 Se144'
_cell_volume   7237.84750039
_cell_formula_units_Z   1
loop_
 _symmetry_equiv_pos_site_id
 _symmetry_equiv_pos_as_xyz
  1  'x, y, z'
loop_
 _atom_site_type_symbol
 _atom_site_label
 _atom_site_symmetry_multiplicity
 _atom_site_fract_x
 _atom_site_fract_y
 _atom_site_fract_z
 _atom_site_occupancy
  In  In0  1  -0.00974842  0.17067528  0.13426673  1
  In  In1  1  -0.00361472  0.16189718  0.63010392  1
  In  In2  1  -0.00359275  0.49442603  0.14114269  1
  In  In3  1  -0.00741543  0.49414159  0.60890821  1
  In  In4  1  0.01615557  0.82539544  0.13159729  1
  In  In5  1  0.00859883  0.84140324  0.62479240  1
  In  In6  1  0.33150255  0.15328954  0.12413183  1
  In  In7  1  0.34422120  0.14987188  0.63285702  1
  In  In8  1  0.35520955  0.50282793  0.13081116  1
  In  In9  1  0.35541480  0.53082354  0.59994177  1
  In  In10  1  0.33465214  0.83327405  0.12336093  1
  In  In11  1  0.33974817  0.82670692  0.62988663  1
  In  In12  1  0.67247061  0.16834720  0.11711197  1
  In  In13  1  0.66395484  0.15914354  0.62181153  1
  In  In14  1  0.65062885  0.49904620  0.13143610  1
  In  In15  1  0.66957453  0.50141463  0.61740473  1
  In  In16  1  0.66141970  0.84157453  0.11860222  1
  In  In17  1  0.65129455  0.85040093  0.63487867  1
  In  In18  1  0.16437012  -0.00370234  0.37218097  1
  In  In19  1  0.15561703  -0.00514883  0.86815601  1
  In  In20  1  0.16465630  0.34725419  0.37393490  1
  In  In21  1  0.16223138  0.33094307  0.87592341  1
  In  In22  1  0.16695957  0.66457209  0.36854972  1
  In  In23  1  0.18763015  0.66817186  0.87281236  1
  In  In24  1  0.49504394  0.00844112  0.38235004  1
  In  In25  1  0.49453040  0.00290642  0.86789278  1
  In  In26  1  0.50978760  0.32902231  0.38494014  1
  In  In27  1  0.50830898  0.33109388  0.88183937  1
  In  In28  1  0.49136187  0.66776261  0.38367402  1
  In  In29  1  0.49992578  0.67020064  0.87377404  1
  In  In30  1  0.84768808  0.00794533  0.38114037  1
  In  In31  1  0.83742671  0.01392546  0.86164811  1
  In  In32  1  0.82750617  0.33146272  0.37362882  1
  In  In33  1  0.81652061  0.32512726  0.87496741  1
  In  In34  1  0.83799470  0.64309711  0.37208350  1
  In  In35  1  0.83227122  0.67729425  0.87051130  1
  In  In36  1  -0.01795166  0.15436863  0.37428347  1
  In  In37  1  -0.00306223  0.15008946  0.87417800  1
  In  In38  1  -0.00269387  0.50065937  0.36503743  1
  In  In39  1  -0.00205354  0.48753430  0.87572372  1
  In  In40  1  0.00816387  0.83908024  0.36796747  1
  In  In41  1  -0.00177436  0.84864862  0.87961866  1
  In  In42  1  0.34783218  0.16273702  0.37453399  1
  In  In43  1  0.34684519  0.16736175  0.86913363  1
  In  In44  1  0.32477057  0.51268476  0.38905909  1
  In  In45  1  0.33690041  0.51763347  0.87012086  1
  In  In46  1  0.33744677  0.83484800  0.37225575  1
  In  In47  1  0.33532398  0.83416968  0.87544791  1
  In  In48  1  0.66196738  0.18160276  0.38938779  1
  In  In49  1  0.66899036  0.15827853  0.87371237  1
  In  In50  1  0.68249849  0.47517097  0.40129030  1
  In  In51  1  0.65121294  0.49580133  0.87272026  1
  In  In52  1  0.65604607  0.82215411  0.37706402  1
  In  In53  1  0.65506547  0.82638155  0.86441327  1
  In  In54  1  0.17881461  -0.00735959  0.13141072  1
  In  In55  1  0.17064204  0.00675379  0.64420648  1
  In  In56  1  0.15787526  0.32338794  0.13038345  1
  In  In57  1  0.16108291  0.34184391  0.61846987  1
  In  In58  1  0.16605019  0.67433296  0.12941206  1
  In  In59  1  0.17958076  0.67179526  0.61876085  1
  In  In60  1  0.49248463  -0.00965336  0.11408376  1
  In  In61  1  0.50186176  0.00005247  0.62497788  1
  In  In62  1  0.50756877  0.33695245  0.12338333  1
  In  In63  1  0.50728406  0.32811350  0.61199351  1
  In  In64  1  0.49567778  0.66224181  0.12330094  1
  In  In65  1  0.49543505  0.67689637  0.62544352  1
  In  In66  1  0.83023354  0.01222994  0.12461195  1
  In  In67  1  0.83138538  0.01144818  0.63629207  1
  In  In68  1  0.83927590  0.32168549  0.13801867  1
  In  In69  1  0.80727132  0.31395836  0.59070959  1
  In  In70  1  0.83897172  0.66872281  0.13353805  1
  In  In71  1  0.82835613  0.65305247  0.61719662  1
  In  In72  1  0.16987470  0.83530442  0.49533098  1
  In  In73  1  0.82409628  0.50259917  0.01530269  1
  In  In74  1  -0.00259452  0.67153672  0.74336980  1
  In  In75  1  0.16965025  0.50522524  0.00552444  1
  In  In76  1  0.66770981  0.00273160  0.24732123  1
  In  In77  1  0.16625477  0.16806804  0.50761702  1
  In  In78  1  0.82936444  0.83544305  0.50029799  1
  In  In79  1  0.33277825  0.33465111  0.74216521  1
  In  In80  1  0.82735238  0.84296358  -0.00116754  1
  In  In81  1  0.33462708  0.33429124  0.25357617  1
  In  In82  1  0.66549960  0.32738157  0.73851104  1
  In  In83  1  0.16768802  0.16276361  0.00117626  1
  In  In84  1  -0.00262422  0.33029507  0.73791736  1
  In  In85  1  0.66719648  0.65828380  0.25649726  1
  Cu  Cu86  1  0.50274420  0.16266563  0.25534171  1
  Cu  Cu87  1  0.83199874  0.50177467  0.73935211  1
  Cu  Cu88  1  0.49331890  0.83364971  0.24764894  1
  Cu  Cu89  1  0.33658215  -0.00243780  0.50444879  1
  Cu  Cu90  1  0.66143793  0.32587422  -0.00009931  1
  Cu  Cu91  1  0.17377427  0.83535583  0.24992866  1
  Cu  Cu92  1  0.49401971  0.83525403  0.75071356  1
  Cu  Cu93  1  0.33672430  -0.00256074  -0.00313208  1
  Cu  Cu94  1  0.01381359  0.67165299  0.00438767  1
  Cu  Cu95  1  0.15912904  0.16359097  0.25247821  1
  Cu  Cu96  1  0.33676117  0.32899245  0.49527042  1
  Cu  Cu97  1  0.00083342  0.00099200  -0.00001665  1
  Cu  Cu98  1  0.17109577  0.50466580  0.25412827  1
  Cu  Cu99  1  0.34410130  0.67330766  -0.00216813  1
  Cu  Cu100  1  0.49425316  0.50990282  0.74833562  1
  Cu  Cu101  1  0.82804964  0.16867976  0.25275437  1
  Cu  Cu102  1  0.84518464  0.83281434  0.25300035  1
  Cu  Cu103  1  0.65438369  0.67247457  0.50314309  1
  Cu  Cu104  1  0.16724538  0.83201812  0.75178553  1
  Cu  Cu105  1  0.34073208  0.33925190  -0.00120180  1
  Cu  Cu106  1  0.66425560  -0.00075040  0.50607018  1
  Cu  Cu107  1  0.65699523  -0.00002376  -0.00877057  1
  Cu  Cu108  1  -0.00063575  0.66146616  0.48860281  1
  Cu  Cu109  1  -0.01520109  0.32748731  0.00906938  1
  Cu  Cu110  1  0.00095080  0.33483446  0.49142678  1
  Cu  Cu111  1  0.66206748  0.66256984  -0.00271434  1
  Cu  Cu112  1  0.82652074  0.83489690  0.74955973  1
  Cu  Cu113  1  0.50343691  0.49914260  0.25989018  1
  Cu  Cu114  1  0.17176310  0.50450822  0.73947889  1
  Se  Se115  1  0.07779217  0.07899701  0.06531810  1
  Se  Se116  1  0.08311321  0.07054869  0.56397602  1
  Se  Se117  1  0.07281253  0.41052382  0.05977758  1
  Se  Se118  1  0.08548927  0.41865762  0.54313341  1
  Se  Se119  1  0.09633287  0.75740045  0.05295523  1
  Se  Se120  1  0.07295158  0.74250009  0.55281390  1
  Se  Se121  1  0.41618443  0.08557580  0.04950970  1
  Se  Se122  1  0.42146917  0.08462836  0.55285425  1
  Se  Se123  1  0.42241239  0.41985294  0.05509410  1
  Se  Se124  1  0.41698260  0.41256033  0.55128482  1
  Se  Se125  1  0.42478886  0.75514007  0.05527280  1
  Se  Se126  1  0.40074217  0.74095214  0.55423929  1
  Se  Se127  1  0.74450504  0.07535435  0.04854329  1
  Se  Se128  1  0.75410932  0.07833696  0.55545861  1
  Se  Se129  1  0.73769545  0.40317570  0.06678768  1
  Se  Se130  1  0.76349475  0.43836005  0.54617440  1
  Se  Se131  1  0.74589494  0.73981303  0.05821151  1
  Se  Se132  1  0.73724920  0.75221435  0.56349567  1
  Se  Se133  1  0.25785528  0.26072833  0.05845899  1
  Se  Se134  1  0.26419402  0.25275429  0.56473178  1
  Se  Se135  1  0.26633957  0.59135310  0.06144002  1
  Se  Se136  1  0.23190743  0.57260021  0.54953225  1
  Se  Se137  1  0.25244750  0.91873095  0.05363621  1
  Se  Se138  1  0.25021395  0.92452825  0.56413750  1
  Se  Se139  1  0.57622164  0.24385967  0.05365574  1
  Se  Se140  1  0.61316611  0.26458713  0.55323258  1
  Se  Se141  1  0.58261240  0.58118328  0.05526349  1
  Se  Se142  1  0.57689572  0.58685145  0.55850927  1
  Se  Se143  1  0.57953468  0.91203081  0.04477061  1
  Se  Se144  1  0.57747418  0.91338450  0.55201393  1
  Se  Se145  1  0.90511197  0.23987850  0.05887647  1
  Se  Se146  1  0.93220486  0.25087360  0.55470485  1
  Se  Se147  1  0.93134018  0.59060067  0.06169056  1
  Se  Se148  1  0.91255600  0.58348449  0.54296557  1
  Se  Se149  1  0.92374809  0.91958382  0.06355254  1
  Se  Se150  1  0.91756006  0.92383150  0.56114350  1
  Se  Se151  1  0.08239820  0.24914461  0.43617308  1
  Se  Se152  1  0.06982411  0.25533947  0.94633409  1
  Se  Se153  1  0.08383454  0.58046814  0.43564328  1
  Se  Se154  1  0.07912152  0.58777813  0.93717460  1
  Se  Se155  1  0.07168069  0.92816669  0.44723632  1
  Se  Se156  1  0.08793469  0.91874791  0.94986595  1
  Se  Se157  1  0.42142216  0.24203368  0.44835872  1
  Se  Se158  1  0.41625855  0.25035933  0.94476103  1
  Se  Se159  1  0.42252783  0.57716241  0.45466795  1
  Se  Se160  1  0.42127787  0.58329414  0.94535235  1
  Se  Se161  1  0.41553687  0.91571527  0.44583687  1
  Se  Se162  1  0.42110065  0.91674482  0.94203336  1
  Se  Se163  1  0.76564697  0.24414997  0.45130718  1
  Se  Se164  1  0.74604799  0.24291477  0.94810175  1
  Se  Se165  1  0.74200955  0.59644631  0.44775692  1
  Se  Se166  1  0.74807772  0.58658612  0.93883090  1
  Se  Se167  1  0.73881981  0.92385433  0.43706394  1
  Se  Se168  1  0.74190405  0.92288887  0.93024104  1
  Se  Se169  1  0.25525115  0.07784325  0.44389823  1
  Se  Se170  1  0.25554767  0.07852075  0.93686356  1
  Se  Se171  1  0.24867707  0.41315964  0.44911135  1
  Se  Se172  1  0.25603317  0.41526581  0.93955460  1
  Se  Se173  1  0.25815526  0.74093935  0.44128900  1
  Se  Se174  1  0.25281533  0.75191554  0.94811230  1
  Se  Se175  1  0.58340165  0.08461219  0.45001844  1
  Se  Se176  1  0.57477574  0.08641863  0.94014998  1
  Se  Se177  1  0.57603589  0.41475651  0.46030620  1
  Se  Se178  1  0.58303984  0.41954495  0.95168227  1
  Se  Se179  1  0.57149421  0.75703864  0.45183152  1
  Se  Se180  1  0.58508053  0.75075100  0.94398261  1
  Se  Se181  1  0.91304504  0.08877158  0.45800224  1
  Se  Se182  1  0.91247930  0.07769158  0.94650810  1
  Se  Se183  1  0.91917774  0.41725908  0.43644247  1
  Se  Se184  1  0.90957574  0.41149523  0.94756216  1
  Se  Se185  1  0.91887321  0.74929980  0.43469647  1
  Se  Se186  1  0.92365859  0.74488156  0.94631884  1
  Se  Se187  1  0.24343292  0.24144585  0.31264518  1
  Se  Se188  1  0.24394050  0.24803894  0.80761768  1
  Se  Se189  1  0.25977323  0.58356560  0.30441490  1
  Se  Se190  1  0.25274324  0.58643939  0.79498311  1
  Se  Se191  1  0.25380434  0.91954178  0.30548123  1
  Se  Se192  1  0.24924269  0.91459217  0.80645683  1
  Se  Se193  1  0.58270617  0.24779669  0.30900377  1
  Se  Se194  1  0.57748520  0.24584707  0.80568550  1
  Se  Se195  1  0.58322184  0.57477468  0.32322146  1
  Se  Se196  1  0.58292268  0.58625596  0.80312044  1
  Se  Se197  1  0.57694427  0.91207058  0.30671788  1
  Se  Se198  1  0.58095413  0.92006404  0.79983353  1
  Se  Se199  1  0.91511533  0.24905127  0.30536470  1
  Se  Se200  1  0.91419096  0.25025790  0.81097819  1
  Se  Se201  1  0.92501519  0.59065258  0.29467253  1
  Se  Se202  1  0.91257028  0.57366902  0.80587581  1
  Se  Se203  1  0.91816691  0.92397218  0.30624563  1
  Se  Se204  1  0.91486609  0.91267054  0.80342882  1
  Se  Se205  1  0.07802163  0.08088722  0.30796756  1
  Se  Se206  1  0.08723275  0.09087828  0.80198601  1
  Se  Se207  1  0.08479320  0.41594050  0.29743920  1
  Se  Se208  1  0.09227593  0.42452252  0.80017969  1
  Se  Se209  1  0.08748859  0.75230881  0.30137653  1
  Se  Se210  1  0.08450617  0.75259427  0.81282526  1
  Se  Se211  1  0.41713844  0.07569004  0.30146702  1
  Se  Se212  1  0.40838186  0.07848788  0.79593024  1
  Se  Se213  1  0.41917880  0.42001590  0.31887648  1
  Se  Se214  1  0.42347137  0.42061387  0.80889120  1
  Se  Se215  1  0.41948350  0.74732783  0.30540936  1
  Se  Se216  1  0.41345723  0.74859800  0.80452879  1
  Se  Se217  1  0.74959149  0.08870113  0.31511118  1
  Se  Se218  1  0.74839347  0.09043024  0.79644389  1
  Se  Se219  1  0.73982861  0.41798715  0.31107204  1
  Se  Se220  1  0.75240353  0.42328859  0.80282596  1
  Se  Se221  1  0.76005939  0.75560880  0.31138480  1
  Se  Se222  1  0.74611210  0.74523228  0.79857205  1
  Se  Se223  1  0.24935781  0.08617830  0.20048221  1
  Se  Se224  1  0.26293893  0.08194283  0.70817842  1
  Se  Se225  1  0.24613029  0.42345931  0.18826930  1
  Se  Se226  1  0.25391258  0.42924527  0.67906599  1
  Se  Se227  1  0.25651864  0.75069874  0.19609487  1
  Se  Se228  1  0.24822439  0.74845528  0.69738560  1
  Se  Se229  1  0.57456077  0.08588405  0.18594902  1
  Se  Se230  1  0.58796270  0.07951439  0.69320864  1
  Se  Se231  1  0.57871009  0.41233601  0.20330973  1
  Se  Se232  1  0.57203152  0.42610193  0.68881313  1
  Se  Se233  1  0.58415546  0.75575742  0.19289851  1
  Se  Se234  1  0.57997675  0.75188024  0.69848485  1
  Se  Se235  1  0.91092625  0.08112961  0.20123229  1
  Se  Se236  1  0.92649108  0.08015010  0.70405719  1
  Se  Se237  1  0.91169084  0.41250887  0.20429902  1
  Se  Se238  1  0.90365259  0.41627835  0.67946504  1
  Se  Se239  1  0.92553407  0.74856542  0.19885176  1
  Se  Se240  1  0.90395282  0.75836615  0.68361063  1
  Se  Se241  1  0.07635291  0.25072369  0.20316156  1
  Se  Se242  1  0.10104078  0.24273994  0.69018463  1
  Se  Se243  1  0.08852896  0.58415921  0.19576834  1
  Se  Se244  1  0.08072677  0.57746358  0.68270265  1
  Se  Se245  1  0.08619021  0.91980633  0.19913885  1
  Se  Se246  1  0.08136771  0.91589468  0.70215327  1
  Se  Se247  1  0.42093226  0.24220070  0.19213627  1
  Se  Se248  1  0.43288692  0.24732367  0.69060878  1
  Se  Se249  1  0.42620691  0.58658629  0.20439117  1
  Se  Se250  1  0.41004932  0.58932113  0.69301375  1
  Se  Se251  1  0.41561619  0.92045739  0.19282683  1
  Se  Se252  1  0.41489014  0.91955377  0.69435751  1
  Se  Se253  1  0.73932476  0.24463318  0.19768383  1
  Se  Se254  1  0.76627496  0.24388784  0.68557548  1
  Se  Se255  1  0.75715326  0.57121472  0.19339454  1
  Se  Se256  1  0.74399492  0.58547772  0.69263060  1
  Se  Se257  1  0.75980544  0.90531774  0.19138067  1
  Se  Se258  1  0.74617702  0.92329363  0.69956798  1
