# generated using pymatgen
data_In86Cu29Se144
_symmetry_space_group_name_H-M   'P 1'
_cell_length_a   17.57327372
_cell_length_b   17.56778941
_cell_length_c   23.41539634
_cell_angle_alpha   89.99764597
_cell_angle_beta   90.01651306
_cell_angle_gamma   90.01875843
_symmetry_Int_Tables_number   1
_chemical_formula_structural   In86Cu29Se144
_chemical_formula_sum   'In86 Cu29 Se144'
_cell_volume   7228.88410529
_cell_formula_units_Z   1
loop_
 _symmetry_equiv_pos_site_id
 _symmetry_equiv_pos_as_xyz
  1  'x, y, z'
loop_
 _atom_site_type_symbol
 _atom_site_label
 _atom_site_symmetry_multiplicity
 _atom_site_fract_x
 _atom_site_fract_y
 _atom_site_fract_z
 _atom_site_occupancy
  In  In0  1  -0.01277628  0.17113456  0.12920321  1
  In  In1  1  0.00181438  0.15654715  0.61895999  1
  In  In2  1  0.00828746  0.51686537  0.11341021  1
  In  In3  1  0.00309612  0.49403032  0.61895823  1
  In  In4  1  0.00092332  0.82686658  0.12352410  1
  In  In5  1  -0.00074638  0.83773752  0.61558959  1
  In  In6  1  0.34888355  0.16793112  0.12754811  1
  In  In7  1  0.33002815  0.17321384  0.62264073  1
  In  In8  1  0.33853652  0.50548747  0.13224499  1
  In  In9  1  0.33698135  0.51056361  0.62410163  1
  In  In10  1  0.32308662  0.81999485  0.11984039  1
  In  In11  1  0.32268688  0.82979275  0.62457052  1
  In  In12  1  0.66692600  0.16401205  0.12755912  1
  In  In13  1  0.65522358  0.16471234  0.62506810  1
  In  In14  1  0.66637092  0.49971944  0.13031337  1
  In  In15  1  0.67465505  0.51210455  0.62499148  1
  In  In16  1  0.66688968  0.83389463  0.12439700  1
  In  In17  1  0.67112596  0.83133757  0.62696951  1
  In  In18  1  0.15353143  0.00750949  0.37586882  1
  In  In19  1  0.15304644  -0.00546881  0.87528914  1
  In  In20  1  0.17537869  0.32591750  0.37486367  1
  In  In21  1  0.17658568  0.34171445  0.87775167  1
  In  In22  1  0.16252333  0.66793008  0.37444445  1
  In  In23  1  0.17502692  0.65893848  0.88374805  1
  In  In24  1  0.51495957  -0.00324886  0.37170882  1
  In  In25  1  0.51561761  -0.01604150  0.88732617  1
  In  In26  1  0.50514374  0.34309324  0.35731793  1
  In  In27  1  0.50061701  0.33126217  0.88985531  1
  In  In28  1  0.49781621  0.65407843  0.35096791  1
  In  In29  1  0.50103902  0.66582533  0.87985670  1
  In  In30  1  0.82157318  -0.01821836  0.36807004  1
  In  In31  1  0.82846379  0.00224548  0.88516828  1
  In  In32  1  0.82381989  0.33827040  0.36807014  1
  In  In33  1  0.82903566  0.33763163  0.88944618  1
  In  In34  1  0.84136929  0.66927416  0.35870052  1
  In  In35  1  0.81760371  0.68250013  0.89753015  1
  In  In36  1  0.02328389  0.16114380  0.36665803  1
  In  In37  1  -0.00524197  0.15452168  0.87708442  1
  In  In38  1  -0.00294309  0.52420332  0.36582429  1
  In  In39  1  -0.00300776  0.51092138  0.89442564  1
  In  In40  1  -0.00351233  0.83127179  0.37189425  1
  In  In41  1  -0.00333197  0.82184433  0.89816588  1
  In  In42  1  0.31504903  0.16884263  0.36609247  1
  In  In43  1  0.33435727  0.17816245  0.87662522  1
  In  In44  1  0.32649690  0.49002024  0.36115717  1
  In  In45  1  0.32603193  0.51021274  0.88572006  1
  In  In46  1  0.33080600  0.81819336  0.37278398  1
  In  In47  1  0.34783020  0.82443862  0.88317764  1
  In  In48  1  0.66908790  0.16645124  0.37107897  1
  In  In49  1  0.67560863  0.15785416  0.88476430  1
  In  In50  1  0.67028406  0.49891591  0.34768046  1
  In  In51  1  0.65382762  0.50682053  0.88798667  1
  In  In52  1  0.67798137  0.83972571  0.36799140  1
  In  In53  1  0.66764720  0.83124224  0.87970611  1
  In  In54  1  0.16722730  -0.01603567  0.12919652  1
  In  In55  1  0.16757447  -0.00232675  0.61541086  1
  In  In56  1  0.16209161  0.34934718  0.12957471  1
  In  In57  1  0.16532791  0.33190475  0.61191013  1
  In  In58  1  0.16660527  0.67054128  0.12692464  1
  In  In59  1  0.17050351  0.67211115  0.61980268  1
  In  In60  1  0.50873204  0.01005718  0.11872718  1
  In  In61  1  0.50576911  0.00490745  0.62978621  1
  In  In62  1  0.50521905  0.33880046  0.13200544  1
  In  In63  1  0.49001149  0.32635219  0.62310571  1
  In  In64  1  0.49693978  0.66278926  0.12960991  1
  In  In65  1  0.49900493  0.66743677  0.63358245  1
  In  In66  1  0.83414095  -0.00308059  0.12638572  1
  In  In67  1  0.83649633  -0.01276580  0.62474544  1
  In  In68  1  0.82415245  0.32721974  0.12143463  1
  In  In69  1  0.83201925  0.34319336  0.62254549  1
  In  In70  1  0.82866476  0.66442339  0.12395277  1
  In  In71  1  0.81515260  0.67452923  0.62642128  1
  In  In72  1  0.33284512  -0.00277705  0.24838112  1
  In  In73  1  0.50364607  0.50200255  0.48031202  1
  In  In74  1  0.50337375  0.83263328  0.49609583  1
  In  In75  1  -0.00469240  0.33755182  0.24681151  1
  In  In76  1  0.83440215  0.50873868  0.49240615  1
  In  In77  1  0.83934614  0.16221353  0.49357096  1
  In  In78  1  0.66116202  0.33743927  0.74378412  1
  In  In79  1  0.16515106  0.16724613  -0.00234391  1
  In  In80  1  -0.00250942  0.66617795  0.75954359  1
  In  In81  1  0.33285942  0.33782854  0.75463615  1
  In  In82  1  0.49750114  0.17143858  0.49665494  1
  In  In83  1  0.00090513  0.33541643  0.74338616  1
  In  In84  1  -0.00364492  -0.00630779  0.75681620  1
  In  In85  1  0.33717562  -0.00221593  0.74798254  1
  Cu  Cu86  1  0.67057918  -0.00247083  0.00451249  1
  Cu  Cu87  1  0.65978769  0.66598683  0.00886448  1
  Cu  Cu88  1  0.83337850  0.15665160  0.24942933  1
  Cu  Cu89  1  0.66594155  0.67203133  0.49333595  1
  Cu  Cu90  1  0.15772296  0.82829065  0.24910963  1
  Cu  Cu91  1  -0.00478048  -0.00180743  0.00558411  1
  Cu  Cu92  1  0.83434789  0.83211285  0.24265035  1
  Cu  Cu93  1  0.17232713  0.82589862  0.75040089  1
  Cu  Cu94  1  0.16721821  0.50245764  0.75573910  1
  Cu  Cu95  1  0.00134400  -0.00380582  0.49446400  1
  Cu  Cu96  1  -0.00141328  0.67202610  0.49382347  1
  Cu  Cu97  1  0.00716305  0.33632449  0.49185344  1
  Cu  Cu98  1  0.33694460  0.66434099  0.00579002  1
  Cu  Cu99  1  0.82850727  0.16494480  0.76012827  1
  Cu  Cu100  1  0.82869357  0.83035727  0.75428257  1
  Cu  Cu101  1  0.32193705  0.66334986  0.49723242  1
  Cu  Cu102  1  0.33544196  -0.00165720  0.00543584  1
  Cu  Cu103  1  0.82067063  0.51138275  0.75914164  1
  Cu  Cu104  1  0.33147408  0.33478581  0.49171593  1
  Cu  Cu105  1  0.51042718  0.15522784  0.75946776  1
  Cu  Cu106  1  0.66316974  0.33258731  0.00982081  1
  Cu  Cu107  1  0.16682513  0.50597281  0.24767096  1
  Cu  Cu108  1  0.33687051  0.33546032  0.00729068  1
  Cu  Cu109  1  0.50721967  0.82571552  0.75883241  1
  Cu  Cu110  1  -0.00367484  0.33498674  0.00745069  1
  Cu  Cu111  1  0.50160457  0.83455055  0.24452567  1
  Cu  Cu112  1  0.32531858  -0.00283601  0.49499298  1
  Cu  Cu113  1  0.50080675  0.50846903  0.75606279  1
  Cu  Cu114  1  0.50567199  0.16815780  0.24654309  1
  Se  Se115  1  0.07944410  0.07980490  0.06273701  1
  Se  Se116  1  0.08447821  0.08182304  0.54762640  1
  Se  Se117  1  0.08618615  0.41927577  0.05139260  1
  Se  Se118  1  0.08691168  0.42235259  0.54637121  1
  Se  Se119  1  0.10291718  0.76650336  0.05727834  1
  Se  Se120  1  0.08244903  0.75021692  0.55240879  1
  Se  Se121  1  0.41836886  0.08763437  0.05114490  1
  Se  Se122  1  0.40848298  0.07357639  0.55672770  1
  Se  Se123  1  0.41806048  0.41835528  0.06250347  1
  Se  Se124  1  0.41392211  0.41510576  0.55040283  1
  Se  Se125  1  0.42150756  0.74965724  0.05602694  1
  Se  Se126  1  0.41073258  0.74022172  0.55526727  1
  Se  Se127  1  0.75215301  0.08300437  0.05773420  1
  Se  Se128  1  0.74910220  0.08169064  0.56120210  1
  Se  Se129  1  0.74861481  0.42039863  0.05613956  1
  Se  Se130  1  0.74082361  0.41652044  0.55278065  1
  Se  Se131  1  0.74861640  0.75177161  0.05407541  1
  Se  Se132  1  0.74713163  0.75421773  0.54905354  1
  Se  Se133  1  0.25073656  0.25463990  0.06326735  1
  Se  Se134  1  0.25314316  0.24820910  0.54754695  1
  Se  Se135  1  0.25282816  0.58363010  0.06104486  1
  Se  Se136  1  0.24570233  0.57771338  0.55380287  1
  Se  Se137  1  0.24843654  0.91471529  0.05307774  1
  Se  Se138  1  0.24883401  0.90986944  0.55016140  1
  Se  Se139  1  0.57981835  0.24768675  0.06140920  1
  Se  Se140  1  0.59150300  0.26510544  0.55409575  1
  Se  Se141  1  0.57920228  0.57923145  0.06016603  1
  Se  Se142  1  0.58437144  0.59148528  0.55286964  1
  Se  Se143  1  0.58225450  0.91505282  0.05367189  1
  Se  Se144  1  0.58871262  0.92463622  0.55755805  1
  Se  Se145  1  0.91248086  0.24618988  0.05296199  1
  Se  Se146  1  0.92533253  0.26169055  0.55599216  1
  Se  Se147  1  0.92072393  0.60000471  0.04898667  1
  Se  Se148  1  0.91953333  0.59679873  0.56140627  1
  Se  Se149  1  0.91332677  0.91121499  0.05639090  1
  Se  Se150  1  0.91351040  0.91632612  0.54699105  1
  Se  Se151  1  0.08761658  0.24688355  0.44329023  1
  Se  Se152  1  0.07277030  0.25960973  0.93853041  1
  Se  Se153  1  0.08043069  0.58325225  0.44535577  1
  Se  Se154  1  0.10069072  0.57398114  0.95388940  1
  Se  Se155  1  0.08386511  0.91105256  0.44185664  1
  Se  Se156  1  0.08251153  0.91821165  0.95247598  1
  Se  Se157  1  0.41445889  0.25924017  0.43046849  1
  Se  Se158  1  0.41382621  0.24634381  0.95364251  1
  Se  Se159  1  0.40597289  0.59419402  0.43234406  1
  Se  Se160  1  0.42133464  0.58153310  0.95095367  1
  Se  Se161  1  0.41012902  0.92343348  0.43564768  1
  Se  Se162  1  0.41993546  0.91347634  0.95308995  1
  Se  Se163  1  0.74526948  0.25781475  0.44405198  1
  Se  Se164  1  0.74659465  0.25019185  0.95317503  1
  Se  Se165  1  0.73997584  0.58899819  0.43045110  1
  Se  Se166  1  0.74473338  0.58038059  0.95603783  1
  Se  Se167  1  0.74381742  0.91687351  0.44755390  1
  Se  Se168  1  0.75235853  0.91114625  0.95059338  1
  Se  Se169  1  0.24755102  0.08494227  0.44181363  1
  Se  Se170  1  0.25627914  0.07358340  0.93877661  1
  Se  Se171  1  0.24928352  0.42134885  0.44108147  1
  Se  Se172  1  0.25151211  0.41699059  0.95288914  1
  Se  Se173  1  0.24287515  0.75245129  0.44645184  1
  Se  Se174  1  0.25572986  0.74859597  0.94875673  1
  Se  Se175  1  0.59348371  0.07814138  0.44698716  1
  Se  Se176  1  0.58494423  0.08267951  0.95187516  1
  Se  Se177  1  0.60133567  0.41330224  0.42969324  1
  Se  Se178  1  0.57915009  0.41724260  0.95662834  1
  Se  Se179  1  0.58072214  0.74076793  0.42894242  1
  Se  Se180  1  0.58278945  0.75005127  0.94861891  1
  Se  Se181  1  0.92549553  0.07555664  0.43040380  1
  Se  Se182  1  0.91426580  0.08512568  0.95244619  1
  Se  Se183  1  0.92393459  0.41441681  0.43430093  1
  Se  Se184  1  0.91211848  0.42109374  0.95563891  1
  Se  Se185  1  0.90969628  0.74659454  0.43900702  1
  Se  Se186  1  0.93401698  0.71969893  0.96062223  1
  Se  Se187  1  0.25468851  0.26187248  0.29560596  1
  Se  Se188  1  0.23648300  0.24212995  0.80419351  1
  Se  Se189  1  0.24768191  0.58971010  0.30370052  1
  Se  Se190  1  0.25329373  0.58443593  0.80637744  1
  Se  Se191  1  0.24138216  0.90878028  0.30920245  1
  Se  Se192  1  0.24775840  0.91042968  0.81140293  1
  Se  Se193  1  0.59095740  0.24957894  0.30018039  1
  Se  Se194  1  0.58247273  0.24858323  0.81381342  1
  Se  Se195  1  0.59153443  0.58750261  0.28351311  1
  Se  Se196  1  0.58794459  0.58650294  0.80873896  1
  Se  Se197  1  0.58666166  0.91545918  0.29840928  1
  Se  Se198  1  0.58885218  0.91516765  0.80646766  1
  Se  Se199  1  0.91283530  0.23932634  0.31027137  1
  Se  Se200  1  0.91051522  0.25102969  0.81171347  1
  Se  Se201  1  0.89608243  0.56322491  0.29353036  1
  Se  Se202  1  0.90439982  0.58283854  0.82109462  1
  Se  Se203  1  0.91650464  0.91424730  0.30032436  1
  Se  Se204  1  0.91322077  0.90049994  0.81870481  1
  Se  Se205  1  0.09053315  0.07879530  0.29187602  1
  Se  Se206  1  0.09183591  0.09379609  0.80281874  1
  Se  Se207  1  0.08691300  0.42413261  0.30983833  1
  Se  Se208  1  0.08135291  0.42544970  0.81257804  1
  Se  Se209  1  0.07530281  0.74332598  0.30329625  1
  Se  Se210  1  0.08867740  0.75821279  0.81633553  1
  Se  Se211  1  0.42519761  0.08867027  0.30975274  1
  Se  Se212  1  0.42271175  0.08159917  0.81732813  1
  Se  Se213  1  0.43019594  0.43619248  0.29504380  1
  Se  Se214  1  0.42512719  0.42276585  0.81535347  1
  Se  Se215  1  0.41482142  0.75358608  0.29665317  1
  Se  Se216  1  0.41734089  0.74464993  0.80622378  1
  Se  Se217  1  0.74679156  0.07807448  0.30405512  1
  Se  Se218  1  0.74857760  0.07675438  0.80905531  1
  Se  Se219  1  0.76354240  0.41578767  0.28838763  1
  Se  Se220  1  0.74737444  0.41918156  0.81311550  1
  Se  Se221  1  0.74863909  0.75111090  0.29736410  1
  Se  Se222  1  0.75114960  0.74570249  0.81097829  1
  Se  Se223  1  0.24662108  0.08876200  0.18775731  1
  Se  Se224  1  0.24351229  0.08682469  0.68998120  1
  Se  Se225  1  0.25138962  0.41940558  0.19943826  1
  Se  Se226  1  0.24087944  0.42147323  0.69009175  1
  Se  Se227  1  0.24997431  0.74984873  0.20031714  1
  Se  Se228  1  0.25296918  0.74192439  0.69691259  1
  Se  Se229  1  0.58631813  0.07807158  0.19806319  1
  Se  Se230  1  0.59197487  0.07786781  0.70144904  1
  Se  Se231  1  0.59859714  0.40645279  0.20092596  1
  Se  Se232  1  0.56800574  0.42965257  0.68537445  1
  Se  Se233  1  0.58516416  0.75001523  0.19348402  1
  Se  Se234  1  0.58838805  0.74889541  0.69624522  1
  Se  Se235  1  0.92006858  0.07700989  0.19754026  1
  Se  Se236  1  0.90971941  0.08978285  0.69528536  1
  Se  Se237  1  0.91889615  0.42272804  0.17667995  1
  Se  Se238  1  0.90277002  0.43638989  0.69603550  1
  Se  Se239  1  0.91673247  0.74560457  0.19267278  1
  Se  Se240  1  0.91427139  0.75737858  0.69245106  1
  Se  Se241  1  0.08936762  0.24528713  0.19220977  1
  Se  Se242  1  0.09060569  0.24258850  0.68692357  1
  Se  Se243  1  0.08061681  0.58683208  0.19529882  1
  Se  Se244  1  0.08412995  0.57808962  0.69318334  1
  Se  Se245  1  0.07607966  0.91431499  0.19795860  1
  Se  Se246  1  0.09102700  0.90859453  0.69257991  1
  Se  Se247  1  0.41841473  0.25353994  0.20021433  1
  Se  Se248  1  0.42580344  0.23503164  0.70094224  1
  Se  Se249  1  0.40877822  0.59489964  0.20344058  1
  Se  Se250  1  0.41312398  0.58466947  0.70022856  1
  Se  Se251  1  0.42009727  0.91319521  0.18309836  1
  Se  Se252  1  0.42816378  0.90170289  0.69159175  1
  Se  Se253  1  0.75371201  0.24425799  0.19709971  1
  Se  Se254  1  0.75896961  0.24392886  0.69090799  1
  Se  Se255  1  0.74235521  0.59287622  0.19659892  1
  Se  Se256  1  0.74205899  0.59328933  0.70183571  1
  Se  Se257  1  0.74739246  0.91805534  0.19539718  1
  Se  Se258  1  0.75179211  0.91589182  0.69786955  1
