# generated using pymatgen
data_In86Cu29Se144
_symmetry_space_group_name_H-M   'P 1'
_cell_length_a   17.58769255
_cell_length_b   17.58498974
_cell_length_c   23.44746685
_cell_angle_alpha   89.99734323
_cell_angle_beta   89.99597034
_cell_angle_gamma   89.99633002
_symmetry_Int_Tables_number   1
_chemical_formula_structural   In86Cu29Se144
_chemical_formula_sum   'In86 Cu29 Se144'
_cell_volume   7251.81827115
_cell_formula_units_Z   1
loop_
 _symmetry_equiv_pos_site_id
 _symmetry_equiv_pos_as_xyz
  1  'x, y, z'
loop_
 _atom_site_type_symbol
 _atom_site_label
 _atom_site_symmetry_multiplicity
 _atom_site_fract_x
 _atom_site_fract_y
 _atom_site_fract_z
 _atom_site_occupancy
  In  In0  1  -0.00891514  0.17113985  0.12966769  1
  In  In1  1  0.00169734  0.15178058  0.62436237  1
  In  In2  1  -0.00665866  0.51040000  0.12044251  1
  In  In3  1  0.01696913  0.49407316  0.62754957  1
  In  In4  1  0.01625903  0.83596717  0.11603438  1
  In  In5  1  0.01018272  0.83595204  0.64544031  1
  In  In6  1  0.32534432  0.15152617  0.13005172  1
  In  In7  1  0.34745347  0.17452052  0.61808426  1
  In  In8  1  0.34855614  0.49408771  0.12569671  1
  In  In9  1  0.33048806  0.50485058  0.63068983  1
  In  In10  1  0.32844113  0.83260544  0.12222537  1
  In  In11  1  0.33530308  0.81788800  0.62676128  1
  In  In12  1  0.66444671  0.16249237  0.12812245  1
  In  In13  1  0.65453600  0.17178877  0.63276055  1
  In  In14  1  0.66700612  0.50055924  0.12529744  1
  In  In15  1  0.66765391  0.49652937  0.63125393  1
  In  In16  1  0.65362734  0.84200139  0.12715061  1
  In  In17  1  0.66075917  0.84207977  0.63139609  1
  In  In18  1  0.18542400  0.01867057  0.35634690  1
  In  In19  1  0.15438335  -0.00139735  0.87902953  1
  In  In20  1  0.17076264  0.33452526  0.38304531  1
  In  In21  1  0.17209488  0.32249122  0.86980077  1
  In  In22  1  0.17601382  0.65307983  0.37546092  1
  In  In23  1  0.18551567  0.68780459  0.85852072  1
  In  In24  1  0.50087400  -0.00011881  0.37355710  1
  In  In25  1  0.49916511  -0.02044365  0.87906912  1
  In  In26  1  0.50353544  0.32109438  0.37591744  1
  In  In27  1  0.51586420  0.34810185  0.86658713  1
  In  In28  1  0.50596080  0.67801098  0.36851601  1
  In  In29  1  0.49791756  0.66614793  0.87711026  1
  In  In30  1  0.83244988  0.00214260  0.36108179  1
  In  In31  1  0.83920458  0.01228218  0.87675182  1
  In  In32  1  0.82494434  0.33970780  0.37281285  1
  In  In33  1  0.80817703  0.35101363  0.89387431  1
  In  In34  1  0.83287255  0.67707986  0.37026328  1
  In  In35  1  0.82319540  0.65958035  0.87000720  1
  In  In36  1  0.01205569  0.16363551  0.37584639  1
  In  In37  1  -0.01068024  0.15026626  0.87392852  1
  In  In38  1  0.01174595  0.50948456  0.37790123  1
  In  In39  1  -0.01487254  0.50429214  0.87675186  1
  In  In40  1  -0.00664772  0.84176039  0.37368343  1
  In  In41  1  0.01735242  0.85002848  0.86616434  1
  In  In42  1  0.34358772  0.16485452  0.37970476  1
  In  In43  1  0.32358796  0.16848799  0.87036569  1
  In  In44  1  0.32175716  0.50339342  0.37052561  1
  In  In45  1  0.34374935  0.51006265  0.87029128  1
  In  In46  1  0.34403879  0.84422166  0.36813538  1
  In  In47  1  0.34658155  0.83035755  0.88618912  1
  In  In48  1  0.66104226  0.16238240  0.36912966  1
  In  In49  1  0.67356786  0.17642782  0.87247123  1
  In  In50  1  0.66104385  0.49906562  0.36608249  1
  In  In51  1  0.65721229  0.50094078  0.87775776  1
  In  In52  1  0.66060734  0.82909097  0.36609617  1
  In  In53  1  0.65833804  0.82161611  0.87158035  1
  In  In54  1  0.17412089  -0.00598060  0.13980121  1
  In  In55  1  0.15587302  -0.00536083  0.62648632  1
  In  In56  1  0.16869346  0.31953707  0.12985812  1
  In  In57  1  0.17920278  0.33874808  0.61750078  1
  In  In58  1  0.16078886  0.67617883  0.12471478  1
  In  In59  1  0.18104008  0.66231851  0.63824898  1
  In  In60  1  0.49916494  -0.00607181  0.12439846  1
  In  In61  1  0.50692113  0.00749876  0.61729082  1
  In  In62  1  0.50484590  0.34937916  0.11913688  1
  In  In63  1  0.51420282  0.31850101  0.63087083  1
  In  In64  1  0.49860615  0.66827512  0.12459595  1
  In  In65  1  0.49519050  0.66925504  0.62832523  1
  In  In66  1  0.82714932  0.00444538  0.12646826  1
  In  In67  1  0.83852819  -0.00206680  0.63627521  1
  In  In68  1  0.81360858  0.32020459  0.10928522  1
  In  In69  1  0.82456746  0.32502877  0.62945864  1
  In  In70  1  0.82906922  0.64969272  0.11712713  1
  In  In71  1  0.82949931  0.67246153  0.63700763  1
  In  In72  1  0.33992800  0.33357172  0.24918216  1
  In  In73  1  0.16125857  0.50227006  -0.00004312  1
  In  In74  1  -0.00524429  0.33021557  0.75301821  1
  In  In75  1  0.83266504  0.83655742  0.50098497  1
  In  In76  1  0.50063199  0.16796972  0.00420337  1
  In  In77  1  0.83094011  0.16608225  0.50271949  1
  In  In78  1  -0.00171046  0.67031337  0.24511086  1
  In  In79  1  0.83281841  0.83228566  -0.00468508  1
  In  In80  1  0.33129494  -0.00402253  0.75110495  1
  In  In81  1  0.17023989  0.83584798  0.50298757  1
  In  In82  1  0.16234609  0.15990777  0.00172857  1
  In  In83  1  0.49633300  0.49525084  0.49733686  1
  In  In84  1  0.83359677  0.49829794  0.50903678  1
  In  In85  1  -0.00352591  0.33521727  0.25444229  1
  Cu  Cu86  1  0.49479708  0.83392777  0.24631433  1
  Cu  Cu87  1  0.65872389  0.66480585  -0.00193633  1
  Cu  Cu88  1  0.66242720  0.00115006  0.49922630  1
  Cu  Cu89  1  0.16781094  0.82996930  0.24671525  1
  Cu  Cu90  1  0.00170225  0.67074018  -0.00907720  1
  Cu  Cu91  1  0.82801276  0.16737513  0.75426006  1
  Cu  Cu92  1  0.82505718  0.50116125  0.75574116  1
  Cu  Cu93  1  0.33622980  0.00161840  0.49242250  1
  Cu  Cu94  1  0.00627772  -0.00169127  0.50070569  1
  Cu  Cu95  1  0.66349886  0.66665307  0.49382424  1
  Cu  Cu96  1  0.01170275  0.66319411  0.50629696  1
  Cu  Cu97  1  0.82710812  0.49578362  0.24399307  1
  Cu  Cu98  1  0.33582057  0.66616196  -0.00031310  1
  Cu  Cu99  1  0.49782364  0.50295146  0.75065993  1
  Cu  Cu100  1  0.33380552  0.66575396  0.50528929  1
  Cu  Cu101  1  0.49893382  0.16317865  0.25035663  1
  Cu  Cu102  1  0.82786743  0.83138592  0.24161597  1
  Cu  Cu103  1  0.49969479  0.82651877  0.75286571  1
  Cu  Cu104  1  0.17075566  0.16953875  0.74767336  1
  Cu  Cu105  1  0.50336764  0.16122681  0.74812602  1
  Cu  Cu106  1  0.34110455  0.33481672  -0.00559665  1
  Cu  Cu107  1  0.16619420  0.50235859  0.74893680  1
  Cu  Cu108  1  0.82439293  0.16728759  0.24473931  1
  Cu  Cu109  1  0.83263644  0.83505469  0.75921193  1
  Cu  Cu110  1  -0.00682837  0.33029816  0.00109182  1
  Cu  Cu111  1  0.00836110  0.33478578  0.49960120  1
  Cu  Cu112  1  0.50437167  0.50853080  0.24689327  1
  Cu  Cu113  1  0.33388740  0.33240470  0.50050645  1
  Cu  Cu114  1  0.66497903  0.00115499  0.00340160  1
  Se  Se115  1  0.07943926  0.07794700  0.06945151  1
  Se  Se116  1  0.08971505  0.08307161  0.55174497  1
  Se  Se117  1  0.07741414  0.40439543  0.06218500  1
  Se  Se118  1  0.09104677  0.42037468  0.55080905  1
  Se  Se119  1  0.08791063  0.74785197  0.04526591  1
  Se  Se120  1  0.08195788  0.74956404  0.56689371  1
  Se  Se121  1  0.40522223  0.07504707  0.05520729  1
  Se  Se122  1  0.41956085  0.08382792  0.54876717  1
  Se  Se123  1  0.42053503  0.42189600  0.04594856  1
  Se  Se124  1  0.41335973  0.40908396  0.56444435  1
  Se  Se125  1  0.41626728  0.75072402  0.05498916  1
  Se  Se126  1  0.42140695  0.74944846  0.55238579  1
  Se  Se127  1  0.74666299  0.08535211  0.05509497  1
  Se  Se128  1  0.74634862  0.07265021  0.56349872  1
  Se  Se129  1  0.76586871  0.43823304  0.05694419  1
  Se  Se130  1  0.73816638  0.40324897  0.55659579  1
  Se  Se131  1  0.74061759  0.74624069  0.05805009  1
  Se  Se132  1  0.74341710  0.74334771  0.55798867  1
  Se  Se133  1  0.26214272  0.25407190  0.05521072  1
  Se  Se134  1  0.25097322  0.24466237  0.55116160  1
  Se  Se135  1  0.25581178  0.58560836  0.06131245  1
  Se  Se136  1  0.24953974  0.58496730  0.55844797  1
  Se  Se137  1  0.23513196  0.91305507  0.06040037  1
  Se  Se138  1  0.26286578  0.92580566  0.56156840  1
  Se  Se139  1  0.59415788  0.26086767  0.05620857  1
  Se  Se140  1  0.58353985  0.24196730  0.55293386  1
  Se  Se141  1  0.58050734  0.58205304  0.05680570  1
  Se  Se142  1  0.58923956  0.58484054  0.55696557  1
  Se  Se143  1  0.57827990  0.91581253  0.04966895  1
  Se  Se144  1  0.58418960  0.91273745  0.55259855  1
  Se  Se145  1  0.91381221  0.24247332  0.05226684  1
  Se  Se146  1  0.92646035  0.25839839  0.56058130  1
  Se  Se147  1  0.91952139  0.58540093  0.04325264  1
  Se  Se148  1  0.92364501  0.59185319  0.56575701  1
  Se  Se149  1  0.91846709  0.92131342  0.05804073  1
  Se  Se150  1  0.92900649  0.91838129  0.56293594  1
  Se  Se151  1  0.08694780  0.24697502  0.44727223  1
  Se  Se152  1  0.07563513  0.25449708  0.93979246  1
  Se  Se153  1  0.09348949  0.58232791  0.45154334  1
  Se  Se154  1  0.08572369  0.59177678  0.93151463  1
  Se  Se155  1  0.08610385  0.92371407  0.43731352  1
  Se  Se156  1  0.08207188  0.91513002  0.95138677  1
  Se  Se157  1  0.42085122  0.25026908  0.44997913  1
  Se  Se158  1  0.41619072  0.25273490  0.93417053  1
  Se  Se159  1  0.41220530  0.59103520  0.43867716  1
  Se  Se160  1  0.41902203  0.58077281  0.94867711  1
  Se  Se161  1  0.42129161  0.91520006  0.44539332  1
  Se  Se162  1  0.41707558  0.91933485  0.95644957  1
  Se  Se163  1  0.74268388  0.25403532  0.44153733  1
  Se  Se164  1  0.75591702  0.23796133  0.95091759  1
  Se  Se165  1  0.74981258  0.58717579  0.43979207  1
  Se  Se166  1  0.74528329  0.58419103  0.94512274  1
  Se  Se167  1  0.74595187  0.92461250  0.43778107  1
  Se  Se168  1  0.73967407  0.92155252  0.93766605  1
  Se  Se169  1  0.24914067  0.08411149  0.44288227  1
  Se  Se170  1  0.25755122  0.07525099  0.94232431  1
  Se  Se171  1  0.25528895  0.42057408  0.44770274  1
  Se  Se172  1  0.25222424  0.41237182  0.93919065  1
  Se  Se173  1  0.25912690  0.74796380  0.44070508  1
  Se  Se174  1  0.25060819  0.74772160  0.94670699  1
  Se  Se175  1  0.58297766  0.08466233  0.44336845  1
  Se  Se176  1  0.58632855  0.07944412  0.93891923  1
  Se  Se177  1  0.59373976  0.40969742  0.44165531  1
  Se  Se178  1  0.58584857  0.41165892  0.94883846  1
  Se  Se179  1  0.58392360  0.75479884  0.44370177  1
  Se  Se180  1  0.57716534  0.75224579  0.94786888  1
  Se  Se181  1  0.91732365  0.07217142  0.44267559  1
  Se  Se182  1  0.92056311  0.07918689  0.95370933  1
  Se  Se183  1  0.92508464  0.41310186  0.44145220  1
  Se  Se184  1  0.91538799  0.42050214  0.95055898  1
  Se  Se185  1  0.92878618  0.74041721  0.44622919  1
  Se  Se186  1  0.91945026  0.74727326  0.93086651  1
  Se  Se187  1  0.24986333  0.24813600  0.31130511  1
  Se  Se188  1  0.25660289  0.25454977  0.79507055  1
  Se  Se189  1  0.25318190  0.58727272  0.29721815  1
  Se  Se190  1  0.25445482  0.58280029  0.80038717  1
  Se  Se191  1  0.25318384  0.91422438  0.29802010  1
  Se  Se192  1  0.24920936  0.91126099  0.81769862  1
  Se  Se193  1  0.58280349  0.25046789  0.29938162  1
  Se  Se194  1  0.58394778  0.24820493  0.80196426  1
  Se  Se195  1  0.58748707  0.59166036  0.30124564  1
  Se  Se196  1  0.58074852  0.58558029  0.80601159  1
  Se  Se197  1  0.57956897  0.91679975  0.30117471  1
  Se  Se198  1  0.58258199  0.91321252  0.80291909  1
  Se  Se199  1  0.90532498  0.23966010  0.31201366  1
  Se  Se200  1  0.90328666  0.25079120  0.81726478  1
  Se  Se201  1  0.90984456  0.57359641  0.30640589  1
  Se  Se202  1  0.91475556  0.58428422  0.80076204  1
  Se  Se203  1  0.91281763  0.91056667  0.29760051  1
  Se  Se204  1  0.91513742  0.92327453  0.80747980  1
  Se  Se205  1  0.06429044  0.06580840  0.30579703  1
  Se  Se206  1  0.08981591  0.09069758  0.80581767  1
  Se  Se207  1  0.09404712  0.42427084  0.30852439  1
  Se  Se208  1  0.08690281  0.42322814  0.81130817  1
  Se  Se209  1  0.08861380  0.75349196  0.31250193  1
  Se  Se210  1  0.06964025  0.73993406  0.80473802  1
  Se  Se211  1  0.41531108  0.08247946  0.30474110  1
  Se  Se212  1  0.42479272  0.08438277  0.81167510  1
  Se  Se213  1  0.42886245  0.42558709  0.31099683  1
  Se  Se214  1  0.41541189  0.41623022  0.80272832  1
  Se  Se215  1  0.41300118  0.74875915  0.30057273  1
  Se  Se216  1  0.41356143  0.74908836  0.80776842  1
  Se  Se217  1  0.74196799  0.08157130  0.29804205  1
  Se  Se218  1  0.74658165  0.08090350  0.80640783  1
  Se  Se219  1  0.74479212  0.41397992  0.29962952  1
  Se  Se220  1  0.74304095  0.41651845  0.80818241  1
  Se  Se221  1  0.74863805  0.74847463  0.29884397  1
  Se  Se222  1  0.74474859  0.74640813  0.80127371  1
  Se  Se223  1  0.24400153  0.08943187  0.20664519  1
  Se  Se224  1  0.25021293  0.08951877  0.68631898  1
  Se  Se225  1  0.24455101  0.42069013  0.19012817  1
  Se  Se226  1  0.24796250  0.41613130  0.69627596  1
  Se  Se227  1  0.25029473  0.74584892  0.19473347  1
  Se  Se228  1  0.24132572  0.76674808  0.70039212  1
  Se  Se229  1  0.57922663  0.07909522  0.19350383  1
  Se  Se230  1  0.58526203  0.07326038  0.69784589  1
  Se  Se231  1  0.58377869  0.41842726  0.19658355  1
  Se  Se232  1  0.58059426  0.41700183  0.69763380  1
  Se  Se233  1  0.58139400  0.75048085  0.19539161  1
  Se  Se234  1  0.58414042  0.74760831  0.69525028  1
  Se  Se235  1  0.91175601  0.08418117  0.19703688  1
  Se  Se236  1  0.91744058  0.08874361  0.70155877  1
  Se  Se237  1  0.91089179  0.41755798  0.18595821  1
  Se  Se238  1  0.90669183  0.42456503  0.69131178  1
  Se  Se239  1  0.90961079  0.75415462  0.17948283  1
  Se  Se240  1  0.91551861  0.75286254  0.70330745  1
  Se  Se241  1  0.08926374  0.23848376  0.20246184  1
  Se  Se242  1  0.08671888  0.24814258  0.68790186  1
  Se  Se243  1  0.08956461  0.57372260  0.19243194  1
  Se  Se244  1  0.08066875  0.58575836  0.69846139  1
  Se  Se245  1  0.07697752  0.91098404  0.19934674  1
  Se  Se246  1  0.08288163  0.93140100  0.70778179  1
  Se  Se247  1  0.42624482  0.24420985  0.18374250  1
  Se  Se248  1  0.41884526  0.24725911  0.69813534  1
  Se  Se249  1  0.41509027  0.58594837  0.19586207  1
  Se  Se250  1  0.41404272  0.58745237  0.69797342  1
  Se  Se251  1  0.41122460  0.91655899  0.19258131  1
  Se  Se252  1  0.42505326  0.91120599  0.68944831  1
  Se  Se253  1  0.74435240  0.25477641  0.19378538  1
  Se  Se254  1  0.74396282  0.24985446  0.70114025  1
  Se  Se255  1  0.74755752  0.58757708  0.19624728  1
  Se  Se256  1  0.74427895  0.58437156  0.69899890  1
  Se  Se257  1  0.74434396  0.91918691  0.19337772  1
  Se  Se258  1  0.75139259  0.91532735  0.69989744  1
