# generated using pymatgen
data_In86Cu29Se144
_symmetry_space_group_name_H-M   'P 1'
_cell_length_a   17.56826763
_cell_length_b   17.56671983
_cell_length_c   23.42412828
_cell_angle_alpha   90.00246672
_cell_angle_beta   89.98223010
_cell_angle_gamma   90.00352871
_symmetry_Int_Tables_number   1
_chemical_formula_structural   In86Cu29Se144
_chemical_formula_sum   'In86 Cu29 Se144'
_cell_volume   7229.07997373
_cell_formula_units_Z   1
loop_
 _symmetry_equiv_pos_site_id
 _symmetry_equiv_pos_as_xyz
  1  'x, y, z'
loop_
 _atom_site_type_symbol
 _atom_site_label
 _atom_site_symmetry_multiplicity
 _atom_site_fract_x
 _atom_site_fract_y
 _atom_site_fract_z
 _atom_site_occupancy
  In  In0  1  -0.01618284  0.17352552  0.14013319  1
  In  In1  1  -0.00868989  0.15748956  0.61726716  1
  In  In2  1  -0.01647306  0.50681246  0.14962536  1
  In  In3  1  0.01247400  0.52416017  0.59210843  1
  In  In4  1  0.00176530  0.84219410  0.13152227  1
  In  In5  1  0.01872286  0.83666142  0.61505432  1
  In  In6  1  0.35012545  0.16428660  0.12875835  1
  In  In7  1  0.31917807  0.16590670  0.62182891  1
  In  In8  1  0.33403005  0.49950989  0.12991192  1
  In  In9  1  0.33552882  0.51659120  0.62313970  1
  In  In10  1  0.30472467  0.83546757  0.12453201  1
  In  In11  1  0.32993579  0.83119681  0.62284332  1
  In  In12  1  0.65776694  0.15299497  0.12778582  1
  In  In13  1  0.66896590  0.15488766  0.62249714  1
  In  In14  1  0.67009551  0.51639625  0.13439004  1
  In  In15  1  0.67116176  0.49347003  0.61804755  1
  In  In16  1  0.67970073  0.82386573  0.13203895  1
  In  In17  1  0.67002952  0.85283238  0.62319531  1
  In  In18  1  0.16146325  -0.00140580  0.38061402  1
  In  In19  1  0.15418317  -0.01422767  0.86844048  1
  In  In20  1  0.16363571  0.33206235  0.37210568  1
  In  In21  1  0.16431808  0.33865288  0.87453100  1
  In  In22  1  0.16343445  0.66522327  0.36947303  1
  In  In23  1  0.17368299  0.66776681  0.87677613  1
  In  In24  1  0.49356400  -0.01357991  0.37250791  1
  In  In25  1  0.51088077  0.00357254  0.87117730  1
  In  In26  1  0.49847244  0.34117473  0.36960545  1
  In  In27  1  0.50413747  0.33016679  0.89066971  1
  In  In28  1  0.50954074  0.67809383  0.36727275  1
  In  In29  1  0.47979809  0.67541992  0.88324286  1
  In  In30  1  0.84611501  0.01907062  0.35613173  1
  In  In31  1  0.83585339  0.00311841  0.88072134  1
  In  In32  1  0.84865906  0.31997332  0.36861300  1
  In  In33  1  0.81966324  0.33233105  0.88115037  1
  In  In34  1  0.83084834  0.65665145  0.36153071  1
  In  In35  1  0.84913133  0.67728428  0.88059312  1
  In  In36  1  0.00126283  0.16581725  0.37105897  1
  In  In37  1  0.01231928  0.14859142  0.88254466  1
  In  In38  1  0.00257534  0.50395626  0.36699047  1
  In  In39  1  0.01405137  0.50770647  0.87830654  1
  In  In40  1  0.01424291  0.83424521  0.36619582  1
  In  In41  1  -0.01665386  0.84302411  0.89569275  1
  In  In42  1  0.31516723  0.15563717  0.37294767  1
  In  In43  1  0.34916228  0.16296151  0.88099847  1
  In  In44  1  0.32100535  0.49161949  0.36850029  1
  In  In45  1  0.32594728  0.51600139  0.88127264  1
  In  In46  1  0.33455884  0.82785071  0.37787959  1
  In  In47  1  0.32709415  0.82857354  0.87060942  1
  In  In48  1  0.68414989  0.17104891  0.36593150  1
  In  In49  1  0.67924367  0.15740282  0.89003019  1
  In  In50  1  0.66899343  0.51529024  0.36812332  1
  In  In51  1  0.66836835  0.48363803  0.88023253  1
  In  In52  1  0.66300791  0.83011601  0.36781022  1
  In  In53  1  0.66541027  0.84919240  0.87696214  1
  In  In54  1  0.16171975  -0.02546825  0.12405833  1
  In  In55  1  0.16590734  -0.00106917  0.62360663  1
  In  In56  1  0.15514206  0.34309706  0.13603510  1
  In  In57  1  0.15943686  0.32908004  0.61203386  1
  In  In58  1  0.14473609  0.70791433  0.16008544  1
  In  In59  1  0.17360253  0.68093140  0.60543109  1
  In  In60  1  0.49473822  0.02210246  0.12113998  1
  In  In61  1  0.50821704  -0.00805707  0.62775661  1
  In  In62  1  0.48646248  0.31992211  0.12413828  1
  In  In63  1  0.50619724  0.33427363  0.62206007  1
  In  In64  1  0.50734680  0.65969829  0.12868166  1
  In  In65  1  0.47891330  0.66511261  0.62434906  1
  In  In66  1  0.83472556  0.00153590  0.13228912  1
  In  In67  1  0.82656424  0.00593617  0.62799044  1
  In  In68  1  0.84462384  0.33095432  0.13497381  1
  In  In69  1  0.84328518  0.34004203  0.61146829  1
  In  In70  1  0.83077731  0.66961355  0.13331950  1
  In  In71  1  0.85411751  0.66937796  0.61212651  1
  In  In72  1  0.16965450  0.16152918  0.00650209  1
  In  In73  1  0.33521842  0.32794785  0.75091807  1
  In  In74  1  -0.01287508  0.32493263  0.74173580  1
  In  In75  1  0.66409728  0.32430077  0.74373121  1
  In  In76  1  0.00850296  0.67701383  0.74434557  1
  In  In77  1  0.66343207  0.33206942  0.24675073  1
  In  In78  1  0.50249857  0.16299193  0.50083163  1
  In  In79  1  0.16645332  0.50938034  0.00668261  1
  In  In80  1  0.33328530  -0.00028221  0.24456991  1
  In  In81  1  0.50002815  0.83564734  0.00188241  1
  In  In82  1  0.83743855  0.83274743  0.48339784  1
  In  In83  1  0.83201150  0.50204753  0.01552947  1
  In  In84  1  0.49849079  0.50695642  0.49849641  1
  In  In85  1  0.65978739  0.67066183  0.75139970  1
  Cu  Cu86  1  0.83996696  0.50787866  0.73893942  1
  Cu  Cu87  1  0.49281227  0.50204755  0.25184297  1
  Cu  Cu88  1  0.17134600  0.50318720  0.74325627  1
  Cu  Cu89  1  0.50500980  0.15666790  0.75359746  1
  Cu  Cu90  1  0.32652882  -0.00816569  0.49827218  1
  Cu  Cu91  1  0.16893989  0.15223743  0.74934722  1
  Cu  Cu92  1  0.67341395  0.00362327  0.49567075  1
  Cu  Cu93  1  0.32759081  0.32938155  0.49290544  1
  Cu  Cu94  1  0.00350199  0.33354310  0.49001031  1
  Cu  Cu95  1  -0.00691000  0.33620229  0.00858991  1
  Cu  Cu96  1  -0.00652284  0.00176300  0.00679299  1
  Cu  Cu97  1  0.68408609  0.33440683  0.48815226  1
  Cu  Cu98  1  0.32921052  0.66784936  0.49446428  1
  Cu  Cu99  1  0.49110849  0.83228515  0.75098369  1
  Cu  Cu100  1  0.49161110  0.50805663  0.76016547  1
  Cu  Cu101  1  0.33747709  0.33201229  0.00979829  1
  Cu  Cu102  1  0.67201663  -0.00373353  0.00499347  1
  Cu  Cu103  1  0.16812691  0.83123093  0.74494056  1
  Cu  Cu104  1  -0.00182363  -0.00077808  0.49344236  1
  Cu  Cu105  1  0.16609620  0.16713846  0.24934952  1
  Cu  Cu106  1  0.83442067  0.15843278  0.75621548  1
  Cu  Cu107  1  0.66754046  0.67715295  0.49217192  1
  Cu  Cu108  1  0.65916306  0.32809557  0.00827031  1
  Cu  Cu109  1  0.83540917  0.83363721  0.25258873  1
  Cu  Cu110  1  0.50048927  0.83580657  0.24342857  1
  Cu  Cu111  1  0.67156809  0.66403113  0.00627824  1
  Cu  Cu112  1  0.33118747  0.66465269  0.00551786  1
  Cu  Cu113  1  0.17330948  0.49967677  0.25580653  1
  Cu  Cu114  1  0.83789696  0.84440243  0.75400310  1
  Se  Se115  1  0.07352870  0.08269480  0.06847345  1
  Se  Se116  1  0.08195005  0.07871730  0.55258581  1
  Se  Se117  1  0.06819774  0.42355066  0.06478815  1
  Se  Se118  1  0.08863982  0.41792567  0.54157750  1
  Se  Se119  1  0.10053883  0.76815242  0.06684857  1
  Se  Se120  1  0.04913839  0.71939160  0.55355331  1
  Se  Se121  1  0.39936933  0.07711400  0.04775204  1
  Se  Se122  1  0.40959488  0.07368202  0.55842394  1
  Se  Se123  1  0.41909086  0.42085846  0.05884061  1
  Se  Se124  1  0.40906568  0.40825641  0.55537957  1
  Se  Se125  1  0.41268759  0.74658609  0.06440572  1
  Se  Se126  1  0.41258834  0.74998306  0.54979461  1
  Se  Se127  1  0.75137610  0.08166482  0.05976917  1
  Se  Se128  1  0.75635363  0.08550622  0.54969918  1
  Se  Se129  1  0.74026346  0.40716479  0.06975080  1
  Se  Se130  1  0.75636690  0.42283247  0.54578905  1
  Se  Se131  1  0.75623918  0.74762491  0.05580737  1
  Se  Se132  1  0.74792386  0.75348602  0.55695682  1
  Se  Se133  1  0.24827587  0.26036162  0.06792068  1
  Se  Se134  1  0.24571408  0.24448525  0.54686834  1
  Se  Se135  1  0.24779048  0.59653672  0.07081156  1
  Se  Se136  1  0.24997756  0.57891236  0.54745931  1
  Se  Se137  1  0.26695738  0.93812552  0.05146096  1
  Se  Se138  1  0.24244665  0.90999250  0.55431771  1
  Se  Se139  1  0.57789378  0.24129980  0.05949806  1
  Se  Se140  1  0.60063314  0.26009790  0.55222530  1
  Se  Se141  1  0.58690932  0.58016257  0.05519043  1
  Se  Se142  1  0.59069970  0.59753347  0.55929607  1
  Se  Se143  1  0.59020804  0.91836534  0.06631970  1
  Se  Se144  1  0.58691155  0.92265105  0.54828187  1
  Se  Se145  1  0.91309542  0.24810542  0.05849902  1
  Se  Se146  1  0.92206412  0.25038103  0.54763622  1
  Se  Se147  1  0.92979708  0.59137259  0.06508140  1
  Se  Se148  1  0.89336783  0.56980670  0.53852040  1
  Se  Se149  1  0.91270011  0.91599685  0.06054325  1
  Se  Se150  1  0.91711729  0.92034470  0.55625819  1
  Se  Se151  1  0.08602360  0.24468969  0.44155807  1
  Se  Se152  1  0.07816731  0.26071854  0.94723050  1
  Se  Se153  1  0.09257259  0.57276974  0.43827675  1
  Se  Se154  1  0.07437091  0.60372470  0.94978118  1
  Se  Se155  1  0.08248950  0.90933823  0.44856206  1
  Se  Se156  1  0.08215310  0.92261279  0.95343386  1
  Se  Se157  1  0.41309037  0.25100315  0.43735189  1
  Se  Se158  1  0.41868463  0.24661289  0.95606584  1
  Se  Se159  1  0.41160148  0.58988977  0.43347527  1
  Se  Se160  1  0.41672022  0.58064101  0.95451079  1
  Se  Se161  1  0.41568901  0.91260804  0.44807120  1
  Se  Se162  1  0.41536934  0.91917822  0.93498035  1
  Se  Se163  1  0.76318663  0.24237956  0.44229097  1
  Se  Se164  1  0.75186807  0.25065177  0.95748219  1
  Se  Se165  1  0.74859378  0.59028661  0.44221566  1
  Se  Se166  1  0.75005497  0.58542120  0.94035376  1
  Se  Se167  1  0.74897554  0.92740796  0.42924962  1
  Se  Se168  1  0.75415172  0.91521817  0.94905605  1
  Se  Se169  1  0.24435089  0.08104255  0.45120116  1
  Se  Se170  1  0.24569599  0.07913192  0.93326371  1
  Se  Se171  1  0.24503733  0.41582948  0.44388195  1
  Se  Se172  1  0.25603051  0.40989125  0.94774876  1
  Se  Se173  1  0.24279014  0.74986111  0.44308838  1
  Se  Se174  1  0.25402039  0.74881612  0.94756414  1
  Se  Se175  1  0.58918524  0.07982275  0.43422161  1
  Se  Se176  1  0.58450193  0.07702443  0.95058309  1
  Se  Se177  1  0.59196365  0.41523442  0.44010170  1
  Se  Se178  1  0.58299801  0.41957763  0.95663899  1
  Se  Se179  1  0.57984849  0.75869631  0.44460375  1
  Se  Se180  1  0.59292404  0.74268959  0.94175715  1
  Se  Se181  1  0.91555163  0.08300470  0.44155681  1
  Se  Se182  1  0.91558054  0.08860572  0.95185247  1
  Se  Se183  1  0.92053604  0.41417979  0.43484530  1
  Se  Se184  1  0.92135158  0.41821943  0.94157788  1
  Se  Se185  1  0.92467465  0.73961320  0.42805742  1
  Se  Se186  1  0.91554596  0.74733230  0.96135218  1
  Se  Se187  1  0.25002402  0.24920838  0.30326036  1
  Se  Se188  1  0.24134806  0.23908804  0.81151072  1
  Se  Se189  1  0.25760854  0.58998319  0.30182452  1
  Se  Se190  1  0.24859042  0.58460157  0.80276987  1
  Se  Se191  1  0.24766263  0.91440060  0.30995020  1
  Se  Se192  1  0.24890821  0.91460909  0.80127087  1
  Se  Se193  1  0.57341417  0.24203339  0.30743125  1
  Se  Se194  1  0.58090753  0.24266583  0.81521200  1
  Se  Se195  1  0.58160850  0.58661387  0.29792412  1
  Se  Se196  1  0.57888269  0.57974065  0.81954666  1
  Se  Se197  1  0.58099781  0.91709271  0.30011865  1
  Se  Se198  1  0.58152633  0.91249937  0.79998158  1
  Se  Se199  1  0.90877732  0.22724978  0.29690152  1
  Se  Se200  1  0.91113051  0.24261888  0.81718628  1
  Se  Se201  1  0.91598200  0.57710557  0.29436430  1
  Se  Se202  1  0.91687357  0.58119113  0.80578307  1
  Se  Se203  1  0.92270792  0.91528565  0.30260285  1
  Se  Se204  1  0.92170818  0.91905893  0.81277991  1
  Se  Se205  1  0.08944487  0.08086504  0.30593925  1
  Se  Se206  1  0.07685031  0.07629632  0.80037734  1
  Se  Se207  1  0.08440057  0.41348885  0.30082571  1
  Se  Se208  1  0.08604458  0.42246299  0.79946928  1
  Se  Se209  1  0.08920433  0.74855474  0.29488699  1
  Se  Se210  1  0.08720071  0.76200693  0.81414354  1
  Se  Se211  1  0.41978278  0.08862414  0.30928924  1
  Se  Se212  1  0.41536361  0.07870974  0.80478541  1
  Se  Se213  1  0.41115280  0.41437510  0.30075912  1
  Se  Se214  1  0.41866095  0.41786295  0.81811610  1
  Se  Se215  1  0.41893456  0.75746083  0.30244235  1
  Se  Se216  1  0.41073895  0.74468671  0.80146686  1
  Se  Se217  1  0.73251171  0.06965975  0.29644344  1
  Se  Se218  1  0.74688812  0.08061913  0.81012271  1
  Se  Se219  1  0.75074096  0.41444008  0.31240883  1
  Se  Se220  1  0.75947607  0.42334789  0.79837629  1
  Se  Se221  1  0.74745406  0.74860329  0.30013249  1
  Se  Se222  1  0.75916303  0.75715509  0.80964342  1
  Se  Se223  1  0.23912865  0.08768063  0.18419089  1
  Se  Se224  1  0.25551449  0.07584285  0.69441256  1
  Se  Se225  1  0.25234713  0.41542541  0.19884380  1
  Se  Se226  1  0.24733353  0.41585506  0.68529418  1
  Se  Se227  1  0.27193417  0.74548674  0.20716295  1
  Se  Se228  1  0.24493801  0.74417151  0.68968688  1
  Se  Se229  1  0.57446557  0.08111959  0.20135874  1
  Se  Se230  1  0.58924540  0.07957877  0.69572708  1
  Se  Se231  1  0.57175000  0.42350575  0.18821885  1
  Se  Se232  1  0.57232113  0.43123437  0.69552850  1
  Se  Se233  1  0.58638895  0.74710965  0.19623332  1
  Se  Se234  1  0.57398161  0.75734839  0.68574608  1
  Se  Se235  1  0.92534237  0.07028435  0.20411360  1
  Se  Se236  1  0.91766979  0.08192638  0.69591129  1
  Se  Se237  1  0.91608713  0.40693199  0.21130955  1
  Se  Se238  1  0.92395006  0.43249476  0.67925133  1
  Se  Se239  1  0.91920308  0.75195928  0.19773899  1
  Se  Se240  1  0.91091975  0.76547985  0.68792676  1
  Se  Se241  1  0.07824822  0.25311305  0.20205066  1
  Se  Se242  1  0.09090400  0.23908762  0.68984292  1
  Se  Se243  1  0.09131418  0.58057286  0.20035647  1
  Se  Se244  1  0.08907588  0.58009744  0.68211163  1
  Se  Se245  1  0.08750572  0.91490639  0.20621940  1
  Se  Se246  1  0.08237667  0.91587444  0.69443039  1
  Se  Se247  1  0.40682138  0.25598570  0.20281743  1
  Se  Se248  1  0.42940788  0.23869213  0.68961716  1
  Se  Se249  1  0.41458194  0.58796479  0.19685344  1
  Se  Se250  1  0.40930974  0.58714358  0.70315043  1
  Se  Se251  1  0.42105503  0.91089447  0.18046867  1
  Se  Se252  1  0.41412228  0.91504946  0.69087056  1
  Se  Se253  1  0.75268542  0.23768253  0.19227794  1
  Se  Se254  1  0.76495628  0.24252348  0.68759794  1
  Se  Se255  1  0.76854518  0.57220041  0.20311398  1
  Se  Se256  1  0.75328207  0.58784546  0.68505027  1
  Se  Se257  1  0.74996278  0.91636994  0.19999413  1
  Se  Se258  1  0.74957420  0.92157863  0.70021119  1
