# generated using pymatgen
data_In86Cu29Se144
_symmetry_space_group_name_H-M   'P 1'
_cell_length_a   17.59654744
_cell_length_b   17.59306887
_cell_length_c   23.45931880
_cell_angle_alpha   90.00651377
_cell_angle_beta   90.05465598
_cell_angle_gamma   90.02897985
_symmetry_Int_Tables_number   1
_chemical_formula_structural   In86Cu29Se144
_chemical_formula_sum   'In86 Cu29 Se144'
_cell_volume   7262.46761210
_cell_formula_units_Z   1
loop_
 _symmetry_equiv_pos_site_id
 _symmetry_equiv_pos_as_xyz
  1  'x, y, z'
loop_
 _atom_site_type_symbol
 _atom_site_label
 _atom_site_symmetry_multiplicity
 _atom_site_fract_x
 _atom_site_fract_y
 _atom_site_fract_z
 _atom_site_occupancy
  In  In0  1  0.00275297  0.18402519  0.12432361  1
  In  In1  1  0.00020978  0.17194046  0.62720174  1
  In  In2  1  0.00486490  0.50319033  0.12431371  1
  In  In3  1  -0.00006157  0.50337533  0.61592734  1
  In  In4  1  -0.00268758  0.82665028  0.11945134  1
  In  In5  1  0.00673517  0.81653484  0.62600749  1
  In  In6  1  0.33503698  0.16750136  0.13249359  1
  In  In7  1  0.34720824  0.16315742  0.62839966  1
  In  In8  1  0.32894193  0.49995123  0.11698470  1
  In  In9  1  0.33326298  0.49829482  0.63001238  1
  In  In10  1  0.33764662  0.84228571  0.10983561  1
  In  In11  1  0.33707047  0.83041836  0.62439710  1
  In  In12  1  0.66684938  0.15676760  0.12260446  1
  In  In13  1  0.64174237  0.18988212  0.64092776  1
  In  In14  1  0.66534394  0.49585487  0.11764272  1
  In  In15  1  0.66115801  0.48807584  0.61843074  1
  In  In16  1  0.66045710  0.82467653  0.11415270  1
  In  In17  1  0.65759721  0.84714691  0.63635390  1
  In  In18  1  0.17361121  -0.01776926  0.37705214  1
  In  In19  1  0.17465998  -0.00961711  0.87666155  1
  In  In20  1  0.17725908  0.34713852  0.37006727  1
  In  In21  1  0.18305790  0.34159445  0.86776298  1
  In  In22  1  0.16501946  0.66903765  0.37454420  1
  In  In23  1  0.20292053  0.64665128  0.90409515  1
  In  In24  1  0.48996698  0.00959248  0.38392177  1
  In  In25  1  0.48790089  -0.01461270  0.86758340  1
  In  In26  1  0.46969637  0.35720563  0.40987467  1
  In  In27  1  0.50528551  0.33909914  0.86834108  1
  In  In28  1  0.49979535  0.66331042  0.38521555  1
  In  In29  1  0.48081841  0.67380911  0.88674242  1
  In  In30  1  0.82601521  0.00729604  0.37204175  1
  In  In31  1  0.82580605  0.00556825  0.88135053  1
  In  In32  1  0.84109315  0.33571715  0.37048818  1
  In  In33  1  0.81869671  0.34705135  0.88004274  1
  In  In34  1  0.83322346  0.65107876  0.37094206  1
  In  In35  1  0.83897533  0.65821403  0.88122215  1
  In  In36  1  -0.00929351  0.17551212  0.37084911  1
  In  In37  1  -0.00413334  0.15864447  0.87870771  1
  In  In38  1  0.00429371  0.50123109  0.36994960  1
  In  In39  1  0.00250094  0.50231519  0.87764701  1
  In  In40  1  0.01671654  0.83127793  0.37114353  1
  In  In41  1  0.01328831  0.81751780  0.88669626  1
  In  In42  1  0.34157633  0.17714064  0.36997745  1
  In  In43  1  0.33386407  0.16754268  0.86588161  1
  In  In44  1  0.33142188  0.49194758  0.38628476  1
  In  In45  1  0.33480630  0.50191891  0.87735058  1
  In  In46  1  0.33096943  0.83475138  0.37652744  1
  In  In47  1  0.33358285  0.83486356  0.87671605  1
  In  In48  1  0.65739855  0.16503182  0.37962568  1
  In  In49  1  0.67077086  0.17499034  0.86927856  1
  In  In50  1  0.65629864  0.49581072  0.38978299  1
  In  In51  1  0.66820063  0.49123566  0.87386267  1
  In  In52  1  0.66118939  0.82350926  0.37870279  1
  In  In53  1  0.65318253  0.84070997  0.87845433  1
  In  In54  1  0.18124926  -0.00399727  0.12234564  1
  In  In55  1  0.18813136  -0.00226219  0.62735302  1
  In  In56  1  0.15950574  0.34153560  0.13035627  1
  In  In57  1  0.18800445  0.36147461  0.61117002  1
  In  In58  1  0.16767354  0.65558229  0.11137056  1
  In  In59  1  0.17249843  0.67041888  0.62173622  1
  In  In60  1  0.49428090  -0.00899490  0.12309899  1
  In  In61  1  0.49887934  -0.00100657  0.62690027  1
  In  In62  1  0.48681223  0.33776862  0.13045096  1
  In  In63  1  0.49815148  0.33832722  0.62167660  1
  In  In64  1  0.48865263  0.66440161  0.10759335  1
  In  In65  1  0.48160467  0.64741375  0.61819175  1
  In  In66  1  0.82637899  -0.00407709  0.11468466  1
  In  In67  1  0.82696760  -0.00920652  0.63018077  1
  In  In68  1  0.84604554  0.34861448  0.11435576  1
  In  In69  1  0.81968888  0.34063685  0.62603302  1
  In  In70  1  0.83951146  0.67239182  0.11768938  1
  In  In71  1  0.83976742  0.65631465  0.62640360  1
  In  In72  1  0.00357479  -0.00428585  0.76186870  1
  In  In73  1  0.00578834  0.33242667  0.74988305  1
  In  In74  1  0.16317102  0.16651704  -0.00392310  1
  In  In75  1  0.33110628  0.66323369  0.23691047  1
  In  In76  1  0.66017810  0.65934365  0.75023470  1
  In  In77  1  0.65941681  -0.00068593  0.25208970  1
  In  In78  1  0.82720677  0.16561918  0.50016105  1
  In  In79  1  0.17339883  0.16810176  0.50519473  1
  In  In80  1  0.66040234  0.66074449  0.25521230  1
  In  In81  1  0.83094966  0.82599541  0.50332900  1
  In  In82  1  0.00278188  0.00588997  0.25366486  1
  In  In83  1  0.00540532  0.66383226  0.75662418  1
  In  In84  1  0.50129809  0.16586133  0.00168227  1
  In  In85  1  0.66270654  0.33197311  0.25398544  1
  Cu  Cu86  1  0.00367017  0.66252977  0.49701267  1
  Cu  Cu87  1  0.48736955  0.17020707  0.25849284  1
  Cu  Cu88  1  0.17135944  0.16847815  0.24802404  1
  Cu  Cu89  1  0.16889882  0.49980189  0.24549445  1
  Cu  Cu90  1  0.00054741  0.33875742  0.00129319  1
  Cu  Cu91  1  0.66135503  0.00040182  0.50890794  1
  Cu  Cu92  1  -0.00293509  0.66197729  0.00184432  1
  Cu  Cu93  1  0.33168659  0.33744396  0.00015577  1
  Cu  Cu94  1  -0.00045356  0.33947953  0.49399619  1
  Cu  Cu95  1  0.83909227  0.17984346  0.24145132  1
  Cu  Cu96  1  0.49150242  0.83106116  0.24506255  1
  Cu  Cu97  1  0.83979584  0.82978116  0.24075069  1
  Cu  Cu98  1  0.32856352  0.66607514  0.50153895  1
  Cu  Cu99  1  0.83964198  0.50043553  0.24532832  1
  Cu  Cu100  1  0.50297571  0.16626854  0.74908716  1
  Cu  Cu101  1  -0.00775690  -0.00024632  0.00124221  1
  Cu  Cu102  1  0.49451282  0.49977028  0.74883453  1
  Cu  Cu103  1  0.17622963  0.17307312  0.74384485  1
  Cu  Cu104  1  0.66865636  0.65994564  -0.00593381  1
  Cu  Cu105  1  0.17810050  0.83307901  0.75081047  1
  Cu  Cu106  1  0.00921965  -0.00699855  0.49846283  1
  Cu  Cu107  1  0.82586390  0.83482077  0.75916962  1
  Cu  Cu108  1  0.33553598  -0.00787523  0.50239400  1
  Cu  Cu109  1  0.66844796  0.33267087  -0.00520926  1
  Cu  Cu110  1  0.66203133  0.66824320  0.50446752  1
  Cu  Cu111  1  0.49356515  0.83033882  0.75205311  1
  Cu  Cu112  1  0.16880925  0.82913617  0.24988137  1
  Cu  Cu113  1  0.82934183  0.16507946  0.75433391  1
  Cu  Cu114  1  0.66772608  0.00278946  -0.00593156  1
  Se  Se115  1  0.07530571  0.07816538  0.06193981  1
  Se  Se116  1  0.07958905  0.07416307  0.56348722  1
  Se  Se117  1  0.08737163  0.41944720  0.05373038  1
  Se  Se118  1  0.08321521  0.42124386  0.54782785  1
  Se  Se119  1  0.08237344  0.74744185  0.05132424  1
  Se  Se120  1  0.08541693  0.74783493  0.54999247  1
  Se  Se121  1  0.40526552  0.07809294  0.05684209  1
  Se  Se122  1  0.41740070  0.07831587  0.55438044  1
  Se  Se123  1  0.41969817  0.41663677  0.05259701  1
  Se  Se124  1  0.42453478  0.43354478  0.55753527  1
  Se  Se125  1  0.43210202  0.76960545  0.04534675  1
  Se  Se126  1  0.41645484  0.74799134  0.55286969  1
  Se  Se127  1  0.74930115  0.08677635  0.04852299  1
  Se  Se128  1  0.74250266  0.08079183  0.56685509  1
  Se  Se129  1  0.75088814  0.41865771  0.04844455  1
  Se  Se130  1  0.75809332  0.42322081  0.54972424  1
  Se  Se131  1  0.74921551  0.74626761  0.04931750  1
  Se  Se132  1  0.73983971  0.74533893  0.56894740  1
  Se  Se133  1  0.25263699  0.25424748  0.05958205  1
  Se  Se134  1  0.26921703  0.25743914  0.55685552  1
  Se  Se135  1  0.27188042  0.59848322  0.04648246  1
  Se  Se136  1  0.25059182  0.58030501  0.55678979  1
  Se  Se137  1  0.23846249  0.91111270  0.04528275  1
  Se  Se138  1  0.24918397  0.90947060  0.55313742  1
  Se  Se139  1  0.58910978  0.25963032  0.06178240  1
  Se  Se140  1  0.58243392  0.25236102  0.55461943  1
  Se  Se141  1  0.58434175  0.58095046  0.05057864  1
  Se  Se142  1  0.58111487  0.57983293  0.55434304  1
  Se  Se143  1  0.58707618  0.92446934  0.05397836  1
  Se  Se144  1  0.57966057  0.91175842  0.55682772  1
  Se  Se145  1  0.91741757  0.25007046  0.04953111  1
  Se  Se146  1  0.92295800  0.25760682  0.55591274  1
  Se  Se147  1  0.91453622  0.57699489  0.05442403  1
  Se  Se148  1  0.91340533  0.58459279  0.54803885  1
  Se  Se149  1  0.91275085  0.91080260  0.05265004  1
  Se  Se150  1  0.92537239  0.91912550  0.56108311  1
  Se  Se151  1  0.08035171  0.25238614  0.44054131  1
  Se  Se152  1  0.07872794  0.26212979  0.93548972  1
  Se  Se153  1  0.08649912  0.58106850  0.44192260  1
  Se  Se154  1  0.08365336  0.58149828  0.94913784  1
  Se  Se155  1  0.08954000  0.90687345  0.44868429  1
  Se  Se156  1  0.07854310  0.92555788  0.94462630  1
  Se  Se157  1  0.42137289  0.23094529  0.45178043  1
  Se  Se158  1  0.41104942  0.25544193  0.94100220  1
  Se  Se159  1  0.41353658  0.58197568  0.45036333  1
  Se  Se160  1  0.41355098  0.57827050  0.95303516  1
  Se  Se161  1  0.41881904  0.91041089  0.44661338  1
  Se  Se162  1  0.42380051  0.90951326  0.94693669  1
  Se  Se163  1  0.74570434  0.25906284  0.43862416  1
  Se  Se164  1  0.75209702  0.24633024  0.94564408  1
  Se  Se165  1  0.74378696  0.59057990  0.44523742  1
  Se  Se166  1  0.75091879  0.57429106  0.94361038  1
  Se  Se167  1  0.74265353  0.92507042  0.44464486  1
  Se  Se168  1  0.74868138  0.91227931  0.94548160  1
  Se  Se169  1  0.25626850  0.07520812  0.44156119  1
  Se  Se170  1  0.26142026  0.08045600  0.94223126  1
  Se  Se171  1  0.24315179  0.41395167  0.45317234  1
  Se  Se172  1  0.24693294  0.41928016  0.94744453  1
  Se  Se173  1  0.24937117  0.74917621  0.44337710  1
  Se  Se174  1  0.22950218  0.77896401  0.94506359  1
  Se  Se175  1  0.58241595  0.08272758  0.45107666  1
  Se  Se176  1  0.58427966  0.07991786  0.93435574  1
  Se  Se177  1  0.59206869  0.40359712  0.45878592  1
  Se  Se178  1  0.58103338  0.41479545  0.94493404  1
  Se  Se179  1  0.57914157  0.75260662  0.45196213  1
  Se  Se180  1  0.58392490  0.74667052  0.94568630  1
  Se  Se181  1  0.92589679  0.07368903  0.44296989  1
  Se  Se182  1  0.91134861  0.08638132  0.95019895  1
  Se  Se183  1  0.91703520  0.42164935  0.43984304  1
  Se  Se184  1  0.91777944  0.41808113  0.94348770  1
  Se  Se185  1  0.92186386  0.74512674  0.43736212  1
  Se  Se186  1  0.91402010  0.74740881  0.94951406  1
  Se  Se187  1  0.25079766  0.25305499  0.30408994  1
  Se  Se188  1  0.25844314  0.25661780  0.79774786  1
  Se  Se189  1  0.25006475  0.57796506  0.30688164  1
  Se  Se190  1  0.25329983  0.59058581  0.81156899  1
  Se  Se191  1  0.25363005  0.91269222  0.30044819  1
  Se  Se192  1  0.25767488  0.92163166  0.80218311  1
  Se  Se193  1  0.57041433  0.24947136  0.31523731  1
  Se  Se194  1  0.58523980  0.25293620  0.80076723  1
  Se  Se195  1  0.57095856  0.56970747  0.31239783  1
  Se  Se196  1  0.56854867  0.57957274  0.81544792  1
  Se  Se197  1  0.57160149  0.90647707  0.31032969  1
  Se  Se198  1  0.58234410  0.91474075  0.79893301  1
  Se  Se199  1  0.92192249  0.25948522  0.29642625  1
  Se  Se200  1  0.91269277  0.24570295  0.81113822  1
  Se  Se201  1  0.92191061  0.58521603  0.29876898  1
  Se  Se202  1  0.90688281  0.57075209  0.80394069  1
  Se  Se203  1  0.90829908  0.91074475  0.30919304  1
  Se  Se204  1  0.91470114  0.90410318  0.81945567  1
  Se  Se205  1  0.09566360  0.09160993  0.31523218  1
  Se  Se206  1  0.09809939  0.09617015  0.80831883  1
  Se  Se207  1  0.08536328  0.41691556  0.30030383  1
  Se  Se208  1  0.09316761  0.43005389  0.80431083  1
  Se  Se209  1  0.08404574  0.74425679  0.29841344  1
  Se  Se210  1  0.10020880  0.75199579  0.81088954  1
  Se  Se211  1  0.40985209  0.07550233  0.30526043  1
  Se  Se212  1  0.41907426  0.08301641  0.80178401  1
  Se  Se213  1  0.41576051  0.41326709  0.31752318  1
  Se  Se214  1  0.41260281  0.41660628  0.80505121  1
  Se  Se215  1  0.41960084  0.74576746  0.30734117  1
  Se  Se216  1  0.41166108  0.74808753  0.80645152  1
  Se  Se217  1  0.75543820  0.10102127  0.30085157  1
  Se  Se218  1  0.74763551  0.07901807  0.80522753  1
  Se  Se219  1  0.75324795  0.43036123  0.30827612  1
  Se  Se220  1  0.74306771  0.41073168  0.80008896  1
  Se  Se221  1  0.75773663  0.75757572  0.30624525  1
  Se  Se222  1  0.74962729  0.74714101  0.81443641  1
  Se  Se223  1  0.25013788  0.08093153  0.19659745  1
  Se  Se224  1  0.25966175  0.08355476  0.69759709  1
  Se  Se225  1  0.25518540  0.41924568  0.19231396  1
  Se  Se226  1  0.24930733  0.41734084  0.69979793  1
  Se  Se227  1  0.24451379  0.75837180  0.18075418  1
  Se  Se228  1  0.25392009  0.74754134  0.69408377  1
  Se  Se229  1  0.56774841  0.09319908  0.19463823  1
  Se  Se230  1  0.58486179  0.07776242  0.69784829  1
  Se  Se231  1  0.57773183  0.42581427  0.19409601  1
  Se  Se232  1  0.58016856  0.41906995  0.69561311  1
  Se  Se233  1  0.57421109  0.74936555  0.18951191  1
  Se  Se234  1  0.56972316  0.74781457  0.68968693  1
  Se  Se235  1  0.91020105  0.08576014  0.18666219  1
  Se  Se236  1  0.91455225  0.08626686  0.69600838  1
  Se  Se237  1  0.92291281  0.41657681  0.19350784  1
  Se  Se238  1  0.91659125  0.42202805  0.68941745  1
  Se  Se239  1  0.92242213  0.74399672  0.19318294  1
  Se  Se240  1  0.90648823  0.75656687  0.69828489  1
  Se  Se241  1  0.08415812  0.25215921  0.19986784  1
  Se  Se242  1  0.09939473  0.25322483  0.68338090  1
  Se  Se243  1  0.09088416  0.58661954  0.19100013  1
  Se  Se244  1  0.08822274  0.57874511  0.68899998  1
  Se  Se245  1  0.08632153  0.91376773  0.19152457  1
  Se  Se246  1  0.08902783  0.90986539  0.69339805  1
  Se  Se247  1  0.41029875  0.25544690  0.20159412  1
  Se  Se248  1  0.42216533  0.25304769  0.69588121  1
  Se  Se249  1  0.42899729  0.57425030  0.18704559  1
  Se  Se250  1  0.40957647  0.58693681  0.70221622  1
  Se  Se251  1  0.40932853  0.91451373  0.19276873  1
  Se  Se252  1  0.41487546  0.91583230  0.69505666  1
  Se  Se253  1  0.75209792  0.25311811  0.18331579  1
  Se  Se254  1  0.75326666  0.25069771  0.69787379  1
  Se  Se255  1  0.75339618  0.58007492  0.18935294  1
  Se  Se256  1  0.75256016  0.57225670  0.69166209  1
  Se  Se257  1  0.74965199  0.90887282  0.19034712  1
  Se  Se258  1  0.74692401  0.92032721  0.70594684  1
