# generated using pymatgen
data_In86Cu29Se144
_symmetry_space_group_name_H-M   'P 1'
_cell_length_a   17.58373703
_cell_length_b   17.58174213
_cell_length_c   23.44600591
_cell_angle_alpha   89.96893785
_cell_angle_beta   90.00730916
_cell_angle_gamma   90.01463767
_symmetry_Int_Tables_number   1
_chemical_formula_structural   In86Cu29Se144
_chemical_formula_sum   'In86 Cu29 Se144'
_cell_volume   7248.39537667
_cell_formula_units_Z   1
loop_
 _symmetry_equiv_pos_site_id
 _symmetry_equiv_pos_as_xyz
  1  'x, y, z'
loop_
 _atom_site_type_symbol
 _atom_site_label
 _atom_site_symmetry_multiplicity
 _atom_site_fract_x
 _atom_site_fract_y
 _atom_site_fract_z
 _atom_site_occupancy
  In  In0  1  0.00122136  0.16749571  0.12811153  1
  In  In1  1  0.01316295  0.18242015  0.60449334  1
  In  In2  1  -0.01882490  0.47768406  0.10830829  1
  In  In3  1  -0.01072419  0.49562959  0.62926517  1
  In  In4  1  0.00754018  0.84414929  0.13232324  1
  In  In5  1  0.00558958  0.83407575  0.61692231  1
  In  In6  1  0.33351900  0.16932901  0.12607213  1
  In  In7  1  0.33258684  0.16777985  0.62553108  1
  In  In8  1  0.32255122  0.48558075  0.11466172  1
  In  In9  1  0.32684262  0.49432269  0.63414990  1
  In  In10  1  0.32947093  0.84266365  0.13194237  1
  In  In11  1  0.34407483  0.84975757  0.61833635  1
  In  In12  1  0.66864340  0.16883996  0.12510700  1
  In  In13  1  0.65167904  0.16091199  0.61621202  1
  In  In14  1  0.66180530  0.48897647  0.11586432  1
  In  In15  1  0.67711359  0.49834733  0.63376896  1
  In  In16  1  0.67275054  0.83778081  0.12756407  1
  In  In17  1  0.65831212  0.85640740  0.63765640  1
  In  In18  1  0.16996915  0.00376055  0.37661958  1
  In  In19  1  0.18024170  -0.00000940  0.87319263  1
  In  In20  1  0.14618371  0.30914866  0.36031912  1
  In  In21  1  0.16713832  0.32371796  0.87756562  1
  In  In22  1  0.17627895  0.67032165  0.37678469  1
  In  In23  1  0.15401219  0.65903212  0.87726257  1
  In  In24  1  0.49884799  0.00665592  0.37384328  1
  In  In25  1  0.50845504  0.00348971  0.87110597  1
  In  In26  1  0.48996971  0.31831187  0.36297399  1
  In  In27  1  0.48710851  0.34114114  0.88007357  1
  In  In28  1  0.50967656  0.67577345  0.37654189  1
  In  In29  1  0.50747074  0.64699971  0.87090513  1
  In  In30  1  0.85490542  0.02297440  0.36278977  1
  In  In31  1  0.83148513  0.01068426  0.87462175  1
  In  In32  1  0.82837365  0.32633016  0.36642445  1
  In  In33  1  0.84264515  0.32165934  0.88256954  1
  In  In34  1  0.84085964  0.66240463  0.37521928  1
  In  In35  1  0.82330221  0.66342591  0.87659041  1
  In  In36  1  0.00374548  0.16692347  0.38662405  1
  In  In37  1  -0.00843472  0.17089475  0.88195379  1
  In  In38  1  -0.00357652  0.49015399  0.36483310  1
  In  In39  1  0.01780538  0.48587392  0.89152705  1
  In  In40  1  0.01242965  0.85489605  0.37234468  1
  In  In41  1  -0.00107214  0.83421312  0.87393416  1
  In  In42  1  0.33380969  0.16644189  0.37394101  1
  In  In43  1  0.33298059  0.16650078  0.87655476  1
  In  In44  1  0.33713664  0.48956010  0.37137481  1
  In  In45  1  0.34421473  0.48118203  0.88347453  1
  In  In46  1  0.31080475  0.86263513  0.38904599  1
  In  In47  1  0.32761802  0.84366581  0.86924928  1
  In  In48  1  0.66879498  0.16575170  0.37143830  1
  In  In49  1  0.66853737  0.16073552  0.88133512  1
  In  In50  1  0.67844570  0.49080011  0.36785444  1
  In  In51  1  0.65775433  0.50421634  0.87988162  1
  In  In52  1  0.65168060  0.84284230  0.38093167  1
  In  In53  1  0.67506935  0.82984833  0.86127285  1
  In  In54  1  0.14938157  0.01316270  0.14331606  1
  In  In55  1  0.17460655  0.01993040  0.61079796  1
  In  In56  1  0.16620527  0.32733736  0.12619582  1
  In  In57  1  0.16838662  0.32820821  0.62994681  1
  In  In58  1  0.17116261  0.66219536  0.11841170  1
  In  In59  1  0.15878593  0.66590547  0.62367877  1
  In  In60  1  0.48491310  0.01585547  0.13691505  1
  In  In61  1  0.50031502  0.00408034  0.62467481  1
  In  In62  1  0.50099550  0.32835634  0.12182019  1
  In  In63  1  0.50000086  0.31977016  0.62541192  1
  In  In64  1  0.50824530  0.65996869  0.11959031  1
  In  In65  1  0.49467032  0.68163056  0.62832170  1
  In  In66  1  0.82392259  0.01094515  0.13701062  1
  In  In67  1  0.82123159  0.00640854  0.62410343  1
  In  In68  1  0.83737351  0.33144102  0.12606668  1
  In  In69  1  0.84285231  0.33078035  0.62927151  1
  In  In70  1  0.84215096  0.64731939  0.12216391  1
  In  In71  1  0.83423200  0.66468172  0.63124596  1
  In  In72  1  -0.00273828  0.66531682  0.75120846  1
  In  In73  1  0.83394240  0.49451597  0.49531304  1
  In  In74  1  0.82949464  0.84244580  0.50210551  1
  In  In75  1  0.16561191  0.83164108  0.00152013  1
  In  In76  1  0.33605251  0.66578945  0.75506040  1
  In  In77  1  0.33530720  0.67079371  0.24650117  1
  In  In78  1  -0.00572358  0.00588624  0.74390969  1
  In  In79  1  0.66192563  0.67041972  0.24639874  1
  In  In80  1  0.16881593  0.49643874  0.50405773  1
  In  In81  1  0.50173007  0.49965552  0.49877514  1
  In  In82  1  0.65782353  0.33430335  0.75491997  1
  In  In83  1  -0.00128748  0.66248104  0.24858909  1
  In  In84  1  0.83307378  0.83085827  -0.00337490  1
  In  In85  1  0.50169757  0.83198215  0.00058301  1
  Cu  Cu86  1  -0.00259697  0.00696045  0.00644841  1
  Cu  Cu87  1  0.16539366  0.16782820  0.74674428  1
  Cu  Cu88  1  0.33817615  0.00689461  0.49889029  1
  Cu  Cu89  1  0.33888161  0.68007257  0.49992233  1
  Cu  Cu90  1  0.66441472  0.32567722  0.49352262  1
  Cu  Cu91  1  0.33564479  0.65943610  -0.00211328  1
  Cu  Cu92  1  0.16969867  0.16672241  0.25218450  1
  Cu  Cu93  1  0.49253958  0.16152314  0.74886076  1
  Cu  Cu94  1  0.16840530  0.48465158  0.75910657  1
  Cu  Cu95  1  0.50531170  0.83681415  0.74541952  1
  Cu  Cu96  1  0.66282771  0.67433535  0.50554192  1
  Cu  Cu97  1  0.66677154  0.65726750  -0.00275195  1
  Cu  Cu98  1  0.17635519  0.84158904  0.74248080  1
  Cu  Cu99  1  0.00766223  0.67313993  0.49551163  1
  Cu  Cu100  1  0.50006903  0.48962899  0.24327129  1
  Cu  Cu101  1  0.82915638  0.83591763  0.25353863  1
  Cu  Cu102  1  0.00528345  0.32391091  0.00432052  1
  Cu  Cu103  1  0.33112957  0.01078606  0.00352925  1
  Cu  Cu104  1  0.50569724  0.16900773  0.24859634  1
  Cu  Cu105  1  0.83988784  0.16855430  0.24975663  1
  Cu  Cu106  1  0.67111038  0.32720314  0.00007916  1
  Cu  Cu107  1  0.83608782  0.49659754  0.75654910  1
  Cu  Cu108  1  0.66114617  0.00668945  0.00394695  1
  Cu  Cu109  1  0.82743470  0.16773562  0.75225489  1
  Cu  Cu110  1  0.33068191  0.32707444  0.00185450  1
  Cu  Cu111  1  0.32992210  0.32554818  0.49801491  1
  Cu  Cu112  1  0.49050938  0.84419676  0.25840208  1
  Cu  Cu113  1  0.66508466  0.00527127  0.49705865  1
  Cu  Cu114  1  0.16575170  0.49305692  0.24071038  1
  Se  Se115  1  0.08678479  0.08360570  0.05882625  1
  Se  Se116  1  0.07645041  0.07962669  0.54345180  1
  Se  Se117  1  0.09017917  0.41153181  0.05285776  1
  Se  Se118  1  0.07261287  0.41157455  0.56072932  1
  Se  Se119  1  0.06973624  0.74639120  0.05972724  1
  Se  Se120  1  0.09138303  0.75234438  0.55014180  1
  Se  Se121  1  0.41997288  0.08912806  0.05489404  1
  Se  Se122  1  0.41896100  0.08868572  0.55615438  1
  Se  Se123  1  0.41850066  0.41210417  0.05132140  1
  Se  Se124  1  0.40651241  0.41222895  0.55701115  1
  Se  Se125  1  0.40523119  0.74465509  0.06107657  1
  Se  Se126  1  0.42447185  0.76006471  0.55214207  1
  Se  Se127  1  0.75201005  0.08206682  0.05649475  1
  Se  Se128  1  0.74737810  0.08884705  0.55073727  1
  Se  Se129  1  0.75480701  0.41147244  0.05264970  1
  Se  Se130  1  0.73967359  0.40794429  0.55647746  1
  Se  Se131  1  0.74246090  0.73917214  0.05933234  1
  Se  Se132  1  0.74597491  0.74973251  0.56519964  1
  Se  Se133  1  0.24688926  0.24446089  0.05518247  1
  Se  Se134  1  0.24627377  0.24896036  0.55627627  1
  Se  Se135  1  0.24802368  0.57871035  0.04836738  1
  Se  Se136  1  0.26353581  0.59276241  0.55910800  1
  Se  Se137  1  0.25016216  0.92682707  0.06024129  1
  Se  Se138  1  0.25249539  0.92140440  0.55077333  1
  Se  Se139  1  0.58489707  0.24581357  0.05298951  1
  Se  Se140  1  0.57535709  0.24971711  0.54705530  1
  Se  Se141  1  0.57939413  0.57570514  0.04778052  1
  Se  Se142  1  0.58968185  0.58617130  0.56403233  1
  Se  Se143  1  0.58301072  0.92487058  0.06446847  1
  Se  Se144  1  0.58636755  0.92159519  0.55514369  1
  Se  Se145  1  0.91686040  0.24410635  0.05653772  1
  Se  Se146  1  0.90413069  0.25144720  0.55112434  1
  Se  Se147  1  0.92000576  0.58253199  0.04528431  1
  Se  Se148  1  0.92451463  0.59344291  0.55451930  1
  Se  Se149  1  0.91636306  0.92220140  0.06223165  1
  Se  Se150  1  0.92304848  0.93120200  0.55817902  1
  Se  Se151  1  0.09078466  0.25306036  0.45097236  1
  Se  Se152  1  0.08656600  0.24063149  0.94880515  1
  Se  Se153  1  0.07746569  0.58256620  0.43678257  1
  Se  Se154  1  0.08538402  0.58603533  0.95515010  1
  Se  Se155  1  0.09189878  0.91893564  0.44882197  1
  Se  Se156  1  0.07492523  0.92768936  0.94261415  1
  Se  Se157  1  0.41878790  0.24911219  0.44443031  1
  Se  Se158  1  0.41628690  0.24690405  0.94720841  1
  Se  Se159  1  0.40872667  0.59202444  0.43881500  1
  Se  Se160  1  0.42121767  0.57998730  0.94477882  1
  Se  Se161  1  0.42193616  0.92114539  0.44673135  1
  Se  Se162  1  0.40775336  0.92355259  0.94485288  1
  Se  Se163  1  0.75284933  0.24791211  0.44169332  1
  Se  Se164  1  0.75410240  0.24147274  0.94856821  1
  Se  Se165  1  0.73827513  0.59289324  0.44323815  1
  Se  Se166  1  0.75368544  0.57468325  0.94784345  1
  Se  Se167  1  0.74931224  0.93101966  0.43513137  1
  Se  Se168  1  0.73748080  0.92239864  0.94274713  1
  Se  Se169  1  0.25242603  0.08845331  0.44622449  1
  Se  Se170  1  0.24512879  0.08715061  0.94706976  1
  Se  Se171  1  0.25024860  0.40704052  0.43832930  1
  Se  Se172  1  0.24720155  0.41076082  0.94726956  1
  Se  Se173  1  0.24658026  0.75487140  0.44927742  1
  Se  Se174  1  0.25879869  0.74377028  0.93803926  1
  Se  Se175  1  0.58246355  0.08899281  0.44266796  1
  Se  Se176  1  0.57587648  0.08479598  0.94869573  1
  Se  Se177  1  0.58630361  0.41016694  0.43455549  1
  Se  Se178  1  0.58620059  0.40965983  0.94571482  1
  Se  Se179  1  0.57925739  0.75645970  0.45285695  1
  Se  Se180  1  0.59299091  0.74610452  0.93854247  1
  Se  Se181  1  0.91446147  0.08301833  0.45048533  1
  Se  Se182  1  0.91122498  0.08300024  0.94963955  1
  Se  Se183  1  0.92540759  0.40525986  0.44004707  1
  Se  Se184  1  0.92006540  0.40857688  0.95166492  1
  Se  Se185  1  0.92283792  0.75261723  0.43963269  1
  Se  Se186  1  0.92664407  0.74003222  0.94144765  1
  Se  Se187  1  0.25682562  0.25243284  0.30171796  1
  Se  Se188  1  0.24959767  0.24624835  0.80480469  1
  Se  Se189  1  0.24294835  0.57359223  0.30350968  1
  Se  Se190  1  0.24525699  0.57471317  0.81389905  1
  Se  Se191  1  0.24873713  0.92276226  0.30267862  1
  Se  Se192  1  0.25657366  0.92647269  0.79543993  1
  Se  Se193  1  0.59156868  0.25290831  0.30007074  1
  Se  Se194  1  0.57120923  0.24023437  0.81336080  1
  Se  Se195  1  0.57304874  0.57395225  0.30642291  1
  Se  Se196  1  0.59630707  0.58363798  0.79933679  1
  Se  Se197  1  0.58412295  0.92297211  0.30405494  1
  Se  Se198  1  0.58728341  0.91850395  0.80211966  1
  Se  Se199  1  0.92428529  0.24413835  0.30887379  1
  Se  Se200  1  0.91635524  0.24594038  0.80435207  1
  Se  Se201  1  0.89967602  0.56991028  0.29977745  1
  Se  Se202  1  0.92080144  0.57219944  0.81705894  1
  Se  Se203  1  0.91901466  0.91744259  0.30099157  1
  Se  Se204  1  0.90920197  0.91314139  0.80779126  1
  Se  Se205  1  0.08519380  0.09031485  0.31092464  1
  Se  Se206  1  0.08639384  0.08701416  0.80967322  1
  Se  Se207  1  0.08184224  0.41306425  0.29678891  1
  Se  Se208  1  0.07882111  0.40686574  0.81003648  1
  Se  Se209  1  0.08859445  0.75137669  0.30859174  1
  Se  Se210  1  0.09631655  0.76179422  0.80336001  1
  Se  Se211  1  0.41882503  0.08816965  0.30265392  1
  Se  Se212  1  0.41333238  0.07915616  0.80743464  1
  Se  Se213  1  0.41326613  0.41200022  0.29795496  1
  Se  Se214  1  0.42012982  0.42047496  0.80211717  1
  Se  Se215  1  0.41437699  0.75823947  0.31573433  1
  Se  Se216  1  0.42950667  0.75892122  0.81246712  1
  Se  Se217  1  0.75081774  0.08455463  0.29988395  1
  Se  Se218  1  0.74425283  0.08382038  0.80387256  1
  Se  Se219  1  0.75549087  0.41515763  0.29634265  1
  Se  Se220  1  0.75603422  0.41461804  0.81552676  1
  Se  Se221  1  0.75142981  0.75445327  0.31392376  1
  Se  Se222  1  0.76310598  0.74739194  0.79995665  1
  Se  Se223  1  0.25487371  0.08507275  0.19855141  1
  Se  Se224  1  0.24808533  0.08335969  0.69402750  1
  Se  Se225  1  0.25481623  0.40957726  0.19417879  1
  Se  Se226  1  0.25174448  0.40708910  0.70172472  1
  Se  Se227  1  0.23464170  0.75693630  0.19322522  1
  Se  Se228  1  0.25128008  0.75235811  0.68660885  1
  Se  Se229  1  0.58891557  0.08343529  0.19659363  1
  Se  Se230  1  0.58344117  0.08507931  0.69624281  1
  Se  Se231  1  0.58680058  0.41065121  0.19122478  1
  Se  Se232  1  0.57167971  0.42300053  0.69059406  1
  Se  Se233  1  0.56522907  0.76396532  0.19224569  1
  Se  Se234  1  0.58850756  0.74985959  0.69611770  1
  Se  Se235  1  0.92335337  0.08081091  0.19935971  1
  Se  Se236  1  0.91081233  0.10057950  0.68516997  1
  Se  Se237  1  0.92101007  0.41470835  0.19451022  1
  Se  Se238  1  0.91776146  0.41285967  0.70301206  1
  Se  Se239  1  0.90399417  0.75483728  0.18975461  1
  Se  Se240  1  0.91584455  0.76320352  0.69185895  1
  Se  Se241  1  0.08404526  0.24883884  0.19833319  1
  Se  Se242  1  0.07719481  0.24539851  0.69300193  1
  Se  Se243  1  0.08482294  0.57542107  0.18410013  1
  Se  Se244  1  0.09303532  0.56927766  0.69686739  1
  Se  Se245  1  0.08403523  0.91408190  0.20785597  1
  Se  Se246  1  0.09110961  0.91913287  0.68567052  1
  Se  Se247  1  0.41942920  0.25022820  0.19477870  1
  Se  Se248  1  0.41331784  0.25062887  0.69778220  1
  Se  Se249  1  0.42035573  0.57526117  0.18632691  1
  Se  Se250  1  0.42502295  0.57759517  0.69346399  1
  Se  Se251  1  0.40731819  0.92399999  0.20224865  1
  Se  Se252  1  0.41885871  0.92097587  0.69658989  1
  Se  Se253  1  0.75411133  0.24792060  0.19490630  1
  Se  Se254  1  0.74475095  0.24638473  0.69067338  1
  Se  Se255  1  0.74726270  0.57569110  0.18976182  1
  Se  Se256  1  0.75668431  0.58195386  0.70227420  1
  Se  Se257  1  0.74376647  0.91876160  0.20180861  1
  Se  Se258  1  0.76029618  0.92023956  0.69975948  1
