# generated using pymatgen
data_In86Cu29Se144
_symmetry_space_group_name_H-M   'P 1'
_cell_length_a   17.58428188
_cell_length_b   17.58158848
_cell_length_c   23.43999532
_cell_angle_alpha   89.97096915
_cell_angle_beta   90.03289690
_cell_angle_gamma   89.99370947
_symmetry_Int_Tables_number   1
_chemical_formula_structural   In86Cu29Se144
_chemical_formula_sum   'In86 Cu29 Se144'
_cell_volume   7246.69758795
_cell_formula_units_Z   1
loop_
 _symmetry_equiv_pos_site_id
 _symmetry_equiv_pos_as_xyz
  1  'x, y, z'
loop_
 _atom_site_type_symbol
 _atom_site_label
 _atom_site_symmetry_multiplicity
 _atom_site_fract_x
 _atom_site_fract_y
 _atom_site_fract_z
 _atom_site_occupancy
  In  In0  1  -0.00675872  0.17541446  0.12714556  1
  In  In1  1  0.00251973  0.16465593  0.63207983  1
  In  In2  1  -0.00970021  0.48445901  0.11234912  1
  In  In3  1  0.00579025  0.49666448  0.63223993  1
  In  In4  1  0.00802194  0.83902797  0.12758657  1
  In  In5  1  -0.00041577  0.83632517  0.63225441  1
  In  In6  1  0.35126190  0.16906794  0.11813398  1
  In  In7  1  0.32223730  0.17784645  0.63344336  1
  In  In8  1  0.32507721  0.50281246  0.12371176  1
  In  In9  1  0.33703819  0.49695401  0.63601001  1
  In  In10  1  0.33546744  0.82247752  0.12243152  1
  In  In11  1  0.32104265  0.84401127  0.63389114  1
  In  In12  1  0.67014412  0.16428867  0.12199182  1
  In  In13  1  0.67223552  0.16612907  0.63933674  1
  In  In14  1  0.66586413  0.47738745  0.12114902  1
  In  In15  1  0.66546829  0.48999855  0.62927847  1
  In  In16  1  0.66564224  0.85146025  0.12479459  1
  In  In17  1  0.68335824  0.85040757  0.62347496  1
  In  In18  1  0.15479697  0.01461718  0.38708945  1
  In  In19  1  0.16003720  -0.00685866  0.86534070  1
  In  In20  1  0.15916468  0.32325272  0.36541824  1
  In  In21  1  0.17927427  0.34481357  0.87129798  1
  In  In22  1  0.17607934  0.66570974  0.37786715  1
  In  In23  1  0.16153561  0.65968326  0.87107620  1
  In  In24  1  0.50946663  -0.00482410  0.37283271  1
  In  In25  1  0.50286569  0.00293977  0.87310341  1
  In  In26  1  0.50259279  0.33618181  0.36729673  1
  In  In27  1  0.48423499  0.31768708  0.87711799  1
  In  In28  1  0.48755641  0.67668283  0.36843372  1
  In  In29  1  0.49945188  0.68151398  0.88046171  1
  In  In30  1  0.82832164  -0.00048799  0.37369571  1
  In  In31  1  0.84290841  0.01770904  0.85077852  1
  In  In32  1  0.83534270  0.32477876  0.36973454  1
  In  In33  1  0.83659994  0.32762248  0.86683970  1
  In  In34  1  0.84913056  0.66997589  0.37963538  1
  In  In35  1  0.83417525  0.65594902  0.87534184  1
  In  In36  1  0.00893298  0.17513778  0.37174487  1
  In  In37  1  -0.00796213  0.16126241  0.86570025  1
  In  In38  1  0.00952569  0.49695180  0.37322306  1
  In  In39  1  0.00336437  0.49542373  0.87297739  1
  In  In40  1  -0.01339713  0.84863511  0.38813613  1
  In  In41  1  -0.00851572  0.83642632  0.85703007  1
  In  In42  1  0.31923412  0.16853612  0.37512444  1
  In  In43  1  0.34333772  0.17581053  0.87491263  1
  In  In44  1  0.33203440  0.50232489  0.36384847  1
  In  In45  1  0.32110911  0.49130591  0.87822334  1
  In  In46  1  0.33292957  0.82370267  0.37557010  1
  In  In47  1  0.33870777  0.83760102  0.86812899  1
  In  In48  1  0.67109814  0.16676055  0.37058555  1
  In  In49  1  0.66731008  0.16521622  0.86924945  1
  In  In50  1  0.67322358  0.48720409  0.37163392  1
  In  In51  1  0.68397267  0.49655472  0.87955784  1
  In  In52  1  0.67243923  0.85046248  0.37642391  1
  In  In53  1  0.65861551  0.83809017  0.87367017  1
  In  In54  1  0.15630299  -0.00679990  0.12765500  1
  In  In55  1  0.16619044  0.00179645  0.62690058  1
  In  In56  1  0.15955741  0.34135147  0.12586635  1
  In  In57  1  0.16717173  0.33161357  0.62684073  1
  In  In58  1  0.18594895  0.66142477  0.12541816  1
  In  In59  1  0.15500166  0.67755223  0.63558441  1
  In  In60  1  0.51039713  0.01310498  0.11162093  1
  In  In61  1  0.50177123  -0.00473531  0.63151370  1
  In  In62  1  0.51275991  0.32346113  0.12833018  1
  In  In63  1  0.50448789  0.32478783  0.63705162  1
  In  In64  1  0.47696555  0.66328943  0.11513376  1
  In  In65  1  0.49871273  0.65389194  0.63279540  1
  In  In66  1  0.82314594  0.00893644  0.13193122  1
  In  In67  1  0.84164026  0.00405142  0.64384775  1
  In  In68  1  0.83517561  0.32470538  0.11977424  1
  In  In69  1  0.83569759  0.32656515  0.63742905  1
  In  In70  1  0.84753804  0.65795225  0.12160962  1
  In  In71  1  0.83453121  0.68947389  0.63190600  1
  In  In72  1  0.83659099  0.16200755  0.50957324  1
  In  In73  1  0.49875754  0.49636688  0.49156769  1
  In  In74  1  0.66688658  0.67061518  0.75482769  1
  In  In75  1  0.49836391  0.83111240  0.50019103  1
  In  In76  1  0.16789794  0.83063795  -0.00087158  1
  In  In77  1  0.00799173  0.66505135  0.25186744  1
  In  In78  1  0.83751098  0.49715832  0.50274657  1
  In  In79  1  0.50497334  0.16391315  0.50428395  1
  In  In80  1  0.82777162  0.83328106  -0.00582877  1
  In  In81  1  0.50071660  0.49577097  -0.00063844  1
  In  In82  1  0.16908609  0.49815734  0.50058829  1
  In  In83  1  0.16675642  0.16952757  -0.00220501  1
  In  In84  1  0.65984473  0.66478426  0.24709796  1
  In  In85  1  0.33070441  0.00208352  0.24857807  1
  Cu  Cu86  1  0.83592138  0.16462894  0.24764770  1
  Cu  Cu87  1  0.33864834  -0.00222396  -0.00834107  1
  Cu  Cu88  1  0.32357865  0.67431142  0.50591978  1
  Cu  Cu89  1  0.32636754  0.00292241  0.50531117  1
  Cu  Cu90  1  0.16761880  0.49490740  0.75204926  1
  Cu  Cu91  1  0.16778296  0.17188251  0.24921270  1
  Cu  Cu92  1  0.16622327  0.16305675  0.75119861  1
  Cu  Cu93  1  -0.00478626  0.32959977  -0.00575984  1
  Cu  Cu94  1  0.49393541  0.16598266  0.75352560  1
  Cu  Cu95  1  -0.01156555  0.00206177  -0.00711119  1
  Cu  Cu96  1  -0.00096357  0.00093518  0.50992775  1
  Cu  Cu97  1  0.17079588  0.83210479  0.74798460  1
  Cu  Cu98  1  0.67361450  0.32387529  -0.00265095  1
  Cu  Cu99  1  0.49673125  0.83548453  0.24777741  1
  Cu  Cu100  1  0.16187178  0.83903623  0.25307111  1
  Cu  Cu101  1  0.67228075  0.67065284  0.50299133  1
  Cu  Cu102  1  0.00531614  0.65603705  -0.00413030  1
  Cu  Cu103  1  0.66807766  0.00747069  -0.00486943  1
  Cu  Cu104  1  0.33213294  0.33122188  0.50273501  1
  Cu  Cu105  1  -0.00102213  0.67921090  0.50933969  1
  Cu  Cu106  1  0.50629987  0.16389604  0.24498885  1
  Cu  Cu107  1  0.49837494  0.83297007  0.75058080  1
  Cu  Cu108  1  0.83100695  0.48597981  0.24436608  1
  Cu  Cu109  1  0.16725946  0.49909925  0.24672203  1
  Cu  Cu110  1  0.83337839  0.83863747  0.25627233  1
  Cu  Cu111  1  0.83954736  0.50032591  0.75310802  1
  Cu  Cu112  1  0.49564150  0.49683977  0.24105867  1
  Cu  Cu113  1  0.49505595  0.49767091  0.76077375  1
  Cu  Cu114  1  0.66840246  0.66685380  -0.00230595  1
  Se  Se115  1  0.07410325  0.07489950  0.05450409  1
  Se  Se116  1  0.08311849  0.08740086  0.55908920  1
  Se  Se117  1  0.08289586  0.41090811  0.04593825  1
  Se  Se118  1  0.07438473  0.41013369  0.55497421  1
  Se  Se119  1  0.07662249  0.73902001  0.06042111  1
  Se  Se120  1  0.08673283  0.75944697  0.55931882  1
  Se  Se121  1  0.41954660  0.08561967  0.04296706  1
  Se  Se122  1  0.40940513  0.08001041  0.56432169  1
  Se  Se123  1  0.41799806  0.40915711  0.06491190  1
  Se  Se124  1  0.41560131  0.40975366  0.56040645  1
  Se  Se125  1  0.41629003  0.75779892  0.04564580  1
  Se  Se126  1  0.41257328  0.74424407  0.56560643  1
  Se  Se127  1  0.75508466  0.08342848  0.05169641  1
  Se  Se128  1  0.74472366  0.07470867  0.56743094  1
  Se  Se129  1  0.75482761  0.41128905  0.04929720  1
  Se  Se130  1  0.74745606  0.40656776  0.55955631  1
  Se  Se131  1  0.74630263  0.74447284  0.06408994  1
  Se  Se132  1  0.75200761  0.75621728  0.55456645  1
  Se  Se133  1  0.25399510  0.25565162  0.06051592  1
  Se  Se134  1  0.24723722  0.25004383  0.55451950  1
  Se  Se135  1  0.25696032  0.58760386  0.04897635  1
  Se  Se136  1  0.25294251  0.58669409  0.56615883  1
  Se  Se137  1  0.25650905  0.92748122  0.05764074  1
  Se  Se138  1  0.24556273  0.91519724  0.55566151  1
  Se  Se139  1  0.58640188  0.24586941  0.05190955  1
  Se  Se140  1  0.59312849  0.25505409  0.56246172  1
  Se  Se141  1  0.59146532  0.58704070  0.06209344  1
  Se  Se142  1  0.59055967  0.58645424  0.55609174  1
  Se  Se143  1  0.58688504  0.91888567  0.04659379  1
  Se  Se144  1  0.58835418  0.92596405  0.55352734  1
  Se  Se145  1  0.91582247  0.24244731  0.04765242  1
  Se  Se146  1  0.92516781  0.26020508  0.56075780  1
  Se  Se147  1  0.91446091  0.57678101  0.04555890  1
  Se  Se148  1  0.92126875  0.59116747  0.56470563  1
  Se  Se149  1  0.91757631  0.91984043  0.05887700  1
  Se  Se150  1  0.91458101  0.92434142  0.56724895  1
  Se  Se151  1  0.09101438  0.25002856  0.44428336  1
  Se  Se152  1  0.07675030  0.25212259  0.93283954  1
  Se  Se153  1  0.07335813  0.59546605  0.44662657  1
  Se  Se154  1  0.08936357  0.57424924  0.94410270  1
  Se  Se155  1  0.08309941  0.91969985  0.45332191  1
  Se  Se156  1  0.06987631  0.91638131  0.93948595  1
  Se  Se157  1  0.41517084  0.25441435  0.44140749  1
  Se  Se158  1  0.41086459  0.24754139  0.95599496  1
  Se  Se159  1  0.40226956  0.59511655  0.44282951  1
  Se  Se160  1  0.41341430  0.58626078  0.93990748  1
  Se  Se161  1  0.40719604  0.92721161  0.44184984  1
  Se  Se162  1  0.42162927  0.91341576  0.94072490  1
  Se  Se163  1  0.74861138  0.25169180  0.44490221  1
  Se  Se164  1  0.75429507  0.24539023  0.93802704  1
  Se  Se165  1  0.74526816  0.58830026  0.43953204  1
  Se  Se166  1  0.75582528  0.58275887  0.95176776  1
  Se  Se167  1  0.75966598  0.91483531  0.44826880  1
  Se  Se168  1  0.74983738  0.93027073  0.93358262  1
  Se  Se169  1  0.24820592  0.09092124  0.45204867  1
  Se  Se170  1  0.24892851  0.07326399  0.93647922  1
  Se  Se171  1  0.25891425  0.41205815  0.43749543  1
  Se  Se172  1  0.24987291  0.41050672  0.95356321  1
  Se  Se173  1  0.24456154  0.75646394  0.44938337  1
  Se  Se174  1  0.25512151  0.74610856  0.93646180  1
  Se  Se175  1  0.59496882  0.07460858  0.44368493  1
  Se  Se176  1  0.58162979  0.08890984  0.94270969  1
  Se  Se177  1  0.59561430  0.40177114  0.44505990  1
  Se  Se178  1  0.59099572  0.40611370  0.93896940  1
  Se  Se179  1  0.58883766  0.74121917  0.43741114  1
  Se  Se180  1  0.58802686  0.75545160  0.94959875  1
  Se  Se181  1  0.92555055  0.08038070  0.44217687  1
  Se  Se182  1  0.90808155  0.08340615  0.93748716  1
  Se  Se183  1  0.92489122  0.40955148  0.43953299  1
  Se  Se184  1  0.91391288  0.41357289  0.93854939  1
  Se  Se185  1  0.91114928  0.75631410  0.45499270  1
  Se  Se186  1  0.92874844  0.74608149  0.93990719  1
  Se  Se187  1  0.25635709  0.25390241  0.29841272  1
  Se  Se188  1  0.24828163  0.24551761  0.80689989  1
  Se  Se189  1  0.24606437  0.58844458  0.29952929  1
  Se  Se190  1  0.25067094  0.57918586  0.80506826  1
  Se  Se191  1  0.24308761  0.91801014  0.31471059  1
  Se  Se192  1  0.25280750  0.91794008  0.80039558  1
  Se  Se193  1  0.58515985  0.24774791  0.30350612  1
  Se  Se194  1  0.57693694  0.25187146  0.80613445  1
  Se  Se195  1  0.57160575  0.57293948  0.31017963  1
  Se  Se196  1  0.58024075  0.57819903  0.81752484  1
  Se  Se197  1  0.58480644  0.91400090  0.30004270  1
  Se  Se198  1  0.58173919  0.91804981  0.80090890  1
  Se  Se199  1  0.92068916  0.24804529  0.30050484  1
  Se  Se200  1  0.90436296  0.23552382  0.79444795  1
  Se  Se201  1  0.90847829  0.57125709  0.30432011  1
  Se  Se202  1  0.92211319  0.58497791  0.80500143  1
  Se  Se203  1  0.91968071  0.92171344  0.30627870  1
  Se  Se204  1  0.91655321  0.92148044  0.78886380  1
  Se  Se205  1  0.08822530  0.08593582  0.30386475  1
  Se  Se206  1  0.07836073  0.07851189  0.79927743  1
  Se  Se207  1  0.08264557  0.41697617  0.29969349  1
  Se  Se208  1  0.08234460  0.41024737  0.80270959  1
  Se  Se209  1  0.08448781  0.75989237  0.31722362  1
  Se  Se210  1  0.08682174  0.75032364  0.80263806  1
  Se  Se211  1  0.42396987  0.09019318  0.31041215  1
  Se  Se212  1  0.41147838  0.08112949  0.80621808  1
  Se  Se213  1  0.41504080  0.41514529  0.30023445  1
  Se  Se214  1  0.41092264  0.41270855  0.81099223  1
  Se  Se215  1  0.40789043  0.75271262  0.29548426  1
  Se  Se216  1  0.41814297  0.74587665  0.80174416  1
  Se  Se217  1  0.75106590  0.08269861  0.30205987  1
  Se  Se218  1  0.72551534  0.06835466  0.79711063  1
  Se  Se219  1  0.74920281  0.40558507  0.30080868  1
  Se  Se220  1  0.75099125  0.41764476  0.80167589  1
  Se  Se221  1  0.75565557  0.74859100  0.31002049  1
  Se  Se222  1  0.76007978  0.75839264  0.81195572  1
  Se  Se223  1  0.24424902  0.09235852  0.18480198  1
  Se  Se224  1  0.25153604  0.08074789  0.69771308  1
  Se  Se225  1  0.25105831  0.41515444  0.19467606  1
  Se  Se226  1  0.25047836  0.41147576  0.69751601  1
  Se  Se227  1  0.24416006  0.75931582  0.19636114  1
  Se  Se228  1  0.25619868  0.74390465  0.69986005  1
  Se  Se229  1  0.58729285  0.07918303  0.19199912  1
  Se  Se230  1  0.57753710  0.08433395  0.69898335  1
  Se  Se231  1  0.58713621  0.41202276  0.19978015  1
  Se  Se232  1  0.57804954  0.42168007  0.70118425  1
  Se  Se233  1  0.57422595  0.75459944  0.18433057  1
  Se  Se234  1  0.58172557  0.75816587  0.68685081  1
  Se  Se235  1  0.92122392  0.08166344  0.19497084  1
  Se  Se236  1  0.89479171  0.11938160  0.70148779  1
  Se  Se237  1  0.91853369  0.40874444  0.19024236  1
  Se  Se238  1  0.92113704  0.41523001  0.69948677  1
  Se  Se239  1  0.91065243  0.75706975  0.19496396  1
  Se  Se240  1  0.92953374  0.74407571  0.70251088  1
  Se  Se241  1  0.08254530  0.25237412  0.19411979  1
  Se  Se242  1  0.08630604  0.25088322  0.69799893  1
  Se  Se243  1  0.08491132  0.57505121  0.18371821  1
  Se  Se244  1  0.08425004  0.58151545  0.70076617  1
  Se  Se245  1  0.07580178  0.92213156  0.20358348  1
  Se  Se246  1  0.08666703  0.91955376  0.69845261  1
  Se  Se247  1  0.41957147  0.24768683  0.19610419  1
  Se  Se248  1  0.41041510  0.25370206  0.70258029  1
  Se  Se249  1  0.41137975  0.58433989  0.19391026  1
  Se  Se250  1  0.41528759  0.58271706  0.70569901  1
  Se  Se251  1  0.42201345  0.91923887  0.18478727  1
  Se  Se252  1  0.41410858  0.91859268  0.69931499  1
  Se  Se253  1  0.75210169  0.24686909  0.19197392  1
  Se  Se254  1  0.72898238  0.27296735  0.70108103  1
  Se  Se255  1  0.75503141  0.57513350  0.18846344  1
  Se  Se256  1  0.75669063  0.57980156  0.69156416  1
  Se  Se257  1  0.74881881  0.91815060  0.20084463  1
  Se  Se258  1  0.75088042  0.91806802  0.70501967  1
