# generated using pymatgen
data_In86Cu29Se144
_symmetry_space_group_name_H-M   'P 1'
_cell_length_a   17.57315141
_cell_length_b   17.57186214
_cell_length_c   23.43776546
_cell_angle_alpha   89.97245793
_cell_angle_beta   89.99189441
_cell_angle_gamma   89.99660881
_symmetry_Int_Tables_number   1
_chemical_formula_structural   In86Cu29Se144
_chemical_formula_sum   'In86 Cu29 Se144'
_cell_volume   7237.41684772
_cell_formula_units_Z   1
loop_
 _symmetry_equiv_pos_site_id
 _symmetry_equiv_pos_as_xyz
  1  'x, y, z'
loop_
 _atom_site_type_symbol
 _atom_site_label
 _atom_site_symmetry_multiplicity
 _atom_site_fract_x
 _atom_site_fract_y
 _atom_site_fract_z
 _atom_site_occupancy
  In  In0  1  0.00163737  0.17323717  0.11111910  1
  In  In1  1  0.01384133  0.15590350  0.63469759  1
  In  In2  1  0.01118588  0.50083685  0.12338478  1
  In  In3  1  -0.01644853  0.50684467  0.62986261  1
  In  In4  1  -0.01439285  0.82788073  0.11830492  1
  In  In5  1  -0.01118642  0.87356728  0.62924417  1
  In  In6  1  0.33749751  0.17490998  0.11833522  1
  In  In7  1  0.33232394  0.16065423  0.61967036  1
  In  In8  1  0.33412528  0.49656322  0.12333801  1
  In  In9  1  0.34153944  0.48651057  0.62482366  1
  In  In10  1  0.33337160  0.81709585  0.12318138  1
  In  In11  1  0.32907646  0.85151688  0.63339147  1
  In  In12  1  0.65920377  0.15481806  0.11705612  1
  In  In13  1  0.64776657  0.16777577  0.64524422  1
  In  In14  1  0.66787344  0.51584486  0.12502118  1
  In  In15  1  0.65999690  0.49355849  0.61505347  1
  In  In16  1  0.66456054  0.83620015  0.12277027  1
  In  In17  1  0.67498105  0.83631478  0.62603109  1
  In  In18  1  0.17045044  0.00884059  0.38499129  1
  In  In19  1  0.18388621  0.00746829  0.86299733  1
  In  In20  1  0.16861305  0.31898298  0.37844133  1
  In  In21  1  0.15512968  0.34468553  0.87661342  1
  In  In22  1  0.16891519  0.66426668  0.36621107  1
  In  In23  1  0.15520040  0.65635233  0.88454665  1
  In  In24  1  0.50719889  -0.00492467  0.37843156  1
  In  In25  1  0.50115231  0.00375068  0.86739815  1
  In  In26  1  0.49466501  0.34037825  0.37812837  1
  In  In27  1  0.51153939  0.32121209  0.87987466  1
  In  In28  1  0.49607522  0.66128098  0.36672855  1
  In  In29  1  0.49915011  0.66777266  0.88727167  1
  In  In30  1  0.81817916  0.00223751  0.37632351  1
  In  In31  1  0.83690227  -0.00115738  0.87305021  1
  In  In32  1  0.84761780  0.33380675  0.38036156  1
  In  In33  1  0.82019665  0.31904750  0.86272751  1
  In  In34  1  0.82885081  0.67026101  0.37286213  1
  In  In35  1  0.84983293  0.67936008  0.88636773  1
  In  In36  1  0.00578676  0.17288777  0.38081673  1
  In  In37  1  0.00043569  0.16609838  0.87098538  1
  In  In38  1  -0.00980302  0.50446447  0.37984969  1
  In  In39  1  0.01161708  0.49884560  0.87424645  1
  In  In40  1  0.00404472  0.81985890  0.37467964  1
  In  In41  1  -0.00753359  0.82929179  0.87834347  1
  In  In42  1  0.32760757  0.17899998  0.37958000  1
  In  In43  1  0.34745930  0.15471722  0.87861854  1
  In  In44  1  0.34652294  0.50489242  0.36780296  1
  In  In45  1  0.33097274  0.50295306  0.88409583  1
  In  In46  1  0.34444586  0.82892729  0.37433037  1
  In  In47  1  0.33773514  0.84781540  0.86889721  1
  In  In48  1  0.66560036  0.14883370  0.37289458  1
  In  In49  1  0.66307262  0.16689273  0.86899780  1
  In  In50  1  0.65498211  0.50798166  0.37964702  1
  In  In51  1  0.66612939  0.48641425  0.87689186  1
  In  In52  1  0.66946233  0.84280138  0.36873847  1
  In  In53  1  0.65794623  0.85131362  0.87793539  1
  In  In54  1  0.15949665  0.00566126  0.11689706  1
  In  In55  1  0.15769013  0.00945059  0.63202908  1
  In  In56  1  0.17202432  0.34283495  0.11502259  1
  In  In57  1  0.17918470  0.32002037  0.63204735  1
  In  In58  1  0.17978243  0.65720450  0.13202181  1
  In  In59  1  0.15877131  0.66545063  0.62204496  1
  In  In60  1  0.50801112  0.00755403  0.11618247  1
  In  In61  1  0.47615669  0.02153193  0.66190393  1
  In  In62  1  0.49018179  0.32040234  0.11708817  1
  In  In63  1  0.50432262  0.33452462  0.62141455  1
  In  In64  1  0.50089003  0.66701001  0.12057688  1
  In  In65  1  0.50984396  0.66891614  0.62152281  1
  In  In66  1  0.82099988  -0.01065573  0.11322430  1
  In  In67  1  0.83549782  -0.00082526  0.62865842  1
  In  In68  1  0.84410096  0.33062692  0.12006314  1
  In  In69  1  0.82212376  0.33581659  0.63158796  1
  In  In70  1  0.81974408  0.67389515  0.13381863  1
  In  In71  1  0.83047304  0.66995560  0.61578335  1
  In  In72  1  0.15950653  0.83998024  0.50866049  1
  In  In73  1  0.16671455  0.49301243  0.50312158  1
  In  In74  1  0.33123255  0.67043190  0.75985360  1
  In  In75  1  0.50069572  0.84071819  0.50321715  1
  In  In76  1  0.83160533  0.49996643  0.00072870  1
  In  In77  1  0.83458802  0.16534828  0.50340886  1
  In  In78  1  -0.00317785  -0.00380426  0.24528376  1
  In  In79  1  0.00518915  0.33614775  0.25481827  1
  In  In80  1  0.33649897  -0.00713408  0.25360175  1
  In  In81  1  0.66501479  0.33773281  0.25104111  1
  In  In82  1  0.00187245  0.66809688  0.75495624  1
  In  In83  1  0.66801110  0.67249585  0.74903063  1
  In  In84  1  0.33664161  0.33119768  0.75477136  1
  In  In85  1  0.17051268  0.83453729  -0.00263446  1
  Cu  Cu86  1  0.82871555  0.49520800  0.75025341  1
  Cu  Cu87  1  0.66874523  0.67529093  0.00419385  1
  Cu  Cu88  1  0.34165581  0.00297085  -0.00775926  1
  Cu  Cu89  1  0.66270166  0.00213612  0.50406264  1
  Cu  Cu90  1  -0.00699252  0.32838871  -0.00856244  1
  Cu  Cu91  1  0.49711626  0.50068958  0.24553986  1
  Cu  Cu92  1  -0.01224513  0.67053547  0.49976841  1
  Cu  Cu93  1  0.66828346  0.33002914  0.50483275  1
  Cu  Cu94  1  0.50332647  0.82741534  0.24669354  1
  Cu  Cu95  1  0.33520702  0.66212115  0.00414126  1
  Cu  Cu96  1  0.66792679  0.00203057  -0.00865343  1
  Cu  Cu97  1  0.00286261  0.00797853  -0.00621584  1
  Cu  Cu98  1  0.49875300  0.16405708  0.24286206  1
  Cu  Cu99  1  0.33810597  0.66763135  0.49494823  1
  Cu  Cu100  1  0.16556121  0.82629669  0.24920322  1
  Cu  Cu101  1  0.83821739  0.16393270  0.74915744  1
  Cu  Cu102  1  0.16765932  0.16940102  0.75346204  1
  Cu  Cu103  1  0.17346750  0.49888661  0.24624387  1
  Cu  Cu104  1  0.83372661  0.50876354  0.25564641  1
  Cu  Cu105  1  0.50354692  0.49804524  0.74800651  1
  Cu  Cu106  1  0.32737210  0.33089127  -0.00414490  1
  Cu  Cu107  1  0.82867422  0.83112017  0.24696674  1
  Cu  Cu108  1  0.17284229  0.16942166  0.24922526  1
  Cu  Cu109  1  0.82721308  0.15781343  0.24279107  1
  Cu  Cu110  1  0.34272991  0.33032273  0.50137271  1
  Cu  Cu111  1  0.83771534  0.83338320  0.75287282  1
  Cu  Cu112  1  0.66507877  0.66409280  0.49604884  1
  Cu  Cu113  1  0.66025086  0.32889408  -0.00431039  1
  Cu  Cu114  1  0.00287589  0.33014363  0.50628356  1
  Se  Se115  1  0.08844269  0.09084021  0.04524138  1
  Se  Se116  1  0.07502710  0.07493695  0.55552295  1
  Se  Se117  1  0.07304558  0.41097957  0.04953096  1
  Se  Se118  1  0.07915927  0.41088930  0.56954045  1
  Se  Se119  1  0.08979016  0.74562036  0.06370293  1
  Se  Se120  1  0.06309452  0.74938599  0.56354849  1
  Se  Se121  1  0.41791299  0.08735826  0.05194639  1
  Se  Se122  1  0.43268127  0.07859669  0.56699480  1
  Se  Se123  1  0.41232237  0.41179770  0.05225985  1
  Se  Se124  1  0.42451831  0.41890578  0.55013527  1
  Se  Se125  1  0.42028673  0.75187860  0.04911948  1
  Se  Se126  1  0.40574076  0.75008248  0.56223742  1
  Se  Se127  1  0.75110829  0.08566522  0.04710021  1
  Se  Se128  1  0.73907811  0.08572878  0.56529269  1
  Se  Se129  1  0.73885048  0.40790919  0.06006239  1
  Se  Se130  1  0.75494423  0.41523870  0.55219443  1
  Se  Se131  1  0.75496939  0.75593551  0.05546094  1
  Se  Se132  1  0.74271361  0.75098205  0.55057673  1
  Se  Se133  1  0.24474705  0.24662827  0.05041950  1
  Se  Se134  1  0.25357479  0.25107568  0.55271321  1
  Se  Se135  1  0.24828918  0.57870822  0.05375572  1
  Se  Se136  1  0.26041287  0.58800111  0.55847017  1
  Se  Se137  1  0.26333911  0.92501985  0.05816273  1
  Se  Se138  1  0.25558991  0.93211451  0.55772285  1
  Se  Se139  1  0.57987580  0.24324373  0.05070097  1
  Se  Se140  1  0.58953232  0.24442740  0.55950394  1
  Se  Se141  1  0.58536042  0.58494594  0.04999005  1
  Se  Se142  1  0.57931641  0.58301735  0.54919499  1
  Se  Se143  1  0.58668401  0.91925453  0.04972112  1
  Se  Se144  1  0.58297170  0.92759041  0.56830686  1
  Se  Se145  1  0.90799106  0.24620756  0.04400841  1
  Se  Se146  1  0.92213237  0.25157104  0.56761296  1
  Se  Se147  1  0.91357450  0.58779297  0.06626493  1
  Se  Se148  1  0.91053090  0.57931338  0.55074822  1
  Se  Se149  1  0.92282932  0.92319638  0.04914163  1
  Se  Se150  1  0.89773757  0.91325235  0.55089720  1
  Se  Se151  1  0.08705490  0.24765425  0.45403081  1
  Se  Se152  1  0.08301539  0.24851896  0.94195312  1
  Se  Se153  1  0.08099754  0.59387537  0.44645155  1
  Se  Se154  1  0.07170684  0.58051799  0.95335261  1
  Se  Se155  1  0.07103237  0.92338007  0.44143167  1
  Se  Se156  1  0.08533822  0.92653257  0.93595130  1
  Se  Se157  1  0.42515322  0.24661929  0.44699147  1
  Se  Se158  1  0.41688505  0.24940721  0.94654705  1
  Se  Se159  1  0.42118205  0.58343549  0.44376304  1
  Se  Se160  1  0.42033874  0.57811101  0.95227142  1
  Se  Se161  1  0.40299907  0.92823650  0.44520080  1
  Se  Se162  1  0.42375905  0.91786084  0.94109474  1
  Se  Se163  1  0.74359929  0.25274299  0.43777744  1
  Se  Se164  1  0.74549981  0.24868952  0.94195999  1
  Se  Se165  1  0.75100888  0.58238782  0.44305206  1
  Se  Se166  1  0.74314593  0.59297376  0.93904462  1
  Se  Se167  1  0.74228477  0.91821049  0.44779400  1
  Se  Se168  1  0.75658183  0.91565577  0.94526066  1
  Se  Se169  1  0.25055517  0.09328234  0.44846627  1
  Se  Se170  1  0.25005725  0.08286648  0.94448166  1
  Se  Se171  1  0.26069559  0.41118290  0.44012506  1
  Se  Se172  1  0.24383903  0.41847178  0.94739342  1
  Se  Se173  1  0.24995122  0.74777038  0.44287926  1
  Se  Se174  1  0.26147188  0.74271091  0.93749921  1
  Se  Se175  1  0.58035018  0.08417758  0.44888239  1
  Se  Se176  1  0.58140056  0.08477849  0.94024152  1
  Se  Se177  1  0.58674525  0.41209387  0.44677919  1
  Se  Se178  1  0.57758866  0.41905683  0.94932228  1
  Se  Se179  1  0.58327438  0.74802362  0.43753399  1
  Se  Se180  1  0.58754091  0.75611004  0.94601517  1
  Se  Se181  1  0.92127872  0.07637447  0.43988338  1
  Se  Se182  1  0.91506533  0.08767021  0.94186946  1
  Se  Se183  1  0.92224936  0.41543587  0.45300730  1
  Se  Se184  1  0.91071841  0.40990031  0.93336947  1
  Se  Se185  1  0.90938516  0.75507987  0.44393077  1
  Se  Se186  1  0.93092097  0.75104734  0.95883967  1
  Se  Se187  1  0.25331729  0.25508090  0.30140041  1
  Se  Se188  1  0.24711582  0.24525232  0.81725440  1
  Se  Se189  1  0.25599784  0.58288094  0.30183677  1
  Se  Se190  1  0.23900632  0.57430991  0.81040127  1
  Se  Se191  1  0.23787283  0.90812623  0.31308354  1
  Se  Se192  1  0.24811157  0.90902818  0.79646325  1
  Se  Se193  1  0.57825242  0.24182121  0.30823262  1
  Se  Se194  1  0.58257386  0.25256585  0.80031450  1
  Se  Se195  1  0.58373299  0.58087857  0.29944037  1
  Se  Se196  1  0.57932951  0.58077243  0.81031787  1
  Se  Se197  1  0.57807583  0.91794767  0.30085301  1
  Se  Se198  1  0.59488311  0.93011859  0.79810934  1
  Se  Se199  1  0.90856321  0.23599222  0.30436058  1
  Se  Se200  1  0.92109472  0.25120841  0.79973125  1
  Se  Se201  1  0.92115833  0.58938757  0.30666815  1
  Se  Se202  1  0.90412792  0.57823912  0.81140493  1
  Se  Se203  1  0.90849698  0.91081584  0.30964250  1
  Se  Se204  1  0.92356986  0.91543629  0.80469657  1
  Se  Se205  1  0.08857212  0.08894695  0.30576552  1
  Se  Se206  1  0.08356985  0.08147959  0.80231186  1
  Se  Se207  1  0.09495979  0.42696863  0.31548970  1
  Se  Se208  1  0.07863194  0.41667649  0.79948688  1
  Se  Se209  1  0.07965682  0.74320087  0.29967260  1
  Se  Se210  1  0.09514100  0.75625077  0.81275370  1
  Se  Se211  1  0.42134833  0.08927869  0.31083634  1
  Se  Se212  1  0.41372352  0.08165038  0.79795509  1
  Se  Se213  1  0.41909338  0.41242104  0.29954048  1
  Se  Se214  1  0.42424352  0.42507864  0.81368377  1
  Se  Se215  1  0.41494333  0.74855724  0.29937522  1
  Se  Se216  1  0.43314570  0.75563746  0.81000519  1
  Se  Se217  1  0.74546277  0.07588623  0.29711011  1
  Se  Se218  1  0.75503130  0.08417897  0.80575211  1
  Se  Se219  1  0.75960768  0.42050604  0.31387115  1
  Se  Se220  1  0.74048291  0.41332662  0.79947755  1
  Se  Se221  1  0.74416161  0.74995894  0.30271713  1
  Se  Se222  1  0.75868015  0.75508077  0.81444514  1
  Se  Se223  1  0.24726053  0.08261260  0.19080751  1
  Se  Se224  1  0.24977659  0.08954502  0.69564374  1
  Se  Se225  1  0.25098030  0.41151510  0.19295761  1
  Se  Se226  1  0.24565246  0.42615686  0.69733973  1
  Se  Se227  1  0.25633394  0.74635164  0.20071556  1
  Se  Se228  1  0.24247981  0.75011909  0.68997292  1
  Se  Se229  1  0.58455140  0.07972454  0.19499983  1
  Se  Se230  1  0.60447613  0.05424924  0.70994361  1
  Se  Se231  1  0.57670032  0.42018926  0.18450320  1
  Se  Se232  1  0.58520998  0.41749037  0.69219635  1
  Se  Se233  1  0.58601350  0.74693835  0.19058443  1
  Se  Se234  1  0.57387015  0.76264153  0.69410274  1
  Se  Se235  1  0.91374555  0.08765587  0.18137340  1
  Se  Se236  1  0.92081683  0.07750876  0.69842994  1
  Se  Se237  1  0.91010686  0.42482159  0.19498993  1
  Se  Se238  1  0.91426659  0.41392789  0.69813510  1
  Se  Se239  1  0.91739526  0.75007518  0.19712909  1
  Se  Se240  1  0.91383246  0.75351237  0.68900098  1
  Se  Se241  1  0.08808214  0.24629119  0.18942161  1
  Se  Se242  1  0.08477621  0.25312226  0.70038144  1
  Se  Se243  1  0.08455665  0.58115452  0.19777016  1
  Se  Se244  1  0.08959126  0.57435295  0.69437830  1
  Se  Se245  1  0.09075494  0.90664385  0.18656496  1
  Se  Se246  1  0.09872533  0.90269898  0.69558147  1
  Se  Se247  1  0.41299295  0.24955264  0.19609778  1
  Se  Se248  1  0.42199420  0.24541281  0.69043557  1
  Se  Se249  1  0.41629610  0.58432924  0.18956307  1
  Se  Se250  1  0.42228389  0.58172873  0.69219209  1
  Se  Se251  1  0.42334812  0.90983095  0.18639718  1
  Se  Se252  1  0.41390137  0.90673274  0.71116946  1
  Se  Se253  1  0.75272969  0.24794210  0.18740529  1
  Se  Se254  1  0.74850115  0.24706543  0.70089335  1
  Se  Se255  1  0.74416910  0.58557276  0.20348406  1
  Se  Se256  1  0.75314603  0.57847553  0.68843732  1
  Se  Se257  1  0.74886839  0.91827171  0.19362396  1
  Se  Se258  1  0.75427734  0.91493310  0.69878081  1
