# generated using pymatgen
data_In86Cu29Se144
_symmetry_space_group_name_H-M   'P 1'
_cell_length_a   17.58806191
_cell_length_b   17.58998690
_cell_length_c   23.45630085
_cell_angle_alpha   90.01401645
_cell_angle_beta   89.98944626
_cell_angle_gamma   90.02678092
_symmetry_Int_Tables_number   1
_chemical_formula_structural   In86Cu29Se144
_chemical_formula_sum   'In86 Cu29 Se144'
_cell_volume   7256.76329242
_cell_formula_units_Z   1
loop_
 _symmetry_equiv_pos_site_id
 _symmetry_equiv_pos_as_xyz
  1  'x, y, z'
loop_
 _atom_site_type_symbol
 _atom_site_label
 _atom_site_symmetry_multiplicity
 _atom_site_fract_x
 _atom_site_fract_y
 _atom_site_fract_z
 _atom_site_occupancy
  In  In0  1  -0.01411928  0.16274458  0.12349899  1
  In  In1  1  -0.01804616  0.16128295  0.61918316  1
  In  In2  1  -0.00545473  0.51212166  0.12103715  1
  In  In3  1  -0.00267622  0.51351013  0.62767508  1
  In  In4  1  0.00028565  0.83413040  0.13190880  1
  In  In5  1  -0.00278165  0.83582171  0.62110072  1
  In  In6  1  0.32730060  0.16104095  0.12592090  1
  In  In7  1  0.34206047  0.16028976  0.62650745  1
  In  In8  1  0.34558770  0.50213068  0.12646357  1
  In  In9  1  0.34476203  0.49405508  0.63612915  1
  In  In10  1  0.33028759  0.83426197  0.13226124  1
  In  In11  1  0.32343049  0.84352111  0.62672079  1
  In  In12  1  0.67870808  0.15989877  0.13331990  1
  In  In13  1  0.66632087  0.16817852  0.62734547  1
  In  In14  1  0.66333694  0.48951110  0.12437526  1
  In  In15  1  0.65912159  0.49557166  0.61998458  1
  In  In16  1  0.67712592  0.84154157  0.13114898  1
  In  In17  1  0.68742746  0.83721969  0.62062659  1
  In  In18  1  0.15074434  -0.02078065  0.36947256  1
  In  In19  1  0.16119035  -0.00331557  0.86591111  1
  In  In20  1  0.16877960  0.33845283  0.37576688  1
  In  In21  1  0.16827464  0.32301765  0.86935488  1
  In  In22  1  0.16702962  0.67915371  0.37342709  1
  In  In23  1  0.16584965  0.66473645  0.86781944  1
  In  In24  1  0.51266109  0.00926050  0.37063260  1
  In  In25  1  0.50270809  0.00530581  0.86271302  1
  In  In26  1  0.51095411  0.32235359  0.38357811  1
  In  In27  1  0.50460898  0.33623063  0.87171294  1
  In  In28  1  0.48669320  0.66641550  0.37832731  1
  In  In29  1  0.48827104  0.66097238  0.87277661  1
  In  In30  1  0.83689558  0.00434317  0.38298771  1
  In  In31  1  0.84195579  0.01039246  0.86752077  1
  In  In32  1  0.81731499  0.34229220  0.37864873  1
  In  In33  1  0.82412645  0.34552535  0.88360684  1
  In  In34  1  0.84496169  0.65517523  0.37754034  1
  In  In35  1  0.83874351  0.64570046  0.87370102  1
  In  In36  1  -0.00723618  0.14748501  0.37622129  1
  In  In37  1  -0.00444144  0.15509545  0.87872272  1
  In  In38  1  -0.02514459  0.50491935  0.36973301  1
  In  In39  1  -0.01793753  0.50754647  0.87402960  1
  In  In40  1  -0.00090706  0.83587762  0.37985792  1
  In  In41  1  0.00040063  0.83562344  0.86815901  1
  In  In42  1  0.34905743  0.16624459  0.37970022  1
  In  In43  1  0.33586523  0.16897251  0.86339240  1
  In  In44  1  0.33159005  0.51365850  0.37684066  1
  In  In45  1  0.33815043  0.50175897  0.87261058  1
  In  In46  1  0.32206184  0.82395104  0.37453314  1
  In  In47  1  0.32873113  0.83264035  0.86371096  1
  In  In48  1  0.66921899  0.16779966  0.37794196  1
  In  In49  1  0.67830130  0.17800892  0.86673166  1
  In  In50  1  0.67883184  0.48501929  0.37921615  1
  In  In51  1  0.67980463  0.48063891  0.87964852  1
  In  In52  1  0.66931646  0.85304997  0.37564558  1
  In  In53  1  0.65912903  0.83571354  0.86916073  1
  In  In54  1  0.16827189  0.00107642  0.13352406  1
  In  In55  1  0.16803215  -0.00615960  0.62204887  1
  In  In56  1  0.16984988  0.33406348  0.12319163  1
  In  In57  1  0.16934271  0.34567982  0.63086646  1
  In  In58  1  0.16000759  0.67363643  0.13115860  1
  In  In59  1  0.15741918  0.68090004  0.63261821  1
  In  In60  1  0.50167971  0.00214953  0.13240166  1
  In  In61  1  0.49182732  0.01136198  0.62600003  1
  In  In62  1  0.50296768  0.35158250  0.12091296  1
  In  In63  1  0.50526840  0.33362097  0.62887204  1
  In  In64  1  0.50384778  0.64772737  0.12775430  1
  In  In65  1  0.50467570  0.65275106  0.62410318  1
  In  In66  1  0.83346086  0.00361786  0.13237025  1
  In  In67  1  0.83485421  -0.00111476  0.62759819  1
  In  In68  1  0.83128110  0.32275062  0.12096524  1
  In  In69  1  0.82222643  0.32828380  0.62176871  1
  In  In70  1  0.84487497  0.66201269  0.12698158  1
  In  In71  1  0.84076846  0.67578907  0.61799456  1
  In  In72  1  0.66985840  0.66902287  0.74549237  1
  In  In73  1  0.49831939  0.82946556  -0.00614355  1
  In  In74  1  0.66311445  0.67152438  0.25049722  1
  In  In75  1  -0.00114928  0.32994172  0.24154791  1
  In  In76  1  0.16515180  0.16214473  0.50348813  1
  In  In77  1  0.34041255  0.33205868  0.24373782  1
  In  In78  1  0.50078820  0.83553116  0.49680676  1
  In  In79  1  0.16003662  0.49755318  -0.00604497  1
  In  In80  1  0.15951995  0.83039601  -0.00571927  1
  In  In81  1  0.16461771  0.50722964  0.50644869  1
  In  In82  1  0.50586000  0.17087915  -0.01075255  1
  In  In83  1  0.16069095  0.16970084  0.00371159  1
  In  In84  1  0.83270333  0.82739932  0.00284796  1
  In  In85  1  -0.00013148  0.33302273  0.75107025  1
  Cu  Cu86  1  0.33128712  0.00011279  0.49997677  1
  Cu  Cu87  1  0.66640147  0.64921218  0.00120816  1
  Cu  Cu88  1  0.16444463  0.83346961  0.25299240  1
  Cu  Cu89  1  0.16090052  0.51150191  0.25285283  1
  Cu  Cu90  1  0.34495366  0.33788501  0.50800623  1
  Cu  Cu91  1  0.83128098  0.16540782  0.74728913  1
  Cu  Cu92  1  0.17335345  0.15544718  0.25395252  1
  Cu  Cu93  1  0.49880927  0.50023034  0.25232450  1
  Cu  Cu94  1  0.83281469  0.16671115  0.25441319  1
  Cu  Cu95  1  0.67566582  0.00193173  0.00402812  1
  Cu  Cu96  1  0.50563952  0.49906400  0.75098207  1
  Cu  Cu97  1  0.66950758  0.00954454  0.50156479  1
  Cu  Cu98  1  0.49178917  0.83681370  0.25588710  1
  Cu  Cu99  1  0.33718594  0.65720784  0.00164624  1
  Cu  Cu100  1  0.32951354  0.00391828  -0.00323119  1
  Cu  Cu101  1  0.49966741  0.83809034  0.74561705  1
  Cu  Cu102  1  0.66427706  0.33243635  0.50338226  1
  Cu  Cu103  1  0.49796656  0.16689748  0.74677158  1
  Cu  Cu104  1  -0.00137569  0.66892194  0.50015211  1
  Cu  Cu105  1  0.16693848  0.16210722  0.74614019  1
  Cu  Cu106  1  0.84009052  0.83303428  0.74477732  1
  Cu  Cu107  1  0.16707580  0.83489948  0.74551930  1
  Cu  Cu108  1  0.66792486  0.32979574  -0.00052471  1
  Cu  Cu109  1  0.83561606  0.84051130  0.25509724  1
  Cu  Cu110  1  0.17467331  0.50617870  0.75139720  1
  Cu  Cu111  1  0.33450944  0.66391339  0.50239537  1
  Cu  Cu112  1  0.50936860  0.16692984  0.25486091  1
  Cu  Cu113  1  0.67051657  0.66249004  0.49938157  1
  Cu  Cu114  1  -0.00895285  0.33010391  0.49667316  1
  Se  Se115  1  0.07789961  0.07148621  0.06022709  1
  Se  Se116  1  0.07005204  0.07172492  0.55539416  1
  Se  Se117  1  0.07449635  0.40885843  0.05917643  1
  Se  Se118  1  0.07164152  0.40875780  0.55795473  1
  Se  Se119  1  0.07042229  0.74285907  0.05566604  1
  Se  Se120  1  0.08351683  0.75052527  0.55333479  1
  Se  Se121  1  0.41625792  0.07897014  0.05396168  1
  Se  Se122  1  0.41618415  0.08537348  0.54813435  1
  Se  Se123  1  0.40714932  0.41368634  0.05341961  1
  Se  Se124  1  0.42516542  0.42332353  0.56020364  1
  Se  Se125  1  0.41277624  0.74353983  0.06104985  1
  Se  Se126  1  0.41496211  0.74713483  0.56135949  1
  Se  Se127  1  0.75659556  0.08418447  0.05784376  1
  Se  Se128  1  0.75270291  0.08681073  0.55996824  1
  Se  Se129  1  0.74977708  0.41249207  0.05522229  1
  Se  Se130  1  0.74952518  0.41889431  0.55240893  1
  Se  Se131  1  0.73593396  0.73867602  0.06150502  1
  Se  Se132  1  0.75344660  0.75048998  0.54675243  1
  Se  Se133  1  0.26345613  0.25882835  0.05490634  1
  Se  Se134  1  0.25350557  0.25959877  0.56076626  1
  Se  Se135  1  0.24763515  0.58709915  0.06073489  1
  Se  Se136  1  0.25677390  0.58928986  0.56908225  1
  Se  Se137  1  0.25338168  0.92027953  0.05566342  1
  Se  Se138  1  0.24743947  0.91432707  0.54816845  1
  Se  Se139  1  0.58921842  0.24990611  0.06199161  1
  Se  Se140  1  0.58178928  0.24877109  0.55726520  1
  Se  Se141  1  0.57866307  0.57067125  0.05357660  1
  Se  Se142  1  0.58235033  0.58103347  0.54804480  1
  Se  Se143  1  0.58838656  0.92049651  0.05663920  1
  Se  Se144  1  0.58892112  0.92384237  0.55975145  1
  Se  Se145  1  0.92484606  0.25371973  0.05285815  1
  Se  Se146  1  0.90799533  0.24969323  0.55143380  1
  Se  Se147  1  0.90974772  0.58401260  0.04875478  1
  Se  Se148  1  0.91665529  0.58178404  0.55089605  1
  Se  Se149  1  0.92043520  0.92056673  0.06067019  1
  Se  Se150  1  0.89573749  0.90162965  0.55798172  1
  Se  Se151  1  0.07805299  0.25531324  0.43949806  1
  Se  Se152  1  0.07345171  0.25858206  0.94122281  1
  Se  Se153  1  0.07624552  0.58566202  0.43812080  1
  Se  Se154  1  0.07441693  0.59586695  0.94044470  1
  Se  Se155  1  0.08557355  0.91072466  0.45110231  1
  Se  Se156  1  0.07164531  0.92869210  0.94259647  1
  Se  Se157  1  0.41985322  0.24988122  0.45293466  1
  Se  Se158  1  0.40575721  0.25682369  0.93865353  1
  Se  Se159  1  0.41789995  0.57939547  0.45232253  1
  Se  Se160  1  0.42054532  0.57634540  0.94810546  1
  Se  Se161  1  0.41178831  0.92337879  0.43551144  1
  Se  Se162  1  0.40995534  0.92474286  0.93615069  1
  Se  Se163  1  0.74920715  0.25057745  0.44905316  1
  Se  Se164  1  0.75192087  0.24582214  0.94757077  1
  Se  Se165  1  0.75314536  0.57986038  0.44430127  1
  Se  Se166  1  0.75391271  0.57424533  0.94648442  1
  Se  Se167  1  0.75034988  0.92064869  0.45166613  1
  Se  Se168  1  0.74523828  0.91697692  0.93986769  1
  Se  Se169  1  0.25136963  0.07830260  0.43623535  1
  Se  Se170  1  0.25039848  0.08269564  0.93696516  1
  Se  Se171  1  0.25858413  0.41289910  0.44823248  1
  Se  Se172  1  0.25348193  0.40831551  0.93867180  1
  Se  Se173  1  0.24863342  0.74657588  0.45150862  1
  Se  Se174  1  0.26104011  0.74148355  0.94172268  1
  Se  Se175  1  0.58187405  0.08796797  0.44802859  1
  Se  Se176  1  0.59614808  0.07396698  0.93713983  1
  Se  Se177  1  0.58347495  0.41808876  0.44822661  1
  Se  Se178  1  0.58294200  0.41242394  0.94700972  1
  Se  Se179  1  0.59277769  0.74507813  0.43751482  1
  Se  Se180  1  0.59295502  0.73503969  0.94043401  1
  Se  Se181  1  0.91270326  0.08867261  0.45482242  1
  Se  Se182  1  0.90907461  0.08153113  0.94867898  1
  Se  Se183  1  0.91163039  0.41825768  0.44487002  1
  Se  Se184  1  0.92322350  0.41512213  0.94542011  1
  Se  Se185  1  0.91375123  0.74922648  0.44564408  1
  Se  Se186  1  0.92040642  0.74457609  0.93707510  1
  Se  Se187  1  0.24836047  0.24587888  0.30892934  1
  Se  Se188  1  0.24959159  0.24967479  0.79583602  1
  Se  Se189  1  0.24771152  0.58904112  0.30706889  1
  Se  Se190  1  0.25925342  0.58886253  0.80415253  1
  Se  Se191  1  0.25246353  0.91563954  0.30428426  1
  Se  Se192  1  0.25018643  0.92108431  0.79821747  1
  Se  Se193  1  0.58989223  0.25337078  0.30615590  1
  Se  Se194  1  0.58058038  0.24842525  0.80295673  1
  Se  Se195  1  0.57854378  0.57997893  0.31403720  1
  Se  Se196  1  0.58682523  0.57910119  0.81165536  1
  Se  Se197  1  0.58380147  0.91867332  0.30033597  1
  Se  Se198  1  0.58609825  0.91910365  0.79729704  1
  Se  Se199  1  0.91503953  0.24884427  0.31268217  1
  Se  Se200  1  0.91012927  0.24453204  0.81088949  1
  Se  Se201  1  0.91432994  0.58982861  0.29385795  1
  Se  Se202  1  0.91734511  0.58431992  0.79397899  1
  Se  Se203  1  0.91755466  0.92187373  0.31128608  1
  Se  Se204  1  0.91846757  0.91931165  0.80100314  1
  Se  Se205  1  0.08261291  0.07950154  0.30496798  1
  Se  Se206  1  0.08004654  0.08712722  0.80273453  1
  Se  Se207  1  0.08478322  0.42315835  0.30824008  1
  Se  Se208  1  0.09018884  0.42692507  0.81048510  1
  Se  Se209  1  0.07696454  0.75278186  0.30557333  1
  Se  Se210  1  0.08577005  0.75250377  0.80233928  1
  Se  Se211  1  0.41973528  0.08590307  0.30382046  1
  Se  Se212  1  0.41201708  0.08012350  0.79630606  1
  Se  Se213  1  0.41989135  0.41817761  0.31426423  1
  Se  Se214  1  0.41895907  0.41701055  0.80363322  1
  Se  Se215  1  0.41232828  0.74792294  0.30543802  1
  Se  Se216  1  0.42204621  0.75262677  0.80188113  1
  Se  Se217  1  0.75232497  0.08293842  0.31079186  1
  Se  Se218  1  0.74654243  0.08043015  0.80059969  1
  Se  Se219  1  0.75242941  0.41890270  0.29898139  1
  Se  Se220  1  0.75302859  0.41075430  0.80114552  1
  Se  Se221  1  0.75359106  0.75790254  0.31290286  1
  Se  Se222  1  0.76077255  0.75518149  0.80977975  1
  Se  Se223  1  0.26022793  0.07649403  0.20052617  1
  Se  Se224  1  0.24892685  0.08103324  0.68928021  1
  Se  Se225  1  0.24147374  0.42821696  0.19463572  1
  Se  Se226  1  0.25471099  0.41600799  0.70289209  1
  Se  Se227  1  0.24839325  0.74974338  0.19887353  1
  Se  Se228  1  0.25586745  0.75057721  0.69728654  1
  Se  Se229  1  0.58887488  0.08064203  0.19893398  1
  Se  Se230  1  0.58259002  0.08272829  0.69532367  1
  Se  Se231  1  0.58182298  0.41602428  0.20047982  1
  Se  Se232  1  0.58957619  0.41648276  0.69806517  1
  Se  Se233  1  0.57047071  0.76116987  0.18856749  1
  Se  Se234  1  0.58044308  0.76015596  0.68367007  1
  Se  Se235  1  0.91905437  0.08387320  0.20212190  1
  Se  Se236  1  0.91806317  0.08177995  0.69856011  1
  Se  Se237  1  0.90929469  0.42270219  0.18777240  1
  Se  Se238  1  0.91181918  0.41859475  0.68811340  1
  Se  Se239  1  0.91105788  0.75476983  0.19736151  1
  Se  Se240  1  0.92201999  0.74726872  0.69370019  1
  Se  Se241  1  0.09711636  0.23578566  0.19022442  1
  Se  Se242  1  0.08560932  0.24164559  0.68525485  1
  Se  Se243  1  0.07619643  0.58662611  0.19530563  1
  Se  Se244  1  0.08654636  0.58365028  0.69786748  1
  Se  Se245  1  0.08292732  0.91802027  0.19883446  1
  Se  Se246  1  0.08232447  0.91622343  0.69173444  1
  Se  Se247  1  0.43176765  0.24012563  0.18629767  1
  Se  Se248  1  0.41495676  0.25201385  0.69435305  1
  Se  Se249  1  0.41402454  0.58542135  0.20257689  1
  Se  Se250  1  0.42268958  0.58702088  0.70161549  1
  Se  Se251  1  0.41381735  0.92020509  0.19684800  1
  Se  Se252  1  0.41481065  0.92032816  0.69250429  1
  Se  Se253  1  0.75318437  0.25233030  0.19981166  1
  Se  Se254  1  0.74735213  0.25196281  0.69844949  1
  Se  Se255  1  0.74903396  0.58057486  0.19058795  1
  Se  Se256  1  0.75521494  0.58135874  0.68316614  1
  Se  Se257  1  0.74984039  0.92353661  0.20345009  1
  Se  Se258  1  0.75063092  0.91728776  0.69965585  1
