# generated using pymatgen
data_In86Cu29Se144
_symmetry_space_group_name_H-M   'P 1'
_cell_length_a   17.61686729
_cell_length_b   17.60939018
_cell_length_c   23.47160788
_cell_angle_alpha   90.01577521
_cell_angle_beta   90.01396463
_cell_angle_gamma   89.99014165
_symmetry_Int_Tables_number   1
_chemical_formula_structural   In86Cu29Se144
_chemical_formula_sum   'In86 Cu29 Se144'
_cell_volume   7281.41534363
_cell_formula_units_Z   1
loop_
 _symmetry_equiv_pos_site_id
 _symmetry_equiv_pos_as_xyz
  1  'x, y, z'
loop_
 _atom_site_type_symbol
 _atom_site_label
 _atom_site_symmetry_multiplicity
 _atom_site_fract_x
 _atom_site_fract_y
 _atom_site_fract_z
 _atom_site_occupancy
  In  In0  1  0.01059316  0.18502943  0.11298884  1
  In  In1  1  -0.00003982  0.15770995  0.63490170  1
  In  In2  1  0.00500807  0.48319509  0.12834769  1
  In  In3  1  -0.00700764  0.49501660  0.62245654  1
  In  In4  1  -0.00379951  0.83040758  0.12345789  1
  In  In5  1  -0.00465179  0.84965417  0.62765240  1
  In  In6  1  0.33188797  0.18146921  0.11910177  1
  In  In7  1  0.31346065  0.18596755  0.63548294  1
  In  In8  1  0.33372324  0.49973686  0.11497440  1
  In  In9  1  0.32080202  0.51299897  0.64727280  1
  In  In10  1  0.33407341  0.82213553  0.12307888  1
  In  In11  1  0.32361682  0.82941303  0.64197424  1
  In  In12  1  0.67062590  0.16225963  0.12512074  1
  In  In13  1  0.67222930  0.17022724  0.64287470  1
  In  In14  1  0.65592059  0.50464575  0.12947984  1
  In  In15  1  0.67363924  0.49274017  0.63701408  1
  In  In16  1  0.66778137  0.83594019  0.12891419  1
  In  In17  1  0.67248765  0.82449779  0.62415992  1
  In  In18  1  0.17713383  0.00842373  0.37899586  1
  In  In19  1  0.17596666  0.00958372  0.86318001  1
  In  In20  1  0.16669962  0.33417434  0.37697475  1
  In  In21  1  0.16415859  0.33682753  0.86721299  1
  In  In22  1  0.16318686  0.64063325  0.37187042  1
  In  In23  1  0.17486024  0.65094331  0.87847669  1
  In  In24  1  0.50473636  -0.01268550  0.37713375  1
  In  In25  1  0.49795566  -0.00227354  0.86855516  1
  In  In26  1  0.50468269  0.33784629  0.36889167  1
  In  In27  1  0.49791701  0.35093396  0.86715684  1
  In  In28  1  0.49396928  0.66145414  0.36638734  1
  In  In29  1  0.47568236  0.62499268  0.84206993  1
  In  In30  1  0.82698437  -0.00232102  0.37723531  1
  In  In31  1  0.85883690  0.03921016  0.84100212  1
  In  In32  1  0.84352693  0.33670643  0.36995113  1
  In  In33  1  0.83037074  0.32241537  0.86842806  1
  In  In34  1  0.82567882  0.66936605  0.38453976  1
  In  In35  1  0.83181254  0.67666362  0.87537148  1
  In  In36  1  0.00089629  0.18542349  0.37460785  1
  In  In37  1  0.00250645  0.17805799  0.86863127  1
  In  In38  1  0.00771904  0.48665226  0.38760834  1
  In  In39  1  0.02334862  0.49229043  0.87215786  1
  In  In40  1  -0.00325701  0.82610640  0.38204499  1
  In  In41  1  -0.01433117  0.84128396  0.87202788  1
  In  In42  1  0.31993253  0.17187783  0.38113281  1
  In  In43  1  0.32513566  0.16014302  0.87066656  1
  In  In44  1  0.31914778  0.48569991  0.36050736  1
  In  In45  1  0.32853515  0.49696231  0.86555988  1
  In  In46  1  0.33926750  0.82888810  0.37557323  1
  In  In47  1  0.32598525  0.82924198  0.86234703  1
  In  In48  1  0.67376823  0.16777169  0.36821013  1
  In  In49  1  0.67547851  0.17776763  0.86701079  1
  In  In50  1  0.66845215  0.50562409  0.37062871  1
  In  In51  1  0.65363184  0.48965662  0.86355961  1
  In  In52  1  0.67749480  0.83535797  0.36618432  1
  In  In53  1  0.66845001  0.83440484  0.87115068  1
  In  In54  1  0.15229222  0.00694463  0.12024345  1
  In  In55  1  0.15100929  0.00709713  0.64053112  1
  In  In56  1  0.17357557  0.33808015  0.11767432  1
  In  In57  1  0.16575889  0.33847525  0.62471612  1
  In  In58  1  0.18789459  0.64148148  0.13573386  1
  In  In59  1  0.17764948  0.66225930  0.63025664  1
  In  In60  1  0.51193121  0.00948776  0.12334239  1
  In  In61  1  0.49690765  0.00306339  0.63348340  1
  In  In62  1  0.48344181  0.34390022  0.13014017  1
  In  In63  1  0.49832509  0.34968947  0.64365149  1
  In  In64  1  0.50639183  0.66030462  0.12305439  1
  In  In65  1  0.49412130  0.66548163  0.63497454  1
  In  In66  1  0.82113764  0.00906081  0.12340589  1
  In  In67  1  0.83842265  -0.00143650  0.62755832  1
  In  In68  1  0.83889141  0.32654434  0.12635461  1
  In  In69  1  0.82562511  0.33893749  0.63904737  1
  In  In70  1  0.82405255  0.66347135  0.13032934  1
  In  In71  1  0.82459484  0.65913105  0.61484387  1
  In  In72  1  0.83797618  0.16850326  0.50281328  1
  In  In73  1  0.16354413  0.83139959  -0.00927741  1
  In  In74  1  0.83103280  0.84117965  0.00391636  1
  In  In75  1  0.49784505  0.49978477  0.50721046  1
  In  In76  1  0.83938601  0.49948699  0.00565344  1
  In  In77  1  0.34192060  0.00429266  0.25183294  1
  In  In78  1  -0.00629750  0.65882841  0.24659653  1
  In  In79  1  0.50151615  0.17237087  0.51103440  1
  In  In80  1  0.49727878  0.82742060  0.50002335  1
  In  In81  1  -0.00694639  0.00470863  0.25774663  1
  In  In82  1  0.00585261  0.66993854  0.75057865  1
  In  In83  1  0.16542452  0.82578078  0.50851394  1
  In  In84  1  0.49789469  0.17273509  0.00183548  1
  In  In85  1  0.50410890  0.82840462  0.00054690  1
  Cu  Cu86  1  0.32580050  -0.00358527  -0.00671727  1
  Cu  Cu87  1  0.50346677  0.83463165  0.74955609  1
  Cu  Cu88  1  0.00448027  0.33406940  0.50288709  1
  Cu  Cu89  1  0.66780758  0.66400837  0.49805498  1
  Cu  Cu90  1  0.66351413  0.33664813  -0.00736823  1
  Cu  Cu91  1  0.50589073  0.83183978  0.24924252  1
  Cu  Cu92  1  0.16610817  0.17044852  0.74877986  1
  Cu  Cu93  1  0.32903645  0.65580684  0.50298316  1
  Cu  Cu94  1  0.01237809  0.66432070  0.00296110  1
  Cu  Cu95  1  0.67847696  0.00950007  -0.00848360  1
  Cu  Cu96  1  0.83620278  0.50748093  0.75095590  1
  Cu  Cu97  1  0.16439252  0.82691425  0.24953491  1
  Cu  Cu98  1  0.83000062  0.83792499  0.74596257  1
  Cu  Cu99  1  0.49432255  0.49784467  0.24479265  1
  Cu  Cu100  1  0.83093986  0.50021773  0.25392669  1
  Cu  Cu101  1  0.83539096  0.16681219  0.24694131  1
  Cu  Cu102  1  0.50689675  0.16647108  0.24918654  1
  Cu  Cu103  1  -0.00277602  0.01646567  -0.00822148  1
  Cu  Cu104  1  0.00191038  0.33226149  -0.00397526  1
  Cu  Cu105  1  0.66649771  -0.00033283  0.49950139  1
  Cu  Cu106  1  0.17223588  0.17746351  0.24510975  1
  Cu  Cu107  1  0.32715240  0.33876644  -0.00593770  1
  Cu  Cu108  1  0.32270190  0.00675187  0.51027298  1
  Cu  Cu109  1  0.32833341  0.33812418  0.50206040  1
  Cu  Cu110  1  0.49973304  0.16316738  0.75567011  1
  Cu  Cu111  1  0.67273890  0.33672776  0.51022531  1
  Cu  Cu112  1  0.00382877  0.00173756  0.50817465  1
  Cu  Cu113  1  0.65922898  0.65872772  -0.00507643  1
  Cu  Cu114  1  -0.00481269  0.66140548  0.50103367  1
  Se  Se115  1  0.08610553  0.09178356  0.04669213  1
  Se  Se116  1  0.08462159  0.08541613  0.56055719  1
  Se  Se117  1  0.08315468  0.41706103  0.04996336  1
  Se  Se118  1  0.08514091  0.42173569  0.55414183  1
  Se  Se119  1  0.08924303  0.74469383  0.06493238  1
  Se  Se120  1  0.07171323  0.73913373  0.56678084  1
  Se  Se121  1  0.40727653  0.07281340  0.05687230  1
  Se  Se122  1  0.40540870  0.08583282  0.56631452  1
  Se  Se123  1  0.41819540  0.41449432  0.04690785  1
  Se  Se124  1  0.40711664  0.41181862  0.56594897  1
  Se  Se125  1  0.40948246  0.73618522  0.05226444  1
  Se  Se126  1  0.40277674  0.74341994  0.56125007  1
  Se  Se127  1  0.75468137  0.09377649  0.04837255  1
  Se  Se128  1  0.73947401  0.08419198  0.56015695  1
  Se  Se129  1  0.74184202  0.41184821  0.05983803  1
  Se  Se130  1  0.75547668  0.42011008  0.56172797  1
  Se  Se131  1  0.73926742  0.74061213  0.05393940  1
  Se  Se132  1  0.75025651  0.75225496  0.54746516  1
  Se  Se133  1  0.24746707  0.24883398  0.04522348  1
  Se  Se134  1  0.24482165  0.25272231  0.55244561  1
  Se  Se135  1  0.24618135  0.58142670  0.04799125  1
  Se  Se136  1  0.25094846  0.57413185  0.56019928  1
  Se  Se137  1  0.25210648  0.92042549  0.06040337  1
  Se  Se138  1  0.24978219  0.92033265  0.56769715  1
  Se  Se139  1  0.58679880  0.26207141  0.06141156  1
  Se  Se140  1  0.59076350  0.26208355  0.57061075  1
  Se  Se141  1  0.58036051  0.57598649  0.05049141  1
  Se  Se142  1  0.58982343  0.59081455  0.56351989  1
  Se  Se143  1  0.59846771  0.92800072  0.05133638  1
  Se  Se144  1  0.58251476  0.92334694  0.55800678  1
  Se  Se145  1  0.91216534  0.25259005  0.04716490  1
  Se  Se146  1  0.92203344  0.25819521  0.56563256  1
  Se  Se147  1  0.92830242  0.59270641  0.06641286  1
  Se  Se148  1  0.91138389  0.57580299  0.55131741  1
  Se  Se149  1  0.92837432  0.93343082  0.05742426  1
  Se  Se150  1  0.91297317  0.91907359  0.55175141  1
  Se  Se151  1  0.08629447  0.25000164  0.44886508  1
  Se  Se152  1  0.08649600  0.25279474  0.94057940  1
  Se  Se153  1  0.08519412  0.58089129  0.45276632  1
  Se  Se154  1  0.08755131  0.57757689  0.94922617  1
  Se  Se155  1  0.08308724  0.92291532  0.44403412  1
  Se  Se156  1  0.07438017  0.92815116  0.93665928  1
  Se  Se157  1  0.41471207  0.25955055  0.44497417  1
  Se  Se158  1  0.41001360  0.25587708  0.93633515  1
  Se  Se159  1  0.40981065  0.58212556  0.44062883  1
  Se  Se160  1  0.42219161  0.56989649  0.93374269  1
  Se  Se161  1  0.40212084  0.92814627  0.44933913  1
  Se  Se162  1  0.40950641  0.91603508  0.93991815  1
  Se  Se163  1  0.74442286  0.25651067  0.44451485  1
  Se  Se164  1  0.74933584  0.25178155  0.94553420  1
  Se  Se165  1  0.74843767  0.57423201  0.44829786  1
  Se  Se166  1  0.75133580  0.58442558  0.94096895  1
  Se  Se167  1  0.74543547  0.91511725  0.44556871  1
  Se  Se168  1  0.75592204  0.92642149  0.93371877  1
  Se  Se169  1  0.24476656  0.09036748  0.45467604  1
  Se  Se170  1  0.24429204  0.08342387  0.94473572  1
  Se  Se171  1  0.24959028  0.42117256  0.44449027  1
  Se  Se172  1  0.24466829  0.41893055  0.93833122  1
  Se  Se173  1  0.25293176  0.74107300  0.44197379  1
  Se  Se174  1  0.26322046  0.74266511  0.94246561  1
  Se  Se175  1  0.58684925  0.08273908  0.44278614  1
  Se  Se176  1  0.58329241  0.08246549  0.93960206  1
  Se  Se177  1  0.58914004  0.40994553  0.44717356  1
  Se  Se178  1  0.57921738  0.42131235  0.94420444  1
  Se  Se179  1  0.58570612  0.74102874  0.43742392  1
  Se  Se180  1  0.58594577  0.74267445  0.93498191  1
  Se  Se181  1  0.92847614  0.07859284  0.43970402  1
  Se  Se182  1  0.91344938  0.09276868  0.93507502  1
  Se  Se183  1  0.91201598  0.41089730  0.45095130  1
  Se  Se184  1  0.92065126  0.41345484  0.93704000  1
  Se  Se185  1  0.91411883  0.74961319  0.45156492  1
  Se  Se186  1  0.92678190  0.74503459  0.95018082  1
  Se  Se187  1  0.25348903  0.25385839  0.30561511  1
  Se  Se188  1  0.25161912  0.25025420  0.80282861  1
  Se  Se189  1  0.26773168  0.59987776  0.30325228  1
  Se  Se190  1  0.24878129  0.58673679  0.79810257  1
  Se  Se191  1  0.24433238  0.91099780  0.30643883  1
  Se  Se192  1  0.24546060  0.91463013  0.79823303  1
  Se  Se193  1  0.58710835  0.25063522  0.30415922  1
  Se  Se194  1  0.57763396  0.25330254  0.80719508  1
  Se  Se195  1  0.57828029  0.57798061  0.30126172  1
  Se  Se196  1  0.61460857  0.61109938  0.81006647  1
  Se  Se197  1  0.58565530  0.91775091  0.30286929  1
  Se  Se198  1  0.58537432  0.91725641  0.80317277  1
  Se  Se199  1  0.91970756  0.25156380  0.29831885  1
  Se  Se200  1  0.90793176  0.24173724  0.79745216  1
  Se  Se201  1  0.91261595  0.57531364  0.31678593  1
  Se  Se202  1  0.91737248  0.58060513  0.81542160  1
  Se  Se203  1  0.90945959  0.90360239  0.31012289  1
  Se  Se204  1  0.92019198  0.91981340  0.79353279  1
  Se  Se205  1  0.09648092  0.09399542  0.30716391  1
  Se  Se206  1  0.08129991  0.08653632  0.80082705  1
  Se  Se207  1  0.08319366  0.41812893  0.31036139  1
  Se  Se208  1  0.07410409  0.40457308  0.79454031  1
  Se  Se209  1  0.08586372  0.74980103  0.31054515  1
  Se  Se210  1  0.08668704  0.75357047  0.82048081  1
  Se  Se211  1  0.42743290  0.09284770  0.31636938  1
  Se  Se212  1  0.41177319  0.07925603  0.80330116  1
  Se  Se213  1  0.41658122  0.41051227  0.29976646  1
  Se  Se214  1  0.40490959  0.40943953  0.79476181  1
  Se  Se215  1  0.41684749  0.75453259  0.30146206  1
  Se  Se216  1  0.41986218  0.75035403  0.80091237  1
  Se  Se217  1  0.75721013  0.08218766  0.30316959  1
  Se  Se218  1  0.72286568  0.06339659  0.80756737  1
  Se  Se219  1  0.74876393  0.41383530  0.30661195  1
  Se  Se220  1  0.75688578  0.42055566  0.80523538  1
  Se  Se221  1  0.74301317  0.73179570  0.30657666  1
  Se  Se222  1  0.75411979  0.75296165  0.80216312  1
  Se  Se223  1  0.24561591  0.08580092  0.18935889  1
  Se  Se224  1  0.25147356  0.08232820  0.69968438  1
  Se  Se225  1  0.26847429  0.40521809  0.18507127  1
  Se  Se226  1  0.26541749  0.39496513  0.69551931  1
  Se  Se227  1  0.24998960  0.74944183  0.19542445  1
  Se  Se228  1  0.25066862  0.73729072  0.70649632  1
  Se  Se229  1  0.58980409  0.08133388  0.19835850  1
  Se  Se230  1  0.58282450  0.08204770  0.70074692  1
  Se  Se231  1  0.58131340  0.41250871  0.19626473  1
  Se  Se232  1  0.58849524  0.42342550  0.70943704  1
  Se  Se233  1  0.58341788  0.74931442  0.19123039  1
  Se  Se234  1  0.58402557  0.75208008  0.69373724  1
  Se  Se235  1  0.92016955  0.09295006  0.18551688  1
  Se  Se236  1  0.90301555  0.08863584  0.69965110  1
  Se  Se237  1  0.91053440  0.41788760  0.19644465  1
  Se  Se238  1  0.91865741  0.42119802  0.70041540  1
  Se  Se239  1  0.90424220  0.75976633  0.19407087  1
  Se  Se240  1  0.90942441  0.75110873  0.68788467  1
  Se  Se241  1  0.08870113  0.25629052  0.18934324  1
  Se  Se242  1  0.08306225  0.25186214  0.69306652  1
  Se  Se243  1  0.09155669  0.56446167  0.20023039  1
  Se  Se244  1  0.08746588  0.57265017  0.69231621  1
  Se  Se245  1  0.08498893  0.91145648  0.19478731  1
  Se  Se246  1  0.08902514  0.90138178  0.70101407  1
  Se  Se247  1  0.41802804  0.24197320  0.19538840  1
  Se  Se248  1  0.42361356  0.24344552  0.69522039  1
  Se  Se249  1  0.41634781  0.58166730  0.18789872  1
  Se  Se250  1  0.43292605  0.57035156  0.70406365  1
  Se  Se251  1  0.42676493  0.91216494  0.18714246  1
  Se  Se252  1  0.41568264  0.91630660  0.69884661  1
  Se  Se253  1  0.74996887  0.24829048  0.19368113  1
  Se  Se254  1  0.75384322  0.25160488  0.70930754  1
  Se  Se255  1  0.74658208  0.58035016  0.19854778  1
  Se  Se256  1  0.75391034  0.59007879  0.69686582  1
  Se  Se257  1  0.75612264  0.91707978  0.19091760  1
  Se  Se258  1  0.74629041  0.91764030  0.69050913  1
