# generated using pymatgen
data_In86Cu29Se144
_symmetry_space_group_name_H-M   'P 1'
_cell_length_a   17.58494170
_cell_length_b   17.58079841
_cell_length_c   23.44208870
_cell_angle_alpha   89.97193373
_cell_angle_beta   90.00022622
_cell_angle_gamma   89.99598090
_symmetry_Int_Tables_number   1
_chemical_formula_structural   In86Cu29Se144
_chemical_formula_sum   'In86 Cu29 Se144'
_cell_volume   7247.29231280
_cell_formula_units_Z   1
loop_
 _symmetry_equiv_pos_site_id
 _symmetry_equiv_pos_as_xyz
  1  'x, y, z'
loop_
 _atom_site_type_symbol
 _atom_site_label
 _atom_site_symmetry_multiplicity
 _atom_site_fract_x
 _atom_site_fract_y
 _atom_site_fract_z
 _atom_site_occupancy
  In  In0  1  0.01059430  0.17446418  0.12570224  1
  In  In1  1  0.00348389  0.15874558  0.63280769  1
  In  In2  1  -0.00977087  0.49359675  0.11776630  1
  In  In3  1  -0.01802435  0.50395928  0.62286681  1
  In  In4  1  0.00652224  0.82564971  0.11881062  1
  In  In5  1  0.00895382  0.83615283  0.61645514  1
  In  In6  1  0.34880574  0.16152291  0.12299140  1
  In  In7  1  0.32374563  0.18868641  0.61967285  1
  In  In8  1  0.34660516  0.51169293  0.12097611  1
  In  In9  1  0.35190991  0.50336663  0.61742421  1
  In  In10  1  0.33448722  0.83214100  0.12074283  1
  In  In11  1  0.32635586  0.82023635  0.61759451  1
  In  In12  1  0.66333332  0.17270334  0.12601989  1
  In  In13  1  0.67929116  0.17120088  0.62855530  1
  In  In14  1  0.67083600  0.50406535  0.12696082  1
  In  In15  1  0.66677165  0.50436867  0.62735980  1
  In  In16  1  0.65393481  0.84401046  0.13668211  1
  In  In17  1  0.64946253  0.82052167  0.61753845  1
  In  In18  1  0.17390114  -0.00898844  0.37899534  1
  In  In19  1  0.15121331  -0.00529143  0.87790399  1
  In  In20  1  0.15131063  0.33849807  0.37630531  1
  In  In21  1  0.16621723  0.34242106  0.87282658  1
  In  In22  1  0.17843281  0.66764203  0.37531259  1
  In  In23  1  0.17723897  0.65904962  0.87544898  1
  In  In24  1  0.49460217  -0.01051233  0.37100904  1
  In  In25  1  0.50939481  -0.00781738  0.89912472  1
  In  In26  1  0.51333728  0.33131643  0.37315889  1
  In  In27  1  0.51169358  0.33217364  0.88821051  1
  In  In28  1  0.50068926  0.65905876  0.37412750  1
  In  In29  1  0.50073609  0.66447963  0.87765404  1
  In  In30  1  0.82103346  -0.00612806  0.37081229  1
  In  In31  1  0.84147844  -0.00974783  0.87410211  1
  In  In32  1  0.83256977  0.33781594  0.37288473  1
  In  In33  1  0.83696548  0.33870196  0.87305007  1
  In  In34  1  0.82219673  0.67662415  0.38756051  1
  In  In35  1  0.81393504  0.66643549  0.87156876  1
  In  In36  1  -0.00292203  0.17957464  0.37403860  1
  In  In37  1  -0.00306948  0.16406302  0.86677962  1
  In  In38  1  -0.00417093  0.48492615  0.37676326  1
  In  In39  1  0.00772771  0.49351233  0.87606696  1
  In  In40  1  0.00441831  0.82061747  0.39221949  1
  In  In41  1  0.00207234  0.84392618  0.87125030  1
  In  In42  1  0.33388051  0.15385996  0.37777215  1
  In  In43  1  0.33989986  0.17516890  0.87618024  1
  In  In44  1  0.33206287  0.52158755  0.37369764  1
  In  In45  1  0.32781167  0.50730681  0.87997420  1
  In  In46  1  0.36164904  0.80085970  0.40301197  1
  In  In47  1  0.34561695  0.82437207  0.88195644  1
  In  In48  1  0.66646418  0.16824686  0.36334099  1
  In  In49  1  0.65418154  0.17486755  0.88293710  1
  In  In50  1  0.66295281  0.49928735  0.37543811  1
  In  In51  1  0.66457564  0.50012977  0.88119544  1
  In  In52  1  0.66414424  0.82784982  0.37344585  1
  In  In53  1  0.66701948  0.82246357  0.87713937  1
  In  In54  1  0.18072778  -0.00312094  0.11661884  1
  In  In55  1  0.15705357  -0.00449739  0.62297348  1
  In  In56  1  0.15243590  0.33576244  0.12719941  1
  In  In57  1  0.17224022  0.31837638  0.62181152  1
  In  In58  1  0.18150746  0.67607158  0.12013052  1
  In  In59  1  0.16548684  0.68024770  0.62202221  1
  In  In60  1  0.51500299  0.01378520  0.10346978  1
  In  In61  1  0.51020945  -0.00803780  0.62608986  1
  In  In62  1  0.53322058  0.35934197  0.09995502  1
  In  In63  1  0.50076130  0.35678365  0.62755715  1
  In  In64  1  0.50170669  0.66873716  0.12928001  1
  In  In65  1  0.49863016  0.66754965  0.62692955  1
  In  In66  1  0.82707594  -0.01500687  0.12490235  1
  In  In67  1  0.84488553  0.00237816  0.62712709  1
  In  In68  1  0.82057768  0.34763892  0.13266550  1
  In  In69  1  0.82179581  0.34475647  0.63377697  1
  In  In70  1  0.83101028  0.65059651  0.12241710  1
  In  In71  1  0.82414480  0.65408359  0.61073185  1
  In  In72  1  0.17146223  0.16461210  0.00217113  1
  In  In73  1  0.67218697  -0.00076626  0.76149976  1
  In  In74  1  0.33562982  -0.00665140  0.24333126  1
  In  In75  1  0.49532784  0.16443676  0.50041355  1
  In  In76  1  -0.00311761  0.65913521  0.24955272  1
  In  In77  1  0.83136138  0.16864568  -0.00414441  1
  In  In78  1  0.33389877  0.00033904  0.75737988  1
  In  In79  1  -0.00471311  -0.00179766  0.24660702  1
  In  In80  1  0.83414785  0.82722087  -0.00373595  1
  In  In81  1  -0.00551301  0.66958295  0.73911362  1
  In  In82  1  0.83547509  0.16490070  0.49872180  1
  In  In83  1  0.33795721  0.33463724  0.24757551  1
  In  In84  1  0.33649005  0.34112000  0.75027119  1
  In  In85  1  0.16708233  0.50250900  0.49879200  1
  Cu  Cu86  1  0.16801967  0.49859326  0.75239589  1
  Cu  Cu87  1  0.16456922  0.50319081  0.25210555  1
  Cu  Cu88  1  0.50498997  0.50164603  0.24522760  1
  Cu  Cu89  1  0.32501987  0.00049046  0.50473944  1
  Cu  Cu90  1  0.82967761  0.83605976  0.74620209  1
  Cu  Cu91  1  -0.00297558  0.33733551  -0.00062172  1
  Cu  Cu92  1  0.15918608  0.16145101  0.74597557  1
  Cu  Cu93  1  0.50767035  0.50569408  0.75371356  1
  Cu  Cu94  1  0.33591338  0.33449295  -0.00255484  1
  Cu  Cu95  1  0.33555869  0.66488312  0.00082022  1
  Cu  Cu96  1  0.16591779  0.83377958  0.74432044  1
  Cu  Cu97  1  0.65753430  0.66149688  0.49844542  1
  Cu  Cu98  1  0.83114728  0.17018841  0.25007484  1
  Cu  Cu99  1  0.66486685  -0.01171024  0.49455432  1
  Cu  Cu100  1  0.50161522  0.83041164  0.25317643  1
  Cu  Cu101  1  0.82902691  0.82779572  0.25431305  1
  Cu  Cu102  1  0.82819527  0.49680001  0.25154915  1
  Cu  Cu103  1  0.83564955  0.17774792  0.75230584  1
  Cu  Cu104  1  0.66118183  0.66723440  0.00200998  1
  Cu  Cu105  1  0.49471179  0.82428562  0.75140935  1
  Cu  Cu106  1  0.17598009  0.83078621  0.25034263  1
  Cu  Cu107  1  0.16203001  0.17255301  0.25256274  1
  Cu  Cu108  1  0.82757981  0.50372260  0.75036143  1
  Cu  Cu109  1  0.66232986  0.34159822  0.50284389  1
  Cu  Cu110  1  -0.00302225  0.32858413  0.50127002  1
  Cu  Cu111  1  0.00387763  0.00230917  0.50423630  1
  Cu  Cu112  1  0.50820435  0.17079915  0.23875579  1
  Cu  Cu113  1  0.50463010  0.17135445  0.75826770  1
  Cu  Cu114  1  0.00723528  0.66178219  -0.00373061  1
  Se  Se115  1  0.07519456  0.07471943  0.05775100  1
  Se  Se116  1  0.08413972  0.08975742  0.55576804  1
  Se  Se117  1  0.08469990  0.41828844  0.05115223  1
  Se  Se118  1  0.07691780  0.41154716  0.56092210  1
  Se  Se119  1  0.08807920  0.74608341  0.05016069  1
  Se  Se120  1  0.07841009  0.74366861  0.54878065  1
  Se  Se121  1  0.39594408  0.06389496  0.05108745  1
  Se  Se122  1  0.40761652  0.07716293  0.56699074  1
  Se  Se123  1  0.41625529  0.42039802  0.05070018  1
  Se  Se124  1  0.40249851  0.39582162  0.55339234  1
  Se  Se125  1  0.41941661  0.74618515  0.05604117  1
  Se  Se126  1  0.43196540  0.76150705  0.55663029  1
  Se  Se127  1  0.74752570  0.07703822  0.05937765  1
  Se  Se128  1  0.74113872  0.07177810  0.55582198  1
  Se  Se129  1  0.75509333  0.42607832  0.05587160  1
  Se  Se130  1  0.74935544  0.42049705  0.55634288  1
  Se  Se131  1  0.74424802  0.74706369  0.06270836  1
  Se  Se132  1  0.74159390  0.74808277  0.55011356  1
  Se  Se133  1  0.25742372  0.25876524  0.06351499  1
  Se  Se134  1  0.24653829  0.25292397  0.54084387  1
  Se  Se135  1  0.25072625  0.58007007  0.05305590  1
  Se  Se136  1  0.25735358  0.59209757  0.55769286  1
  Se  Se137  1  0.24897144  0.90729483  0.04925559  1
  Se  Se138  1  0.24444670  0.91455262  0.55750997  1
  Se  Se139  1  0.57304768  0.23451337  0.05178514  1
  Se  Se140  1  0.58796583  0.25349425  0.56190889  1
  Se  Se141  1  0.58186395  0.58418369  0.05949006  1
  Se  Se142  1  0.57847480  0.57991646  0.55778378  1
  Se  Se143  1  0.58822511  0.90679999  0.05143216  1
  Se  Se144  1  0.57608688  0.91240412  0.54823034  1
  Se  Se145  1  0.91927232  0.25730559  0.06100650  1
  Se  Se146  1  0.91588634  0.25375484  0.56569249  1
  Se  Se147  1  0.91763332  0.58416264  0.04822731  1
  Se  Se148  1  0.92172066  0.58616013  0.54535151  1
  Se  Se149  1  0.92548922  0.92096131  0.05480677  1
  Se  Se150  1  0.91642044  0.91992875  0.55391230  1
  Se  Se151  1  0.08232177  0.24819423  0.44834404  1
  Se  Se152  1  0.07746567  0.25290600  0.94144522  1
  Se  Se153  1  0.07665215  0.58643729  0.43488648  1
  Se  Se154  1  0.09043757  0.57834901  0.94260153  1
  Se  Se155  1  0.08513986  0.91810107  0.44889379  1
  Se  Se156  1  0.08168705  0.90772951  0.94921731  1
  Se  Se157  1  0.41158863  0.25543278  0.43740589  1
  Se  Se158  1  0.42008496  0.24750396  0.95001314  1
  Se  Se159  1  0.41026900  0.59295295  0.44782774  1
  Se  Se160  1  0.41878961  0.58113667  0.94750890  1
  Se  Se161  1  0.41375498  0.92544665  0.44907980  1
  Se  Se162  1  0.40752384  0.91825778  0.95289241  1
  Se  Se163  1  0.73772538  0.25323925  0.44369300  1
  Se  Se164  1  0.74193856  0.26671922  0.94550168  1
  Se  Se165  1  0.74473155  0.57880016  0.44745004  1
  Se  Se166  1  0.74894355  0.58647250  0.94971677  1
  Se  Se167  1  0.75227413  0.90816879  0.44361435  1
  Se  Se168  1  0.74245879  0.92397727  0.94203655  1
  Se  Se169  1  0.24591802  0.08346552  0.44807747  1
  Se  Se170  1  0.25407604  0.07882361  0.93498934  1
  Se  Se171  1  0.25438435  0.41610629  0.43350491  1
  Se  Se172  1  0.24880744  0.41469453  0.94531539  1
  Se  Se173  1  0.23557940  0.76029365  0.44814034  1
  Se  Se174  1  0.25124096  0.74635243  0.94551903  1
  Se  Se175  1  0.58917442  0.07860807  0.43791665  1
  Se  Se176  1  0.59066990  0.08655263  0.95535655  1
  Se  Se177  1  0.57734593  0.41947844  0.44722206  1
  Se  Se178  1  0.57670178  0.42930141  0.95351409  1
  Se  Se179  1  0.57974573  0.74843768  0.44288367  1
  Se  Se180  1  0.57973649  0.75175072  0.94840476  1
  Se  Se181  1  0.92312883  0.07338550  0.43679889  1
  Se  Se182  1  0.92718349  0.07543860  0.94329602  1
  Se  Se183  1  0.91137703  0.41088980  0.44960437  1
  Se  Se184  1  0.91618495  0.42084395  0.94461852  1
  Se  Se185  1  0.91393828  0.74571492  0.45602567  1
  Se  Se186  1  0.92424295  0.73823568  0.93343439  1
  Se  Se187  1  0.24803545  0.24643678  0.31142311  1
  Se  Se188  1  0.24291202  0.24226801  0.80422660  1
  Se  Se189  1  0.24986944  0.59047250  0.29722367  1
  Se  Se190  1  0.25470241  0.58177154  0.80032363  1
  Se  Se191  1  0.25793625  0.90514244  0.31199139  1
  Se  Se192  1  0.24330214  0.90669905  0.81215695  1
  Se  Se193  1  0.58615909  0.25448395  0.29625768  1
  Se  Se194  1  0.58528081  0.25912460  0.80779733  1
  Se  Se195  1  0.58626117  0.58325741  0.30293961  1
  Se  Se196  1  0.58981493  0.58778320  0.80887673  1
  Se  Se197  1  0.58502464  0.91693286  0.30409768  1
  Se  Se198  1  0.57087632  0.91001140  0.81171059  1
  Se  Se199  1  0.91384277  0.25353416  0.30301177  1
  Se  Se200  1  0.92267453  0.25899704  0.80353525  1
  Se  Se201  1  0.90636965  0.57731055  0.31401821  1
  Se  Se202  1  0.91277968  0.58308007  0.80856730  1
  Se  Se203  1  0.91787004  0.90276401  0.31185676  1
  Se  Se204  1  0.91713987  0.91611745  0.79737613  1
  Se  Se205  1  0.08715220  0.08419766  0.31000617  1
  Se  Se206  1  0.08117035  0.07740712  0.80209264  1
  Se  Se207  1  0.07942378  0.41751972  0.29987195  1
  Se  Se208  1  0.08172453  0.41398936  0.79942730  1
  Se  Se209  1  0.08460625  0.75627127  0.30614677  1
  Se  Se210  1  0.08661756  0.74989985  0.80527312  1
  Se  Se211  1  0.42642595  0.09239845  0.30017181  1
  Se  Se212  1  0.43223549  0.08425674  0.81605739  1
  Se  Se213  1  0.42330126  0.42607645  0.30975840  1
  Se  Se214  1  0.42638807  0.42367887  0.81413732  1
  Se  Se215  1  0.41654768  0.75022962  0.30818568  1
  Se  Se216  1  0.41318541  0.74171850  0.80587622  1
  Se  Se217  1  0.75019730  0.08108257  0.29953723  1
  Se  Se218  1  0.76013586  0.09683880  0.81716573  1
  Se  Se219  1  0.74377878  0.41352705  0.30510973  1
  Se  Se220  1  0.74861382  0.42173213  0.80858622  1
  Se  Se221  1  0.74750903  0.74206807  0.30559143  1
  Se  Se222  1  0.74548561  0.75397230  0.79857193  1
  Se  Se223  1  0.24265866  0.09465544  0.19169377  1
  Se  Se224  1  0.25074243  0.08947164  0.68915960  1
  Se  Se225  1  0.24561200  0.42473214  0.18902411  1
  Se  Se226  1  0.24667304  0.42423888  0.68540033  1
  Se  Se227  1  0.25953283  0.74984462  0.19620931  1
  Se  Se228  1  0.25146644  0.74795780  0.69710603  1
  Se  Se229  1  0.58434929  0.07682037  0.18950311  1
  Se  Se230  1  0.58198727  0.08964495  0.69653832  1
  Se  Se231  1  0.58695893  0.41554515  0.19354375  1
  Se  Se232  1  0.58920035  0.41952836  0.70099925  1
  Se  Se233  1  0.58675437  0.74545952  0.20184006  1
  Se  Se234  1  0.58418422  0.74638654  0.69929543  1
  Se  Se235  1  0.90795472  0.09104521  0.18628303  1
  Se  Se236  1  0.91323758  0.08562078  0.70237065  1
  Se  Se237  1  0.91830384  0.42000324  0.19763728  1
  Se  Se238  1  0.91472219  0.42101908  0.69948080  1
  Se  Se239  1  0.90991570  0.75522530  0.18933672  1
  Se  Se240  1  0.90377022  0.75791024  0.68030425  1
  Se  Se241  1  0.07748317  0.25629041  0.20267422  1
  Se  Se242  1  0.08289174  0.25358896  0.69537876  1
  Se  Se243  1  0.08844570  0.57943569  0.18429225  1
  Se  Se244  1  0.09005517  0.57552566  0.68660872  1
  Se  Se245  1  0.09488662  0.91065479  0.19084810  1
  Se  Se246  1  0.07821983  0.91575052  0.69558136  1
  Se  Se247  1  0.43093644  0.25702095  0.18235777  1
  Se  Se248  1  0.42597697  0.24559427  0.69237047  1
  Se  Se249  1  0.41657588  0.58662708  0.19979046  1
  Se  Se250  1  0.41917557  0.57993806  0.69704257  1
  Se  Se251  1  0.43318611  0.91246379  0.18564127  1
  Se  Se252  1  0.41936146  0.91095527  0.69291184  1
  Se  Se253  1  0.74660621  0.25183871  0.19621521  1
  Se  Se254  1  0.74503319  0.25604828  0.70304259  1
  Se  Se255  1  0.74950711  0.58635834  0.20047510  1
  Se  Se256  1  0.75100529  0.59023305  0.69440648  1
  Se  Se257  1  0.74957862  0.91707688  0.20306362  1
  Se  Se258  1  0.74580971  0.91521563  0.68628173  1
