# generated using pymatgen
data_In86Cu29Se144
_symmetry_space_group_name_H-M   'P 1'
_cell_length_a   17.57774879
_cell_length_b   17.57440685
_cell_length_c   23.42892404
_cell_angle_alpha   90.00942978
_cell_angle_beta   90.01009278
_cell_angle_gamma   89.99697292
_symmetry_Int_Tables_number   1
_chemical_formula_structural   In86Cu29Se144
_chemical_formula_sum   'In86 Cu29 Se144'
_cell_volume   7237.62805576
_cell_formula_units_Z   1
loop_
 _symmetry_equiv_pos_site_id
 _symmetry_equiv_pos_as_xyz
  1  'x, y, z'
loop_
 _atom_site_type_symbol
 _atom_site_label
 _atom_site_symmetry_multiplicity
 _atom_site_fract_x
 _atom_site_fract_y
 _atom_site_fract_z
 _atom_site_occupancy
  In  In0  1  0.00669721  0.18032481  0.13104739  1
  In  In1  1  0.00248390  0.16485359  0.62568651  1
  In  In2  1  -0.01194273  0.49156411  0.11600924  1
  In  In3  1  -0.00965005  0.48921208  0.61496551  1
  In  In4  1  -0.00979381  0.83625966  0.12642313  1
  In  In5  1  -0.00557680  0.82811491  0.61532359  1
  In  In6  1  0.33616782  0.15628215  0.12808737  1
  In  In7  1  0.32066541  0.16604856  0.62584820  1
  In  In8  1  0.34062244  0.51247983  0.11728353  1
  In  In9  1  0.33181828  0.51154934  0.62745265  1
  In  In10  1  0.34280943  0.83328449  0.13290485  1
  In  In11  1  0.33651557  0.82962472  0.62464874  1
  In  In12  1  0.68790075  0.19474501  0.09694552  1
  In  In13  1  0.67777518  0.17635329  0.63198886  1
  In  In14  1  0.66566974  0.49002014  0.11068184  1
  In  In15  1  0.68052630  0.49062699  0.63997794  1
  In  In16  1  0.66473536  0.83840638  0.11798669  1
  In  In17  1  0.65670952  0.83113608  0.62127796  1
  In  In18  1  0.17346435  -0.00851223  0.38340058  1
  In  In19  1  0.16876814  -0.01211731  0.86846809  1
  In  In20  1  0.15014391  0.34406554  0.38879420  1
  In  In21  1  0.16629758  0.34618208  0.87269740  1
  In  In22  1  0.17239650  0.65794038  0.37906119  1
  In  In23  1  0.16615168  0.64908358  0.86950019  1
  In  In24  1  0.49241506  -0.00042539  0.37434884  1
  In  In25  1  0.49347104  0.00112995  0.87738979  1
  In  In26  1  0.50626717  0.32412382  0.36578183  1
  In  In27  1  0.51988457  0.32029137  0.89705614  1
  In  In28  1  0.50249795  0.67923739  0.37298687  1
  In  In29  1  0.50202001  0.66751611  0.87621268  1
  In  In30  1  0.82779033  -0.01286747  0.37643165  1
  In  In31  1  0.82655429  0.00358132  0.88085020  1
  In  In32  1  0.84378413  0.33862002  0.36382049  1
  In  In33  1  0.83293884  0.33091562  0.87762414  1
  In  In34  1  0.83001523  0.66161606  0.38501493  1
  In  In35  1  0.81892160  0.67610074  0.87767118  1
  In  In36  1  0.00258828  0.18546081  0.37604013  1
  In  In37  1  -0.01968173  0.17316280  0.87437559  1
  In  In38  1  -0.00086551  0.49016935  0.38301585  1
  In  In39  1  0.00840773  0.48686324  0.87680424  1
  In  In40  1  -0.00358050  0.83630441  0.38387819  1
  In  In41  1  -0.00937063  0.82527974  0.87089429  1
  In  In42  1  0.33273386  0.15077852  0.36960977  1
  In  In43  1  0.34515918  0.16327961  0.87357428  1
  In  In44  1  0.31991228  0.49872948  0.36989608  1
  In  In45  1  0.33224132  0.50701325  0.87808526  1
  In  In46  1  0.33458177  0.83272833  0.37482579  1
  In  In47  1  0.34228616  0.83734741  0.86634940  1
  In  In48  1  0.65866028  0.17027725  0.36871183  1
  In  In49  1  0.66796300  0.17389546  0.88244145  1
  In  In50  1  0.68124724  0.49685036  0.37511078  1
  In  In51  1  0.66496980  0.49920541  0.88171825  1
  In  In52  1  0.67160843  0.82705463  0.39271667  1
  In  In53  1  0.67694208  0.81840081  0.87766049  1
  In  In54  1  0.17941782  0.01629062  0.13866572  1
  In  In55  1  0.17293511  0.00343833  0.61944127  1
  In  In56  1  0.15111617  0.33410319  0.13055533  1
  In  In57  1  0.14778179  0.31969565  0.60694922  1
  In  In58  1  0.18097589  0.67052018  0.12739611  1
  In  In59  1  0.17230116  0.67393158  0.61581396  1
  In  In60  1  0.49916258  0.00126916  0.11997223  1
  In  In61  1  0.50635321  -0.02279601  0.62564181  1
  In  In62  1  0.51606781  0.35009516  0.10523533  1
  In  In63  1  0.50794629  0.34215178  0.63332937  1
  In  In64  1  0.49459071  0.66640395  0.11809057  1
  In  In65  1  0.49050433  0.67032001  0.63539612  1
  In  In66  1  0.82150732  -0.00522406  0.11837492  1
  In  In67  1  0.83684348  0.00316971  0.62397074  1
  In  In68  1  0.83777004  0.33688621  0.12209407  1
  In  In69  1  0.82925441  0.33573414  0.63618359  1
  In  In70  1  0.83408751  0.66516885  0.11696541  1
  In  In71  1  0.82926428  0.66441336  0.62892897  1
  In  In72  1  0.00034184  0.00479452  0.74403456  1
  In  In73  1  0.49924878  0.50301930  0.50473512  1
  In  In74  1  0.66428196  0.00109844  0.75402062  1
  In  In75  1  0.16627091  0.16764903  0.01032717  1
  In  In76  1  0.66675722  0.66405557  0.25163429  1
  In  In77  1  0.00221122  0.66280961  0.25206330  1
  In  In78  1  0.33031510  0.32703132  0.24820232  1
  In  In79  1  0.49842007  0.16025923  0.49392648  1
  In  In80  1  0.00293023  0.00584921  0.25768067  1
  In  In81  1  -0.00049599  0.66202129  0.74283764  1
  In  In82  1  0.33807432  0.34340003  0.75409130  1
  In  In83  1  0.16094231  0.82975525  0.00153459  1
  In  In84  1  0.83401030  0.16692886  0.50243916  1
  In  In85  1  0.65926465  0.00301175  0.24543910  1
  Cu  Cu86  1  -0.00539556  0.66160276  -0.00800652  1
  Cu  Cu87  1  0.83432134  0.50189855  0.75643054  1
  Cu  Cu88  1  0.83185366  0.17129243  0.24276851  1
  Cu  Cu89  1  0.33035843  0.33935426  -0.00367673  1
  Cu  Cu90  1  0.17385313  0.83838268  0.25492637  1
  Cu  Cu91  1  0.33039852  -0.00373190  0.00026628  1
  Cu  Cu92  1  0.67164673  0.33568397  0.50437707  1
  Cu  Cu93  1  -0.01182817  0.00057037  0.00229176  1
  Cu  Cu94  1  0.66330970  0.66843529  -0.00077117  1
  Cu  Cu95  1  0.50153865  0.16407433  0.75825431  1
  Cu  Cu96  1  0.49505035  0.83894884  0.25081834  1
  Cu  Cu97  1  0.33740009  -0.00848488  0.50060574  1
  Cu  Cu98  1  0.17752399  0.82889150  0.74300806  1
  Cu  Cu99  1  0.83338531  0.48999771  0.24572775  1
  Cu  Cu100  1  0.32550790  0.33326452  0.49813735  1
  Cu  Cu101  1  0.49814927  0.82451488  0.74938115  1
  Cu  Cu102  1  0.00216464  0.00339639  0.50145512  1
  Cu  Cu103  1  0.66764018  0.66186795  0.50793083  1
  Cu  Cu104  1  -0.00275222  0.33198349  0.00091468  1
  Cu  Cu105  1  0.16501234  0.50048247  0.25371672  1
  Cu  Cu106  1  0.50054552  0.50151374  0.23678191  1
  Cu  Cu107  1  -0.00119628  0.66677687  0.50070864  1
  Cu  Cu108  1  0.50886617  0.49875783  0.75930702  1
  Cu  Cu109  1  0.50979863  0.17154793  0.23889989  1
  Cu  Cu110  1  0.16778410  0.49454024  0.74591713  1
  Cu  Cu111  1  0.65826212  -0.00303612  -0.00426702  1
  Cu  Cu112  1  0.16599069  0.16762720  0.74381343  1
  Cu  Cu113  1  0.33172482  0.67036055  -0.00121817  1
  Cu  Cu114  1  0.33523736  0.67198805  0.50000048  1
  Se  Se115  1  0.07501531  0.07005596  0.06486881  1
  Se  Se116  1  0.08466291  0.08643628  0.55488000  1
  Se  Se117  1  0.08405913  0.41471032  0.05249935  1
  Se  Se118  1  0.09150649  0.42922879  0.54883267  1
  Se  Se119  1  0.07028281  0.73762513  0.06094728  1
  Se  Se120  1  0.08484693  0.75292253  0.54870335  1
  Se  Se121  1  0.41278921  0.08290081  0.05133465  1
  Se  Se122  1  0.41338308  0.07613916  0.56206229  1
  Se  Se123  1  0.41482531  0.42546820  0.04718977  1
  Se  Se124  1  0.40855621  0.40638508  0.56099871  1
  Se  Se125  1  0.41167810  0.75579917  0.05358121  1
  Se  Se126  1  0.42260408  0.74765902  0.55565460  1
  Se  Se127  1  0.74830009  0.07814213  0.04576886  1
  Se  Se128  1  0.73720078  0.07926517  0.55861873  1
  Se  Se129  1  0.75475801  0.40960293  0.04827770  1
  Se  Se130  1  0.75221760  0.41622637  0.56059719  1
  Se  Se131  1  0.74777322  0.75086968  0.05368117  1
  Se  Se132  1  0.75009003  0.74897803  0.55869034  1
  Se  Se133  1  0.25816534  0.26195189  0.06469267  1
  Se  Se134  1  0.24872621  0.24251917  0.54893047  1
  Se  Se135  1  0.24627254  0.58737184  0.05056563  1
  Se  Se136  1  0.25407269  0.58353048  0.55046424  1
  Se  Se137  1  0.24806773  0.92262749  0.06305053  1
  Se  Se138  1  0.25178456  0.91127831  0.55540114  1
  Se  Se139  1  0.56677415  0.23833258  0.04539602  1
  Se  Se140  1  0.58483469  0.25458730  0.55796445  1
  Se  Se141  1  0.58104359  0.58465310  0.05279089  1
  Se  Se142  1  0.58962818  0.58205675  0.57069181  1
  Se  Se143  1  0.57589494  0.91403063  0.05036357  1
  Se  Se144  1  0.58480518  0.91535819  0.54738721  1
  Se  Se145  1  0.92100081  0.24531199  0.05642382  1
  Se  Se146  1  0.91925162  0.25953351  0.56149512  1
  Se  Se147  1  0.91148959  0.57944416  0.04796113  1
  Se  Se148  1  0.91343163  0.58848030  0.55685353  1
  Se  Se149  1  0.90953030  0.91066906  0.05336810  1
  Se  Se150  1  0.91518220  0.92190614  0.55290657  1
  Se  Se151  1  0.07642693  0.25252491  0.45561163  1
  Se  Se152  1  0.08242884  0.25252912  0.94147577  1
  Se  Se153  1  0.07978090  0.58384020  0.44475244  1
  Se  Se154  1  0.08434508  0.57996201  0.94466765  1
  Se  Se155  1  0.08404215  0.91512678  0.45067036  1
  Se  Se156  1  0.07034438  0.92316974  0.94130058  1
  Se  Se157  1  0.40913148  0.25762819  0.43734872  1
  Se  Se158  1  0.41014105  0.24726484  0.94917305  1
  Se  Se159  1  0.41200300  0.58736666  0.43796573  1
  Se  Se160  1  0.41685669  0.58705430  0.94671185  1
  Se  Se161  1  0.42133632  0.91186571  0.44541770  1
  Se  Se162  1  0.41211715  0.91373136  0.94525959  1
  Se  Se163  1  0.74352842  0.25416902  0.43882406  1
  Se  Se164  1  0.75111113  0.25405604  0.95086537  1
  Se  Se165  1  0.74778025  0.57721502  0.45281329  1
  Se  Se166  1  0.75026401  0.58598163  0.94821491  1
  Se  Se167  1  0.75407164  0.91643358  0.45345059  1
  Se  Se168  1  0.74679294  0.91449071  0.94545287  1
  Se  Se169  1  0.25711923  0.08050428  0.44878212  1
  Se  Se170  1  0.24782481  0.07670878  0.94161353  1
  Se  Se171  1  0.24850576  0.42428275  0.44767491  1
  Se  Se172  1  0.24642662  0.42238439  0.94499694  1
  Se  Se173  1  0.25011590  0.75075260  0.44372469  1
  Se  Se174  1  0.24936479  0.74642604  0.93574714  1
  Se  Se175  1  0.59568284  0.07224476  0.43975250  1
  Se  Se176  1  0.57941978  0.08391009  0.94245988  1
  Se  Se177  1  0.58546586  0.40880079  0.44229776  1
  Se  Se178  1  0.58159015  0.42592193  0.95577642  1
  Se  Se179  1  0.58202392  0.74128821  0.45319112  1
  Se  Se180  1  0.58030683  0.75352127  0.94666560  1
  Se  Se181  1  0.92198171  0.07854680  0.43686553  1
  Se  Se182  1  0.91137167  0.08724075  0.94792839  1
  Se  Se183  1  0.89958115  0.41934859  0.44457614  1
  Se  Se184  1  0.91743383  0.41682008  0.94625083  1
  Se  Se185  1  0.91310740  0.74987123  0.44885871  1
  Se  Se186  1  0.91267215  0.75212410  0.94577954  1
  Se  Se187  1  0.24542633  0.25567060  0.32170818  1
  Se  Se188  1  0.24598548  0.24443371  0.80898181  1
  Se  Se189  1  0.25027439  0.58877430  0.29910417  1
  Se  Se190  1  0.25263898  0.57658386  0.79812950  1
  Se  Se191  1  0.25651600  0.92336991  0.30655664  1
  Se  Se192  1  0.25455882  0.91666518  0.79754020  1
  Se  Se193  1  0.59217339  0.25482837  0.29263012  1
  Se  Se194  1  0.58087618  0.24991205  0.81079982  1
  Se  Se195  1  0.57550197  0.57179004  0.31002927  1
  Se  Se196  1  0.59008483  0.58709017  0.80930067  1
  Se  Se197  1  0.58425860  0.90657336  0.31264947  1
  Se  Se198  1  0.57700603  0.90555756  0.81164609  1
  Se  Se199  1  0.92043932  0.24864058  0.29671728  1
  Se  Se200  1  0.92249022  0.26441654  0.80269773  1
  Se  Se201  1  0.90666864  0.57472994  0.30867914  1
  Se  Se202  1  0.91712384  0.58217690  0.81496643  1
  Se  Se203  1  0.91077826  0.90506029  0.30399889  1
  Se  Se204  1  0.90945036  0.91857867  0.80678940  1
  Se  Se205  1  0.09343312  0.09069049  0.31757264  1
  Se  Se206  1  0.08788000  0.09159185  0.81112197  1
  Se  Se207  1  0.08148323  0.41887192  0.30731470  1
  Se  Se208  1  0.08173648  0.41280684  0.79703520  1
  Se  Se209  1  0.08890643  0.75849510  0.31136270  1
  Se  Se210  1  0.09268461  0.75476329  0.80445756  1
  Se  Se211  1  0.43153172  0.09108632  0.29968127  1
  Se  Se212  1  0.41397057  0.07621638  0.80068753  1
  Se  Se213  1  0.42389621  0.42412997  0.30462304  1
  Se  Se214  1  0.43104883  0.41708697  0.82090519  1
  Se  Se215  1  0.41524443  0.75024744  0.30208229  1
  Se  Se216  1  0.41407645  0.74052046  0.80250068  1
  Se  Se217  1  0.75921303  0.08859291  0.30599314  1
  Se  Se218  1  0.75547851  0.09482493  0.80815062  1
  Se  Se219  1  0.74531715  0.41115926  0.29915987  1
  Se  Se220  1  0.75036101  0.42052429  0.81119287  1
  Se  Se221  1  0.75409515  0.75333438  0.31301334  1
  Se  Se222  1  0.75422922  0.75351182  0.79810633  1
  Se  Se223  1  0.25595669  0.09683074  0.20868552  1
  Se  Se224  1  0.24939301  0.07890260  0.69768793  1
  Se  Se225  1  0.24781022  0.42646711  0.18889783  1
  Se  Se226  1  0.24421568  0.41153752  0.68363371  1
  Se  Se227  1  0.25403407  0.75343703  0.19972878  1
  Se  Se228  1  0.25666700  0.73969336  0.69269592  1
  Se  Se229  1  0.59193386  0.09747824  0.17602342  1
  Se  Se230  1  0.57486014  0.08893857  0.68869909  1
  Se  Se231  1  0.58671441  0.41778833  0.18876476  1
  Se  Se232  1  0.59008604  0.41219404  0.70708152  1
  Se  Se233  1  0.57746683  0.75762758  0.19194042  1
  Se  Se234  1  0.58749809  0.74711003  0.69708762  1
  Se  Se235  1  0.90981797  0.08270145  0.18743831  1
  Se  Se236  1  0.90209138  0.09936732  0.69610438  1
  Se  Se237  1  0.92433900  0.41137702  0.19578530  1
  Se  Se238  1  0.91775115  0.42349102  0.69826167  1
  Se  Se239  1  0.90627867  0.75090359  0.19536655  1
  Se  Se240  1  0.91030752  0.76286679  0.69489113  1
  Se  Se241  1  0.09834205  0.23902420  0.20344303  1
  Se  Se242  1  0.08312763  0.25200647  0.69324676  1
  Se  Se243  1  0.08771325  0.57644644  0.18656252  1
  Se  Se244  1  0.09103156  0.57552372  0.68298505  1
  Se  Se245  1  0.09066916  0.91196194  0.19269970  1
  Se  Se246  1  0.08884709  0.90720309  0.68735241  1
  Se  Se247  1  0.42798435  0.25529377  0.18254730  1
  Se  Se248  1  0.42209778  0.24355280  0.69316000  1
  Se  Se249  1  0.41541931  0.59036742  0.19375940  1
  Se  Se250  1  0.42083259  0.57378107  0.70230231  1
  Se  Se251  1  0.41869774  0.92817098  0.19699540  1
  Se  Se252  1  0.41668745  0.91188467  0.69773214  1
  Se  Se253  1  0.74919130  0.25253429  0.18810679  1
  Se  Se254  1  0.74029105  0.26214599  0.70531845  1
  Se  Se255  1  0.75427425  0.57477743  0.18843373  1
  Se  Se256  1  0.75155362  0.58798050  0.70475292  1
  Se  Se257  1  0.75364483  0.90650948  0.19571742  1
  Se  Se258  1  0.75154362  0.91505943  0.68958490  1
