# generated using pymatgen
data_In86Cu29Se144
_symmetry_space_group_name_H-M   'P 1'
_cell_length_a   17.57987663
_cell_length_b   17.58107063
_cell_length_c   23.44231536
_cell_angle_alpha   89.96667590
_cell_angle_beta   89.98082718
_cell_angle_gamma   90.00988681
_symmetry_Int_Tables_number   1
_chemical_formula_structural   In86Cu29Se144
_chemical_formula_sum   'In86 Cu29 Se144'
_cell_volume   7245.38623180
_cell_formula_units_Z   1
loop_
 _symmetry_equiv_pos_site_id
 _symmetry_equiv_pos_as_xyz
  1  'x, y, z'
loop_
 _atom_site_type_symbol
 _atom_site_label
 _atom_site_symmetry_multiplicity
 _atom_site_fract_x
 _atom_site_fract_y
 _atom_site_fract_z
 _atom_site_occupancy
  In  In0  1  0.00653171  0.16602317  0.13948244  1
  In  In1  1  0.00457882  0.16126360  0.63059217  1
  In  In2  1  -0.00125350  0.50290591  0.12152392  1
  In  In3  1  0.00263604  0.50807435  0.62592314  1
  In  In4  1  0.00603005  0.83030314  0.12191576  1
  In  In5  1  -0.00162569  0.83009620  0.62464349  1
  In  In6  1  0.32518828  0.15922510  0.12578975  1
  In  In7  1  0.33681183  0.15628007  0.62723453  1
  In  In8  1  0.33342262  0.51410702  0.12426229  1
  In  In9  1  0.33072281  0.50350353  0.62400413  1
  In  In10  1  0.31097309  0.81215779  0.10763852  1
  In  In11  1  0.32021387  0.84093439  0.63156817  1
  In  In12  1  0.68051278  0.16800504  0.12800056  1
  In  In13  1  0.65647643  0.16388639  0.62187853  1
  In  In14  1  0.67647417  0.49148039  0.13456113  1
  In  In15  1  0.67297422  0.52118920  0.60584281  1
  In  In16  1  0.66621672  0.83826739  0.11757826  1
  In  In17  1  0.69480846  0.83075984  0.62452379  1
  In  In18  1  0.14832502  -0.00428350  0.37558712  1
  In  In19  1  0.14989011  -0.02260832  0.86446048  1
  In  In20  1  0.16588256  0.34251217  0.37367473  1
  In  In21  1  0.15123466  0.36268819  0.88517258  1
  In  In22  1  0.16488300  0.66836044  0.37559677  1
  In  In23  1  0.16380490  0.66824222  0.87171862  1
  In  In24  1  0.50902741  0.00503242  0.38164077  1
  In  In25  1  0.48632777  -0.01642580  0.85977841  1
  In  In26  1  0.50595681  0.32982835  0.38058409  1
  In  In27  1  0.49009616  0.33801115  0.87401004  1
  In  In28  1  0.48055131  0.66786079  0.37481158  1
  In  In29  1  0.49775565  0.67811020  0.87049519  1
  In  In30  1  0.84578158  -0.01749111  0.38300870  1
  In  In31  1  0.83146807  -0.00554310  0.86965322  1
  In  In32  1  0.84837336  0.34675983  0.36715184  1
  In  In33  1  0.84940170  0.33049083  0.87396531  1
  In  In34  1  0.84456833  0.65454788  0.38562608  1
  In  In35  1  0.86107171  0.65688475  0.90248736  1
  In  In36  1  -0.00223679  0.16132583  0.36648345  1
  In  In37  1  -0.00426496  0.16037527  0.86869786  1
  In  In38  1  0.00286537  0.50523719  0.37587594  1
  In  In39  1  0.00422952  0.49771251  0.87144477  1
  In  In40  1  0.00531622  0.83051108  0.37570512  1
  In  In41  1  0.00579674  0.83610739  0.88359996  1
  In  In42  1  0.33497226  0.17785835  0.38005121  1
  In  In43  1  0.33792929  0.16683973  0.87077283  1
  In  In44  1  0.31556408  0.50759465  0.38353808  1
  In  In45  1  0.27902302  0.51249226  0.88322148  1
  In  In46  1  0.33027002  0.81569824  0.37189882  1
  In  In47  1  0.32890568  0.82761934  0.86956178  1
  In  In48  1  0.65702242  0.16816410  0.37925840  1
  In  In49  1  0.68123153  0.16248840  0.87057307  1
  In  In50  1  0.68157191  0.49268884  0.38363104  1
  In  In51  1  0.67632364  0.51552866  0.87430949  1
  In  In52  1  0.67086541  0.84169717  0.37734792  1
  In  In53  1  0.66282884  0.82897360  0.87423830  1
  In  In54  1  0.16110724  -0.01011808  0.12325661  1
  In  In55  1  0.16805319  -0.00412670  0.63007669  1
  In  In56  1  0.14931075  0.32782861  0.12527045  1
  In  In57  1  0.15325349  0.34071236  0.62801157  1
  In  In58  1  0.16127168  0.66823174  0.12151719  1
  In  In59  1  0.16038440  0.66581597  0.62749721  1
  In  In60  1  0.50915665  -0.00448347  0.12173307  1
  In  In61  1  0.49478846  0.00524077  0.62877903  1
  In  In62  1  0.50543863  0.34654584  0.13233282  1
  In  In63  1  0.50248778  0.34027112  0.61734462  1
  In  In64  1  0.48707544  0.66709754  0.12449333  1
  In  In65  1  0.50026518  0.65365756  0.62326891  1
  In  In66  1  0.84925146  -0.00854880  0.11969534  1
  In  In67  1  0.85064800  -0.02185479  0.63830578  1
  In  In68  1  0.83300559  0.33783814  0.13138589  1
  In  In69  1  0.83804472  0.35209651  0.62344432  1
  In  In70  1  0.85682251  0.68545741  0.10757128  1
  In  In71  1  0.84279796  0.67780167  0.61352150  1
  In  In72  1  0.32964312  -0.00437783  0.24129143  1
  In  In73  1  0.67404273  0.67749789  0.74676889  1
  In  In74  1  0.16867918  0.17002040  0.50730112  1
  In  In75  1  0.32728249  0.33684113  0.25447378  1
  In  In76  1  0.49925264  0.83304792  0.50140259  1
  In  In77  1  0.16708116  0.16069642  0.00475957  1
  In  In78  1  0.83620508  0.16194623  -0.00301219  1
  In  In79  1  0.49670852  0.50473314  0.00090544  1
  In  In80  1  0.83284635  0.16478865  0.49624707  1
  In  In81  1  0.66870734  0.33183961  0.74036981  1
  In  In82  1  0.50188250  0.16435543  -0.00800276  1
  In  In83  1  0.67355168  0.00212490  0.25655873  1
  In  In84  1  0.32483643  0.33774204  0.74961416  1
  In  In85  1  0.67413015  0.66000768  0.25606083  1
  Cu  Cu86  1  -0.00259881  0.33667724  0.00116356  1
  Cu  Cu87  1  0.33812788  0.33825548  0.49903300  1
  Cu  Cu88  1  0.33297588  0.00147553  0.50626516  1
  Cu  Cu89  1  0.50362868  0.16172172  0.74903442  1
  Cu  Cu90  1  0.50117822  0.49886971  0.25271655  1
  Cu  Cu91  1  0.83160667  0.17141673  0.25170187  1
  Cu  Cu92  1  0.66701156  0.33779375  0.50124282  1
  Cu  Cu93  1  0.66466586  0.34097759  0.00690438  1
  Cu  Cu94  1  0.66037466  -0.00877509  -0.00764972  1
  Cu  Cu95  1  0.32376422  0.66671649  0.50224264  1
  Cu  Cu96  1  0.84428051  0.50648319  0.25029576  1
  Cu  Cu97  1  0.16209960  0.82815138  0.74997551  1
  Cu  Cu98  1  0.49786420  0.83670561  0.74664719  1
  Cu  Cu99  1  0.33365318  -0.00597787  -0.01111406  1
  Cu  Cu100  1  0.16220949  0.50710660  0.25125352  1
  Cu  Cu101  1  0.83719989  0.16012624  0.74826213  1
  Cu  Cu102  1  0.84623494  0.82966853  0.25019552  1
  Cu  Cu103  1  0.33007553  0.66838396  -0.00403867  1
  Cu  Cu104  1  0.16824215  0.16708945  0.75128617  1
  Cu  Cu105  1  0.00632320  0.66868191  0.50052665  1
  Cu  Cu106  1  0.16322592  0.82698064  0.24504664  1
  Cu  Cu107  1  0.49890156  0.17235828  0.25710383  1
  Cu  Cu108  1  0.84330412  0.82515186  0.75724677  1
  Cu  Cu109  1  0.66794445  0.66445203  -0.00050795  1
  Cu  Cu110  1  0.84159693  0.50462556  0.75140867  1
  Cu  Cu111  1  -0.00231444  0.34055229  0.49908233  1
  Cu  Cu112  1  0.49372527  0.49934137  0.74420651  1
  Cu  Cu113  1  0.67210356  -0.00038165  0.50244425  1
  Cu  Cu114  1  0.49335098  0.82682676  0.24408509  1
  Se  Se115  1  0.06755277  0.07654168  0.05961943  1
  Se  Se116  1  0.07642342  0.07344314  0.55671490  1
  Se  Se117  1  0.08402351  0.41746797  0.05345978  1
  Se  Se118  1  0.08151045  0.42184406  0.55371906  1
  Se  Se119  1  0.10171372  0.76661447  0.05177491  1
  Se  Se120  1  0.08688725  0.75350855  0.55484006  1
  Se  Se121  1  0.40942008  0.07452288  0.05368900  1
  Se  Se122  1  0.42083142  0.08581174  0.55250552  1
  Se  Se123  1  0.41092951  0.41036543  0.06096270  1
  Se  Se124  1  0.41647037  0.42458221  0.55396564  1
  Se  Se125  1  0.41950338  0.74870594  0.04752647  1
  Se  Se126  1  0.40582806  0.74765934  0.56213401  1
  Se  Se127  1  0.74008988  0.06970314  0.05516759  1
  Se  Se128  1  0.75381277  0.07594523  0.56477051  1
  Se  Se129  1  0.75376015  0.41809123  0.05787111  1
  Se  Se130  1  0.75364960  0.42145820  0.55015235  1
  Se  Se131  1  0.74694230  0.75220416  0.05177672  1
  Se  Se132  1  0.72893615  0.72697986  0.55326196  1
  Se  Se133  1  0.25575686  0.25786613  0.06053941  1
  Se  Se134  1  0.26048671  0.26189826  0.56597810  1
  Se  Se135  1  0.24898046  0.58534034  0.05220426  1
  Se  Se136  1  0.24273390  0.58253770  0.55656844  1
  Se  Se137  1  0.24999829  0.92271278  0.05082814  1
  Se  Se138  1  0.24683672  0.91850397  0.55473329  1
  Se  Se139  1  0.58739831  0.25295397  0.06095071  1
  Se  Se140  1  0.58433675  0.25214597  0.55221332  1
  Se  Se141  1  0.59147496  0.58587992  0.06524422  1
  Se  Se142  1  0.56981789  0.58291758  0.54368756  1
  Se  Se143  1  0.57608608  0.91122660  0.04731880  1
  Se  Se144  1  0.59132842  0.91916135  0.56376163  1
  Se  Se145  1  0.92227658  0.25072348  0.06124709  1
  Se  Se146  1  0.92308164  0.25458522  0.55914004  1
  Se  Se147  1  0.91698950  0.57920722  0.04830173  1
  Se  Se148  1  0.92024696  0.58324271  0.55119744  1
  Se  Se149  1  0.90792754  0.89602978  0.05007016  1
  Se  Se150  1  0.90493491  0.90232123  0.55557542  1
  Se  Se151  1  0.07620326  0.25371889  0.44179504  1
  Se  Se152  1  0.07469378  0.25016150  0.94230990  1
  Se  Se153  1  0.08777410  0.58267601  0.44680850  1
  Se  Se154  1  0.10042611  0.56700172  0.93809207  1
  Se  Se155  1  0.08974915  0.90624512  0.44826545  1
  Se  Se156  1  0.09370892  0.91476448  0.95274745  1
  Se  Se157  1  0.42044792  0.24983319  0.45071771  1
  Se  Se158  1  0.40496516  0.26043485  0.94651464  1
  Se  Se159  1  0.40844614  0.58495534  0.44867915  1
  Se  Se160  1  0.40804460  0.58582191  0.93418632  1
  Se  Se161  1  0.40747824  0.92202027  0.43887992  1
  Se  Se162  1  0.41760119  0.90895391  0.93913696  1
  Se  Se163  1  0.74886914  0.26197941  0.43774188  1
  Se  Se164  1  0.74258875  0.26018938  0.94405965  1
  Se  Se165  1  0.74292386  0.59218156  0.44917502  1
  Se  Se166  1  0.75443566  0.57764374  0.95389423  1
  Se  Se167  1  0.75302473  0.91264932  0.45205768  1
  Se  Se168  1  0.74842608  0.91422410  0.93955540  1
  Se  Se169  1  0.25386215  0.07918632  0.44150839  1
  Se  Se170  1  0.25131669  0.07774988  0.93477184  1
  Se  Se171  1  0.24370485  0.41381660  0.45079760  1
  Se  Se172  1  0.25981087  0.40311822  0.95259934  1
  Se  Se173  1  0.24530920  0.75277181  0.44760034  1
  Se  Se174  1  0.24633560  0.75191374  0.94262469  1
  Se  Se175  1  0.58595859  0.08489105  0.45424213  1
  Se  Se176  1  0.58672108  0.07382172  0.93020961  1
  Se  Se177  1  0.58279114  0.41962820  0.44697575  1
  Se  Se178  1  0.59053083  0.41516706  0.93855091  1
  Se  Se179  1  0.58332123  0.74654121  0.43557065  1
  Se  Se180  1  0.58296650  0.74449639  0.94525293  1
  Se  Se181  1  0.93164853  0.07480240  0.44653987  1
  Se  Se182  1  0.92606287  0.06891087  0.94283631  1
  Se  Se183  1  0.91548941  0.42478052  0.44600904  1
  Se  Se184  1  0.91660118  0.41864331  0.94492571  1
  Se  Se185  1  0.92014548  0.75089306  0.44711388  1
  Se  Se186  1  0.90634079  0.77712473  0.95598269  1
  Se  Se187  1  0.23833913  0.23895131  0.30822946  1
  Se  Se188  1  0.23761963  0.25156545  0.81516083  1
  Se  Se189  1  0.24958780  0.58621438  0.30455293  1
  Se  Se190  1  0.25228887  0.59589936  0.79830765  1
  Se  Se191  1  0.24460255  0.90746828  0.30623287  1
  Se  Se192  1  0.25060825  0.91388681  0.79916213  1
  Se  Se193  1  0.58654911  0.25362428  0.30570507  1
  Se  Se194  1  0.57868160  0.24729046  0.80878074  1
  Se  Se195  1  0.57815357  0.57761788  0.31624374  1
  Se  Se196  1  0.57916991  0.57997732  0.80238701  1
  Se  Se197  1  0.57054615  0.90835414  0.30495747  1
  Se  Se198  1  0.58869316  0.91241032  0.79979362  1
  Se  Se199  1  0.92036682  0.25267207  0.30148504  1
  Se  Se200  1  0.91818492  0.24766001  0.79963120  1
  Se  Se201  1  0.92314729  0.59099997  0.30531828  1
  Se  Se202  1  0.91439412  0.58900835  0.81210657  1
  Se  Se203  1  0.92424138  0.91722696  0.30435844  1
  Se  Se204  1  0.92424649  0.91399983  0.80795479  1
  Se  Se205  1  0.08132758  0.07803045  0.30124687  1
  Se  Se206  1  0.08362465  0.08097865  0.80230404  1
  Se  Se207  1  0.08188305  0.42023802  0.30417550  1
  Se  Se208  1  0.07471675  0.40776165  0.79984362  1
  Se  Se209  1  0.08185336  0.74610979  0.30341108  1
  Se  Se210  1  0.07625859  0.75242711  0.80748160  1
  Se  Se211  1  0.41873217  0.08460221  0.30953492  1
  Se  Se212  1  0.41275991  0.08354318  0.79897670  1
  Se  Se213  1  0.41797175  0.42347847  0.31570796  1
  Se  Se214  1  0.41274839  0.43038710  0.80990318  1
  Se  Se215  1  0.40975348  0.74367428  0.29575367  1
  Se  Se216  1  0.41541210  0.74989255  0.79716497  1
  Se  Se217  1  0.76241282  0.08965191  0.31900938  1
  Se  Se218  1  0.75041323  0.07816326  0.79815656  1
  Se  Se219  1  0.75560225  0.42504593  0.30207716  1
  Se  Se220  1  0.75551038  0.42118285  0.80621875  1
  Se  Se221  1  0.76098870  0.75764746  0.31212023  1
  Se  Se222  1  0.76633146  0.74244627  0.81935585  1
  Se  Se223  1  0.23166251  0.09079602  0.19494680  1
  Se  Se224  1  0.25026987  0.08372477  0.69709865  1
  Se  Se225  1  0.24283435  0.42553328  0.19000318  1
  Se  Se226  1  0.23421950  0.43172716  0.69559375  1
  Se  Se227  1  0.25062180  0.74486826  0.19361706  1
  Se  Se228  1  0.24763041  0.74688127  0.69685814  1
  Se  Se229  1  0.57783192  0.09060716  0.19526373  1
  Se  Se230  1  0.58815680  0.07964021  0.69693458  1
  Se  Se231  1  0.58971832  0.41623852  0.20552514  1
  Se  Se232  1  0.58498670  0.43219679  0.68512661  1
  Se  Se233  1  0.58517917  0.75069537  0.19126765  1
  Se  Se234  1  0.57853876  0.75930663  0.68378969  1
  Se  Se235  1  0.90641144  0.08423751  0.19409793  1
  Se  Se236  1  0.92449054  0.07680447  0.69919087  1
  Se  Se237  1  0.92216354  0.41870456  0.19531802  1
  Se  Se238  1  0.92230745  0.41977151  0.69726805  1
  Se  Se239  1  0.92462973  0.74700158  0.19362363  1
  Se  Se240  1  0.91766945  0.74381567  0.69513990  1
  Se  Se241  1  0.08124556  0.25610659  0.20468707  1
  Se  Se242  1  0.08441921  0.24862708  0.69693929  1
  Se  Se243  1  0.08061687  0.58580983  0.19192559  1
  Se  Se244  1  0.06443258  0.60224648  0.69743704  1
  Se  Se245  1  0.08033038  0.91513447  0.19665065  1
  Se  Se246  1  0.08088062  0.91330638  0.69523794  1
  Se  Se247  1  0.41893764  0.24436278  0.19155267  1
  Se  Se248  1  0.42605979  0.25059134  0.69248924  1
  Se  Se249  1  0.41879242  0.58183555  0.19921277  1
  Se  Se250  1  0.41098022  0.58645641  0.69545547  1
  Se  Se251  1  0.41770154  0.90556168  0.18069586  1
  Se  Se252  1  0.41239295  0.92106006  0.69546878  1
  Se  Se253  1  0.74749247  0.25488553  0.20013840  1
  Se  Se254  1  0.76256558  0.24155087  0.68399622  1
  Se  Se255  1  0.76780843  0.58830394  0.18771810  1
  Se  Se256  1  0.75849220  0.57986397  0.68904364  1
  Se  Se257  1  0.75739558  0.90889189  0.19434666  1
  Se  Se258  1  0.75496922  0.90848272  0.70643076  1
