# generated using pymatgen
data_In86Cu29Se144
_symmetry_space_group_name_H-M   'P 1'
_cell_length_a   17.58242535
_cell_length_b   17.57761766
_cell_length_c   23.43851980
_cell_angle_alpha   89.98493640
_cell_angle_beta   90.01211535
_cell_angle_gamma   89.99395243
_symmetry_Int_Tables_number   1
_chemical_formula_structural   In86Cu29Se144
_chemical_formula_sum   'In86 Cu29 Se144'
_cell_volume   7243.84168720
_cell_formula_units_Z   1
loop_
 _symmetry_equiv_pos_site_id
 _symmetry_equiv_pos_as_xyz
  1  'x, y, z'
loop_
 _atom_site_type_symbol
 _atom_site_label
 _atom_site_symmetry_multiplicity
 _atom_site_fract_x
 _atom_site_fract_y
 _atom_site_fract_z
 _atom_site_occupancy
  In  In0  1  0.00490607  0.16072726  0.12855805  1
  In  In1  1  -0.00806948  0.17911014  0.63354573  1
  In  In2  1  -0.01076589  0.48688726  0.11998147  1
  In  In3  1  0.00045858  0.50140811  0.62137481  1
  In  In4  1  0.01137815  0.82854861  0.12686693  1
  In  In5  1  0.00013682  0.83252519  0.62745297  1
  In  In6  1  0.33841914  0.17573470  0.11639213  1
  In  In7  1  0.32238886  0.16171758  0.62789818  1
  In  In8  1  0.32783416  0.51034434  0.13714803  1
  In  In9  1  0.32313297  0.50873141  0.61822403  1
  In  In10  1  0.32148090  0.83131526  0.12564775  1
  In  In11  1  0.32859061  0.84393135  0.61522858  1
  In  In12  1  0.66426585  0.16962364  0.12588474  1
  In  In13  1  0.67823507  0.15181275  0.63676213  1
  In  In14  1  0.66747715  0.48949243  0.12332489  1
  In  In15  1  0.67316884  0.48601336  0.62397309  1
  In  In16  1  0.67760179  0.83776295  0.12829782  1
  In  In17  1  0.67955970  0.83748661  0.62416248  1
  In  In18  1  0.15357880  0.00444155  0.38030228  1
  In  In19  1  0.16525834  -0.00045391  0.87512475  1
  In  In20  1  0.17399011  0.34074942  0.36477446  1
  In  In21  1  0.15699990  0.33995354  0.88346512  1
  In  In22  1  0.17356621  0.66484906  0.38707293  1
  In  In23  1  0.16020518  0.67452410  0.88153086  1
  In  In24  1  0.51141753  -0.00784213  0.37338055  1
  In  In25  1  0.51175696  0.02569726  0.85676400  1
  In  In26  1  0.50081695  0.34248157  0.35860635  1
  In  In27  1  0.50224176  0.30476862  0.87456437  1
  In  In28  1  0.48943882  0.66784945  0.36680937  1
  In  In29  1  0.50372791  0.67522296  0.87618838  1
  In  In30  1  0.83483578  0.00508224  0.37980225  1
  In  In31  1  0.83280455  -0.00275930  0.86762588  1
  In  In32  1  0.83671410  0.33214798  0.37224963  1
  In  In33  1  0.84181032  0.33803353  0.86983054  1
  In  In34  1  0.83817195  0.65960540  0.38390459  1
  In  In35  1  0.83628952  0.64841278  0.87678674  1
  In  In36  1  -0.00592624  0.15704780  0.37024690  1
  In  In37  1  0.00376702  0.17206360  0.87061682  1
  In  In38  1  0.00328705  0.49621527  0.37482854  1
  In  In39  1  -0.00040053  0.49785884  0.87388851  1
  In  In40  1  -0.00756291  0.83994304  0.38473633  1
  In  In41  1  0.01125656  0.84081148  0.86549429  1
  In  In42  1  0.32150664  0.17660015  0.37327891  1
  In  In43  1  0.34045483  0.15388900  0.88382305  1
  In  In44  1  0.32617703  0.49760418  0.36553104  1
  In  In45  1  0.32797678  0.48870093  0.87913154  1
  In  In46  1  0.33323821  0.82719616  0.37953416  1
  In  In47  1  0.31698154  0.83733957  0.87916643  1
  In  In48  1  0.67674917  0.18073965  0.36741739  1
  In  In49  1  0.65624834  0.16072069  0.86732725  1
  In  In50  1  0.68127762  0.49213949  0.37162508  1
  In  In51  1  0.68967930  0.49406892  0.88114014  1
  In  In52  1  0.66796480  0.84772122  0.37640960  1
  In  In53  1  0.65806041  0.84308494  0.87630745  1
  In  In54  1  0.16090297  -0.00980750  0.11781339  1
  In  In55  1  0.17141655  -0.01296184  0.63024753  1
  In  In56  1  0.16277307  0.33422665  0.12376979  1
  In  In57  1  0.15329359  0.33171654  0.62363044  1
  In  In58  1  0.17180723  0.67386226  0.12145264  1
  In  In59  1  0.15792613  0.65344531  0.61352068  1
  In  In60  1  0.50359895  0.01416129  0.11974530  1
  In  In61  1  0.49557983  0.00781801  0.63669883  1
  In  In62  1  0.50962950  0.32860917  0.13267463  1
  In  In63  1  0.50874855  0.33187360  0.63086632  1
  In  In64  1  0.49579947  0.63880972  0.13279437  1
  In  In65  1  0.49356911  0.67860009  0.62455521  1
  In  In66  1  0.83202807  0.00671623  0.13355253  1
  In  In67  1  0.83629036  0.00232646  0.62839407  1
  In  In68  1  0.82750911  0.34375210  0.13663944  1
  In  In69  1  0.83821144  0.33303436  0.62058464  1
  In  In70  1  0.84422104  0.66364998  0.12306511  1
  In  In71  1  0.84404299  0.67901339  0.61580350  1
  In  In72  1  0.49995913  0.49154263  0.00895430  1
  In  In73  1  0.49546685  0.83455740  -0.00151314  1
  In  In74  1  0.33254901  0.32312718  0.75237279  1
  In  In75  1  0.50157326  0.16581858  0.50715791  1
  In  In76  1  0.50071017  0.50125621  0.49325509  1
  In  In77  1  0.16084007  0.16553758  0.50029038  1
  In  In78  1  0.49833335  0.83356629  0.50079547  1
  In  In79  1  0.00212038  0.66420609  0.25840465  1
  In  In80  1  0.33379611  0.00620539  0.24887522  1
  In  In81  1  0.83628029  0.83012168  -0.00604353  1
  In  In82  1  0.66625417  0.66376347  0.24810675  1
  In  In83  1  0.67665425  0.66571930  0.75528135  1
  In  In84  1  0.32657545  0.66442862  0.74241779  1
  In  In85  1  0.83342849  0.16937874  0.00258044  1
  Cu  Cu86  1  0.66615449  0.66300267  0.49906434  1
  Cu  Cu87  1  0.83650126  0.16508390  0.25137326  1
  Cu  Cu88  1  0.16536073  0.17134358  0.24689538  1
  Cu  Cu89  1  0.33480715  0.34057376  0.49115749  1
  Cu  Cu90  1  -0.00432299  0.66895537  0.50036433  1
  Cu  Cu91  1  0.83705178  0.83512514  0.74572984  1
  Cu  Cu92  1  0.83514336  0.17076160  0.74967777  1
  Cu  Cu93  1  0.00635540  0.66003503  0.00051597  1
  Cu  Cu94  1  0.50817737  0.49446883  0.75164504  1
  Cu  Cu95  1  0.67508654  0.00496068  0.50259625  1
  Cu  Cu96  1  0.15809119  0.49836487  0.74969288  1
  Cu  Cu97  1  0.66535477  0.32842527  0.00242427  1
  Cu  Cu98  1  -0.00131436  0.33644780  -0.00124092  1
  Cu  Cu99  1  0.50051123  0.83523740  0.25130295  1
  Cu  Cu100  1  0.33296197  0.66000641  0.00430964  1
  Cu  Cu101  1  0.49607552  0.83888794  0.75146516  1
  Cu  Cu102  1  0.16447186  0.83702574  0.24837642  1
  Cu  Cu103  1  0.00323369  -0.00488082  -0.00043262  1
  Cu  Cu104  1  0.68255330  0.32857221  0.49856130  1
  Cu  Cu105  1  0.83382479  0.84320144  0.25800746  1
  Cu  Cu106  1  0.50395099  0.16553856  0.24648222  1
  Cu  Cu107  1  0.16187863  0.83237454  0.75025305  1
  Cu  Cu108  1  0.33021045  -0.00000217  -0.00196407  1
  Cu  Cu109  1  0.16399787  0.16135186  0.75330921  1
  Cu  Cu110  1  -0.00520004  -0.00031889  0.50590312  1
  Cu  Cu111  1  0.16079156  0.50196764  0.24919436  1
  Cu  Cu112  1  0.84273162  0.49738204  0.74637229  1
  Cu  Cu113  1  0.32388168  0.33121481  0.00254666  1
  Cu  Cu114  1  0.00046590  0.33749030  0.49810224  1
  Se  Se115  1  0.08180807  0.08234414  0.05340092  1
  Se  Se116  1  0.07565048  0.08074808  0.56667141  1
  Se  Se117  1  0.08404247  0.41891778  0.05194402  1
  Se  Se118  1  0.08596240  0.41911902  0.55104328  1
  Se  Se119  1  0.08470071  0.75112016  0.05116235  1
  Se  Se120  1  0.07911109  0.75113401  0.55461041  1
  Se  Se121  1  0.41486827  0.08404469  0.04960124  1
  Se  Se122  1  0.40571650  0.07388296  0.55818248  1
  Se  Se123  1  0.40434951  0.40799526  0.06659798  1
  Se  Se124  1  0.41509420  0.40941479  0.55979367  1
  Se  Se125  1  0.41541505  0.73872555  0.06417030  1
  Se  Se126  1  0.40106517  0.73851330  0.55025690  1
  Se  Se127  1  0.74378725  0.07453351  0.05729614  1
  Se  Se128  1  0.75712902  0.08774680  0.55666540  1
  Se  Se129  1  0.75145143  0.40994199  0.05408486  1
  Se  Se130  1  0.75867430  0.41994899  0.54969276  1
  Se  Se131  1  0.74734900  0.74328231  0.05844881  1
  Se  Se132  1  0.74653389  0.75096482  0.55081430  1
  Se  Se133  1  0.23942250  0.24586595  0.05304878  1
  Se  Se134  1  0.25766553  0.26020307  0.55525288  1
  Se  Se135  1  0.24917780  0.57882656  0.05770193  1
  Se  Se136  1  0.24842311  0.58226032  0.54407459  1
  Se  Se137  1  0.25052443  0.91210090  0.05029104  1
  Se  Se138  1  0.24125635  0.91915385  0.54792144  1
  Se  Se139  1  0.57976494  0.24817024  0.05508663  1
  Se  Se140  1  0.59892747  0.25438242  0.56093239  1
  Se  Se141  1  0.59331441  0.59072894  0.05612144  1
  Se  Se142  1  0.58588747  0.58937420  0.56278440  1
  Se  Se143  1  0.59044364  0.92012215  0.05774297  1
  Se  Se144  1  0.58738662  0.92745579  0.56046400  1
  Se  Se145  1  0.92071873  0.25861885  0.06345907  1
  Se  Se146  1  0.92180992  0.24925042  0.55146208  1
  Se  Se147  1  0.91749997  0.58060317  0.05093371  1
  Se  Se148  1  0.91402258  0.58096563  0.55179205  1
  Se  Se149  1  0.91980198  0.91980959  0.06118817  1
  Se  Se150  1  0.91314230  0.91410112  0.55918232  1
  Se  Se151  1  0.08055359  0.25747026  0.43562417  1
  Se  Se152  1  0.07867929  0.24708419  0.94828759  1
  Se  Se153  1  0.07671941  0.58476525  0.44524448  1
  Se  Se154  1  0.08669130  0.57695616  0.94395060  1
  Se  Se155  1  0.08060634  0.91963555  0.45226168  1
  Se  Se156  1  0.08551040  0.91160589  0.94514749  1
  Se  Se157  1  0.41884402  0.25723726  0.43887543  1
  Se  Se158  1  0.41155858  0.25004881  0.95070438  1
  Se  Se159  1  0.40565799  0.59002417  0.43946801  1
  Se  Se160  1  0.41477412  0.58642636  0.94142891  1
  Se  Se161  1  0.41216188  0.92938980  0.44226327  1
  Se  Se162  1  0.41376101  0.92580688  0.93480311  1
  Se  Se163  1  0.76136465  0.24328455  0.44481139  1
  Se  Se164  1  0.74587328  0.25429733  0.93723271  1
  Se  Se165  1  0.74780564  0.57733756  0.44718697  1
  Se  Se166  1  0.75061324  0.58614791  0.95184281  1
  Se  Se167  1  0.75370256  0.91714078  0.44916667  1
  Se  Se168  1  0.74333495  0.92842572  0.94476466  1
  Se  Se169  1  0.25811026  0.07875748  0.44325990  1
  Se  Se170  1  0.24260259  0.08307223  0.94783584  1
  Se  Se171  1  0.24714883  0.42046491  0.44103661  1
  Se  Se172  1  0.24391320  0.41981751  0.95230934  1
  Se  Se173  1  0.23788342  0.76835441  0.44909222  1
  Se  Se174  1  0.25209494  0.74618877  0.95082003  1
  Se  Se175  1  0.59285666  0.08232651  0.44161686  1
  Se  Se176  1  0.57934370  0.08602335  0.94241873  1
  Se  Se177  1  0.58992907  0.40221516  0.44195384  1
  Se  Se178  1  0.58507901  0.40769633  0.93897803  1
  Se  Se179  1  0.58704596  0.74209321  0.43730951  1
  Se  Se180  1  0.59680125  0.74187743  0.94752543  1
  Se  Se181  1  0.91894080  0.08687128  0.44973420  1
  Se  Se182  1  0.92087344  0.07576477  0.94170311  1
  Se  Se183  1  0.91564327  0.41767224  0.44313950  1
  Se  Se184  1  0.91407398  0.41878171  0.94535211  1
  Se  Se185  1  0.90966465  0.75311754  0.45017132  1
  Se  Se186  1  0.93006450  0.74213933  0.93648725  1
  Se  Se187  1  0.25355635  0.25395769  0.29555899  1
  Se  Se188  1  0.24080269  0.24318083  0.81671197  1
  Se  Se189  1  0.23867940  0.58837471  0.30523867  1
  Se  Se190  1  0.24393277  0.57517265  0.80874519  1
  Se  Se191  1  0.24442328  0.91773947  0.31037017  1
  Se  Se192  1  0.24634046  0.91579008  0.80283604  1
  Se  Se193  1  0.58593122  0.25251324  0.29843738  1
  Se  Se194  1  0.59328587  0.25778594  0.79797659  1
  Se  Se195  1  0.57925921  0.57434481  0.31074774  1
  Se  Se196  1  0.58212792  0.57587344  0.81401508  1
  Se  Se197  1  0.58907092  0.91792003  0.29820756  1
  Se  Se198  1  0.58508270  0.91957332  0.80060622  1
  Se  Se199  1  0.92114106  0.24909210  0.30293365  1
  Se  Se200  1  0.92124747  0.25334714  0.80128849  1
  Se  Se201  1  0.90366219  0.57280275  0.30636708  1
  Se  Se202  1  0.92110752  0.58287523  0.80152525  1
  Se  Se203  1  0.92069824  0.92305983  0.31016852  1
  Se  Se204  1  0.91993051  0.91858314  0.80057224  1
  Se  Se205  1  0.08773246  0.08450421  0.30195358  1
  Se  Se206  1  0.07869014  0.07822329  0.80541921  1
  Se  Se207  1  0.07879618  0.41590970  0.30046747  1
  Se  Se208  1  0.08107560  0.41174685  0.80464006  1
  Se  Se209  1  0.08796331  0.76026261  0.31450046  1
  Se  Se210  1  0.08369612  0.74206741  0.80141380  1
  Se  Se211  1  0.42523553  0.09223592  0.31282300  1
  Se  Se212  1  0.40223162  0.08432535  0.79945908  1
  Se  Se213  1  0.40647747  0.41571937  0.29709171  1
  Se  Se214  1  0.42451820  0.41761155  0.81080304  1
  Se  Se215  1  0.41104937  0.75667837  0.30101791  1
  Se  Se216  1  0.41579012  0.75453231  0.80702152  1
  Se  Se217  1  0.75214891  0.08260384  0.30640792  1
  Se  Se218  1  0.75244300  0.08607433  0.80302981  1
  Se  Se219  1  0.74277656  0.39960526  0.30184111  1
  Se  Se220  1  0.75509102  0.41862757  0.80051881  1
  Se  Se221  1  0.75559552  0.75348827  0.31233291  1
  Se  Se222  1  0.76173215  0.76048370  0.81537938  1
  Se  Se223  1  0.24361054  0.08898212  0.18491563  1
  Se  Se224  1  0.24640778  0.07939828  0.69854444  1
  Se  Se225  1  0.24304695  0.41697399  0.19558273  1
  Se  Se226  1  0.24665712  0.42107302  0.69255939  1
  Se  Se227  1  0.24760535  0.74976545  0.19940839  1
  Se  Se228  1  0.23944427  0.75581371  0.68400706  1
  Se  Se229  1  0.58702190  0.08045490  0.19583633  1
  Se  Se230  1  0.58252579  0.08394527  0.70228548  1
  Se  Se231  1  0.56967268  0.43559780  0.19307792  1
  Se  Se232  1  0.59216829  0.41349116  0.69889698  1
  Se  Se233  1  0.57474987  0.75405522  0.18678177  1
  Se  Se234  1  0.58082643  0.75615081  0.69551523  1
  Se  Se235  1  0.92227989  0.08119558  0.20001825  1
  Se  Se236  1  0.91873748  0.08414368  0.69880138  1
  Se  Se237  1  0.92232017  0.41638206  0.20116669  1
  Se  Se238  1  0.92320684  0.41350569  0.69075467  1
  Se  Se239  1  0.91052649  0.75916904  0.19750307  1
  Se  Se240  1  0.91793798  0.74615565  0.69692543  1
  Se  Se241  1  0.07943029  0.25344727  0.19495689  1
  Se  Se242  1  0.08657476  0.25180513  0.70105191  1
  Se  Se243  1  0.08322489  0.58253115  0.18681613  1
  Se  Se244  1  0.08212900  0.58443987  0.69314591  1
  Se  Se245  1  0.08112642  0.92039840  0.19641504  1
  Se  Se246  1  0.07802046  0.91778222  0.69876606  1
  Se  Se247  1  0.41650727  0.24573163  0.19425726  1
  Se  Se248  1  0.42451094  0.23656005  0.69171185  1
  Se  Se249  1  0.40748623  0.58872964  0.20973161  1
  Se  Se250  1  0.42710036  0.57127678  0.69063513  1
  Se  Se251  1  0.42229986  0.91469804  0.18699551  1
  Se  Se252  1  0.41074853  0.91148763  0.69223439  1
  Se  Se253  1  0.75067888  0.24524441  0.19587250  1
  Se  Se254  1  0.75486237  0.25409851  0.69289030  1
  Se  Se255  1  0.75977284  0.57669005  0.19044935  1
  Se  Se256  1  0.75994914  0.58019409  0.68768728  1
  Se  Se257  1  0.74954915  0.92106768  0.20103153  1
  Se  Se258  1  0.74987648  0.91983324  0.69821816  1
