# generated using pymatgen
data_In86Cu29Se144
_symmetry_space_group_name_H-M   'P 1'
_cell_length_a   17.57609074
_cell_length_b   17.57481819
_cell_length_c   23.43608804
_cell_angle_alpha   90.01643493
_cell_angle_beta   89.99932038
_cell_angle_gamma   90.01441526
_symmetry_Int_Tables_number   1
_chemical_formula_structural   In86Cu29Se144
_chemical_formula_sum   'In86 Cu29 Se144'
_cell_volume   7239.32736892
_cell_formula_units_Z   1
loop_
 _symmetry_equiv_pos_site_id
 _symmetry_equiv_pos_as_xyz
  1  'x, y, z'
loop_
 _atom_site_type_symbol
 _atom_site_label
 _atom_site_symmetry_multiplicity
 _atom_site_fract_x
 _atom_site_fract_y
 _atom_site_fract_z
 _atom_site_occupancy
  In  In0  1  0.00513878  0.16228070  0.12858081  1
  In  In1  1  0.00061467  0.16791856  0.62446957  1
  In  In2  1  -0.01378478  0.49812866  0.13164235  1
  In  In3  1  0.00125560  0.49760462  0.62458390  1
  In  In4  1  0.00632281  0.84978837  0.12627047  1
  In  In5  1  0.00350824  0.83833576  0.64075506  1
  In  In6  1  0.33433111  0.16955445  0.10664840  1
  In  In7  1  0.34390331  0.17173821  0.61668352  1
  In  In8  1  0.35085288  0.49676120  0.12684490  1
  In  In9  1  0.31990932  0.49646319  0.61363543  1
  In  In10  1  0.32441975  0.82797011  0.13226138  1
  In  In11  1  0.33861166  0.81824721  0.61724026  1
  In  In12  1  0.65358892  0.16091687  0.12715495  1
  In  In13  1  0.65968860  0.15483912  0.62012122  1
  In  In14  1  0.66274027  0.50755151  0.12801972  1
  In  In15  1  0.67720424  0.50910446  0.61763530  1
  In  In16  1  0.67925622  0.82730214  0.13556852  1
  In  In17  1  0.65778586  0.84017762  0.62915992  1
  In  In18  1  0.16904344  0.01375792  0.37800921  1
  In  In19  1  0.17160672  0.01503777  0.87094506  1
  In  In20  1  0.16672731  0.33156638  0.38011758  1
  In  In21  1  0.16192748  0.32895888  0.86648762  1
  In  In22  1  0.16580459  0.65138444  0.38001356  1
  In  In23  1  0.15874267  0.67913887  0.86684622  1
  In  In24  1  0.50679350  -0.00885964  0.38637672  1
  In  In25  1  0.50438222  0.00293946  0.87360691  1
  In  In26  1  0.49587609  0.33545276  0.38513015  1
  In  In27  1  0.48659710  0.33971176  0.88657685  1
  In  In28  1  0.50450227  0.66461770  0.37522559  1
  In  In29  1  0.49919816  0.65067397  0.87242437  1
  In  In30  1  0.84302761  0.00200649  0.36118279  1
  In  In31  1  0.82102629  -0.00318446  0.86990518  1
  In  In32  1  0.84229304  0.32046692  0.38510545  1
  In  In33  1  0.83723391  0.32330607  0.87037748  1
  In  In34  1  0.81702050  0.66981970  0.37297024  1
  In  In35  1  0.83675941  0.67497127  0.86716350  1
  In  In36  1  0.00144356  0.16476634  0.37549997  1
  In  In37  1  0.00743025  0.17723214  0.86528686  1
  In  In38  1  0.01457846  0.48456479  0.38649596  1
  In  In39  1  0.00095328  0.50126176  0.86442968  1
  In  In40  1  -0.01688897  0.84331175  0.36916798  1
  In  In41  1  -0.01120234  0.82698164  0.86349302  1
  In  In42  1  0.33210669  0.15354161  0.39546039  1
  In  In43  1  0.31584594  0.17871179  0.89174002  1
  In  In44  1  0.32922142  0.51087995  0.38624709  1
  In  In45  1  0.34957316  0.50025948  0.87451348  1
  In  In46  1  0.36103719  0.83120629  0.38472267  1
  In  In47  1  0.33627853  0.84005473  0.87485133  1
  In  In48  1  0.67568830  0.16051998  0.38185907  1
  In  In49  1  0.66594934  0.16371428  0.87425325  1
  In  In50  1  0.65643050  0.50584467  0.38423141  1
  In  In51  1  0.64835813  0.49899532  0.87193830  1
  In  In52  1  0.66691871  0.82398518  0.36257833  1
  In  In53  1  0.67379905  0.84463326  0.86927600  1
  In  In54  1  0.15890129  0.00649208  0.12345115  1
  In  In55  1  0.14808156  -0.00329499  0.62616750  1
  In  In56  1  0.17199454  0.31630621  0.12321303  1
  In  In57  1  0.16811750  0.33298314  0.62632910  1
  In  In58  1  0.16712761  0.68165040  0.13231041  1
  In  In59  1  0.17105334  0.65613997  0.62556773  1
  In  In60  1  0.50456855  0.01443521  0.12730127  1
  In  In61  1  0.50435964  0.00837086  0.61695921  1
  In  In62  1  0.49636867  0.32950740  0.10602067  1
  In  In63  1  0.49104979  0.32680356  0.62024781  1
  In  In64  1  0.50776932  0.66363645  0.13086584  1
  In  In65  1  0.50230913  0.67620551  0.61574380  1
  In  In66  1  0.84288079  -0.01020322  0.13566465  1
  In  In67  1  0.82992519  0.00274366  0.62780910  1
  In  In68  1  0.83939192  0.34403543  0.13006926  1
  In  In69  1  0.84252208  0.34069361  0.61870284  1
  In  In70  1  0.81911651  0.66268700  0.12746404  1
  In  In71  1  0.84140110  0.66170202  0.62851662  1
  In  In72  1  0.33127136  0.33256482  0.24939817  1
  In  In73  1  -0.00364173  0.66717939  0.25514133  1
  In  In74  1  0.16927307  0.83235357  0.50247885  1
  In  In75  1  0.82617487  0.16701945  -0.00588804  1
  In  In76  1  0.33281122  0.00053196  0.74822285  1
  In  In77  1  0.33532542  -0.00138675  0.25331133  1
  In  In78  1  0.67159611  0.33159575  0.74891533  1
  In  In79  1  0.50058686  0.83964138  -0.00567221  1
  In  In80  1  0.82302011  0.49895721  0.00301166  1
  In  In81  1  0.33128596  0.66007632  0.74188041  1
  In  In82  1  0.83070148  0.83330267  0.49501135  1
  In  In83  1  0.16829167  0.49646402  -0.00072449  1
  In  In84  1  0.16677288  0.84667075  -0.00418912  1
  In  In85  1  0.66922976  0.33276875  0.24832858  1
  Cu  Cu86  1  0.33029285  0.33529669  0.50155670  1
  Cu  Cu87  1  0.82438879  0.83564312  0.74801539  1
  Cu  Cu88  1  -0.00308659  0.00522563  0.00061616  1
  Cu  Cu89  1  0.83523887  0.50463117  0.74266821  1
  Cu  Cu90  1  0.66304965  0.67101251  0.49738450  1
  Cu  Cu91  1  0.50349684  0.50697884  0.25369216  1
  Cu  Cu92  1  0.16783012  0.49743532  0.25960237  1
  Cu  Cu93  1  0.66292903  0.66783213  0.00352140  1
  Cu  Cu94  1  0.16849087  0.17048559  0.74743880  1
  Cu  Cu95  1  0.66754859  -0.00085084  0.50035191  1
  Cu  Cu96  1  0.49731133  0.16658496  0.74461633  1
  Cu  Cu97  1  0.50736948  0.82826655  0.25389812  1
  Cu  Cu98  1  0.83911637  0.16470317  0.25639366  1
  Cu  Cu99  1  -0.00605877  0.00524111  0.49851158  1
  Cu  Cu100  1  0.49803540  0.16949281  0.25124022  1
  Cu  Cu101  1  0.33514417  0.66281881  0.00281645  1
  Cu  Cu102  1  0.16372715  0.16578020  0.25156198  1
  Cu  Cu103  1  0.00282158  0.33019060  -0.00426252  1
  Cu  Cu104  1  0.66542196  0.32991587  0.50539406  1
  Cu  Cu105  1  0.67124740  -0.00543355  -0.00068794  1
  Cu  Cu106  1  0.16532021  0.49574677  0.74455229  1
  Cu  Cu107  1  0.00352668  0.32913283  0.50356507  1
  Cu  Cu108  1  0.83747681  0.16253947  0.74716407  1
  Cu  Cu109  1  0.50129117  0.49421706  0.74748333  1
  Cu  Cu110  1  0.83525225  0.49457448  0.25837569  1
  Cu  Cu111  1  0.50462417  0.83103982  0.74752181  1
  Cu  Cu112  1  -0.00709018  0.67639250  -0.00785095  1
  Cu  Cu113  1  -0.00073041  0.65817477  0.50471775  1
  Cu  Cu114  1  0.17213225  0.83377969  0.25427964  1
  Se  Se115  1  0.08256219  0.08877688  0.05104745  1
  Se  Se116  1  0.08047960  0.08362054  0.55257010  1
  Se  Se117  1  0.07243765  0.41330480  0.06139813  1
  Se  Se118  1  0.08550992  0.41569790  0.55601964  1
  Se  Se119  1  0.07844556  0.74894608  0.05456482  1
  Se  Se120  1  0.07219258  0.74739481  0.56280695  1
  Se  Se121  1  0.42340048  0.08018657  0.05215418  1
  Se  Se122  1  0.41434363  0.07914808  0.54912275  1
  Se  Se123  1  0.40232032  0.41124003  0.04823612  1
  Se  Se124  1  0.41667785  0.41819306  0.55252096  1
  Se  Se125  1  0.41337193  0.74904819  0.05970737  1
  Se  Se126  1  0.41863783  0.74909941  0.54288332  1
  Se  Se127  1  0.74931136  0.07579215  0.06161743  1
  Se  Se128  1  0.75334990  0.08100679  0.55275670  1
  Se  Se129  1  0.73662087  0.40542904  0.06211112  1
  Se  Se130  1  0.75236224  0.41699718  0.55165213  1
  Se  Se131  1  0.74855530  0.74939149  0.05528776  1
  Se  Se132  1  0.74532936  0.74729575  0.56070074  1
  Se  Se133  1  0.25006599  0.25583631  0.04403215  1
  Se  Se134  1  0.24851069  0.25073396  0.55510641  1
  Se  Se135  1  0.24985815  0.59119655  0.06379569  1
  Se  Se136  1  0.25736205  0.59883451  0.54966369  1
  Se  Se137  1  0.26005771  0.92541892  0.06184909  1
  Se  Se138  1  0.25321209  0.92322956  0.56465334  1
  Se  Se139  1  0.59095679  0.24537430  0.05252331  1
  Se  Se140  1  0.57991103  0.24511577  0.55521660  1
  Se  Se141  1  0.58023405  0.58255259  0.05478937  1
  Se  Se142  1  0.58431733  0.58481467  0.55206189  1
  Se  Se143  1  0.59006630  0.91800126  0.06237607  1
  Se  Se144  1  0.58316340  0.91491756  0.55188068  1
  Se  Se145  1  0.91814565  0.25536965  0.05708135  1
  Se  Se146  1  0.91574394  0.24594881  0.55316129  1
  Se  Se147  1  0.92167021  0.59237706  0.05625175  1
  Se  Se148  1  0.91215207  0.57661400  0.55516903  1
  Se  Se149  1  0.91802791  0.91929052  0.05450235  1
  Se  Se150  1  0.92321974  0.91639669  0.55891005  1
  Se  Se151  1  0.08390996  0.24568902  0.44624333  1
  Se  Se152  1  0.08601417  0.24925695  0.94240534  1
  Se  Se153  1  0.08773560  0.57688417  0.45494324  1
  Se  Se154  1  0.07713467  0.59201756  0.94018267  1
  Se  Se155  1  0.07272603  0.91887908  0.44090624  1
  Se  Se156  1  0.07116053  0.92549108  0.93391385  1
  Se  Se157  1  0.41573597  0.24911439  0.45208906  1
  Se  Se158  1  0.43459470  0.22697931  0.94444731  1
  Se  Se159  1  0.43795181  0.56962141  0.44388988  1
  Se  Se160  1  0.42031314  0.58180402  0.95057589  1
  Se  Se161  1  0.39842685  0.94031391  0.45097256  1
  Se  Se162  1  0.40413414  0.93375877  0.94476293  1
  Se  Se163  1  0.75050783  0.24696693  0.45235810  1
  Se  Se164  1  0.73709495  0.26586055  0.94161173  1
  Se  Se165  1  0.74969331  0.58592859  0.44836392  1
  Se  Se166  1  0.74187266  0.59011417  0.93826248  1
  Se  Se167  1  0.74513001  0.92385365  0.43397711  1
  Se  Se168  1  0.75521257  0.91242141  0.94720819  1
  Se  Se169  1  0.23493853  0.08478051  0.45911670  1
  Se  Se170  1  0.24528273  0.07723742  0.95184210  1
  Se  Se171  1  0.24728805  0.41805724  0.44722922  1
  Se  Se172  1  0.25464021  0.41234843  0.93494244  1
  Se  Se173  1  0.25603181  0.74535036  0.43889122  1
  Se  Se174  1  0.25675299  0.74306521  0.94228867  1
  Se  Se175  1  0.58381443  0.08644546  0.44933199  1
  Se  Se176  1  0.58992016  0.07804096  0.94519209  1
  Se  Se177  1  0.58301750  0.41483590  0.45187674  1
  Se  Se178  1  0.57983477  0.42097318  0.94706039  1
  Se  Se179  1  0.58657546  0.75654357  0.44066095  1
  Se  Se180  1  0.58746465  0.74436461  0.93649641  1
  Se  Se181  1  0.91051894  0.08161046  0.44019025  1
  Se  Se182  1  0.92127220  0.08273263  0.93443977  1
  Se  Se183  1  0.91790909  0.41337536  0.45122070  1
  Se  Se184  1  0.92093605  0.41459717  0.94071881  1
  Se  Se185  1  0.92540546  0.73888193  0.44024303  1
  Se  Se186  1  0.90847710  0.75848088  0.94222765  1
  Se  Se187  1  0.25188016  0.23652502  0.31278425  1
  Se  Se188  1  0.25515701  0.24678775  0.80452873  1
  Se  Se189  1  0.25333548  0.58269474  0.30650022  1
  Se  Se190  1  0.24330753  0.57447115  0.81021607  1
  Se  Se191  1  0.25075620  0.91010084  0.31851131  1
  Se  Se192  1  0.24063271  0.90792813  0.80650791  1
  Se  Se193  1  0.57810585  0.24855995  0.31244225  1
  Se  Se194  1  0.57521194  0.24830506  0.80738122  1
  Se  Se195  1  0.59253987  0.58609857  0.30423527  1
  Se  Se196  1  0.58287243  0.58413920  0.79572567  1
  Se  Se197  1  0.58092031  0.92066654  0.30667227  1
  Se  Se198  1  0.58099064  0.91927231  0.80266057  1
  Se  Se199  1  0.92058634  0.25181199  0.30630873  1
  Se  Se200  1  0.91819979  0.25298189  0.79591298  1
  Se  Se201  1  0.91665604  0.57292016  0.31937311  1
  Se  Se202  1  0.91681108  0.58697309  0.80069127  1
  Se  Se203  1  0.91077736  0.91106669  0.29036870  1
  Se  Se204  1  0.90861983  0.92004670  0.80107992  1
  Se  Se205  1  0.08218046  0.07962467  0.30375589  1
  Se  Se206  1  0.08463418  0.08587414  0.79912330  1
  Se  Se207  1  0.08532744  0.40969182  0.30656628  1
  Se  Se208  1  0.08047104  0.41373370  0.79881158  1
  Se  Se209  1  0.08957454  0.75652054  0.31545716  1
  Se  Se210  1  0.07782968  0.75143846  0.79572551  1
  Se  Se211  1  0.42090376  0.09062411  0.31464237  1
  Se  Se212  1  0.41607650  0.09276410  0.81016159  1
  Se  Se213  1  0.42096015  0.42233367  0.30956569  1
  Se  Se214  1  0.41956356  0.41236630  0.80255082  1
  Se  Se215  1  0.42012607  0.74770221  0.30528818  1
  Se  Se216  1  0.42075364  0.75293604  0.80678136  1
  Se  Se217  1  0.74655952  0.08556963  0.30299373  1
  Se  Se218  1  0.74684688  0.08747748  0.80117020  1
  Se  Se219  1  0.75228256  0.41581751  0.31791992  1
  Se  Se220  1  0.75872293  0.42719994  0.80947852  1
  Se  Se221  1  0.76586370  0.75920077  0.29648823  1
  Se  Se222  1  0.74293951  0.74969484  0.80151961  1
  Se  Se223  1  0.25169582  0.09345788  0.19006539  1
  Se  Se224  1  0.24575105  0.08983479  0.68538415  1
  Se  Se225  1  0.24153766  0.42404582  0.18882134  1
  Se  Se226  1  0.25477062  0.41728677  0.69369721  1
  Se  Se227  1  0.25513445  0.74488317  0.20742040  1
  Se  Se228  1  0.24168442  0.75950375  0.69218219  1
  Se  Se229  1  0.58426178  0.08233270  0.20555413  1
  Se  Se230  1  0.58098233  0.07965212  0.69622569  1
  Se  Se231  1  0.56985882  0.41632661  0.19042500  1
  Se  Se232  1  0.58379486  0.41848885  0.68508523  1
  Se  Se233  1  0.59019252  0.74475931  0.19951196  1
  Se  Se234  1  0.58324310  0.74411616  0.69402960  1
  Se  Se235  1  0.92199375  0.08359201  0.19815888  1
  Se  Se236  1  0.92116542  0.08000225  0.69373773  1
  Se  Se237  1  0.92082991  0.41225956  0.20697643  1
  Se  Se238  1  0.91795886  0.41572980  0.69567676  1
  Se  Se239  1  0.91757908  0.75151308  0.18486008  1
  Se  Se240  1  0.91186983  0.75219657  0.69863021  1
  Se  Se241  1  0.08396152  0.25131488  0.19699568  1
  Se  Se242  1  0.08220525  0.25196848  0.69455223  1
  Se  Se243  1  0.08982156  0.57666869  0.19388280  1
  Se  Se244  1  0.08250058  0.58294703  0.69496540  1
  Se  Se245  1  0.09378541  0.91893048  0.19890701  1
  Se  Se246  1  0.08148227  0.92485760  0.70686126  1
  Se  Se247  1  0.42117703  0.24501723  0.18717355  1
  Se  Se248  1  0.41221368  0.25126005  0.69575200  1
  Se  Se249  1  0.41724482  0.58642356  0.19883271  1
  Se  Se250  1  0.42409908  0.57361674  0.68367309  1
  Se  Se251  1  0.42734535  0.90884092  0.19179920  1
  Se  Se252  1  0.42193749  0.90856450  0.68731909  1
  Se  Se253  1  0.76043075  0.23973686  0.18964660  1
  Se  Se254  1  0.75641923  0.24207487  0.68519679  1
  Se  Se255  1  0.75287691  0.57396102  0.20096521  1
  Se  Se256  1  0.74700063  0.58774542  0.69571075  1
  Se  Se257  1  0.73592832  0.93371962  0.19724388  1
  Se  Se258  1  0.74375649  0.92212114  0.69536190  1
