# generated using pymatgen
data_In86Cu29Se144
_symmetry_space_group_name_H-M   'P 1'
_cell_length_a   17.57671878
_cell_length_b   17.57797722
_cell_length_c   23.43778201
_cell_angle_alpha   89.99192571
_cell_angle_beta   90.01648788
_cell_angle_gamma   90.00477199
_symmetry_Int_Tables_number   1
_chemical_formula_structural   In86Cu29Se144
_chemical_formula_sum   'In86 Cu29 Se144'
_cell_volume   7241.41084977
_cell_formula_units_Z   1
loop_
 _symmetry_equiv_pos_site_id
 _symmetry_equiv_pos_as_xyz
  1  'x, y, z'
loop_
 _atom_site_type_symbol
 _atom_site_label
 _atom_site_symmetry_multiplicity
 _atom_site_fract_x
 _atom_site_fract_y
 _atom_site_fract_z
 _atom_site_occupancy
  In  In0  1  0.00202622  0.15931785  0.11900323  1
  In  In1  1  0.00170321  0.16324097  0.63089334  1
  In  In2  1  0.00114734  0.51442312  0.12431374  1
  In  In3  1  -0.01891387  0.49710031  0.62148655  1
  In  In4  1  -0.00635799  0.83267272  0.11461538  1
  In  In5  1  0.01016922  0.84495253  0.63198288  1
  In  In6  1  0.33602382  0.17375921  0.11507547  1
  In  In7  1  0.33812316  0.16795838  0.62629162  1
  In  In8  1  0.32234459  0.49181751  0.12560762  1
  In  In9  1  0.33243412  0.50173917  0.63793738  1
  In  In10  1  0.33488690  0.82443381  0.10391258  1
  In  In11  1  0.33686675  0.83107587  0.63979482  1
  In  In12  1  0.65237346  0.17436336  0.13170860  1
  In  In13  1  0.66479925  0.17008533  0.61474546  1
  In  In14  1  0.67936519  0.49274847  0.13651974  1
  In  In15  1  0.68162408  0.49984756  0.62322077  1
  In  In16  1  0.66579562  0.83216547  0.12722862  1
  In  In17  1  0.64948827  0.83875799  0.62672115  1
  In  In18  1  0.17392753  0.00133068  0.37817697  1
  In  In19  1  0.17408826  -0.00131215  0.87277294  1
  In  In20  1  0.16242763  0.31728540  0.37630335  1
  In  In21  1  0.15603647  0.32113810  0.86996964  1
  In  In22  1  0.14935080  0.67586009  0.36862706  1
  In  In23  1  0.18265471  0.67464416  0.87606515  1
  In  In24  1  0.50378230  -0.00894547  0.38319032  1
  In  In25  1  0.48876690  0.01171724  0.88071383  1
  In  In26  1  0.49224046  0.32198873  0.36900016  1
  In  In27  1  0.48649722  0.32439920  0.86845948  1
  In  In28  1  0.51245740  0.66622015  0.37631073  1
  In  In29  1  0.50421512  0.67175593  0.87562060  1
  In  In30  1  0.83742038  0.01602784  0.37453832  1
  In  In31  1  0.82733609  -0.00913357  0.87331039  1
  In  In32  1  0.82497724  0.33773483  0.38101462  1
  In  In33  1  0.86533839  0.33101067  0.88025691  1
  In  In34  1  0.82532051  0.65542105  0.36077774  1
  In  In35  1  0.82849354  0.67065507  0.88268419  1
  In  In36  1  -0.00038510  0.16980718  0.38719016  1
  In  In37  1  0.01179731  0.18238608  0.86138637  1
  In  In38  1  -0.02480418  0.49675780  0.37085613  1
  In  In39  1  -0.00239038  0.48160684  0.88266499  1
  In  In40  1  0.00775861  0.81546890  0.36646066  1
  In  In41  1  -0.00561678  0.84045502  0.87832288  1
  In  In42  1  0.32877373  0.16968117  0.38364643  1
  In  In43  1  0.33422538  0.15970847  0.87201988  1
  In  In44  1  0.34987342  0.49969529  0.37204537  1
  In  In45  1  0.33398767  0.50062504  0.86561632  1
  In  In46  1  0.33040153  0.84379859  0.37633752  1
  In  In47  1  0.33390269  0.83917118  0.87847098  1
  In  In48  1  0.66303135  0.16551332  0.37403968  1
  In  In49  1  0.66548172  0.15819703  0.87539114  1
  In  In50  1  0.68083719  0.50452179  0.36211062  1
  In  In51  1  0.66841592  0.51095114  0.87741926  1
  In  In52  1  0.65884679  0.82512828  0.36897195  1
  In  In53  1  0.67686341  0.82640501  0.88416319  1
  In  In54  1  0.16608135  0.00116044  0.11176513  1
  In  In55  1  0.15666446  0.00518562  0.64064652  1
  In  In56  1  0.17577135  0.33818530  0.12314353  1
  In  In57  1  0.18190885  0.31729657  0.63717386  1
  In  In58  1  0.16040477  0.67089702  0.12030405  1
  In  In59  1  0.17149079  0.68335180  0.63382053  1
  In  In60  1  0.50054497  0.00418712  0.11986915  1
  In  In61  1  0.49535691  -0.00276104  0.62131520  1
  In  In62  1  0.50304956  0.32808466  0.12749876  1
  In  In63  1  0.49790134  0.32131346  0.62531385  1
  In  In64  1  0.50347727  0.68236716  0.12100911  1
  In  In65  1  0.49280017  0.67910546  0.63467476  1
  In  In66  1  0.83114105  -0.01127244  0.12192744  1
  In  In67  1  0.83387198  0.01901786  0.63081695  1
  In  In68  1  0.82517621  0.33358475  0.12675167  1
  In  In69  1  0.83526026  0.33556812  0.62124681  1
  In  In70  1  0.83034318  0.66674501  0.12618876  1
  In  In71  1  0.83398146  0.64985116  0.62515290  1
  In  In72  1  0.16323717  0.50358965  0.00287668  1
  In  In73  1  0.00159108  0.66346082  0.75057886  1
  In  In74  1  0.51000817  0.49591187  0.49860412  1
  In  In75  1  0.83501903  0.16501253  -0.00213241  1
  In  In76  1  0.33509763  0.66123802  0.24011839  1
  In  In77  1  -0.00251560  0.33617185  0.24627105  1
  In  In78  1  0.66382807  0.00042481  0.74891493  1
  In  In79  1  0.50226667  0.50049744  -0.00574883  1
  In  In80  1  0.16695715  0.49433536  0.50455723  1
  In  In81  1  -0.00430279  -0.00433032  0.24401747  1
  In  In82  1  0.33537326  -0.00310212  0.25097875  1
  In  In83  1  0.82635266  0.83497573  0.49912591  1
  In  In84  1  0.16656524  0.83918605  0.50316417  1
  In  In85  1  0.66800486  0.33482708  0.74727539  1
  Cu  Cu86  1  0.33307081  0.00354497  0.50399950  1
  Cu  Cu87  1  0.17207799  0.16265328  0.25371146  1
  Cu  Cu88  1  0.50269911  0.83387974  0.75699047  1
  Cu  Cu89  1  0.15887260  0.49768071  0.75583859  1
  Cu  Cu90  1  0.17092088  0.49589817  0.24858611  1
  Cu  Cu91  1  0.50055001  0.16443853  0.24712517  1
  Cu  Cu92  1  0.50586059  0.49220217  0.24954977  1
  Cu  Cu93  1  0.33395998  0.00239051  -0.00580880  1
  Cu  Cu94  1  0.83068193  0.83102133  0.24346439  1
  Cu  Cu95  1  0.83212720  0.49680352  0.75074345  1
  Cu  Cu96  1  0.82118924  0.17102441  0.25254750  1
  Cu  Cu97  1  0.00665305  0.00514201  -0.00708412  1
  Cu  Cu98  1  0.33655538  0.67709899  0.50976364  1
  Cu  Cu99  1  0.83046083  0.82757069  0.75609814  1
  Cu  Cu100  1  0.49913995  0.83352775  0.24926645  1
  Cu  Cu101  1  0.66898630  0.33042973  0.49596534  1
  Cu  Cu102  1  0.32863664  0.32750910  -0.00659893  1
  Cu  Cu103  1  -0.00241749  0.67300317  -0.00084449  1
  Cu  Cu104  1  0.66463618  0.33055992  0.00486496  1
  Cu  Cu105  1  0.66518274  0.66773961  0.49429675  1
  Cu  Cu106  1  -0.00695853  0.66031954  0.49804163  1
  Cu  Cu107  1  0.00313124  0.32562104  0.50495058  1
  Cu  Cu108  1  0.17262413  0.16499497  0.75149823  1
  Cu  Cu109  1  0.67071220  0.66600877  0.00474841  1
  Cu  Cu110  1  0.50178578  0.50565357  0.75321682  1
  Cu  Cu111  1  0.00127112  0.00642284  0.50525418  1
  Cu  Cu112  1  0.66099469  -0.00305190  0.00083871  1
  Cu  Cu113  1  0.66336990  0.00589707  0.49947546  1
  Cu  Cu114  1  0.33225425  0.33010793  0.50236042  1
  Se  Se115  1  0.08737956  0.09088071  0.04566714  1
  Se  Se116  1  0.08831117  0.08183099  0.56056996  1
  Se  Se117  1  0.07343086  0.41077863  0.06000507  1
  Se  Se118  1  0.08090315  0.40599680  0.56731996  1
  Se  Se119  1  0.08595897  0.75503862  0.04839005  1
  Se  Se120  1  0.07217381  0.74199463  0.55776882  1
  Se  Se121  1  0.41665280  0.08466069  0.05107226  1
  Se  Se122  1  0.41954353  0.08765721  0.55355254  1
  Se  Se123  1  0.40813019  0.40979884  0.05369537  1
  Se  Se124  1  0.40847866  0.41839938  0.55890024  1
  Se  Se125  1  0.42509837  0.74489189  0.04212064  1
  Se  Se126  1  0.41781216  0.76134018  0.56100263  1
  Se  Se127  1  0.74071432  0.08195991  0.06086509  1
  Se  Se128  1  0.75193334  0.08318281  0.55236225  1
  Se  Se129  1  0.74662426  0.41604676  0.05522265  1
  Se  Se130  1  0.75143527  0.41532267  0.54969249  1
  Se  Se131  1  0.75146425  0.75410836  0.05669884  1
  Se  Se132  1  0.74197130  0.74305446  0.56195124  1
  Se  Se133  1  0.24239762  0.25009670  0.04967614  1
  Se  Se134  1  0.24976402  0.24632347  0.55506720  1
  Se  Se135  1  0.26141707  0.59270206  0.05638160  1
  Se  Se136  1  0.25417902  0.59278045  0.56281083  1
  Se  Se137  1  0.25003928  0.91758830  0.04582535  1
  Se  Se138  1  0.25506834  0.92316619  0.56636554  1
  Se  Se139  1  0.57779641  0.24724479  0.05250772  1
  Se  Se140  1  0.57964103  0.25353834  0.54840806  1
  Se  Se141  1  0.59010201  0.58149798  0.06242988  1
  Se  Se142  1  0.58796616  0.59217904  0.56198917  1
  Se  Se143  1  0.58125587  0.91259349  0.05657019  1
  Se  Se144  1  0.58117019  0.91855192  0.55024197  1
  Se  Se145  1  0.92149764  0.25784182  0.05910761  1
  Se  Se146  1  0.91857585  0.24441831  0.55938740  1
  Se  Se147  1  0.91647599  0.58915464  0.05350673  1
  Se  Se148  1  0.90667560  0.57624498  0.54603253  1
  Se  Se149  1  0.91966771  0.92581855  0.04757272  1
  Se  Se150  1  0.92071989  0.92029458  0.56013865  1
  Se  Se151  1  0.09098355  0.24395236  0.45499318  1
  Se  Se152  1  0.06896237  0.25806126  0.94476825  1
  Se  Se153  1  0.07828845  0.58210856  0.44043256  1
  Se  Se154  1  0.07647340  0.59226147  0.93699591  1
  Se  Se155  1  0.06987952  0.92126319  0.43943054  1
  Se  Se156  1  0.08802038  0.91765269  0.94229150  1
  Se  Se157  1  0.41900716  0.25003868  0.44886940  1
  Se  Se158  1  0.41626476  0.24466773  0.94419449  1
  Se  Se159  1  0.41267967  0.59415510  0.44798556  1
  Se  Se160  1  0.40656034  0.58808703  0.94014318  1
  Se  Se161  1  0.41162626  0.91473424  0.45030213  1
  Se  Se162  1  0.42322874  0.91629739  0.94936120  1
  Se  Se163  1  0.75111025  0.24273074  0.44475934  1
  Se  Se164  1  0.74593919  0.25821795  0.93785991  1
  Se  Se165  1  0.74882365  0.58556362  0.44058890  1
  Se  Se166  1  0.75236290  0.58097484  0.95183700  1
  Se  Se167  1  0.74185577  0.92595947  0.43647409  1
  Se  Se168  1  0.75247826  0.91806986  0.95161692  1
  Se  Se169  1  0.24603114  0.08357849  0.45087213  1
  Se  Se170  1  0.24790361  0.08770445  0.94515715  1
  Se  Se171  1  0.25908998  0.41257923  0.43889943  1
  Se  Se172  1  0.25005485  0.41454550  0.93750929  1
  Se  Se173  1  0.25150443  0.74210132  0.44154414  1
  Se  Se174  1  0.25186407  0.75718407  0.94888133  1
  Se  Se175  1  0.57827120  0.08746311  0.44589701  1
  Se  Se176  1  0.58327934  0.08591181  0.94866653  1
  Se  Se177  1  0.59278441  0.41045974  0.43174898  1
  Se  Se178  1  0.58764339  0.40409419  0.93560072  1
  Se  Se179  1  0.58012677  0.75574353  0.44837992  1
  Se  Se180  1  0.58662263  0.74647221  0.94957422  1
  Se  Se181  1  0.91379768  0.08639540  0.45283769  1
  Se  Se182  1  0.92234007  0.08111844  0.93261810  1
  Se  Se183  1  0.92120776  0.40839339  0.44883425  1
  Se  Se184  1  0.90241564  0.42866521  0.95619024  1
  Se  Se185  1  0.91636176  0.74475542  0.43895306  1
  Se  Se186  1  0.91256009  0.75686382  0.94721041  1
  Se  Se187  1  0.25336729  0.24775062  0.30642325  1
  Se  Se188  1  0.25298697  0.25090546  0.80567982  1
  Se  Se189  1  0.24631349  0.57926437  0.31144061  1
  Se  Se190  1  0.24518121  0.58393248  0.80200818  1
  Se  Se191  1  0.23477370  0.90649389  0.30316481  1
  Se  Se192  1  0.27742920  0.93851661  0.80761830  1
  Se  Se193  1  0.58378093  0.24836087  0.30162478  1
  Se  Se194  1  0.57921292  0.24008690  0.80390299  1
  Se  Se195  1  0.58132979  0.58214761  0.30281547  1
  Se  Se196  1  0.58577113  0.58688895  0.80604381  1
  Se  Se197  1  0.57882008  0.91768033  0.30491874  1
  Se  Se198  1  0.58376879  0.91325481  0.81750760  1
  Se  Se199  1  0.91463548  0.24201006  0.30957112  1
  Se  Se200  1  0.90638588  0.24503501  0.79901679  1
  Se  Se201  1  0.93813179  0.60236867  0.30203914  1
  Se  Se202  1  0.91239259  0.57632516  0.81300396  1
  Se  Se203  1  0.90833887  0.90746971  0.31032678  1
  Se  Se204  1  0.91393879  0.91537839  0.80267555  1
  Se  Se205  1  0.08351349  0.08687960  0.30958773  1
  Se  Se206  1  0.08758692  0.08173748  0.80418548  1
  Se  Se207  1  0.08852329  0.42165486  0.31259614  1
  Se  Se208  1  0.07491061  0.41222761  0.80419320  1
  Se  Se209  1  0.09009918  0.75504938  0.28866275  1
  Se  Se210  1  0.08538336  0.75443907  0.81158372  1
  Se  Se211  1  0.42138920  0.08777245  0.31214023  1
  Se  Se212  1  0.42007335  0.08343978  0.80118845  1
  Se  Se213  1  0.41640333  0.41241183  0.29965366  1
  Se  Se214  1  0.41772635  0.41678090  0.79941331  1
  Se  Se215  1  0.41725324  0.75274219  0.30923448  1
  Se  Se216  1  0.41675714  0.75207263  0.80931911  1
  Se  Se217  1  0.74482832  0.08005347  0.30376309  1
  Se  Se218  1  0.75983224  0.09125927  0.80348690  1
  Se  Se219  1  0.76452806  0.41606338  0.30067266  1
  Se  Se220  1  0.75521547  0.41749226  0.81442126  1
  Se  Se221  1  0.74670240  0.75041788  0.30012873  1
  Se  Se222  1  0.74738736  0.74464344  0.80710187  1
  Se  Se223  1  0.24646415  0.08512485  0.18858715  1
  Se  Se224  1  0.25667824  0.08393449  0.69694226  1
  Se  Se225  1  0.25403052  0.40837746  0.20134857  1
  Se  Se226  1  0.24756027  0.41772590  0.70221533  1
  Se  Se227  1  0.25048969  0.75972028  0.18583911  1
  Se  Se228  1  0.25076173  0.75274563  0.70786848  1
  Se  Se229  1  0.58116076  0.07637250  0.19642788  1
  Se  Se230  1  0.57848793  0.09185348  0.68776058  1
  Se  Se231  1  0.58737421  0.40774899  0.19646200  1
  Se  Se232  1  0.57675305  0.42717816  0.68703188  1
  Se  Se233  1  0.58387209  0.74857870  0.19879791  1
  Se  Se234  1  0.58682924  0.75165326  0.70239170  1
  Se  Se235  1  0.90332527  0.09357437  0.19065888  1
  Se  Se236  1  0.93796815  0.06318328  0.69858507  1
  Se  Se237  1  0.90917034  0.42974624  0.19113324  1
  Se  Se238  1  0.91422465  0.41351617  0.69711937  1
  Se  Se239  1  0.91905782  0.75427677  0.19002128  1
  Se  Se240  1  0.90965091  0.75389423  0.68867839  1
  Se  Se241  1  0.09034844  0.24056968  0.19174501  1
  Se  Se242  1  0.08325754  0.24808715  0.70094243  1
  Se  Se243  1  0.09370160  0.58210208  0.19411693  1
  Se  Se244  1  0.08743559  0.57347004  0.68524817  1
  Se  Se245  1  0.08951739  0.91320974  0.18425810  1
  Se  Se246  1  0.10348995  0.89694197  0.70472157  1
  Se  Se247  1  0.41441608  0.24521474  0.19294006  1
  Se  Se248  1  0.40597453  0.26215263  0.69626884  1
  Se  Se249  1  0.42925819  0.57052645  0.18383286  1
  Se  Se250  1  0.41551761  0.58942208  0.70131939  1
  Se  Se251  1  0.41647219  0.90528595  0.18608637  1
  Se  Se252  1  0.42556309  0.91934896  0.70003525  1
  Se  Se253  1  0.74276525  0.25455015  0.19669410  1
  Se  Se254  1  0.75503337  0.24147609  0.68886406  1
  Se  Se255  1  0.74585009  0.59315408  0.19856181  1
  Se  Se256  1  0.74873147  0.58294588  0.70064003  1
  Se  Se257  1  0.74740953  0.91959603  0.19630949  1
  Se  Se258  1  0.75726328  0.90896809  0.68923149  1
