# generated using pymatgen
data_In86Cu29Se144
_symmetry_space_group_name_H-M   'P 1'
_cell_length_a   17.57308136
_cell_length_b   17.57521232
_cell_length_c   23.43472192
_cell_angle_alpha   89.99773258
_cell_angle_beta   89.97837854
_cell_angle_gamma   89.98693983
_symmetry_Int_Tables_number   1
_chemical_formula_structural   In86Cu29Se144
_chemical_formula_sum   'In86 Cu29 Se144'
_cell_volume   7237.82806073
_cell_formula_units_Z   1
loop_
 _symmetry_equiv_pos_site_id
 _symmetry_equiv_pos_as_xyz
  1  'x, y, z'
loop_
 _atom_site_type_symbol
 _atom_site_label
 _atom_site_symmetry_multiplicity
 _atom_site_fract_x
 _atom_site_fract_y
 _atom_site_fract_z
 _atom_site_occupancy
  In  In0  1  0.01038959  0.16042493  0.13471879  1
  In  In1  1  0.00114900  0.16871115  0.61304096  1
  In  In2  1  0.00960513  0.49424833  0.13398419  1
  In  In3  1  -0.00828539  0.51491826  0.63056616  1
  In  In4  1  0.00323994  0.83057912  0.12190446  1
  In  In5  1  -0.01220378  0.83503624  0.62567751  1
  In  In6  1  0.33278779  0.16260017  0.12977940  1
  In  In7  1  0.33018948  0.15867525  0.61635056  1
  In  In8  1  0.32236855  0.50818413  0.12799571  1
  In  In9  1  0.33802906  0.51082042  0.62719012  1
  In  In10  1  0.33876712  0.83629880  0.11494582  1
  In  In11  1  0.33959193  0.81664086  0.62543233  1
  In  In12  1  0.65037773  0.15781729  0.12620241  1
  In  In13  1  0.66136358  0.15477448  0.61432046  1
  In  In14  1  0.67424438  0.49994042  0.12575555  1
  In  In15  1  0.68304132  0.50861944  0.62020735  1
  In  In16  1  0.67199771  0.84240560  0.12144932  1
  In  In17  1  0.66865399  0.83378457  0.62738397  1
  In  In18  1  0.17894014  0.00709037  0.36322844  1
  In  In19  1  0.16201257  -0.00044698  0.88372241  1
  In  In20  1  0.15856135  0.32434853  0.36615222  1
  In  In21  1  0.17168419  0.33091921  0.88534270  1
  In  In22  1  0.16074764  0.68283139  0.37217095  1
  In  In23  1  0.17131056  0.66595741  0.88033699  1
  In  In24  1  0.50270045  -0.00240064  0.37426920  1
  In  In25  1  0.50180849  -0.00697803  0.88099729  1
  In  In26  1  0.48086235  0.32968705  0.36798131  1
  In  In27  1  0.48666114  0.33385557  0.87897403  1
  In  In28  1  0.50777593  0.66483816  0.38278182  1
  In  In29  1  0.51089402  0.68206449  0.86501393  1
  In  In30  1  0.83366837  -0.00262925  0.36992589  1
  In  In31  1  0.81948421  -0.00899766  0.86775877  1
  In  In32  1  0.84089671  0.32876269  0.38097638  1
  In  In33  1  0.83972813  0.33640542  0.87309469  1
  In  In34  1  0.83602421  0.66112982  0.38939251  1
  In  In35  1  0.84822821  0.68163534  0.86067148  1
  In  In36  1  0.00190591  0.16662852  0.37069296  1
  In  In37  1  0.00632401  0.17169151  0.87761698  1
  In  In38  1  -0.00365356  0.49713048  0.37087571  1
  In  In39  1  0.00365384  0.53463981  0.87994026  1
  In  In40  1  -0.00770332  0.82636314  0.36592449  1
  In  In41  1  0.01671919  0.80779455  0.89842634  1
  In  In42  1  0.33237660  0.16211901  0.37417071  1
  In  In43  1  0.33067772  0.16999772  0.88259427  1
  In  In44  1  0.34268257  0.48576875  0.36818475  1
  In  In45  1  0.31942208  0.50409466  0.88063300  1
  In  In46  1  0.33047708  0.84411635  0.37475440  1
  In  In47  1  0.34347157  0.82046588  0.89412675  1
  In  In48  1  0.67836402  0.15285621  0.38042036  1
  In  In49  1  0.66681404  0.14639999  0.86962341  1
  In  In50  1  0.67316571  0.51434228  0.38247441  1
  In  In51  1  0.65921319  0.50849844  0.86943493  1
  In  In52  1  0.65839756  0.83492334  0.38326604  1
  In  In53  1  0.66759391  0.83679739  0.87498908  1
  In  In54  1  0.16502102  0.00407835  0.12499708  1
  In  In55  1  0.15761780  0.00262157  0.62222158  1
  In  In56  1  0.17025137  0.33175026  0.12909540  1
  In  In57  1  0.17132672  0.32549238  0.62302149  1
  In  In58  1  0.15899214  0.65441661  0.10460437  1
  In  In59  1  0.16771533  0.66384530  0.63693531  1
  In  In60  1  0.49550555  -0.00447797  0.12802087  1
  In  In61  1  0.51008828  0.00597744  0.61798225  1
  In  In62  1  0.50738771  0.31534219  0.13024039  1
  In  In63  1  0.50637309  0.32796606  0.61926804  1
  In  In64  1  0.48312272  0.68006864  0.12075138  1
  In  In65  1  0.49095582  0.68466026  0.62777399  1
  In  In66  1  0.84379943  -0.01075483  0.13735908  1
  In  In67  1  0.81925140  -0.02059877  0.61022536  1
  In  In68  1  0.84294583  0.34429126  0.13142677  1
  In  In69  1  0.83657136  0.33436384  0.61209140  1
  In  In70  1  0.83814800  0.68281719  0.11850495  1
  In  In71  1  0.83053544  0.67046524  0.62708424  1
  In  In72  1  0.32757307  0.67011232  0.24465493  1
  In  In73  1  0.66540917  0.66738681  0.26043924  1
  In  In74  1  -0.00804478  -0.00361949  0.75145363  1
  In  In75  1  0.49491397  0.50142305  0.00152202  1
  In  In76  1  0.00188381  0.33759685  0.74490526  1
  In  In77  1  0.32967855  -0.00345041  0.75074023  1
  In  In78  1  0.66332089  0.33662442  0.74470505  1
  In  In79  1  0.32977192  0.33900340  0.75608880  1
  In  In80  1  0.49965106  0.49638341  0.49777538  1
  In  In81  1  0.16173754  0.49822600  0.50812421  1
  In  In82  1  0.66892822  0.32855192  0.25347068  1
  In  In83  1  0.83709912  0.50453790  -0.00479874  1
  In  In84  1  0.83555395  0.16018943  0.00328042  1
  In  In85  1  0.16936370  0.84200354  0.49825588  1
  Cu  Cu86  1  0.33511966  0.32564851  0.00800509  1
  Cu  Cu87  1  0.66429063  0.32701341  0.49707355  1
  Cu  Cu88  1  0.49970823  0.83579929  0.25075467  1
  Cu  Cu89  1  0.16557649  0.50297254  0.24632333  1
  Cu  Cu90  1  0.65979375  0.67471346  -0.00363782  1
  Cu  Cu91  1  0.50370048  0.83817951  0.75486221  1
  Cu  Cu92  1  0.66511470  0.32014676  0.00020331  1
  Cu  Cu93  1  -0.00688328  -0.00046025  0.00887527  1
  Cu  Cu94  1  -0.00337395  0.33294678  0.49131489  1
  Cu  Cu95  1  0.66138734  -0.00385681  -0.00039237  1
  Cu  Cu96  1  0.84084898  0.50797864  0.25510636  1
  Cu  Cu97  1  0.01270128  0.33364441  0.00502042  1
  Cu  Cu98  1  0.83396831  0.16808319  0.25626423  1
  Cu  Cu99  1  0.50061426  0.16456172  0.74522547  1
  Cu  Cu100  1  -0.00268048  0.67057666  0.50346505  1
  Cu  Cu101  1  0.16526391  0.82598322  0.76098874  1
  Cu  Cu102  1  0.16153576  0.83641321  0.24279648  1
  Cu  Cu103  1  0.33109779  0.00774684  0.00469909  1
  Cu  Cu104  1  0.16951444  0.16866827  0.24924518  1
  Cu  Cu105  1  0.49965874  0.51870999  0.74574319  1
  Cu  Cu106  1  0.49517853  0.15601730  0.25193646  1
  Cu  Cu107  1  0.83317698  0.83252886  0.74813872  1
  Cu  Cu108  1  0.83307912  0.15982518  0.73936436  1
  Cu  Cu109  1  0.66881634  -0.00312179  0.49678280  1
  Cu  Cu110  1  0.83580312  0.83491961  0.24760337  1
  Cu  Cu111  1  0.32617232  0.32354243  0.49484896  1
  Cu  Cu112  1  0.00156778  0.00659581  0.49142928  1
  Cu  Cu113  1  0.34155176  0.00059179  0.49456274  1
  Cu  Cu114  1  0.15986809  0.50548930  0.75858796  1
  Se  Se115  1  0.07963430  0.08666638  0.05463903  1
  Se  Se116  1  0.08727861  0.08411994  0.54746581  1
  Se  Se117  1  0.09052576  0.41954670  0.05966792  1
  Se  Se118  1  0.06771907  0.40693826  0.56430494  1
  Se  Se119  1  0.08336139  0.75448114  0.04798595  1
  Se  Se120  1  0.08405161  0.74719117  0.56128100  1
  Se  Se121  1  0.41906008  0.08508213  0.05928433  1
  Se  Se122  1  0.42201692  0.08542443  0.55053775  1
  Se  Se123  1  0.41616254  0.40757321  0.06695094  1
  Se  Se124  1  0.40202588  0.40658977  0.55782738  1
  Se  Se125  1  0.40945963  0.74768429  0.04299684  1
  Se  Se126  1  0.41710259  0.75216761  0.54662382  1
  Se  Se127  1  0.74476993  0.07206040  0.06280231  1
  Se  Se128  1  0.75495863  0.08327374  0.54708705  1
  Se  Se129  1  0.74631384  0.40491546  0.05433346  1
  Se  Se130  1  0.74501737  0.41440291  0.54880006  1
  Se  Se131  1  0.74609680  0.75362206  0.05121872  1
  Se  Se132  1  0.77447738  0.77658103  0.56281855  1
  Se  Se133  1  0.24857096  0.24451727  0.06000527  1
  Se  Se134  1  0.24364595  0.24230253  0.55050821  1
  Se  Se135  1  0.27114278  0.59355962  0.04904271  1
  Se  Se136  1  0.25478932  0.59516654  0.55724314  1
  Se  Se137  1  0.24712091  0.92207829  0.05494916  1
  Se  Se138  1  0.26278419  0.92603983  0.56223649  1
  Se  Se139  1  0.57927382  0.24048664  0.05114039  1
  Se  Se140  1  0.57923366  0.24376820  0.54831867  1
  Se  Se141  1  0.58981584  0.59147708  0.06099950  1
  Se  Se142  1  0.57801856  0.58641408  0.56395465  1
  Se  Se143  1  0.57760378  0.91469067  0.05537574  1
  Se  Se144  1  0.58703263  0.91405890  0.55364937  1
  Se  Se145  1  0.92341028  0.25635408  0.06075812  1
  Se  Se146  1  0.91432752  0.24669607  0.54508100  1
  Se  Se147  1  0.92471754  0.58353662  0.06242752  1
  Se  Se148  1  0.91313029  0.58609055  0.55486922  1
  Se  Se149  1  0.90945358  0.91300675  0.05699475  1
  Se  Se150  1  0.92608005  0.91860327  0.54749816  1
  Se  Se151  1  0.08365653  0.24907161  0.44304064  1
  Se  Se152  1  0.08832856  0.24398509  0.95108668  1
  Se  Se153  1  0.07980748  0.59201087  0.44323245  1
  Se  Se154  1  0.10393663  0.57133737  0.95149291  1
  Se  Se155  1  0.08112611  0.92304690  0.43142906  1
  Se  Se156  1  0.07810765  0.92043591  0.95286891  1
  Se  Se157  1  0.41636518  0.24539301  0.44451450  1
  Se  Se158  1  0.41915953  0.24669834  0.95134127  1
  Se  Se159  1  0.40314878  0.58371958  0.44038738  1
  Se  Se160  1  0.42076949  0.59102375  0.93296734  1
  Se  Se161  1  0.42167828  0.91197841  0.44497038  1
  Se  Se162  1  0.41551246  0.92245666  0.95289158  1
  Se  Se163  1  0.75265049  0.24709575  0.44548247  1
  Se  Se164  1  0.74769280  0.24895864  0.93636211  1
  Se  Se165  1  0.74067862  0.59399676  0.45750927  1
  Se  Se166  1  0.74108129  0.59181789  0.93974057  1
  Se  Se167  1  0.75408843  0.91623978  0.44269039  1
  Se  Se168  1  0.75037952  0.91669331  0.94750296  1
  Se  Se169  1  0.24958664  0.07892657  0.44459095  1
  Se  Se170  1  0.24649618  0.08634578  0.94826860  1
  Se  Se171  1  0.24828338  0.41190664  0.44038629  1
  Se  Se172  1  0.25659173  0.41202898  0.95280226  1
  Se  Se173  1  0.25808044  0.74466282  0.44343824  1
  Se  Se174  1  0.22672041  0.77055018  0.94776279  1
  Se  Se175  1  0.58278992  0.08074479  0.44567689  1
  Se  Se176  1  0.58275856  0.08438476  0.94660207  1
  Se  Se177  1  0.58674455  0.40563770  0.43367910  1
  Se  Se178  1  0.59094205  0.40964846  0.94183780  1
  Se  Se179  1  0.59659774  0.73516909  0.45018937  1
  Se  Se180  1  0.57781437  0.75988095  0.94471304  1
  Se  Se181  1  0.91457376  0.08533925  0.43793528  1
  Se  Se182  1  0.92005234  0.07260627  0.93682268  1
  Se  Se183  1  0.91464106  0.42510192  0.44633532  1
  Se  Se184  1  0.93321749  0.41065558  0.94110716  1
  Se  Se185  1  0.92049552  0.75712586  0.44762774  1
  Se  Se186  1  0.90746861  0.73868706  0.95051790  1
  Se  Se187  1  0.25506131  0.24960173  0.30370095  1
  Se  Se188  1  0.24010616  0.24175888  0.80719620  1
  Se  Se189  1  0.24299776  0.57965768  0.31207122  1
  Se  Se190  1  0.25148359  0.58673046  0.80500690  1
  Se  Se191  1  0.25147554  0.91180813  0.29684447  1
  Se  Se192  1  0.24605759  0.90962564  0.81660884  1
  Se  Se193  1  0.57902994  0.23659147  0.31171766  1
  Se  Se194  1  0.57500450  0.24796306  0.80893476  1
  Se  Se195  1  0.57205753  0.56843793  0.30832850  1
  Se  Se196  1  0.59006356  0.59472742  0.79687692  1
  Se  Se197  1  0.58659590  0.91302910  0.30571775  1
  Se  Se198  1  0.58559884  0.92396772  0.80599043  1
  Se  Se199  1  0.91769485  0.25509797  0.30421432  1
  Se  Se200  1  0.90918926  0.23814837  0.80243358  1
  Se  Se201  1  0.91774748  0.59466802  0.31052512  1
  Se  Se202  1  0.90386909  0.56739472  0.80560810  1
  Se  Se203  1  0.92053340  0.92035165  0.29891482  1
  Se  Se204  1  0.91781344  0.89972504  0.81556731  1
  Se  Se205  1  0.08394174  0.08412153  0.30062852  1
  Se  Se206  1  0.08747298  0.08646033  0.80635119  1
  Se  Se207  1  0.08382195  0.42029582  0.30284951  1
  Se  Se208  1  0.08519524  0.41898228  0.81659709  1
  Se  Se209  1  0.08057763  0.74996297  0.29559602  1
  Se  Se210  1  0.07914263  0.74285093  0.81093771  1
  Se  Se211  1  0.41177538  0.07373384  0.30629448  1
  Se  Se212  1  0.41954694  0.09045274  0.80935830  1
  Se  Se213  1  0.41663206  0.41279626  0.29221808  1
  Se  Se214  1  0.42518756  0.43419248  0.80768911  1
  Se  Se215  1  0.42276353  0.75118079  0.31052213  1
  Se  Se216  1  0.41153635  0.76049136  0.80580661  1
  Se  Se217  1  0.74801133  0.07987734  0.30018897  1
  Se  Se218  1  0.75029095  0.07840637  0.79435873  1
  Se  Se219  1  0.75614809  0.42653357  0.31134974  1
  Se  Se220  1  0.75462583  0.42202434  0.80696005  1
  Se  Se221  1  0.76034047  0.75671024  0.31383793  1
  Se  Se222  1  0.74516946  0.75278412  0.80245109  1
  Se  Se223  1  0.24970383  0.07956603  0.19831720  1
  Se  Se224  1  0.24086856  0.08989638  0.69267816  1
  Se  Se225  1  0.25191423  0.41836110  0.19798412  1
  Se  Se226  1  0.23787569  0.42794499  0.69284264  1
  Se  Se227  1  0.23995166  0.75504375  0.18124900  1
  Se  Se228  1  0.25090828  0.75251920  0.70026210  1
  Se  Se229  1  0.58165344  0.07391252  0.20025383  1
  Se  Se230  1  0.58654605  0.08342084  0.69418408  1
  Se  Se231  1  0.58302175  0.42120765  0.19180451  1
  Se  Se232  1  0.57214142  0.42963466  0.68650098  1
  Se  Se233  1  0.57916013  0.75279893  0.19168204  1
  Se  Se234  1  0.58287290  0.75438884  0.69724619  1
  Se  Se235  1  0.91704440  0.08600352  0.20006826  1
  Se  Se236  1  0.91199793  0.08018200  0.67932500  1
  Se  Se237  1  0.92171144  0.41877059  0.20494770  1
  Se  Se238  1  0.90171843  0.42165239  0.69161665  1
  Se  Se239  1  0.91874770  0.75050264  0.19493086  1
  Se  Se240  1  0.92025737  0.74850672  0.69862079  1
  Se  Se241  1  0.08335091  0.25495384  0.20008444  1
  Se  Se242  1  0.08847243  0.23806013  0.69237099  1
  Se  Se243  1  0.09012506  0.59250786  0.19222971  1
  Se  Se244  1  0.07713167  0.58669115  0.70279037  1
  Se  Se245  1  0.07722281  0.92104723  0.19153014  1
  Se  Se246  1  0.09164547  0.90617501  0.69533456  1
  Se  Se247  1  0.41741494  0.24535575  0.19993832  1
  Se  Se248  1  0.41728809  0.24746715  0.69091796  1
  Se  Se249  1  0.42711316  0.57960283  0.19258661  1
  Se  Se250  1  0.40924640  0.59782544  0.69724507  1
  Se  Se251  1  0.41090419  0.91054424  0.19532237  1
  Se  Se252  1  0.42428810  0.91423299  0.68930731  1
  Se  Se253  1  0.75659778  0.24144254  0.18713489  1
  Se  Se254  1  0.75300792  0.24575679  0.68402344  1
  Se  Se255  1  0.75972016  0.58450894  0.19330375  1
  Se  Se256  1  0.75062717  0.58627021  0.69668642  1
  Se  Se257  1  0.74450912  0.91639670  0.20029071  1
  Se  Se258  1  0.75132145  0.92017716  0.69739671  1
