# generated using pymatgen
data_In86Cu29Se144
_symmetry_space_group_name_H-M   'P 1'
_cell_length_a   17.57825717
_cell_length_b   17.57389052
_cell_length_c   23.43809219
_cell_angle_alpha   90.02436794
_cell_angle_beta   90.00415502
_cell_angle_gamma   89.97963297
_symmetry_Int_Tables_number   1
_chemical_formula_structural   In86Cu29Se144
_chemical_formula_sum   'In86 Cu29 Se144'
_cell_volume   7240.45603674
_cell_formula_units_Z   1
loop_
 _symmetry_equiv_pos_site_id
 _symmetry_equiv_pos_as_xyz
  1  'x, y, z'
loop_
 _atom_site_type_symbol
 _atom_site_label
 _atom_site_symmetry_multiplicity
 _atom_site_fract_x
 _atom_site_fract_y
 _atom_site_fract_z
 _atom_site_occupancy
  In  In0  1  0.00051030  0.18214200  0.12540510  1
  In  In1  1  -0.00650271  0.17582876  0.61979249  1
  In  In2  1  0.00059451  0.50121285  0.12476380  1
  In  In3  1  0.01680992  0.50854717  0.62453781  1
  In  In4  1  -0.01010367  0.82278390  0.11990883  1
  In  In5  1  -0.00153368  0.82556425  0.62390142  1
  In  In6  1  0.31025656  0.15991669  0.13377462  1
  In  In7  1  0.36252731  0.16196450  0.61762089  1
  In  In8  1  0.33603109  0.51694793  0.12500820  1
  In  In9  1  0.33692379  0.51060398  0.63056449  1
  In  In10  1  0.32302965  0.84135368  0.13378492  1
  In  In11  1  0.33184545  0.82458581  0.61334317  1
  In  In12  1  0.67109856  0.15276497  0.12642065  1
  In  In13  1  0.66098326  0.16730393  0.62191817  1
  In  In14  1  0.67853730  0.50507260  0.12113906  1
  In  In15  1  0.64685923  0.49269059  0.62750685  1
  In  In16  1  0.66377419  0.82185748  0.12815393  1
  In  In17  1  0.67113603  0.84089329  0.62069762  1
  In  In18  1  0.16769705  -0.01780347  0.37737263  1
  In  In19  1  0.15879780  -0.00183479  0.87602271  1
  In  In20  1  0.17347604  0.34876682  0.37440438  1
  In  In21  1  0.18218662  0.33744326  0.86918852  1
  In  In22  1  0.16861404  0.66262801  0.37287842  1
  In  In23  1  0.16141316  0.67124705  0.87663271  1
  In  In24  1  0.48634176  -0.00269523  0.38848096  1
  In  In25  1  0.51174066  -0.02475452  0.86535098  1
  In  In26  1  0.50795279  0.33741084  0.39512816  1
  In  In27  1  0.49956900  0.34083797  0.85435935  1
  In  In28  1  0.49751707  0.66814266  0.38188916  1
  In  In29  1  0.48708663  0.67309207  0.86388714  1
  In  In30  1  0.82824800  0.00551592  0.38216141  1
  In  In31  1  0.82778530  0.00162750  0.87859360  1
  In  In32  1  0.83464590  0.32371603  0.37482437  1
  In  In33  1  0.83079450  0.33918526  0.87617187  1
  In  In34  1  0.84616706  0.67426192  0.36893111  1
  In  In35  1  0.84117290  0.65333570  0.88043950  1
  In  In36  1  -0.01135770  0.16456400  0.37279481  1
  In  In37  1  -0.00224970  0.15364685  0.87585367  1
  In  In38  1  0.00976021  0.51056702  0.36500122  1
  In  In39  1  -0.00500690  0.51285569  0.87797685  1
  In  In40  1  0.01233515  0.82680644  0.38138519  1
  In  In41  1  0.01129964  0.81554936  0.88663750  1
  In  In42  1  0.34329550  0.16989516  0.37927250  1
  In  In43  1  0.32840124  0.17302239  0.86733563  1
  In  In44  1  0.32732574  0.50857648  0.38406936  1
  In  In45  1  0.32673712  0.49630318  0.86861936  1
  In  In46  1  0.33268983  0.82485183  0.37925519  1
  In  In47  1  0.32605115  0.81644945  0.86666099  1
  In  In48  1  0.66629884  0.17007780  0.38441452  1
  In  In49  1  0.67289855  0.17239632  0.86660474  1
  In  In50  1  0.65437253  0.49960073  0.38277955  1
  In  In51  1  0.67843423  0.49947393  0.87080301  1
  In  In52  1  0.67052768  0.82499806  0.38319809  1
  In  In53  1  0.66043578  0.84359242  0.87012056  1
  In  In54  1  0.17987997  0.00038612  0.12952391  1
  In  In55  1  0.18128089  -0.02397173  0.61632391  1
  In  In56  1  0.14955468  0.33086867  0.12560641  1
  In  In57  1  0.17106781  0.35867180  0.62051158  1
  In  In58  1  0.16359484  0.66448011  0.12309866  1
  In  In59  1  0.17391719  0.67364059  0.62533842  1
  In  In60  1  0.48606119  -0.01855105  0.12956227  1
  In  In61  1  0.50346155  0.01038477  0.61049393  1
  In  In62  1  0.49852249  0.33940831  0.12797413  1
  In  In63  1  0.50080558  0.33508135  0.63055834  1
  In  In64  1  0.49201481  0.68658700  0.14622124  1
  In  In65  1  0.48708680  0.65252933  0.61994412  1
  In  In66  1  0.83068045  -0.00124121  0.11587076  1
  In  In67  1  0.82145112  -0.00898319  0.62000104  1
  In  In68  1  0.84562399  0.34787798  0.11417636  1
  In  In69  1  0.83040673  0.31801298  0.62306645  1
  In  In70  1  0.83411741  0.66831544  0.12757457  1
  In  In71  1  0.83084576  0.68185330  0.62649702  1
  In  In72  1  0.82764643  0.50201780  0.50493291  1
  In  In73  1  0.50295182  0.16640461  -0.00000314  1
  In  In74  1  0.00041579  -0.00846797  0.74479380  1
  In  In75  1  0.33837748  0.00014579  0.74202654  1
  In  In76  1  0.65962743  -0.00454595  0.26417477  1
  In  In77  1  -0.00272438  0.33957496  0.75164305  1
  In  In78  1  0.15834308  0.16590790  0.00493646  1
  In  In79  1  0.33436378  0.33540433  0.25714700  1
  In  In80  1  0.50116427  0.83014855  -0.00341263  1
  In  In81  1  0.00581622  -0.00361797  0.25094206  1
  In  In82  1  0.51249088  0.50713915  -0.00598883  1
  In  In83  1  0.66370862  0.66587318  0.74701277  1
  In  In84  1  0.15973087  0.16892795  0.50246226  1
  In  In85  1  0.66909589  0.33757583  0.25603668  1
  Cu  Cu86  1  0.32969430  0.66033010  0.49885299  1
  Cu  Cu87  1  0.66821932  0.00147227  0.49943579  1
  Cu  Cu88  1  0.50445101  0.16202110  0.74231829  1
  Cu  Cu89  1  0.49973049  0.51068160  0.25923275  1
  Cu  Cu90  1  -0.00618278  0.33950655  0.50006723  1
  Cu  Cu91  1  0.33309243  0.34022035  -0.00730977  1
  Cu  Cu92  1  0.17498546  0.17181502  0.73967529  1
  Cu  Cu93  1  0.32316768  0.67020277  0.00066610  1
  Cu  Cu94  1  0.83418092  0.83408511  0.25187318  1
  Cu  Cu95  1  0.83822606  0.83075620  0.75118345  1
  Cu  Cu96  1  0.33443364  0.33881795  0.50553656  1
  Cu  Cu97  1  0.67710725  0.32709898  -0.00443282  1
  Cu  Cu98  1  -0.00181948  0.66307086  0.00387261  1
  Cu  Cu99  1  0.16613804  0.49994305  0.24751676  1
  Cu  Cu100  1  0.17364271  0.51669854  0.74903021  1
  Cu  Cu101  1  0.16684757  0.82107476  0.25361142  1
  Cu  Cu102  1  0.83207244  0.49656316  0.75138354  1
  Cu  Cu103  1  -0.00676044  -0.00300289  0.49986651  1
  Cu  Cu104  1  -0.00515960  -0.00907383  -0.00123862  1
  Cu  Cu105  1  0.67306487  0.00163235  -0.00423031  1
  Cu  Cu106  1  0.82204845  0.15950319  0.74866275  1
  Cu  Cu107  1  0.33274521  -0.00453009  0.00368320  1
  Cu  Cu108  1  0.49381601  0.16060128  0.25787867  1
  Cu  Cu109  1  0.67213059  0.66603807  0.00412641  1
  Cu  Cu110  1  0.83853710  0.17729726  0.24593018  1
  Cu  Cu111  1  0.83657513  0.50371768  0.24317245  1
  Cu  Cu112  1  0.00682562  0.67096033  0.49520869  1
  Cu  Cu113  1  0.66490666  0.67113567  0.50501902  1
  Cu  Cu114  1  -0.00187510  0.33671393  -0.00229647  1
  Se  Se115  1  0.07211865  0.07049994  0.06358114  1
  Se  Se116  1  0.07605129  0.07129646  0.56448211  1
  Se  Se117  1  0.08187032  0.41726854  0.05271809  1
  Se  Se118  1  0.08109549  0.42365081  0.54770039  1
  Se  Se119  1  0.08321154  0.74940501  0.05338166  1
  Se  Se120  1  0.08776063  0.75254135  0.55366747  1
  Se  Se121  1  0.40870788  0.08033957  0.06211806  1
  Se  Se122  1  0.40982904  0.07454274  0.53868060  1
  Se  Se123  1  0.41579458  0.41683836  0.05369698  1
  Se  Se124  1  0.41558344  0.42003779  0.56282436  1
  Se  Se125  1  0.41004526  0.74633619  0.06031463  1
  Se  Se126  1  0.41919010  0.74233796  0.54746122  1
  Se  Se127  1  0.75246349  0.08873871  0.04866567  1
  Se  Se128  1  0.75058483  0.08623613  0.55408310  1
  Se  Se129  1  0.74986991  0.41979566  0.04870228  1
  Se  Se130  1  0.74075766  0.40848891  0.56174076  1
  Se  Se131  1  0.75164050  0.75276322  0.05674000  1
  Se  Se132  1  0.75353220  0.75561699  0.55138741  1
  Se  Se133  1  0.25776220  0.25865266  0.05672278  1
  Se  Se134  1  0.25362065  0.25455257  0.56397103  1
  Se  Se135  1  0.24611601  0.58003969  0.05225513  1
  Se  Se136  1  0.24778091  0.58046699  0.55741632  1
  Se  Se137  1  0.24699562  0.91375973  0.05481321  1
  Se  Se138  1  0.27133880  0.92175923  0.54051519  1
  Se  Se139  1  0.59376815  0.25868179  0.06158105  1
  Se  Se140  1  0.56019481  0.23660222  0.56035944  1
  Se  Se141  1  0.58157034  0.59925461  0.06626266  1
  Se  Se142  1  0.58393607  0.58144676  0.55297949  1
  Se  Se143  1  0.59018314  0.92474141  0.05771109  1
  Se  Se144  1  0.58480429  0.91503307  0.54923132  1
  Se  Se145  1  0.91686171  0.24934106  0.04933975  1
  Se  Se146  1  0.91241610  0.24917403  0.54600772  1
  Se  Se147  1  0.91276034  0.58186021  0.05783505  1
  Se  Se148  1  0.92432883  0.59493610  0.55868147  1
  Se  Se149  1  0.90972417  0.90917805  0.05157271  1
  Se  Se150  1  0.91553044  0.91245423  0.55764134  1
  Se  Se151  1  0.07576038  0.26032241  0.43822703  1
  Se  Se152  1  0.07925607  0.25769485  0.93501233  1
  Se  Se153  1  0.08495715  0.58063352  0.44418711  1
  Se  Se154  1  0.08437474  0.58434722  0.94788404  1
  Se  Se155  1  0.08379833  0.91507308  0.45302049  1
  Se  Se156  1  0.08651290  0.91518876  0.94846639  1
  Se  Se157  1  0.41523401  0.25252623  0.45307981  1
  Se  Se158  1  0.41565075  0.25836487  0.93717753  1
  Se  Se159  1  0.42160776  0.57746544  0.45152988  1
  Se  Se160  1  0.41007264  0.59342528  0.94185891  1
  Se  Se161  1  0.39499033  0.91909349  0.45379799  1
  Se  Se162  1  0.40882557  0.92063409  0.93807466  1
  Se  Se163  1  0.74533424  0.26068362  0.44645644  1
  Se  Se164  1  0.75669584  0.24293345  0.94135754  1
  Se  Se165  1  0.74760210  0.59581768  0.44094162  1
  Se  Se166  1  0.74791092  0.57826777  0.94822388  1
  Se  Se167  1  0.75186224  0.91591189  0.44781725  1
  Se  Se168  1  0.74839222  0.90958111  0.94422144  1
  Se  Se169  1  0.24689906  0.08360723  0.43960654  1
  Se  Se170  1  0.25651544  0.08191265  0.94294890  1
  Se  Se171  1  0.24858640  0.41966901  0.45234123  1
  Se  Se172  1  0.24608483  0.42362319  0.94524171  1
  Se  Se173  1  0.24431264  0.74399709  0.44691614  1
  Se  Se174  1  0.24490868  0.75669062  0.94681480  1
  Se  Se175  1  0.58225087  0.08176444  0.44604509  1
  Se  Se176  1  0.58478546  0.07370944  0.93607061  1
  Se  Se177  1  0.59093220  0.41965427  0.46024981  1
  Se  Se178  1  0.59031075  0.40282016  0.93670358  1
  Se  Se179  1  0.57907290  0.75268720  0.45198762  1
  Se  Se180  1  0.59047913  0.73692215  0.93742137  1
  Se  Se181  1  0.91546623  0.08667853  0.44886963  1
  Se  Se182  1  0.91545368  0.08051848  0.94794263  1
  Se  Se183  1  0.91932605  0.42231636  0.43738480  1
  Se  Se184  1  0.91620066  0.42045994  0.94261350  1
  Se  Se185  1  0.91675914  0.75285779  0.44690201  1
  Se  Se186  1  0.91219973  0.74526216  0.94992180  1
  Se  Se187  1  0.24340326  0.24273935  0.31174183  1
  Se  Se188  1  0.25501110  0.25550562  0.79432376  1
  Se  Se189  1  0.25143922  0.57733353  0.30414018  1
  Se  Se190  1  0.25402571  0.59649060  0.80791614  1
  Se  Se191  1  0.24937315  0.90582025  0.30586445  1
  Se  Se192  1  0.24409096  0.91774108  0.80613414  1
  Se  Se193  1  0.57312282  0.24697208  0.31156661  1
  Se  Se194  1  0.58467975  0.24708690  0.79807167  1
  Se  Se195  1  0.58740276  0.58891180  0.31146460  1
  Se  Se196  1  0.57574571  0.57509345  0.80900094  1
  Se  Se197  1  0.56984782  0.90591362  0.32029118  1
  Se  Se198  1  0.58943930  0.90855654  0.78752434  1
  Se  Se199  1  0.92243098  0.25648565  0.30048456  1
  Se  Se200  1  0.91100748  0.23805610  0.80581084  1
  Se  Se201  1  0.91978419  0.58679030  0.29819908  1
  Se  Se202  1  0.91600544  0.58276494  0.80016736  1
  Se  Se203  1  0.91183333  0.91443261  0.31373706  1
  Se  Se204  1  0.91684456  0.90960144  0.81429433  1
  Se  Se205  1  0.09053640  0.08496036  0.31417677  1
  Se  Se206  1  0.09376301  0.09279438  0.79942655  1
  Se  Se207  1  0.08508238  0.41433695  0.30047331  1
  Se  Se208  1  0.09216692  0.43024494  0.80684630  1
  Se  Se209  1  0.07846551  0.74279791  0.30514664  1
  Se  Se210  1  0.07903868  0.74952786  0.80481155  1
  Se  Se211  1  0.41310510  0.07705115  0.31026796  1
  Se  Se212  1  0.42783499  0.08564110  0.81059344  1
  Se  Se213  1  0.42781356  0.42052374  0.31790675  1
  Se  Se214  1  0.40915374  0.42270490  0.79646550  1
  Se  Se215  1  0.40356221  0.73203646  0.31129291  1
  Se  Se216  1  0.43887573  0.78246106  0.80200763  1
  Se  Se217  1  0.75688744  0.09812783  0.30641582  1
  Se  Se218  1  0.74493263  0.07276117  0.80349209  1
  Se  Se219  1  0.75991997  0.43057519  0.31205956  1
  Se  Se220  1  0.74918421  0.40976728  0.79975842  1
  Se  Se221  1  0.75067507  0.75256445  0.30641441  1
  Se  Se222  1  0.75713252  0.74878426  0.81172718  1
  Se  Se223  1  0.25431526  0.06979608  0.20763745  1
  Se  Se224  1  0.24713314  0.08772597  0.67832479  1
  Se  Se225  1  0.24944236  0.41994397  0.18779609  1
  Se  Se226  1  0.24997892  0.42425600  0.69831712  1
  Se  Se227  1  0.24897946  0.74216426  0.19427162  1
  Se  Se228  1  0.26171260  0.75196594  0.69280217  1
  Se  Se229  1  0.57277658  0.08336853  0.19428246  1
  Se  Se230  1  0.58435573  0.07560287  0.69050135  1
  Se  Se231  1  0.57718009  0.43005000  0.19560690  1
  Se  Se232  1  0.58009674  0.41409732  0.70416762  1
  Se  Se233  1  0.58767366  0.75910664  0.20773696  1
  Se  Se234  1  0.57993556  0.74899461  0.68041212  1
  Se  Se235  1  0.91097862  0.08488288  0.19012517  1
  Se  Se236  1  0.91085518  0.08836650  0.68953883  1
  Se  Se237  1  0.91943799  0.41454854  0.19494512  1
  Se  Se238  1  0.91163921  0.42395112  0.68372831  1
  Se  Se239  1  0.91694521  0.74993408  0.19886453  1
  Se  Se240  1  0.92096669  0.74684746  0.69938244  1
  Se  Se241  1  0.09809795  0.23321880  0.19657430  1
  Se  Se242  1  0.08881983  0.25374587  0.68655703  1
  Se  Se243  1  0.08200865  0.58351645  0.19472221  1
  Se  Se244  1  0.08538778  0.59483430  0.69663114  1
  Se  Se245  1  0.08951022  0.90257569  0.18952781  1
  Se  Se246  1  0.09780624  0.90332200  0.69210024  1
  Se  Se247  1  0.42103414  0.24085359  0.19165198  1
  Se  Se248  1  0.41462946  0.24655840  0.69787683  1
  Se  Se249  1  0.41348115  0.58600069  0.20280514  1
  Se  Se250  1  0.41917458  0.58641427  0.70358576  1
  Se  Se251  1  0.41931367  0.90235786  0.20409041  1
  Se  Se252  1  0.42348724  0.91501041  0.67819692  1
  Se  Se253  1  0.75357795  0.25250602  0.18631714  1
  Se  Se254  1  0.74480181  0.24733225  0.69518034  1
  Se  Se255  1  0.74698288  0.58669532  0.19668383  1
  Se  Se256  1  0.75515471  0.57480580  0.68640149  1
  Se  Se257  1  0.75380342  0.91840685  0.19519222  1
  Se  Se258  1  0.75327100  0.91192692  0.69820485  1
