# generated using pymatgen
data_In86Cu29Se144
_symmetry_space_group_name_H-M   'P 1'
_cell_length_a   17.58483435
_cell_length_b   17.58010539
_cell_length_c   23.44559872
_cell_angle_alpha   89.97344352
_cell_angle_beta   89.99240757
_cell_angle_gamma   90.00060974
_symmetry_Int_Tables_number   1
_chemical_formula_structural   In86Cu29Se144
_chemical_formula_sum   'In86 Cu29 Se144'
_cell_volume   7248.04753373
_cell_formula_units_Z   1
loop_
 _symmetry_equiv_pos_site_id
 _symmetry_equiv_pos_as_xyz
  1  'x, y, z'
loop_
 _atom_site_type_symbol
 _atom_site_label
 _atom_site_symmetry_multiplicity
 _atom_site_fract_x
 _atom_site_fract_y
 _atom_site_fract_z
 _atom_site_occupancy
  In  In0  1  0.00088981  0.14992842  0.13150395  1
  In  In1  1  -0.00497403  0.17087977  0.62843481  1
  In  In2  1  -0.00474783  0.50974679  0.11848570  1
  In  In3  1  -0.00870457  0.50635960  0.63231190  1
  In  In4  1  0.00576843  0.84273779  0.12340689  1
  In  In5  1  -0.00170423  0.83569719  0.62412040  1
  In  In6  1  0.31673240  0.16530732  0.12355038  1
  In  In7  1  0.34494849  0.16021226  0.62033623  1
  In  In8  1  0.34273071  0.49595067  0.12256407  1
  In  In9  1  0.32491494  0.50347871  0.63514373  1
  In  In10  1  0.33398484  0.83009687  0.13885697  1
  In  In11  1  0.32302218  0.83110669  0.62055013  1
  In  In12  1  0.68396324  0.17128530  0.12929817  1
  In  In13  1  0.66540469  0.16692260  0.62918689  1
  In  In14  1  0.66059905  0.50018876  0.11848523  1
  In  In15  1  0.67505028  0.49168442  0.63485176  1
  In  In16  1  0.66039453  0.82427782  0.11314386  1
  In  In17  1  0.67905826  0.82016051  0.63536391  1
  In  In18  1  0.15171203  -0.00968642  0.34930591  1
  In  In19  1  0.16590800  0.01043321  0.87514960  1
  In  In20  1  0.16689693  0.33386899  0.37579900  1
  In  In21  1  0.16168822  0.32484605  0.87050096  1
  In  In22  1  0.18539509  0.67829754  0.36707604  1
  In  In23  1  0.17133846  0.67176663  0.86751758  1
  In  In24  1  0.50229393  0.01461149  0.37560862  1
  In  In25  1  0.50102064  -0.01443343  0.87416530  1
  In  In26  1  0.49961042  0.31660848  0.37550149  1
  In  In27  1  0.51233087  0.34793063  0.86865246  1
  In  In28  1  0.48502159  0.67776854  0.37717695  1
  In  In29  1  0.50027364  0.66479219  0.87468020  1
  In  In30  1  0.84655250  -0.00989829  0.39682004  1
  In  In31  1  0.82806517  -0.00591688  0.86326056  1
  In  In32  1  0.82576893  0.33633603  0.38251647  1
  In  In33  1  0.83718652  0.34038507  0.86815541  1
  In  In34  1  0.84060974  0.66815689  0.38820579  1
  In  In35  1  0.83283431  0.66666317  0.87127919  1
  In  In36  1  0.00568590  0.12890381  0.38523979  1
  In  In37  1  0.00342914  0.16953955  0.86637484  1
  In  In38  1  -0.00201343  0.49375257  0.37982868  1
  In  In39  1  -0.01087614  0.49087842  0.86945038  1
  In  In40  1  -0.00500882  0.84703035  0.38518902  1
  In  In41  1  -0.00898727  0.82192068  0.86397617  1
  In  In42  1  0.34054163  0.16830383  0.37624968  1
  In  In43  1  0.31668724  0.16070635  0.87604133  1
  In  In44  1  0.32461326  0.51223424  0.37108785  1
  In  In45  1  0.34942537  0.51300560  0.87058358  1
  In  In46  1  0.31835383  0.82680371  0.36558270  1
  In  In47  1  0.34586250  0.82763711  0.87933219  1
  In  In48  1  0.66148174  0.16934990  0.38324722  1
  In  In49  1  0.67341083  0.17251802  0.86201479  1
  In  In50  1  0.68072010  0.50178500  0.37818995  1
  In  In51  1  0.66541752  0.50287111  0.87410385  1
  In  In52  1  0.66850567  0.84341423  0.38118507  1
  In  In53  1  0.67100812  0.83162138  0.86886376  1
  In  In54  1  0.15730724  0.00179854  0.14175304  1
  In  In55  1  0.16227057  -0.01681976  0.61497749  1
  In  In56  1  0.17971240  0.32988834  0.12126435  1
  In  In57  1  0.16133410  0.33835946  0.63511990  1
  In  In58  1  0.17778079  0.67090105  0.13068600  1
  In  In59  1  0.15974494  0.67212779  0.63078580  1
  In  In60  1  0.50127744  -0.01841124  0.12154256  1
  In  In61  1  0.49441994  0.01371377  0.62187163  1
  In  In62  1  0.50251018  0.35201080  0.12179723  1
  In  In63  1  0.50776120  0.32541223  0.63383808  1
  In  In64  1  0.48495348  0.66217941  0.11060928  1
  In  In65  1  0.49859378  0.67130173  0.63518388  1
  In  In66  1  0.84592879  -0.00749611  0.12561064  1
  In  In67  1  0.83778919  -0.00307703  0.62431318  1
  In  In68  1  0.82341809  0.33221114  0.12605376  1
  In  In69  1  0.83091327  0.33497384  0.62810586  1
  In  In70  1  0.83367507  0.66640200  0.11056603  1
  In  In71  1  0.83868240  0.66606217  0.62533237  1
  In  In72  1  0.83761638  0.16218718  0.00013146  1
  In  In73  1  0.33029786  -0.00235891  0.74347148  1
  In  In74  1  0.66315890  0.66474597  0.24936486  1
  In  In75  1  0.50211910  0.49803359  0.50018380  1
  In  In76  1  0.66692711  0.00489223  0.25113192  1
  In  In77  1  0.16768748  0.16104893  0.49702448  1
  In  In78  1  0.33878821  0.33475702  0.24875423  1
  In  In79  1  0.49902182  0.83954312  0.50231134  1
  In  In80  1  0.00143446  0.32840725  0.25780667  1
  In  In81  1  0.50104323  0.16800898  -0.00523364  1
  In  In82  1  0.16846194  0.83292726  0.00351462  1
  In  In83  1  0.16249948  0.50699605  0.49986475  1
  In  In84  1  0.16972780  0.49957348  0.00178389  1
  In  In85  1  0.00368477  0.67144824  0.24492454  1
  Cu  Cu86  1  0.33545699  0.33527058  -0.00269386  1
  Cu  Cu87  1  0.49769049  0.50156834  0.75184511  1
  Cu  Cu88  1  0.50569313  0.50173334  0.24550030  1
  Cu  Cu89  1  0.50511721  0.83021887  0.75443003  1
  Cu  Cu90  1  0.34002356  0.32921278  0.50431704  1
  Cu  Cu91  1  0.00452760  0.67478811  0.50698382  1
  Cu  Cu92  1  0.16639673  0.49526079  0.75634137  1
  Cu  Cu93  1  0.48785045  0.83050156  0.24885081  1
  Cu  Cu94  1  0.32820114  -0.00108424  -0.00003743  1
  Cu  Cu95  1  0.67226072  0.66336501  0.50705695  1
  Cu  Cu96  1  0.50519814  0.17262491  0.25089418  1
  Cu  Cu97  1  0.83110999  0.49651038  0.25328804  1
  Cu  Cu98  1  0.66782889  0.67050013  -0.00960889  1
  Cu  Cu99  1  0.83117016  0.50316417  0.75087821  1
  Cu  Cu100  1  0.83965485  0.83202980  0.74614291  1
  Cu  Cu101  1  0.00013390  0.32547864  -0.00885384  1
  Cu  Cu102  1  -0.00448865  0.66344791  -0.00831412  1
  Cu  Cu103  1  0.83232078  0.83722817  0.25501387  1
  Cu  Cu104  1  0.66711213  0.32895759  0.51046268  1
  Cu  Cu105  1  0.66926804  -0.01042925  -0.00765004  1
  Cu  Cu106  1  0.16193474  0.16584893  0.74875005  1
  Cu  Cu107  1  0.83219487  0.16579268  0.74344507  1
  Cu  Cu108  1  0.66764440  0.34120514  -0.00113604  1
  Cu  Cu109  1  0.16629838  0.83317047  0.74646635  1
  Cu  Cu110  1  0.83347142  0.16622672  0.25844260  1
  Cu  Cu111  1  0.49707159  0.16849285  0.74819982  1
  Cu  Cu112  1  0.67128612  0.00087764  0.50702286  1
  Cu  Cu113  1  0.00229173  -0.00436055  0.00221538  1
  Cu  Cu114  1  -0.01125548  0.33208898  0.50170570  1
  Se  Se115  1  0.08383411  0.07510768  0.05942257  1
  Se  Se116  1  0.07307512  0.07866341  0.55762243  1
  Se  Se117  1  0.07529185  0.40546490  0.05747719  1
  Se  Se118  1  0.07518922  0.41169742  0.55816979  1
  Se  Se119  1  0.07515682  0.73597083  0.05831088  1
  Se  Se120  1  0.09100054  0.75723957  0.55623066  1
  Se  Se121  1  0.41381946  0.07946939  0.05860592  1
  Se  Se122  1  0.40676507  0.07282640  0.54611005  1
  Se  Se123  1  0.41990834  0.42057487  0.04632380  1
  Se  Se124  1  0.41236961  0.41406450  0.56520781  1
  Se  Se125  1  0.41495728  0.76975971  0.05894968  1
  Se  Se126  1  0.41371958  0.74064964  0.55720946  1
  Se  Se127  1  0.74399790  0.06911999  0.05752724  1
  Se  Se128  1  0.75072333  0.08598282  0.56107399  1
  Se  Se129  1  0.75324668  0.41960873  0.05461080  1
  Se  Se130  1  0.75001313  0.41904916  0.55662098  1
  Se  Se131  1  0.75212554  0.75285704  0.04541715  1
  Se  Se132  1  0.75511181  0.75044588  0.55611364  1
  Se  Se133  1  0.25115002  0.24944546  0.04614287  1
  Se  Se134  1  0.24903086  0.25765118  0.56142890  1
  Se  Se135  1  0.26045105  0.59284571  0.05703574  1
  Se  Se136  1  0.25452922  0.59126755  0.56009941  1
  Se  Se137  1  0.24999155  0.92540816  0.06618790  1
  Se  Se138  1  0.27369915  0.93571763  0.55374987  1
  Se  Se139  1  0.59378299  0.25360314  0.05877464  1
  Se  Se140  1  0.57851835  0.24543218  0.55752401  1
  Se  Se141  1  0.58712635  0.59063050  0.05106312  1
  Se  Se142  1  0.58765805  0.58669228  0.56469263  1
  Se  Se143  1  0.58122797  0.91162681  0.04540760  1
  Se  Se144  1  0.59224433  0.91827496  0.56775481  1
  Se  Se145  1  0.92546906  0.25225304  0.06233409  1
  Se  Se146  1  0.91080323  0.24943485  0.55832045  1
  Se  Se147  1  0.91233778  0.57746721  0.04347003  1
  Se  Se148  1  0.92176064  0.58407580  0.55391458  1
  Se  Se149  1  0.91594580  0.91012372  0.05027221  1
  Se  Se150  1  0.91367771  0.91195983  0.55366155  1
  Se  Se151  1  0.07246103  0.25585614  0.44061832  1
  Se  Se152  1  0.08461012  0.24096206  0.94300157  1
  Se  Se153  1  0.07725416  0.59806676  0.43720007  1
  Se  Se154  1  0.08135544  0.58492685  0.93599679  1
  Se  Se155  1  0.08306285  0.94078587  0.43921762  1
  Se  Se156  1  0.07826892  0.91543648  0.93752988  1
  Se  Se157  1  0.42071856  0.24463324  0.45127062  1
  Se  Se158  1  0.41217346  0.25561199  0.93329294  1
  Se  Se159  1  0.40566496  0.58961199  0.44776714  1
  Se  Se160  1  0.42077605  0.58558652  0.94800684  1
  Se  Se161  1  0.41617223  0.91524879  0.42980951  1
  Se  Se162  1  0.41538173  0.91893836  0.94925185  1
  Se  Se163  1  0.74811765  0.24903105  0.45117608  1
  Se  Se164  1  0.74601670  0.25418128  0.94234724  1
  Se  Se165  1  0.75482816  0.58145594  0.45173364  1
  Se  Se166  1  0.75207975  0.58346788  0.94183986  1
  Se  Se167  1  0.74994886  0.91047391  0.45673667  1
  Se  Se168  1  0.75711920  0.91278114  0.93906383  1
  Se  Se169  1  0.24721329  0.07652710  0.42926061  1
  Se  Se170  1  0.24264775  0.08370960  0.95245676  1
  Se  Se171  1  0.26067005  0.41101094  0.44470748  1
  Se  Se172  1  0.25394853  0.41342272  0.93541959  1
  Se  Se173  1  0.25165352  0.75190574  0.44647736  1
  Se  Se174  1  0.25730301  0.74059274  0.94572511  1
  Se  Se175  1  0.58527591  0.08028887  0.45235344  1
  Se  Se176  1  0.59496800  0.07966034  0.93595020  1
  Se  Se177  1  0.59175304  0.40588508  0.44217105  1
  Se  Se178  1  0.58246388  0.42299416  0.94749213  1
  Se  Se179  1  0.59114935  0.74066658  0.44446522  1
  Se  Se180  1  0.58390470  0.75495959  0.93905880  1
  Se  Se181  1  0.89954652  0.10182069  0.45591737  1
  Se  Se182  1  0.92381852  0.07338909  0.93783402  1
  Se  Se183  1  0.91088993  0.42152002  0.44928357  1
  Se  Se184  1  0.91459796  0.41269198  0.94609518  1
  Se  Se185  1  0.91840438  0.75710559  0.45300717  1
  Se  Se186  1  0.91443513  0.75147638  0.94223632  1
  Se  Se187  1  0.24535369  0.24655289  0.30663671  1
  Se  Se188  1  0.24959084  0.24551718  0.80131973  1
  Se  Se189  1  0.24660476  0.58300178  0.29679478  1
  Se  Se190  1  0.25215708  0.58207800  0.80385830  1
  Se  Se191  1  0.25871433  0.92304691  0.29514922  1
  Se  Se192  1  0.24657365  0.90913716  0.81173951  1
  Se  Se193  1  0.59117710  0.25053910  0.30430879  1
  Se  Se194  1  0.58134207  0.25287033  0.80062580  1
  Se  Se195  1  0.57494440  0.57944388  0.31545000  1
  Se  Se196  1  0.58334469  0.58467687  0.80394809  1
  Se  Se197  1  0.57498422  0.90799374  0.30658301  1
  Se  Se198  1  0.58803407  0.91979127  0.80086356  1
  Se  Se199  1  0.91454627  0.24206651  0.32088076  1
  Se  Se200  1  0.91237166  0.24800920  0.80237604  1
  Se  Se201  1  0.91179834  0.58084963  0.30857859  1
  Se  Se202  1  0.91883235  0.58504666  0.80246838  1
  Se  Se203  1  0.90991649  0.92102966  0.31077992  1
  Se  Se204  1  0.92209141  0.91906508  0.79806814  1
  Se  Se205  1  0.08318471  0.10137654  0.29664482  1
  Se  Se206  1  0.08149667  0.07758265  0.80007817  1
  Se  Se207  1  0.09397817  0.42936646  0.30721607  1
  Se  Se208  1  0.07904286  0.41078833  0.80451479  1
  Se  Se209  1  0.07881068  0.75958826  0.31365897  1
  Se  Se210  1  0.08374199  0.74644791  0.79847933  1
  Se  Se211  1  0.42119501  0.09014425  0.30233169  1
  Se  Se212  1  0.41925477  0.08557289  0.80995202  1
  Se  Se213  1  0.42744661  0.42458740  0.31235935  1
  Se  Se214  1  0.41392277  0.41460858  0.80249456  1
  Se  Se215  1  0.40692658  0.74213869  0.29850459  1
  Se  Se216  1  0.41615006  0.74813584  0.80352452  1
  Se  Se217  1  0.75583104  0.08235633  0.31854472  1
  Se  Se218  1  0.74827665  0.08156142  0.79649644  1
  Se  Se219  1  0.74808726  0.41380463  0.30532450  1
  Se  Se220  1  0.74649840  0.41844736  0.80353307  1
  Se  Se221  1  0.75420351  0.75307547  0.31269061  1
  Se  Se222  1  0.75392615  0.74957162  0.79958887  1
  Se  Se223  1  0.25138870  0.08598416  0.19949572  1
  Se  Se224  1  0.23921875  0.08754262  0.68435213  1
  Se  Se225  1  0.24460020  0.42567808  0.19234024  1
  Se  Se226  1  0.25111145  0.41276549  0.70287347  1
  Se  Se227  1  0.22543930  0.77196068  0.19998048  1
  Se  Se228  1  0.25301196  0.74999064  0.69679601  1
  Se  Se229  1  0.57800906  0.09058279  0.18481853  1
  Se  Se230  1  0.57867537  0.08243673  0.69661281  1
  Se  Se231  1  0.59069671  0.41802646  0.19575410  1
  Se  Se232  1  0.58245782  0.41648515  0.70034609  1
  Se  Se233  1  0.57293571  0.75297521  0.18943765  1
  Se  Se234  1  0.58876635  0.74464272  0.70301687  1
  Se  Se235  1  0.90882476  0.08079564  0.20079877  1
  Se  Se236  1  0.91839926  0.08082806  0.69580755  1
  Se  Se237  1  0.91528831  0.42123649  0.19231514  1
  Se  Se238  1  0.91441455  0.41640063  0.69878038  1
  Se  Se239  1  0.90337577  0.75599115  0.18877132  1
  Se  Se240  1  0.92351215  0.74681169  0.69447129  1
  Se  Se241  1  0.08951696  0.24768836  0.18941415  1
  Se  Se242  1  0.07722061  0.25216887  0.69895148  1
  Se  Se243  1  0.09110500  0.57257228  0.18998748  1
  Se  Se244  1  0.08739257  0.57796483  0.69724041  1
  Se  Se245  1  0.06731222  0.91851087  0.20325622  1
  Se  Se246  1  0.08411014  0.91758877  0.69461714  1
  Se  Se247  1  0.42693634  0.24725316  0.18361892  1
  Se  Se248  1  0.40979343  0.24758361  0.69507914  1
  Se  Se249  1  0.42101299  0.58201316  0.19177804  1
  Se  Se250  1  0.41378203  0.58532841  0.69941238  1
  Se  Se251  1  0.41474014  0.92651447  0.20002132  1
  Se  Se252  1  0.42579940  0.90695720  0.68891688  1
  Se  Se253  1  0.75445944  0.25220099  0.20435664  1
  Se  Se254  1  0.74597719  0.25349145  0.69716949  1
  Se  Se255  1  0.75923429  0.58042477  0.18960976  1
  Se  Se256  1  0.75140335  0.58837566  0.69605170  1
  Se  Se257  1  0.74748449  0.90661650  0.18997540  1
  Se  Se258  1  0.75377829  0.91766346  0.69688628  1
