# generated using pymatgen
data_In86Cu29Se144
_symmetry_space_group_name_H-M   'P 1'
_cell_length_a   17.57297527
_cell_length_b   17.57267710
_cell_length_c   23.42834755
_cell_angle_alpha   89.99644944
_cell_angle_beta   90.03745446
_cell_angle_gamma   89.99423759
_symmetry_Int_Tables_number   1
_chemical_formula_structural   In86Cu29Se144
_chemical_formula_sum   'In86 Cu29 Se144'
_cell_volume   7234.77099925
_cell_formula_units_Z   1
loop_
 _symmetry_equiv_pos_site_id
 _symmetry_equiv_pos_as_xyz
  1  'x, y, z'
loop_
 _atom_site_type_symbol
 _atom_site_label
 _atom_site_symmetry_multiplicity
 _atom_site_fract_x
 _atom_site_fract_y
 _atom_site_fract_z
 _atom_site_occupancy
  In  In0  1  0.00190946  0.16948502  0.12781789  1
  In  In1  1  0.01193638  0.15386277  0.62854801  1
  In  In2  1  -0.00418539  0.48177431  0.11881004  1
  In  In3  1  -0.00210922  0.50207961  0.63536471  1
  In  In4  1  0.00536541  0.84634748  0.11673136  1
  In  In5  1  0.00712659  0.82537472  0.63505154  1
  In  In6  1  0.32894481  0.16680858  0.12274377  1
  In  In7  1  0.32156268  0.18043678  0.63592820  1
  In  In8  1  0.33142965  0.49781146  0.11915045  1
  In  In9  1  0.30870536  0.51041797  0.65314713  1
  In  In10  1  0.34120367  0.82093912  0.12576623  1
  In  In11  1  0.32702268  0.84239339  0.63941784  1
  In  In12  1  0.66101229  0.17636784  0.13787961  1
  In  In13  1  0.66621188  0.16612629  0.62064105  1
  In  In14  1  0.66532773  0.50827161  0.13626977  1
  In  In15  1  0.67196359  0.48645553  0.61834679  1
  In  In16  1  0.66463582  0.83167765  0.12365143  1
  In  In17  1  0.65885810  0.83746508  0.61968806  1
  In  In18  1  0.17997562  0.01043765  0.37188007  1
  In  In19  1  0.17705383  0.00915351  0.87445275  1
  In  In20  1  0.15657149  0.32576850  0.36678552  1
  In  In21  1  0.16165845  0.32917869  0.88127855  1
  In  In22  1  0.17226121  0.65623841  0.37083198  1
  In  In23  1  0.15216174  0.64511036  0.86560214  1
  In  In24  1  0.50709034  0.00750959  0.36194636  1
  In  In25  1  0.48920747  0.00428118  0.89120483  1
  In  In26  1  0.49897303  0.33691797  0.36476734  1
  In  In27  1  0.48700863  0.34668760  0.89522339  1
  In  In28  1  0.50113240  0.66357788  0.36376414  1
  In  In29  1  0.48777844  0.67423357  0.88504382  1
  In  In30  1  0.83314901  0.00422065  0.35774058  1
  In  In31  1  0.83596395  -0.01311702  0.88086768  1
  In  In32  1  0.85770772  0.34635148  0.34349401  1
  In  In33  1  0.84489256  0.32419213  0.87616203  1
  In  In34  1  0.82989833  0.67461401  0.37383769  1
  In  In35  1  0.86428498  0.66612981  0.88757884  1
  In  In36  1  0.00664706  0.17173104  0.36682076  1
  In  In37  1  0.02198283  0.18338055  0.86768335  1
  In  In38  1  0.01053049  0.48938935  0.37631594  1
  In  In39  1  0.01369714  0.49967716  0.87264829  1
  In  In40  1  -0.00868806  0.83329037  0.37464210  1
  In  In41  1  -0.00532011  0.82762453  0.87722657  1
  In  In42  1  0.33147748  0.16892520  0.36795874  1
  In  In43  1  0.33149632  0.16572906  0.88504333  1
  In  In44  1  0.33417241  0.50239920  0.36336543  1
  In  In45  1  0.32507408  0.49572137  0.87488728  1
  In  In46  1  0.33734704  0.83732399  0.36581110  1
  In  In47  1  0.33524950  0.83867913  0.87596709  1
  In  In48  1  0.67143386  0.16716121  0.35644814  1
  In  In49  1  0.66330019  0.15398881  0.88062179  1
  In  In50  1  0.69117743  0.51427029  0.35034677  1
  In  In51  1  0.66229958  0.48672416  0.88028437  1
  In  In52  1  0.67349693  0.83744149  0.36109966  1
  In  In53  1  0.66671707  0.83150311  0.88721647  1
  In  In54  1  0.15387136  0.01520539  0.12815316  1
  In  In55  1  0.16229665  0.00569184  0.63065991  1
  In  In56  1  0.16481574  0.33996259  0.11659457  1
  In  In57  1  0.17074485  0.32962971  0.63533280  1
  In  In58  1  0.17543503  0.67047541  0.11818235  1
  In  In59  1  0.16221152  0.67064374  0.63862268  1
  In  In60  1  0.49607168  -0.00325342  0.12500211  1
  In  In61  1  0.49943790  -0.00514768  0.62441968  1
  In  In62  1  0.49462197  0.33023204  0.12115205  1
  In  In63  1  0.49141526  0.32488442  0.62646304  1
  In  In64  1  0.49861409  0.66221597  0.11883730  1
  In  In65  1  0.49165544  0.65841464  0.62791743  1
  In  In66  1  0.84585401  0.00378048  0.13736548  1
  In  In67  1  0.83687541  0.00982126  0.62271747  1
  In  In68  1  0.83969629  0.32909845  0.14451741  1
  In  In69  1  0.83316593  0.34804770  0.61852594  1
  In  In70  1  0.81918295  0.65584022  0.12831192  1
  In  In71  1  0.85201725  0.65835546  0.62174111  1
  In  In72  1  0.83475593  0.16875427  0.48719751  1
  In  In73  1  0.66735900  0.67031440  0.75199010  1
  In  In74  1  0.50352385  0.17014772  0.48840763  1
  In  In75  1  0.83461739  0.16690668  0.01229225  1
  In  In76  1  0.83426537  0.83486052  0.49010420  1
  In  In77  1  0.82871270  0.50082644  0.00342489  1
  In  In78  1  0.50060994  0.83807527  0.49850193  1
  In  In79  1  0.49780307  0.49055167  0.50406364  1
  In  In80  1  0.16101906  0.49613112  0.50626578  1
  In  In81  1  0.66741496  0.00011901  0.74374226  1
  In  In82  1  0.16820660  0.83171570  -0.00445880  1
  In  In83  1  0.66225421  0.32699287  0.74569283  1
  In  In84  1  0.00474795  0.66760584  0.24811249  1
  In  In85  1  0.16600544  0.83229169  0.51116870  1
  Cu  Cu86  1  0.33554778  0.01773335  0.49772823  1
  Cu  Cu87  1  0.32188970  0.33976238  0.50614657  1
  Cu  Cu88  1  0.67454772  0.66509236  0.49087655  1
  Cu  Cu89  1  0.33079856  -0.00357531  0.00580153  1
  Cu  Cu90  1  0.16678095  0.84253850  0.24109036  1
  Cu  Cu91  1  0.84782920  0.16333499  0.75068943  1
  Cu  Cu92  1  0.00499082  -0.00329041  0.50060712  1
  Cu  Cu93  1  0.33256807  0.65807957  -0.00432685  1
  Cu  Cu94  1  0.33257793  0.66758517  0.49889571  1
  Cu  Cu95  1  0.17111399  0.49759565  0.24391769  1
  Cu  Cu96  1  0.16999250  0.17241535  0.24514663  1
  Cu  Cu97  1  0.66453269  0.66539713  0.00458023  1
  Cu  Cu98  1  -0.00379491  0.32517850  0.49412927  1
  Cu  Cu99  1  0.84004328  0.49949576  0.75169479  1
  Cu  Cu100  1  0.48825593  0.16426531  0.24278902  1
  Cu  Cu101  1  0.16683546  0.83396211  0.75922069  1
  Cu  Cu102  1  0.49007216  0.50141738  0.76015511  1
  Cu  Cu103  1  0.49397227  0.84394881  0.75950020  1
  Cu  Cu104  1  0.49753934  0.82678262  0.24193281  1
  Cu  Cu105  1  0.67433241  0.33937359  0.48465686  1
  Cu  Cu106  1  0.16949069  0.16142077  0.75510295  1
  Cu  Cu107  1  0.83348730  0.83054183  0.24564911  1
  Cu  Cu108  1  0.84091590  0.82767470  0.75457090  1
  Cu  Cu109  1  0.66647091  0.32956572  0.01047002  1
  Cu  Cu110  1  0.33155174  0.33023705  0.00228667  1
  Cu  Cu111  1  0.66056494  -0.00064499  0.00667062  1
  Cu  Cu112  1  -0.00466506  0.01010475  0.00037504  1
  Cu  Cu113  1  0.49430709  0.49825973  0.24048677  1
  Cu  Cu114  1  0.48882958  0.17191954  0.76288503  1
  Se  Se115  1  0.08020202  0.09314756  0.05175839  1
  Se  Se116  1  0.08935589  0.08044625  0.55128784  1
  Se  Se117  1  0.09825585  0.43772605  0.04833121  1
  Se  Se118  1  0.07252860  0.40093984  0.56103144  1
  Se  Se119  1  0.07374386  0.74317045  0.05265384  1
  Se  Se120  1  0.07372701  0.73395668  0.55879701  1
  Se  Se121  1  0.41460715  0.08189947  0.05637702  1
  Se  Se122  1  0.41696772  0.09118005  0.56135292  1
  Se  Se123  1  0.41744421  0.41651212  0.05071266  1
  Se  Se124  1  0.39913041  0.41901802  0.56969167  1
  Se  Se125  1  0.41368596  0.74416888  0.04877984  1
  Se  Se126  1  0.40799837  0.75075598  0.56121500  1
  Se  Se127  1  0.74153684  0.07739978  0.06852721  1
  Se  Se128  1  0.74406917  0.07756911  0.55013488  1
  Se  Se129  1  0.74896770  0.40791934  0.06871817  1
  Se  Se130  1  0.75518324  0.42127868  0.54163275  1
  Se  Se131  1  0.75070384  0.74610231  0.05697658  1
  Se  Se132  1  0.74634245  0.74495697  0.55773530  1
  Se  Se133  1  0.24554884  0.24726101  0.05273499  1
  Se  Se134  1  0.24338951  0.25053946  0.55745759  1
  Se  Se135  1  0.24651236  0.57966525  0.04946286  1
  Se  Se136  1  0.25548922  0.58991565  0.56279456  1
  Se  Se137  1  0.24748206  0.91867417  0.06576025  1
  Se  Se138  1  0.26376236  0.92890329  0.55827790  1
  Se  Se139  1  0.58225927  0.24211788  0.05759631  1
  Se  Se140  1  0.59453948  0.26490158  0.55076663  1
  Se  Se141  1  0.58714913  0.57532603  0.05589767  1
  Se  Se142  1  0.59163327  0.59218957  0.55649089  1
  Se  Se143  1  0.57744923  0.91190663  0.05553487  1
  Se  Se144  1  0.59632221  0.93566418  0.54886447  1
  Se  Se145  1  0.92255400  0.26806469  0.06072710  1
  Se  Se146  1  0.91975848  0.24690762  0.56010120  1
  Se  Se147  1  0.92087368  0.59110611  0.06008252  1
  Se  Se148  1  0.91400718  0.56177349  0.55546170  1
  Se  Se149  1  0.91271990  0.92854608  0.05510184  1
  Se  Se150  1  0.92550229  0.91652355  0.55940449  1
  Se  Se151  1  0.08468829  0.24592684  0.44338562  1
  Se  Se152  1  0.08140867  0.24748792  0.95368207  1
  Se  Se153  1  0.07908638  0.59119773  0.44396681  1
  Se  Se154  1  0.07722330  0.58573370  0.94885807  1
  Se  Se155  1  0.08545330  0.91749111  0.43974707  1
  Se  Se156  1  0.07725486  0.92912677  0.94128097  1
  Se  Se157  1  0.40713594  0.26766232  0.44264887  1
  Se  Se158  1  0.41929381  0.24322730  0.95481400  1
  Se  Se159  1  0.41325018  0.58762499  0.44115457  1
  Se  Se160  1  0.41726945  0.57200153  0.94464147  1
  Se  Se161  1  0.41220049  0.93194770  0.43900819  1
  Se  Se162  1  0.41332019  0.90909235  0.95487176  1
  Se  Se163  1  0.75190095  0.25918798  0.42465341  1
  Se  Se164  1  0.74359621  0.25479125  0.94468971  1
  Se  Se165  1  0.75446907  0.57944529  0.43843044  1
  Se  Se166  1  0.74358266  0.59225083  0.93712416  1
  Se  Se167  1  0.74482311  0.92729782  0.43523573  1
  Se  Se168  1  0.74713481  0.91999046  0.95290962  1
  Se  Se169  1  0.25028869  0.09749854  0.44515368  1
  Se  Se170  1  0.24797923  0.08168909  0.95420580  1
  Se  Se171  1  0.25135288  0.41725309  0.43706783  1
  Se  Se172  1  0.24911424  0.41270334  0.94803100  1
  Se  Se173  1  0.25482433  0.75000240  0.44066822  1
  Se  Se174  1  0.25154510  0.73796720  0.93414940  1
  Se  Se175  1  0.59700928  0.07923813  0.43564608  1
  Se  Se176  1  0.57969891  0.08623580  0.95502633  1
  Se  Se177  1  0.58782764  0.42240702  0.43151892  1
  Se  Se178  1  0.58566523  0.41849571  0.95875402  1
  Se  Se179  1  0.58934150  0.74615212  0.43642732  1
  Se  Se180  1  0.57950145  0.74973664  0.95176177  1
  Se  Se181  1  0.92620495  0.07046801  0.43546493  1
  Se  Se182  1  0.91729104  0.09023000  0.93730405  1
  Se  Se183  1  0.91682429  0.40471747  0.43542895  1
  Se  Se184  1  0.92105095  0.41427449  0.94334200  1
  Se  Se185  1  0.93062069  0.73545192  0.44672058  1
  Se  Se186  1  0.90618529  0.77170553  0.95542862  1
  Se  Se187  1  0.25256854  0.25617096  0.30034817  1
  Se  Se188  1  0.24751366  0.24312460  0.81381487  1
  Se  Se189  1  0.25214624  0.58670217  0.29510978  1
  Se  Se190  1  0.25861838  0.58761456  0.80414728  1
  Se  Se191  1  0.25050322  0.91965061  0.30142853  1
  Se  Se192  1  0.25285880  0.91943228  0.80610590  1
  Se  Se193  1  0.57266508  0.24548909  0.29847575  1
  Se  Se194  1  0.57887332  0.24779201  0.81755074  1
  Se  Se195  1  0.58024940  0.57997804  0.29524056  1
  Se  Se196  1  0.57948440  0.57884219  0.81407207  1
  Se  Se197  1  0.57958057  0.91155316  0.29729394  1
  Se  Se198  1  0.58310994  0.91906433  0.81547501  1
  Se  Se199  1  0.91088544  0.22678571  0.29345477  1
  Se  Se200  1  0.92490239  0.25411685  0.80046071  1
  Se  Se201  1  0.92071719  0.58169684  0.31345052  1
  Se  Se202  1  0.91987073  0.58175128  0.80781672  1
  Se  Se203  1  0.91912116  0.91154420  0.29924672  1
  Se  Se204  1  0.91922927  0.91730858  0.80597413  1
  Se  Se205  1  0.09238397  0.08588641  0.30233057  1
  Se  Se206  1  0.08260453  0.07714813  0.80502097  1
  Se  Se207  1  0.08426779  0.41721788  0.29757885  1
  Se  Se208  1  0.08814300  0.41119824  0.80578483  1
  Se  Se209  1  0.09514059  0.76091849  0.30882593  1
  Se  Se210  1  0.07953491  0.74984533  0.80753009  1
  Se  Se211  1  0.40933524  0.08059163  0.30034991  1
  Se  Se212  1  0.41432850  0.08052549  0.81449264  1
  Se  Se213  1  0.41217946  0.41527404  0.29673954  1
  Se  Se214  1  0.41605146  0.40888078  0.81091196  1
  Se  Se215  1  0.41386119  0.74714802  0.29998135  1
  Se  Se216  1  0.41586482  0.75126096  0.80720932  1
  Se  Se217  1  0.73575079  0.06762635  0.29208233  1
  Se  Se218  1  0.75902328  0.08725623  0.80716776  1
  Se  Se219  1  0.73221453  0.39261494  0.29831187  1
  Se  Se220  1  0.75548258  0.41707218  0.80707811  1
  Se  Se221  1  0.75036078  0.74474835  0.29664438  1
  Se  Se222  1  0.75842336  0.75217999  0.81658247  1
  Se  Se223  1  0.25023962  0.08263125  0.19505229  1
  Se  Se224  1  0.25309432  0.07954923  0.69912393  1
  Se  Se225  1  0.25270313  0.41355393  0.19029695  1
  Se  Se226  1  0.24580965  0.40611097  0.71125335  1
  Se  Se227  1  0.24641993  0.75066377  0.19453241  1
  Se  Se228  1  0.25118282  0.75135622  0.70386954  1
  Se  Se229  1  0.57693664  0.08044942  0.19566356  1
  Se  Se230  1  0.57043568  0.09951218  0.69446128  1
  Se  Se231  1  0.57884085  0.41229183  0.19126455  1
  Se  Se232  1  0.56996100  0.42729291  0.69224491  1
  Se  Se233  1  0.58191778  0.74370026  0.18964197  1
  Se  Se234  1  0.57114648  0.76367547  0.69483599  1
  Se  Se235  1  0.91213216  0.10385563  0.20194721  1
  Se  Se236  1  0.92342121  0.07386545  0.69689497  1
  Se  Se237  1  0.91538814  0.43025784  0.20214011  1
  Se  Se238  1  0.91516314  0.40891336  0.69788005  1
  Se  Se239  1  0.91698774  0.75561770  0.18428804  1
  Se  Se240  1  0.91825331  0.74174895  0.69816091  1
  Se  Se241  1  0.08815471  0.25648320  0.19093293  1
  Se  Se242  1  0.08480868  0.24145918  0.69833331  1
  Se  Se243  1  0.08998187  0.57836324  0.18475682  1
  Se  Se244  1  0.09504311  0.57015599  0.69917269  1
  Se  Se245  1  0.07646516  0.92325225  0.19477568  1
  Se  Se246  1  0.08707403  0.91470314  0.69823183  1
  Se  Se247  1  0.40899309  0.25266715  0.19206993  1
  Se  Se248  1  0.41263605  0.25630744  0.70389746  1
  Se  Se249  1  0.41140367  0.58446722  0.18882667  1
  Se  Se250  1  0.41332920  0.59025420  0.70496147  1
  Se  Se251  1  0.41192241  0.91395721  0.19427857  1
  Se  Se252  1  0.41746773  0.92771623  0.70029101  1
  Se  Se253  1  0.75055847  0.24800511  0.20654801  1
  Se  Se254  1  0.76177992  0.23906479  0.68890618  1
  Se  Se255  1  0.75714427  0.57580477  0.20654724  1
  Se  Se256  1  0.75237315  0.57312329  0.69121033  1
  Se  Se257  1  0.75156662  0.91431347  0.19192532  1
  Se  Se258  1  0.76148935  0.90376281  0.68870618  1
