# generated using pymatgen
data_In86Cu29Se144
_symmetry_space_group_name_H-M   'P 1'
_cell_length_a   17.58175576
_cell_length_b   17.57872803
_cell_length_c   23.44406085
_cell_angle_alpha   89.99311331
_cell_angle_beta   90.00043453
_cell_angle_gamma   89.99834911
_symmetry_Int_Tables_number   1
_chemical_formula_structural   In86Cu29Se144
_chemical_formula_sum   'In86 Cu29 Se144'
_cell_volume   7245.73633118
_cell_formula_units_Z   1
loop_
 _symmetry_equiv_pos_site_id
 _symmetry_equiv_pos_as_xyz
  1  'x, y, z'
loop_
 _atom_site_type_symbol
 _atom_site_label
 _atom_site_symmetry_multiplicity
 _atom_site_fract_x
 _atom_site_fract_y
 _atom_site_fract_z
 _atom_site_occupancy
  In  In0  1  -0.00393841  0.18203607  0.11208018  1
  In  In1  1  -0.00172815  0.16857844  0.62792182  1
  In  In2  1  -0.00667267  0.50080248  0.12502113  1
  In  In3  1  -0.00786646  0.50261296  0.62679382  1
  In  In4  1  -0.00079154  0.82588874  0.12137173  1
  In  In5  1  -0.00015882  0.84150809  0.62929397  1
  In  In6  1  0.32806995  0.16050526  0.13023382  1
  In  In7  1  0.32905343  0.15719463  0.62087730  1
  In  In8  1  0.32004004  0.48716343  0.12905974  1
  In  In9  1  0.33170108  0.50356585  0.62114559  1
  In  In10  1  0.33746432  0.85073967  0.12306835  1
  In  In11  1  0.34272389  0.84341975  0.62731882  1
  In  In12  1  0.68179312  0.19569114  0.10339398  1
  In  In13  1  0.68378548  0.17888229  0.61598841  1
  In  In14  1  0.69189235  0.47612628  0.13652215  1
  In  In15  1  0.66931560  0.47859112  0.62550902  1
  In  In16  1  0.65542614  0.84236335  0.12871502  1
  In  In17  1  0.67164757  0.82229615  0.62590948  1
  In  In18  1  0.18113919  0.00659273  0.36585278  1
  In  In19  1  0.16070583  0.00129874  0.87988455  1
  In  In20  1  0.14724476  0.30886412  0.35830851  1
  In  In21  1  0.14369215  0.33018012  0.88180329  1
  In  In22  1  0.16002637  0.67624201  0.37115975  1
  In  In23  1  0.16237937  0.68041858  0.87866955  1
  In  In24  1  0.49937651  0.01796948  0.37351869  1
  In  In25  1  0.48722640  0.01210765  0.88003562  1
  In  In26  1  0.48944950  0.32181619  0.36391992  1
  In  In27  1  0.50554828  0.31618372  0.88251714  1
  In  In28  1  0.50585324  0.65127178  0.37358989  1
  In  In29  1  0.51065589  0.67218683  0.87998561  1
  In  In30  1  0.83541381  0.00334750  0.38012852  1
  In  In31  1  0.85144927  0.00811044  0.87606922  1
  In  In32  1  0.84473421  0.32985519  0.37308382  1
  In  In33  1  0.84365810  0.33150609  0.88219093  1
  In  In34  1  0.83372029  0.66287144  0.37336477  1
  In  In35  1  0.83378283  0.65530872  0.87470933  1
  In  In36  1  -0.00930485  0.18764111  0.38874183  1
  In  In37  1  -0.00101765  0.16704052  0.88589734  1
  In  In38  1  -0.02206732  0.47948880  0.36722601  1
  In  In39  1  -0.02159745  0.48250846  0.86197435  1
  In  In40  1  -0.00120196  0.82373979  0.37027379  1
  In  In41  1  0.01533332  0.84770064  0.86259667  1
  In  In42  1  0.33112088  0.16826904  0.37277758  1
  In  In43  1  0.33480571  0.15639228  0.87895860  1
  In  In44  1  0.34437953  0.49206368  0.37471536  1
  In  In45  1  0.32946203  0.49505101  0.87533639  1
  In  In46  1  0.32126358  0.84034357  0.37058292  1
  In  In47  1  0.31630792  0.84977201  0.88410748  1
  In  In48  1  0.66519540  0.17136851  0.37566676  1
  In  In49  1  0.67023622  0.17914594  0.88876460  1
  In  In50  1  0.67738308  0.50181602  0.36724311  1
  In  In51  1  0.69052715  0.49027195  0.88618602  1
  In  In52  1  0.68414580  0.83567790  0.37338888  1
  In  In53  1  0.66236773  0.82110301  0.88180813  1
  In  In54  1  0.17526620  0.02904045  0.11091590  1
  In  In55  1  0.15903125  0.01307660  0.63440418  1
  In  In56  1  0.15822536  0.31202257  0.14018504  1
  In  In57  1  0.16053159  0.31586959  0.62060812  1
  In  In58  1  0.15110964  0.66453208  0.12448008  1
  In  In59  1  0.15750816  0.65453120  0.62362843  1
  In  In60  1  0.49668122  0.00192957  0.12199921  1
  In  In61  1  0.48825161  0.00258689  0.63099124  1
  In  In62  1  0.51258084  0.31729256  0.12920162  1
  In  In63  1  0.52036130  0.33359062  0.62502976  1
  In  In64  1  0.50308611  0.67920514  0.12739527  1
  In  In65  1  0.50014381  0.67100232  0.62453433  1
  In  In66  1  0.83745011  0.00724155  0.11870179  1
  In  In67  1  0.85192588  0.01577243  0.61689292  1
  In  In68  1  0.82877497  0.33384654  0.11914866  1
  In  In69  1  0.83700964  0.32925224  0.62406753  1
  In  In70  1  0.84269959  0.65435702  0.13166227  1
  In  In71  1  0.84176715  0.67423472  0.61649976  1
  In  In72  1  0.50321122  0.50072819  0.00431675  1
  In  In73  1  0.83392879  0.83361480  -0.00113471  1
  In  In74  1  0.15954107  0.49213241  0.49707227  1
  In  In75  1  0.66786212  0.66065208  0.75319829  1
  In  In76  1  0.00690138  0.01310781  0.23932184  1
  In  In77  1  0.66857679  0.00790837  0.25110876  1
  In  In78  1  0.15750227  0.50028582  0.00666816  1
  In  In79  1  0.67221512  0.00252630  0.75016013  1
  In  In80  1  0.32726413  0.32827840  0.74399702  1
  In  In81  1  0.33365527  0.66307284  0.25291939  1
  In  In82  1  0.16621575  0.83778924  0.49425671  1
  In  In83  1  0.32914766  0.67151534  0.74442208  1
  In  In84  1  0.50336289  0.83445653  0.50663911  1
  In  In85  1  0.50540457  0.49317515  0.49751962  1
  Cu  Cu86  1  0.67460992  0.66470610  0.49715664  1
  Cu  Cu87  1  0.83419877  0.49786717  0.25095639  1
  Cu  Cu88  1  0.83873293  0.17348816  0.74991974  1
  Cu  Cu89  1  0.32716119  0.32308081  0.00658243  1
  Cu  Cu90  1  0.50674294  0.49669209  0.24868397  1
  Cu  Cu91  1  0.33649855  0.67796608  0.00274825  1
  Cu  Cu92  1  0.83281251  0.49374255  0.74987440  1
  Cu  Cu93  1  0.00494988  0.00352450  0.50302266  1
  Cu  Cu94  1  0.50021664  0.83654864  0.24695634  1
  Cu  Cu95  1  0.15502062  0.50048415  0.74990384  1
  Cu  Cu96  1  0.67465695  0.33002922  0.49496784  1
  Cu  Cu97  1  0.16188820  0.16495602  0.75511280  1
  Cu  Cu98  1  0.48972338  0.84246293  0.75972528  1
  Cu  Cu99  1  0.49648199  0.16386514  0.24724214  1
  Cu  Cu100  1  -0.00755677  0.66465075  0.49533949  1
  Cu  Cu101  1  0.16405190  0.83964727  0.75466930  1
  Cu  Cu102  1  0.66959250  0.00117320  0.49519541  1
  Cu  Cu103  1  0.50740423  0.48917570  0.75297160  1
  Cu  Cu104  1  0.33182267  -0.00094463  0.00121911  1
  Cu  Cu105  1  0.84251513  0.83656247  0.74580304  1
  Cu  Cu106  1  0.83906127  0.82743078  0.25032312  1
  Cu  Cu107  1  0.65430102  -0.00447598  -0.00201938  1
  Cu  Cu108  1  0.33614249  0.32310591  0.49371733  1
  Cu  Cu109  1  0.33541503  0.00654594  0.49947503  1
  Cu  Cu110  1  0.66384568  0.66921989  0.00857123  1
  Cu  Cu111  1  0.16534094  0.83611697  0.24573879  1
  Cu  Cu112  1  0.00014127  0.66738071  -0.00285216  1
  Cu  Cu113  1  0.15953131  0.49553140  0.24595084  1
  Cu  Cu114  1  0.50829368  0.16979877  0.75566744  1
  Se  Se115  1  0.07213083  0.08942976  0.04784464  1
  Se  Se116  1  0.08562882  0.08751342  0.55727939  1
  Se  Se117  1  0.07814155  0.40302358  0.06497986  1
  Se  Se118  1  0.07096998  0.40598921  0.55904386  1
  Se  Se119  1  0.08443577  0.74950015  0.04925875  1
  Se  Se120  1  0.07683805  0.74369153  0.55364312  1
  Se  Se121  1  0.41181536  0.08545743  0.05558617  1
  Se  Se122  1  0.42339329  0.08453407  0.55319354  1
  Se  Se123  1  0.40969164  0.40873724  0.06078089  1
  Se  Se124  1  0.41098456  0.40397595  0.55895961  1
  Se  Se125  1  0.41779687  0.75726993  0.05930024  1
  Se  Se126  1  0.40362863  0.74100675  0.55632897  1
  Se  Se127  1  0.73594692  0.07275533  0.05612235  1
  Se  Se128  1  0.75349492  0.08225601  0.55096493  1
  Se  Se129  1  0.75648763  0.42497889  0.04782744  1
  Se  Se130  1  0.75439066  0.41299520  0.55159634  1
  Se  Se131  1  0.74765962  0.74969827  0.06682256  1
  Se  Se132  1  0.75217413  0.75369018  0.54994660  1
  Se  Se133  1  0.24236084  0.24606841  0.06258573  1
  Se  Se134  1  0.25308597  0.24640583  0.55292521  1
  Se  Se135  1  0.25831417  0.59167161  0.05998296  1
  Se  Se136  1  0.25368447  0.59029254  0.55129720  1
  Se  Se137  1  0.24412606  0.91983807  0.05469410  1
  Se  Se138  1  0.25376610  0.92606854  0.55936165  1
  Se  Se139  1  0.57194631  0.25009479  0.04304329  1
  Se  Se140  1  0.58694454  0.25024276  0.54925919  1
  Se  Se141  1  0.59182059  0.58324844  0.06960368  1
  Se  Se142  1  0.59365738  0.58767073  0.56015794  1
  Se  Se143  1  0.57453368  0.91224903  0.05318454  1
  Se  Se144  1  0.59371826  0.92703573  0.56439457  1
  Se  Se145  1  0.88862404  0.23582225  0.04525238  1
  Se  Se146  1  0.90362878  0.23214829  0.55764488  1
  Se  Se147  1  0.91776201  0.58526704  0.05168038  1
  Se  Se148  1  0.91429177  0.57923950  0.55109289  1
  Se  Se149  1  0.92796159  0.92435371  0.05314628  1
  Se  Se150  1  0.92203959  0.91550495  0.55297991  1
  Se  Se151  1  0.09510641  0.25132986  0.45043938  1
  Se  Se152  1  0.08627060  0.24324518  0.95698313  1
  Se  Se153  1  0.07505710  0.58683662  0.43551097  1
  Se  Se154  1  0.07530998  0.58231927  0.93520191  1
  Se  Se155  1  0.07748085  0.92697287  0.43370742  1
  Se  Se156  1  0.08791991  0.90560105  0.94548217  1
  Se  Se157  1  0.42360920  0.24247495  0.44309397  1
  Se  Se158  1  0.41054306  0.24666227  0.94763170  1
  Se  Se159  1  0.40981516  0.58995656  0.44725891  1
  Se  Se160  1  0.40812256  0.59102580  0.94196971  1
  Se  Se161  1  0.41280691  0.92033827  0.44145664  1
  Se  Se162  1  0.41797830  0.91654842  0.94739684  1
  Se  Se163  1  0.75742600  0.24634412  0.44150795  1
  Se  Se164  1  0.77131517  0.24115170  0.95470315  1
  Se  Se165  1  0.75285961  0.57818144  0.44371291  1
  Se  Se166  1  0.74953698  0.59229484  0.95247833  1
  Se  Se167  1  0.75553896  0.91565376  0.44818174  1
  Se  Se168  1  0.74330421  0.92444004  0.93729808  1
  Se  Se169  1  0.25000387  0.08444462  0.44423715  1
  Se  Se170  1  0.24732682  0.08269296  0.94841850  1
  Se  Se171  1  0.25566391  0.40734504  0.43856589  1
  Se  Se172  1  0.25214376  0.40909818  0.94635322  1
  Se  Se173  1  0.25951082  0.74121660  0.44183197  1
  Se  Se174  1  0.24642907  0.75347454  0.95036576  1
  Se  Se175  1  0.58485740  0.08622522  0.44642613  1
  Se  Se176  1  0.58042205  0.08745194  0.94496871  1
  Se  Se177  1  0.58994150  0.40608735  0.43334121  1
  Se  Se178  1  0.59159797  0.40819577  0.94680712  1
  Se  Se179  1  0.58901159  0.74438318  0.44067996  1
  Se  Se180  1  0.57885210  0.75210517  0.95723557  1
  Se  Se181  1  0.91943131  0.08428131  0.44811070  1
  Se  Se182  1  0.91281541  0.08584138  0.95514810  1
  Se  Se183  1  0.91292057  0.41417758  0.45018305  1
  Se  Se184  1  0.91458168  0.42697430  0.94950810  1
  Se  Se185  1  0.91316741  0.75250242  0.44224453  1
  Se  Se186  1  0.92289989  0.74867321  0.93429265  1
  Se  Se187  1  0.26585484  0.26443201  0.30443158  1
  Se  Se188  1  0.24248052  0.24809807  0.81402964  1
  Se  Se189  1  0.24074124  0.57187985  0.31047985  1
  Se  Se190  1  0.24227828  0.57777559  0.80710479  1
  Se  Se191  1  0.25306180  0.91934218  0.29349839  1
  Se  Se192  1  0.24716940  0.92457874  0.80540934  1
  Se  Se193  1  0.58344284  0.24444537  0.30058685  1
  Se  Se194  1  0.59282190  0.24987602  0.80853177  1
  Se  Se195  1  0.58860833  0.58291377  0.29949957  1
  Se  Se196  1  0.58219487  0.56875954  0.81672893  1
  Se  Se197  1  0.57924617  0.91379004  0.31240425  1
  Se  Se198  1  0.58201230  0.91475573  0.81443048  1
  Se  Se199  1  0.93645200  0.25868487  0.30047240  1
  Se  Se200  1  0.92224928  0.24901119  0.81049395  1
  Se  Se201  1  0.91807480  0.58433915  0.30266267  1
  Se  Se202  1  0.91385695  0.58569076  0.79792645  1
  Se  Se203  1  0.91625499  0.91851542  0.30425007  1
  Se  Se204  1  0.91862179  0.92345575  0.80060259  1
  Se  Se205  1  0.08143726  0.09279822  0.31464963  1
  Se  Se206  1  0.07835634  0.08560044  0.81168334  1
  Se  Se207  1  0.07741884  0.41440874  0.30145378  1
  Se  Se208  1  0.07982998  0.40998997  0.80202919  1
  Se  Se209  1  0.08220003  0.75090020  0.29603562  1
  Se  Se210  1  0.08327530  0.74545246  0.79900863  1
  Se  Se211  1  0.41127555  0.08227621  0.30061484  1
  Se  Se212  1  0.41687927  0.08802348  0.80108417  1
  Se  Se213  1  0.41651279  0.41675000  0.29770731  1
  Se  Se214  1  0.42056524  0.41301406  0.81000196  1
  Se  Se215  1  0.42475163  0.75619724  0.31219123  1
  Se  Se216  1  0.41394495  0.75324549  0.81567796  1
  Se  Se217  1  0.76348770  0.09448147  0.30762880  1
  Se  Se218  1  0.75758483  0.09379662  0.81178318  1
  Se  Se219  1  0.75529699  0.40933783  0.30412850  1
  Se  Se220  1  0.75666082  0.41032249  0.80913245  1
  Se  Se221  1  0.75146564  0.74696537  0.30215611  1
  Se  Se222  1  0.75906145  0.75979197  0.80630895  1
  Se  Se223  1  0.23434511  0.09038431  0.19894608  1
  Se  Se224  1  0.25175917  0.08870355  0.70052396  1
  Se  Se225  1  0.24323950  0.40690443  0.19987618  1
  Se  Se226  1  0.23766070  0.42547634  0.68724234  1
  Se  Se227  1  0.24798328  0.75070884  0.18792219  1
  Se  Se228  1  0.23681334  0.76192532  0.68527950  1
  Se  Se229  1  0.58337747  0.09228833  0.18580728  1
  Se  Se230  1  0.58439192  0.09260762  0.68891059  1
  Se  Se231  1  0.58685327  0.40933370  0.19640991  1
  Se  Se232  1  0.59363100  0.40709865  0.70386941  1
  Se  Se233  1  0.58735589  0.75189690  0.20105537  1
  Se  Se234  1  0.57113703  0.76061544  0.70065255  1
  Se  Se235  1  0.90422441  0.09836157  0.19009148  1
  Se  Se236  1  0.91983427  0.08336455  0.70028695  1
  Se  Se237  1  0.91074506  0.41566728  0.19109795  1
  Se  Se238  1  0.91748950  0.41252331  0.69530489  1
  Se  Se239  1  0.92283920  0.74700858  0.19522375  1
  Se  Se240  1  0.91972716  0.74798554  0.69256841  1
  Se  Se241  1  0.04874171  0.25238783  0.20183149  1
  Se  Se242  1  0.08236320  0.24967478  0.69941852  1
  Se  Se243  1  0.07718878  0.58215917  0.19614304  1
  Se  Se244  1  0.07446419  0.58623032  0.69738503  1
  Se  Se245  1  0.09125596  0.91572280  0.18191369  1
  Se  Se246  1  0.08058761  0.92254403  0.69921667  1
  Se  Se247  1  0.41429970  0.24943830  0.19428885  1
  Se  Se248  1  0.42759190  0.24430938  0.68891210  1
  Se  Se249  1  0.42146624  0.57411728  0.18854469  1
  Se  Se250  1  0.42860400  0.57246902  0.69494424  1
  Se  Se251  1  0.41847516  0.92342502  0.19803999  1
  Se  Se252  1  0.40928073  0.92454095  0.70467720  1
  Se  Se253  1  0.73927181  0.26016162  0.19028646  1
  Se  Se254  1  0.75077264  0.25233500  0.69730195  1
  Se  Se255  1  0.74901923  0.58431350  0.19967040  1
  Se  Se256  1  0.75487510  0.57671639  0.68781709  1
  Se  Se257  1  0.76120389  0.91306281  0.19245504  1
  Se  Se258  1  0.75964137  0.91445029  0.68606972  1
