# generated using pymatgen
data_In86Cu29Se144
_symmetry_space_group_name_H-M   'P 1'
_cell_length_a   17.58206214
_cell_length_b   17.58646961
_cell_length_c   23.44495319
_cell_angle_alpha   89.98265192
_cell_angle_beta   90.00744462
_cell_angle_gamma   90.00812468
_symmetry_Int_Tables_number   1
_chemical_formula_structural   In86Cu29Se144
_chemical_formula_sum   'In86 Cu29 Se144'
_cell_volume   7249.32914170
_cell_formula_units_Z   1
loop_
 _symmetry_equiv_pos_site_id
 _symmetry_equiv_pos_as_xyz
  1  'x, y, z'
loop_
 _atom_site_type_symbol
 _atom_site_label
 _atom_site_symmetry_multiplicity
 _atom_site_fract_x
 _atom_site_fract_y
 _atom_site_fract_z
 _atom_site_occupancy
  In  In0  1  0.00686580  0.16085618  0.12994250  1
  In  In1  1  -0.00014655  0.16328575  0.62680303  1
  In  In2  1  -0.00255064  0.50197369  0.14194914  1
  In  In3  1  0.00533127  0.50182662  0.63617348  1
  In  In4  1  0.00177490  0.83664466  0.12102596  1
  In  In5  1  0.01016610  0.82778498  0.62874723  1
  In  In6  1  0.31871653  0.15629606  0.11898839  1
  In  In7  1  0.32346032  0.15701355  0.61864562  1
  In  In8  1  0.32985329  0.50078952  0.12454178  1
  In  In9  1  0.33092825  0.50706075  0.63023725  1
  In  In10  1  0.33747962  0.84801014  0.12430965  1
  In  In11  1  0.33173491  0.83701257  0.62353394  1
  In  In12  1  0.66853115  0.17556634  0.11802513  1
  In  In13  1  0.65801818  0.15513702  0.61626448  1
  In  In14  1  0.68492630  0.49044920  0.14424358  1
  In  In15  1  0.67967772  0.50179175  0.62644491  1
  In  In16  1  0.66587478  0.81937580  0.12459452  1
  In  In17  1  0.65580700  0.84645923  0.63239632  1
  In  In18  1  0.16757066  -0.00180637  0.37747692  1
  In  In19  1  0.16492334  0.00213532  0.87212984  1
  In  In20  1  0.15122826  0.33287377  0.37360646  1
  In  In21  1  0.14759818  0.32034271  0.87633978  1
  In  In22  1  0.16228766  0.67591965  0.37366818  1
  In  In23  1  0.17370838  0.67556249  0.86329041  1
  In  In24  1  0.48776543  0.00414908  0.38024035  1
  In  In25  1  0.50860599  0.00779307  0.86700156  1
  In  In26  1  0.49840885  0.31959246  0.37023309  1
  In  In27  1  0.49696313  0.32547543  0.88022106  1
  In  In28  1  0.50685727  0.66676206  0.38267129  1
  In  In29  1  0.50276675  0.67563210  0.86677313  1
  In  In30  1  0.85373267  -0.00107014  0.37476662  1
  In  In31  1  0.82163358  -0.01125733  0.87087328  1
  In  In32  1  0.82543556  0.32558994  0.36501765  1
  In  In33  1  0.84630486  0.32051963  0.87848555  1
  In  In34  1  0.83428925  0.66213382  0.36536039  1
  In  In35  1  0.84668756  0.67789782  0.86944934  1
  In  In36  1  0.00377984  0.16361321  0.37670661  1
  In  In37  1  0.01031511  0.17437795  0.87080049  1
  In  In38  1  -0.00850645  0.49241398  0.35402708  1
  In  In39  1  0.00217343  0.49771872  0.86761308  1
  In  In40  1  0.01013012  0.84176291  0.36864446  1
  In  In41  1  -0.00025081  0.83897335  0.87468069  1
  In  In42  1  0.33987854  0.15459159  0.38203069  1
  In  In43  1  0.34189819  0.15275554  0.87686542  1
  In  In44  1  0.33417191  0.51445625  0.37936033  1
  In  In45  1  0.31567576  0.50715067  0.86925256  1
  In  In46  1  0.31316227  0.83954260  0.38992273  1
  In  In47  1  0.32353388  0.83110786  0.86628858  1
  In  In48  1  0.65938277  0.17034657  0.37653279  1
  In  In49  1  0.66854402  0.14917793  0.88337262  1
  In  In50  1  0.67576878  0.50416477  0.36273789  1
  In  In51  1  0.65782788  0.50472584  0.87621773  1
  In  In52  1  0.66570979  0.82312851  0.37813837  1
  In  In53  1  0.67937234  0.84268230  0.87211968  1
  In  In54  1  0.16657600  -0.00174434  0.12374398  1
  In  In55  1  0.16648700  0.00072386  0.62740755  1
  In  In56  1  0.16441885  0.32622308  0.12698755  1
  In  In57  1  0.16865280  0.31851171  0.62474068  1
  In  In58  1  0.15069344  0.67071919  0.12401440  1
  In  In59  1  0.15907988  0.67620981  0.62768011  1
  In  In60  1  0.48327378  -0.00460181  0.12429254  1
  In  In61  1  0.49768784  -0.00186942  0.62436016  1
  In  In62  1  0.51500855  0.32740530  0.12436512  1
  In  In63  1  0.51253219  0.32820681  0.62035599  1
  In  In64  1  0.50981758  0.67591734  0.12524198  1
  In  In65  1  0.48077516  0.69064193  0.63659187  1
  In  In66  1  0.85111246  0.00719464  0.12267262  1
  In  In67  1  0.82620987  0.00776316  0.62987947  1
  In  In68  1  0.83685796  0.33025720  0.13452581  1
  In  In69  1  0.84691738  0.33211185  0.62581307  1
  In  In70  1  0.83217930  0.66851352  0.13050317  1
  In  In71  1  0.83659036  0.66590391  0.63343215  1
  In  In72  1  0.16442096  0.50068967  0.49909677  1
  In  In73  1  0.32884413  0.33055649  0.24767261  1
  In  In74  1  0.83611917  0.49515634  0.00874221  1
  In  In75  1  0.83501959  0.83696565  0.49913697  1
  In  In76  1  0.67440059  0.33151457  0.75472917  1
  In  In77  1  0.83615655  0.16165340  0.00160732  1
  In  In78  1  0.33032228  0.67166967  0.26048958  1
  In  In79  1  0.50549837  0.49791626  0.49895505  1
  In  In80  1  0.33122697  0.33701983  0.74808078  1
  In  In81  1  0.16005890  0.49785479  -0.00042078  1
  In  In82  1  0.50333547  0.83981004  -0.00615039  1
  In  In83  1  0.83294222  0.49653156  0.49003592  1
  In  In84  1  0.50067819  0.49822859  0.00023828  1
  In  In85  1  0.67047487  -0.00071281  0.24443138  1
  Cu  Cu86  1  0.49997731  0.16697485  0.25374787  1
  Cu  Cu87  1  0.83655166  0.50431843  0.75147331  1
  Cu  Cu88  1  -0.00027021  0.67735194  -0.00322079  1
  Cu  Cu89  1  0.83647979  0.83396083  0.74983511  1
  Cu  Cu90  1  0.66524081  0.00450706  0.50366230  1
  Cu  Cu91  1  -0.00073567  0.32058293  0.49943661  1
  Cu  Cu92  1  0.32482814  0.00122581  -0.00256698  1
  Cu  Cu93  1  0.49990412  0.16002152  0.74566625  1
  Cu  Cu94  1  0.32861498  0.67386775  -0.00972970  1
  Cu  Cu95  1  0.50165521  0.50357729  0.25106381  1
  Cu  Cu96  1  0.32955081  0.32135927  -0.00068842  1
  Cu  Cu97  1  0.49678198  0.83469178  0.74921571  1
  Cu  Cu98  1  0.66825783  0.32147895  0.49246616  1
  Cu  Cu99  1  0.49842507  0.83564962  0.25012277  1
  Cu  Cu100  1  0.83985720  0.16468246  0.24997060  1
  Cu  Cu101  1  0.16593532  0.15949807  0.25043977  1
  Cu  Cu102  1  0.00347388  0.00079584  -0.00270031  1
  Cu  Cu103  1  0.00782355  0.00198777  0.50123418  1
  Cu  Cu104  1  0.65817487  0.67455650  0.50704363  1
  Cu  Cu105  1  0.33529474  0.32710079  0.49904735  1
  Cu  Cu106  1  0.67661273  0.66191907  0.00502166  1
  Cu  Cu107  1  0.33187621  -0.00001022  0.50488781  1
  Cu  Cu108  1  0.16569852  0.83752451  0.25015844  1
  Cu  Cu109  1  0.16295250  0.84054391  0.74857019  1
  Cu  Cu110  1  0.83743497  0.16482688  0.75245774  1
  Cu  Cu111  1  0.84103306  0.82914708  0.24941901  1
  Cu  Cu112  1  0.50149535  0.50929868  0.75093807  1
  Cu  Cu113  1  0.16455577  0.16467280  0.74740907  1
  Cu  Cu114  1  -0.00012459  0.66470069  0.50034320  1
  Se  Se115  1  0.08364906  0.08291372  0.05493741  1
  Se  Se116  1  0.08726855  0.08663600  0.55697135  1
  Se  Se117  1  0.07171730  0.41537264  0.06481916  1
  Se  Se118  1  0.07364790  0.40881698  0.55880589  1
  Se  Se119  1  0.08714228  0.75749216  0.04917940  1
  Se  Se120  1  0.08200807  0.75109508  0.55024512  1
  Se  Se121  1  0.41088900  0.08068678  0.05222942  1
  Se  Se122  1  0.41932587  0.08464825  0.55402542  1
  Se  Se123  1  0.40676737  0.40598709  0.05874500  1
  Se  Se124  1  0.40955262  0.41037068  0.56060330  1
  Se  Se125  1  0.41246282  0.74555769  0.05485406  1
  Se  Se126  1  0.41876714  0.75909502  0.55393271  1
  Se  Se127  1  0.74353346  0.07090768  0.05868847  1
  Se  Se128  1  0.75579100  0.08502482  0.55094996  1
  Se  Se129  1  0.74130757  0.40375555  0.06173304  1
  Se  Se130  1  0.74424253  0.40490484  0.55367037  1
  Se  Se131  1  0.75716397  0.74977244  0.05485961  1
  Se  Se132  1  0.74765400  0.74910856  0.56353331  1
  Se  Se133  1  0.24048975  0.24664880  0.05335094  1
  Se  Se134  1  0.24760295  0.24637397  0.54973218  1
  Se  Se135  1  0.25523012  0.59289695  0.05489042  1
  Se  Se136  1  0.25211748  0.59088794  0.55875976  1
  Se  Se137  1  0.24817936  0.91403749  0.05248828  1
  Se  Se138  1  0.24475835  0.91777035  0.55550919  1
  Se  Se139  1  0.57728855  0.24360246  0.04871843  1
  Se  Se140  1  0.58118641  0.24408954  0.54688351  1
  Se  Se141  1  0.59430881  0.58151605  0.06331248  1
  Se  Se142  1  0.58561538  0.58710540  0.56650924  1
  Se  Se143  1  0.58810643  0.92139099  0.06284056  1
  Se  Se144  1  0.58258758  0.91775062  0.55297115  1
  Se  Se145  1  0.92300107  0.25342043  0.06191316  1
  Se  Se146  1  0.91410455  0.24291058  0.55473809  1
  Se  Se147  1  0.92943800  0.59131001  0.05976826  1
  Se  Se148  1  0.91948567  0.58257493  0.55772365  1
  Se  Se149  1  0.91833981  0.91874323  0.05024637  1
  Se  Se150  1  0.92384502  0.92319143  0.56188274  1
  Se  Se151  1  0.08939331  0.24385763  0.44782213  1
  Se  Se152  1  0.07561739  0.24729772  0.95337534  1
  Se  Se153  1  0.06875758  0.57978725  0.43535298  1
  Se  Se154  1  0.07855735  0.59396798  0.93791013  1
  Se  Se155  1  0.08478971  0.91318133  0.44728029  1
  Se  Se156  1  0.08682419  0.91751694  0.94368190  1
  Se  Se157  1  0.42121771  0.24693474  0.44600805  1
  Se  Se158  1  0.41666587  0.24217529  0.94721558  1
  Se  Se159  1  0.40901728  0.59617269  0.45363341  1
  Se  Se160  1  0.41190411  0.58935962  0.93748873  1
  Se  Se161  1  0.41300580  0.91578136  0.44933026  1
  Se  Se162  1  0.40714097  0.92322637  0.93538673  1
  Se  Se163  1  0.75708724  0.24285379  0.44145592  1
  Se  Se164  1  0.74419421  0.25513098  0.94351412  1
  Se  Se165  1  0.73812790  0.59659989  0.44375100  1
  Se  Se166  1  0.75369926  0.58504910  0.94087681  1
  Se  Se167  1  0.74461181  0.92787876  0.43836847  1
  Se  Se168  1  0.74471352  0.92136374  0.95008747  1
  Se  Se169  1  0.24805869  0.08132111  0.44881299  1
  Se  Se170  1  0.24384838  0.08722307  0.94392348  1
  Se  Se171  1  0.25825239  0.40942655  0.43900533  1
  Se  Se172  1  0.25428875  0.40769513  0.94041215  1
  Se  Se173  1  0.24644134  0.73616820  0.44966229  1
  Se  Se174  1  0.24302639  0.75598584  0.94135300  1
  Se  Se175  1  0.58155543  0.08234281  0.44375041  1
  Se  Se176  1  0.57382659  0.08079648  0.94856794  1
  Se  Se177  1  0.59381918  0.41118898  0.43469433  1
  Se  Se178  1  0.59394211  0.40523375  0.94539740  1
  Se  Se179  1  0.57798358  0.75785611  0.45282918  1
  Se  Se180  1  0.59455661  0.74028445  0.94327989  1
  Se  Se181  1  0.92076448  0.08311249  0.44936598  1
  Se  Se182  1  0.92173044  0.07721052  0.93477049  1
  Se  Se183  1  0.92641198  0.40515387  0.43650642  1
  Se  Se184  1  0.92838120  0.41167259  0.94519923  1
  Se  Se185  1  0.92106163  0.74442907  0.43789387  1
  Se  Se186  1  0.91322017  0.75972584  0.94637928  1
  Se  Se187  1  0.24656105  0.23984703  0.31213390  1
  Se  Se188  1  0.24878224  0.24229483  0.80939039  1
  Se  Se189  1  0.23657511  0.57298146  0.30751533  1
  Se  Se190  1  0.24962084  0.58806815  0.79472140  1
  Se  Se191  1  0.25112021  0.91488628  0.30707946  1
  Se  Se192  1  0.24903620  0.92354920  0.80029474  1
  Se  Se193  1  0.58850246  0.25150659  0.29902951  1
  Se  Se194  1  0.57801806  0.24040208  0.80774914  1
  Se  Se195  1  0.57963790  0.58888220  0.30656440  1
  Se  Se196  1  0.58884757  0.58912881  0.80281927  1
  Se  Se197  1  0.58126209  0.91562075  0.31056040  1
  Se  Se198  1  0.58387783  0.91230515  0.80433355  1
  Se  Se199  1  0.92251086  0.24665277  0.30535414  1
  Se  Se200  1  0.92174611  0.25225304  0.80003103  1
  Se  Se201  1  0.91614060  0.58790740  0.29463432  1
  Se  Se202  1  0.92223614  0.58717724  0.80278271  1
  Se  Se203  1  0.92215323  0.91775948  0.29892119  1
  Se  Se204  1  0.91649313  0.91999389  0.80350604  1
  Se  Se205  1  0.08335633  0.07785842  0.30712436  1
  Se  Se206  1  0.08041734  0.08265998  0.80156561  1
  Se  Se207  1  0.08522794  0.40993065  0.29618184  1
  Se  Se208  1  0.09743947  0.42039216  0.80719698  1
  Se  Se209  1  0.08210801  0.74997713  0.29930739  1
  Se  Se210  1  0.07991537  0.75658635  0.80290580  1
  Se  Se211  1  0.41507675  0.08237610  0.30291136  1
  Se  Se212  1  0.41444219  0.07822481  0.79822915  1
  Se  Se213  1  0.41834544  0.42534401  0.31019429  1
  Se  Se214  1  0.42505790  0.42486615  0.81149902  1
  Se  Se215  1  0.42152560  0.76102894  0.31765806  1
  Se  Se216  1  0.41204115  0.74988707  0.80044527  1
  Se  Se217  1  0.75731554  0.08495017  0.31035494  1
  Se  Se218  1  0.74852440  0.08548916  0.80429667  1
  Se  Se219  1  0.75582549  0.41929435  0.29806119  1
  Se  Se220  1  0.76193516  0.42345763  0.81597996  1
  Se  Se221  1  0.75149626  0.75514365  0.30460893  1
  Se  Se222  1  0.75154930  0.75076010  0.80363731  1
  Se  Se223  1  0.25041732  0.07753073  0.19688199  1
  Se  Se224  1  0.25225298  0.08272775  0.69729210  1
  Se  Se225  1  0.23946615  0.42743659  0.19359826  1
  Se  Se226  1  0.23573269  0.42355682  0.69092772  1
  Se  Se227  1  0.24857886  0.75682364  0.19003971  1
  Se  Se228  1  0.24664107  0.75733989  0.69425484  1
  Se  Se229  1  0.57491835  0.08741937  0.18806967  1
  Se  Se230  1  0.58657262  0.07845805  0.69364301  1
  Se  Se231  1  0.57962424  0.41522115  0.19870151  1
  Se  Se232  1  0.57976609  0.42271148  0.69449680  1
  Se  Se233  1  0.58396039  0.75102553  0.20207675  1
  Se  Se234  1  0.58628653  0.75057711  0.69957600  1
  Se  Se235  1  0.92425908  0.07933238  0.20077196  1
  Se  Se236  1  0.91835511  0.08084144  0.69758413  1
  Se  Se237  1  0.89777178  0.42898277  0.20093381  1
  Se  Se238  1  0.91628544  0.41707918  0.69878593  1
  Se  Se239  1  0.92467216  0.75032793  0.19225409  1
  Se  Se240  1  0.92088204  0.75065672  0.69713191  1
  Se  Se241  1  0.08487792  0.24779511  0.19993081  1
  Se  Se242  1  0.08084666  0.25020155  0.69676540  1
  Se  Se243  1  0.09045932  0.58520878  0.19887459  1
  Se  Se244  1  0.08092799  0.59355629  0.69789199  1
  Se  Se245  1  0.08255120  0.91787569  0.19343770  1
  Se  Se246  1  0.07785541  0.92345895  0.69658163  1
  Se  Se247  1  0.41885936  0.24185375  0.18797308  1
  Se  Se248  1  0.42276760  0.24633353  0.68806079  1
  Se  Se249  1  0.42060967  0.58371445  0.19161119  1
  Se  Se250  1  0.41362836  0.58717104  0.69873783  1
  Se  Se251  1  0.41184856  0.91983262  0.20319216  1
  Se  Se252  1  0.41472581  0.91854819  0.69487791  1
  Se  Se253  1  0.75057371  0.24065825  0.19578520  1
  Se  Se254  1  0.75458726  0.24167885  0.68860389  1
  Se  Se255  1  0.73574132  0.60409004  0.19895874  1
  Se  Se256  1  0.74925381  0.58492335  0.70040581  1
  Se  Se257  1  0.76198385  0.90881913  0.18661850  1
  Se  Se258  1  0.75082602  0.91810171  0.69796799  1
