# generated using pymatgen
data_In86Cu29Se144
_symmetry_space_group_name_H-M   'P 1'
_cell_length_a   17.58268063
_cell_length_b   17.58562980
_cell_length_c   23.45479294
_cell_angle_alpha   90.02266646
_cell_angle_beta   89.99663884
_cell_angle_gamma   90.00624537
_symmetry_Int_Tables_number   1
_chemical_formula_structural   In86Cu29Se144
_chemical_formula_sum   'In86 Cu29 Se144'
_cell_volume   7252.28028351
_cell_formula_units_Z   1
loop_
 _symmetry_equiv_pos_site_id
 _symmetry_equiv_pos_as_xyz
  1  'x, y, z'
loop_
 _atom_site_type_symbol
 _atom_site_label
 _atom_site_symmetry_multiplicity
 _atom_site_fract_x
 _atom_site_fract_y
 _atom_site_fract_z
 _atom_site_occupancy
  In  In0  1  0.01177137  0.17477611  0.12778000  1
  In  In1  1  0.00823860  0.16739420  0.62679796  1
  In  In2  1  0.00283125  0.49830681  0.11957268  1
  In  In3  1  0.01628643  0.48933489  0.63722106  1
  In  In4  1  -0.00038054  0.82713571  0.11215532  1
  In  In5  1  0.01693787  0.81806335  0.64728635  1
  In  In6  1  0.32409527  0.17372416  0.13698127  1
  In  In7  1  0.34227742  0.19586016  0.59630444  1
  In  In8  1  0.33877844  0.49588492  0.12418128  1
  In  In9  1  0.33152213  0.49555346  0.62319325  1
  In  In10  1  0.32906309  0.82891899  0.12270652  1
  In  In11  1  0.32032062  0.83646754  0.62995407  1
  In  In12  1  0.67175826  0.17627322  0.12633479  1
  In  In13  1  0.67234421  0.17761196  0.62504279  1
  In  In14  1  0.65788966  0.48869630  0.11837107  1
  In  In15  1  0.64464294  0.49922461  0.62270536  1
  In  In16  1  0.65553791  0.82459320  0.10508446  1
  In  In17  1  0.67347553  0.82920962  0.63196010  1
  In  In18  1  0.17535848  -0.00961793  0.37951699  1
  In  In19  1  0.15348242  -0.00008406  0.87192717  1
  In  In20  1  0.17469862  0.34344095  0.38098100  1
  In  In21  1  0.18135342  0.35308123  0.86148366  1
  In  In22  1  0.19087511  0.64710427  0.39345691  1
  In  In23  1  0.16933636  0.66140401  0.87625875  1
  In  In24  1  0.49211085  0.02036509  0.37860644  1
  In  In25  1  0.49405634  -0.00309815  0.88054845  1
  In  In26  1  0.49332637  0.33506095  0.37714341  1
  In  In27  1  0.50031993  0.33927249  0.87214400  1
  In  In28  1  0.48491659  0.67334908  0.37651345  1
  In  In29  1  0.49305645  0.66352044  0.87961318  1
  In  In30  1  0.83799226  0.00024407  0.37427406  1
  In  In31  1  0.83919584  -0.02871445  0.87324646  1
  In  In32  1  0.83754839  0.34163962  0.36788304  1
  In  In33  1  0.84308570  0.33921474  0.86788659  1
  In  In34  1  0.83594472  0.66051275  0.37237870  1
  In  In35  1  0.83835430  0.66296189  0.87676107  1
  In  In36  1  0.01284044  0.19509224  0.37953237  1
  In  In37  1  0.00721989  0.16791579  0.86345256  1
  In  In38  1  0.01935514  0.48831255  0.38712262  1
  In  In39  1  0.00180816  0.50118509  0.87276073  1
  In  In40  1  0.00416962  0.84257673  0.37186215  1
  In  In41  1  0.00271419  0.83106126  0.87283153  1
  In  In42  1  0.33301559  0.17296949  0.37795937  1
  In  In43  1  0.32314192  0.17627404  0.87253872  1
  In  In44  1  0.32968595  0.50418720  0.37738736  1
  In  In45  1  0.32713105  0.49571849  0.87846966  1
  In  In46  1  0.31923875  0.81917668  0.36570484  1
  In  In47  1  0.34607032  0.81629984  0.88486785  1
  In  In48  1  0.64746443  0.17837738  0.38158800  1
  In  In49  1  0.65535402  0.17275247  0.86825172  1
  In  In50  1  0.66953051  0.48674139  0.37598513  1
  In  In51  1  0.67324189  0.49230866  0.87956567  1
  In  In52  1  0.65680837  0.82961649  0.36856120  1
  In  In53  1  0.67039719  0.82590351  0.88752123  1
  In  In54  1  0.17414637  -0.00060726  0.12573869  1
  In  In55  1  0.16680053  -0.00042670  0.62171942  1
  In  In56  1  0.16889540  0.34015242  0.13135831  1
  In  In57  1  0.16351645  0.34261688  0.61551589  1
  In  In58  1  0.16916217  0.66211433  0.12166598  1
  In  In59  1  0.16937377  0.66472119  0.62941836  1
  In  In60  1  0.49404518  -0.01182210  0.12175281  1
  In  In61  1  0.48202319  0.00468648  0.62316159  1
  In  In62  1  0.48061242  0.35578475  0.13910086  1
  In  In63  1  0.49834978  0.33714568  0.62122855  1
  In  In64  1  0.48910897  0.65594635  0.11843751  1
  In  In65  1  0.50007500  0.63448746  0.62376357  1
  In  In66  1  0.83544857  -0.00721235  0.11808787  1
  In  In67  1  0.84411657  0.00259725  0.63228500  1
  In  In68  1  0.82792416  0.33857550  0.12872360  1
  In  In69  1  0.83604341  0.32911655  0.63416334  1
  In  In70  1  0.83283632  0.66289586  0.10938374  1
  In  In71  1  0.83833725  0.67661894  0.63393548  1
  In  In72  1  0.00152316  0.00786020  0.24402664  1
  In  In73  1  0.83804343  0.16504908  0.50830191  1
  In  In74  1  0.49308536  0.83166515  0.49832320  1
  In  In75  1  0.83688125  0.82956902  0.51249583  1
  In  In76  1  0.01274896  0.65785547  0.24635935  1
  In  In77  1  0.83521721  0.50486719  0.50176515  1
  In  In78  1  0.16522353  0.16845086  0.00336059  1
  In  In79  1  0.49881672  0.16838024  -0.00213080  1
  In  In80  1  0.66977280  0.00586313  0.75121086  1
  In  In81  1  0.83138378  0.16411954  0.00057695  1
  In  In82  1  0.66072185  0.00913018  0.24622435  1
  In  In83  1  0.66606645  0.66173682  0.75631550  1
  In  In84  1  0.65772701  0.65923561  0.23573204  1
  In  In85  1  0.31963393  0.00741387  0.74961413  1
  Cu  Cu86  1  0.00535576  0.66154245  -0.00618292  1
  Cu  Cu87  1  0.49791934  0.50141663  0.25131293  1
  Cu  Cu88  1  0.49170373  0.17818032  0.74472329  1
  Cu  Cu89  1  0.82795648  0.17483986  0.25277952  1
  Cu  Cu90  1  0.83168586  0.49984183  0.75523106  1
  Cu  Cu91  1  0.17006577  0.82771544  0.75494592  1
  Cu  Cu92  1  0.84189957  0.49460804  0.24679772  1
  Cu  Cu93  1  0.66378243  -0.01040553  0.49746145  1
  Cu  Cu94  1  0.00351852  0.33930283  -0.00459479  1
  Cu  Cu95  1  0.66217166  0.33297181  0.50129901  1
  Cu  Cu96  1  0.16728532  0.17292451  0.25685821  1
  Cu  Cu97  1  -0.00611083  -0.01002563  -0.00712865  1
  Cu  Cu98  1  0.33309296  0.66630515  0.50429125  1
  Cu  Cu99  1  0.33148861  -0.00749798  0.00294854  1
  Cu  Cu100  1  0.32904432  0.00345975  0.49778621  1
  Cu  Cu101  1  0.00727546  0.00097425  0.50035275  1
  Cu  Cu102  1  0.17062805  0.82524292  0.24944504  1
  Cu  Cu103  1  0.33096102  0.66095807  0.00126299  1
  Cu  Cu104  1  0.17296653  0.17785176  0.73931495  1
  Cu  Cu105  1  0.50069084  0.82578691  0.75756407  1
  Cu  Cu106  1  0.66391531  0.33472226  -0.00002624  1
  Cu  Cu107  1  0.00484420  0.67535666  0.50931054  1
  Cu  Cu108  1  0.16625416  0.50407629  0.74950301  1
  Cu  Cu109  1  0.49352649  0.17516529  0.25656565  1
  Cu  Cu110  1  0.66764439  0.66589157  -0.00613591  1
  Cu  Cu111  1  0.48791390  0.48892624  0.74896671  1
  Cu  Cu112  1  0.83871848  0.16919377  0.74977029  1
  Cu  Cu113  1  0.48466855  0.83887870  0.24639999  1
  Cu  Cu114  1  0.82709755  0.82746416  0.23762612  1
  Se  Se115  1  0.07026518  0.07111805  0.05689078  1
  Se  Se116  1  0.08620454  0.08634406  0.55431957  1
  Se  Se117  1  0.08868336  0.41234052  0.05468777  1
  Se  Se118  1  0.08214915  0.43298212  0.55059561  1
  Se  Se119  1  0.08736859  0.74356926  0.05071025  1
  Se  Se120  1  0.08861394  0.75731772  0.56251918  1
  Se  Se121  1  0.40305298  0.08395364  0.06058635  1
  Se  Se122  1  0.41794389  0.08571674  0.54588673  1
  Se  Se123  1  0.43103287  0.42682637  0.05250299  1
  Se  Se124  1  0.42296449  0.42559477  0.55392511  1
  Se  Se125  1  0.41386559  0.74874643  0.05289158  1
  Se  Se126  1  0.41268497  0.74512291  0.56714586  1
  Se  Se127  1  0.73677723  0.07540369  0.05790723  1
  Se  Se128  1  0.74343904  0.06776081  0.56069637  1
  Se  Se129  1  0.75290906  0.41524090  0.05224266  1
  Se  Se130  1  0.74656417  0.40977407  0.56144767  1
  Se  Se131  1  0.75424919  0.75172445  0.04381284  1
  Se  Se132  1  0.73835564  0.73526453  0.55851583  1
  Se  Se133  1  0.25867948  0.25754862  0.05768540  1
  Se  Se134  1  0.22554292  0.24698074  0.54162894  1
  Se  Se135  1  0.25073425  0.57582047  0.05513070  1
  Se  Se136  1  0.24789305  0.58416764  0.55704906  1
  Se  Se137  1  0.24291905  0.91226201  0.05378564  1
  Se  Se138  1  0.25211769  0.91730035  0.55350607  1
  Se  Se139  1  0.58218478  0.25973682  0.06180689  1
  Se  Se140  1  0.58334785  0.24669886  0.55550281  1
  Se  Se141  1  0.58841884  0.58682386  0.05453023  1
  Se  Se142  1  0.58539581  0.58228482  0.54452516  1
  Se  Se143  1  0.58023612  0.92401460  0.04887682  1
  Se  Se144  1  0.58581512  0.91734177  0.56432482  1
  Se  Se145  1  0.92579065  0.25560662  0.05619819  1
  Se  Se146  1  0.92706254  0.26221655  0.55865430  1
  Se  Se147  1  0.92125624  0.57839857  0.04839961  1
  Se  Se148  1  0.92306453  0.59256191  0.56556950  1
  Se  Se149  1  0.91032363  0.90878463  0.04774019  1
  Se  Se150  1  0.93176841  0.92127244  0.56374662  1
  Se  Se151  1  0.10224354  0.25063190  0.45485393  1
  Se  Se152  1  0.08162129  0.25495760  0.93706611  1
  Se  Se153  1  0.08133330  0.58878820  0.45310642  1
  Se  Se154  1  0.08864902  0.57491757  0.94455475  1
  Se  Se155  1  0.08479273  0.91235705  0.44694957  1
  Se  Se156  1  0.08701978  0.91236079  0.94512640  1
  Se  Se157  1  0.43038689  0.23765415  0.44561524  1
  Se  Se158  1  0.40628884  0.25888889  0.94249023  1
  Se  Se159  1  0.41651484  0.58674043  0.44817675  1
  Se  Se160  1  0.41416181  0.57724537  0.94729854  1
  Se  Se161  1  0.40630803  0.91968942  0.43540175  1
  Se  Se162  1  0.41851572  0.91286413  0.95045333  1
  Se  Se163  1  0.75110935  0.25644510  0.44332339  1
  Se  Se164  1  0.74362091  0.25540710  0.93880140  1
  Se  Se165  1  0.74167883  0.59141502  0.44107168  1
  Se  Se166  1  0.75302682  0.58150802  0.94435273  1
  Se  Se167  1  0.74699177  0.91338046  0.43962875  1
  Se  Se168  1  0.74379113  0.92514418  0.94698267  1
  Se  Se169  1  0.24649845  0.08618864  0.44391593  1
  Se  Se170  1  0.25512816  0.07499354  0.94112433  1
  Se  Se171  1  0.25646136  0.42248973  0.45137032  1
  Se  Se172  1  0.24245795  0.41501374  0.94777632  1
  Se  Se173  1  0.25277919  0.75652927  0.45279267  1
  Se  Se174  1  0.24820321  0.74616238  0.94836709  1
  Se  Se175  1  0.58493785  0.08190126  0.45104950  1
  Se  Se176  1  0.59306461  0.07758227  0.94174347  1
  Se  Se177  1  0.58190998  0.41640688  0.44636297  1
  Se  Se178  1  0.58043006  0.41676655  0.94565299  1
  Se  Se179  1  0.59047800  0.74286104  0.44328738  1
  Se  Se180  1  0.57565941  0.74774549  0.94787785  1
  Se  Se181  1  0.92816536  0.08121488  0.43997992  1
  Se  Se182  1  0.92279729  0.08141931  0.93585739  1
  Se  Se183  1  0.92128566  0.40556167  0.44858268  1
  Se  Se184  1  0.91609324  0.41879049  0.94302123  1
  Se  Se185  1  0.92351996  0.74510386  0.44152292  1
  Se  Se186  1  0.92138459  0.74801816  0.94350053  1
  Se  Se187  1  0.25119138  0.25576993  0.30909988  1
  Se  Se188  1  0.25558332  0.25696761  0.79644816  1
  Se  Se189  1  0.25327760  0.59018936  0.30614194  1
  Se  Se190  1  0.25263877  0.58167638  0.80542250  1
  Se  Se191  1  0.24840216  0.91694083  0.30040030  1
  Se  Se192  1  0.25150120  0.90802696  0.81610532  1
  Se  Se193  1  0.58219606  0.25808505  0.30427470  1
  Se  Se194  1  0.57907291  0.25628447  0.79895459  1
  Se  Se195  1  0.57923208  0.58187399  0.31175815  1
  Se  Se196  1  0.57247985  0.56836576  0.80945116  1
  Se  Se197  1  0.56856411  0.91682816  0.30590141  1
  Se  Se198  1  0.58113711  0.91102284  0.81111892  1
  Se  Se199  1  0.91877195  0.25060204  0.30493039  1
  Se  Se200  1  0.92367043  0.25496117  0.79948122  1
  Se  Se201  1  0.92043511  0.57104297  0.30973990  1
  Se  Se202  1  0.91692842  0.58447196  0.80367707  1
  Se  Se203  1  0.90545790  0.90881709  0.29767596  1
  Se  Se204  1  0.94044073  0.93004586  0.80333051  1
  Se  Se205  1  0.08532168  0.08845460  0.31400624  1
  Se  Se206  1  0.09620886  0.09044951  0.79569607  1
  Se  Se207  1  0.07978946  0.40780697  0.30968197  1
  Se  Se208  1  0.07909302  0.41828110  0.79906324  1
  Se  Se209  1  0.09108917  0.74980758  0.31283067  1
  Se  Se210  1  0.08585527  0.74426586  0.80680821  1
  Se  Se211  1  0.40966838  0.08648927  0.30325096  1
  Se  Se212  1  0.42177478  0.09168335  0.80792858  1
  Se  Se213  1  0.41553653  0.42147215  0.30816660  1
  Se  Se214  1  0.40495963  0.40987059  0.80568436  1
  Se  Se215  1  0.41173639  0.74614130  0.29820983  1
  Se  Se216  1  0.41451925  0.74090933  0.80442033  1
  Se  Se217  1  0.75086986  0.09295343  0.31341900  1
  Se  Se218  1  0.76200102  0.09012926  0.81403445  1
  Se  Se219  1  0.75064293  0.41846472  0.29915268  1
  Se  Se220  1  0.74670663  0.41359266  0.80346556  1
  Se  Se221  1  0.75171524  0.74885733  0.30121735  1
  Se  Se222  1  0.75526174  0.75815019  0.80924544  1
  Se  Se223  1  0.24135266  0.08411825  0.20033374  1
  Se  Se224  1  0.25564820  0.10093631  0.67792250  1
  Se  Se225  1  0.27161280  0.40183721  0.19414690  1
  Se  Se226  1  0.24337769  0.41816039  0.69198037  1
  Se  Se227  1  0.25022008  0.74339891  0.19273126  1
  Se  Se228  1  0.25396384  0.74636114  0.70085662  1
  Se  Se229  1  0.56722698  0.09713546  0.18806623  1
  Se  Se230  1  0.57231938  0.09004932  0.69008194  1
  Se  Se231  1  0.58699384  0.42000301  0.20078716  1
  Se  Se232  1  0.57995093  0.41288463  0.69726782  1
  Se  Se233  1  0.56990791  0.76140720  0.18710192  1
  Se  Se234  1  0.57402960  0.74762218  0.69096004  1
  Se  Se235  1  0.90241217  0.09593823  0.18746025  1
  Se  Se236  1  0.92427298  0.08732861  0.69791907  1
  Se  Se237  1  0.92435936  0.41361854  0.19118631  1
  Se  Se238  1  0.91541245  0.41875823  0.69903111  1
  Se  Se239  1  0.91386962  0.74557958  0.18678957  1
  Se  Se240  1  0.91147962  0.75598288  0.70629039  1
  Se  Se241  1  0.08510801  0.25441547  0.20040728  1
  Se  Se242  1  0.08495515  0.26098708  0.69055563  1
  Se  Se243  1  0.10113118  0.56323706  0.19298283  1
  Se  Se244  1  0.08051945  0.59150540  0.70121003  1
  Se  Se245  1  0.08441577  0.90365665  0.19094033  1
  Se  Se246  1  0.09713777  0.92056757  0.70059528  1
  Se  Se247  1  0.40972780  0.25693332  0.20216029  1
  Se  Se248  1  0.40841603  0.25283301  0.68599013  1
  Se  Se249  1  0.41564699  0.58448100  0.19692183  1
  Se  Se250  1  0.40933096  0.57932086  0.69860334  1
  Se  Se251  1  0.40345536  0.92201301  0.19273111  1
  Se  Se252  1  0.42124485  0.91170255  0.69973335  1
  Se  Se253  1  0.74491111  0.25772532  0.19948846  1
  Se  Se254  1  0.74788961  0.24993146  0.70178211  1
  Se  Se255  1  0.76123085  0.57396074  0.18604104  1
  Se  Se256  1  0.75090698  0.57315836  0.68916804  1
  Se  Se257  1  0.74291315  0.90979111  0.18518129  1
  Se  Se258  1  0.76271879  0.90906344  0.69913251  1
