# generated using pymatgen
data_In86Cu29Se144
_symmetry_space_group_name_H-M   'P 1'
_cell_length_a   17.59323003
_cell_length_b   17.59253075
_cell_length_c   23.44618625
_cell_angle_alpha   89.99271128
_cell_angle_beta   90.01841805
_cell_angle_gamma   90.00873237
_symmetry_Int_Tables_number   1
_chemical_formula_structural   In86Cu29Se144
_chemical_formula_sum   'In86 Cu29 Se144'
_cell_volume   7256.81546379
_cell_formula_units_Z   1
loop_
 _symmetry_equiv_pos_site_id
 _symmetry_equiv_pos_as_xyz
  1  'x, y, z'
loop_
 _atom_site_type_symbol
 _atom_site_label
 _atom_site_symmetry_multiplicity
 _atom_site_fract_x
 _atom_site_fract_y
 _atom_site_fract_z
 _atom_site_occupancy
  In  In0  1  -0.01183635  0.17008760  0.13189603  1
  In  In1  1  0.01362144  0.17682899  0.61635851  1
  In  In2  1  0.00991847  0.49743890  0.12339190  1
  In  In3  1  0.00147078  0.49988293  0.62267260  1
  In  In4  1  0.00694857  0.83790567  0.12310272  1
  In  In5  1  -0.01390816  0.83770016  0.62761865  1
  In  In6  1  0.34720946  0.16667283  0.13379337  1
  In  In7  1  0.32722202  0.16584001  0.61127524  1
  In  In8  1  0.33271608  0.49739374  0.12477436  1
  In  In9  1  0.33227814  0.51252763  0.61049619  1
  In  In10  1  0.32965470  0.83036216  0.11866545  1
  In  In11  1  0.33870510  0.82702798  0.63056091  1
  In  In12  1  0.66828375  0.16215578  0.14218179  1
  In  In13  1  0.66771861  0.17418552  0.60265550  1
  In  In14  1  0.65271680  0.51312877  0.14283616  1
  In  In15  1  0.66627981  0.49729765  0.60910474  1
  In  In16  1  0.66189813  0.83078910  0.12658554  1
  In  In17  1  0.66769065  0.82702378  0.61896285  1
  In  In18  1  0.16433759  0.02291679  0.36696085  1
  In  In19  1  0.16650879  -0.01819094  0.87406134  1
  In  In20  1  0.18610253  0.32749847  0.39495463  1
  In  In21  1  0.17172544  0.35084392  0.87044638  1
  In  In22  1  0.17032233  0.64711166  0.38805028  1
  In  In23  1  0.16713252  0.66529542  0.87153375  1
  In  In24  1  0.51525738  -0.00821241  0.37772096  1
  In  In25  1  0.49269735  -0.00073535  0.87169460  1
  In  In26  1  0.50676915  0.33166839  0.38363505  1
  In  In27  1  0.50947020  0.33387434  0.87559011  1
  In  In28  1  0.50208036  0.65795591  0.38325311  1
  In  In29  1  0.49576170  0.67201956  0.87796227  1
  In  In30  1  0.83261922  -0.00117704  0.37148765  1
  In  In31  1  0.82664197  -0.00209219  0.87590508  1
  In  In32  1  0.81124260  0.34628107  0.39275414  1
  In  In33  1  0.83621680  0.32338065  0.86887935  1
  In  In34  1  0.83087126  0.67754048  0.38831361  1
  In  In35  1  0.84434009  0.66715676  0.87352344  1
  In  In36  1  0.00652284  0.16050658  0.37731906  1
  In  In37  1  -0.00508248  0.17227833  0.86550078  1
  In  In38  1  0.01026456  0.50046844  0.39201355  1
  In  In39  1  0.00687291  0.51425454  0.86059622  1
  In  In40  1  -0.01549368  0.83025493  0.37670393  1
  In  In41  1  0.01233584  0.82307383  0.88355868  1
  In  In42  1  0.32492077  0.18539246  0.38618396  1
  In  In43  1  0.35180698  0.15899791  0.86815076  1
  In  In44  1  0.36835854  0.47301695  0.42260404  1
  In  In45  1  0.32589491  0.50886572  0.87816149  1
  In  In46  1  0.34668039  0.83495805  0.37661702  1
  In  In47  1  0.33303978  0.82471377  0.87106793  1
  In  In48  1  0.66746073  0.16471836  0.37958557  1
  In  In49  1  0.66281528  0.16592410  0.87455188  1
  In  In50  1  0.66228048  0.50170619  0.37727593  1
  In  In51  1  0.65905501  0.48969329  0.87872871  1
  In  In52  1  0.66366660  0.83618096  0.36682651  1
  In  In53  1  0.66387952  0.83783533  0.89152598  1
  In  In54  1  0.17482413  -0.01058237  0.12913276  1
  In  In55  1  0.17302388  0.01440870  0.62461231  1
  In  In56  1  0.16348395  0.34909525  0.12313106  1
  In  In57  1  0.16387334  0.32361404  0.61247112  1
  In  In58  1  0.16945866  0.66513720  0.11943286  1
  In  In59  1  0.17378842  0.65771538  0.62933259  1
  In  In60  1  0.50819672  -0.01018553  0.13322530  1
  In  In61  1  0.49186334  -0.01225824  0.61714745  1
  In  In62  1  0.49010302  0.33691429  0.13936724  1
  In  In63  1  0.49606376  0.33489331  0.59508031  1
  In  In64  1  0.50602133  0.67126566  0.12140055  1
  In  In65  1  0.47507964  0.65622674  0.60242341  1
  In  In66  1  0.83423372  -0.00431550  0.13243046  1
  In  In67  1  0.83141491  -0.00648417  0.61413815  1
  In  In68  1  0.83088033  0.32799186  0.13303194  1
  In  In69  1  0.84808392  0.35393308  0.60278848  1
  In  In70  1  0.81494586  0.66846274  0.13144564  1
  In  In71  1  0.84745610  0.67343532  0.61046217  1
  In  In72  1  0.66433579  0.66343221  0.74596278  1
  In  In73  1  0.33652322  0.66279030  0.26124879  1
  In  In74  1  0.83349719  0.50070675  0.00279827  1
  In  In75  1  0.33481047  0.00576294  0.25145180  1
  In  In76  1  -0.00107067  0.66663681  0.26108499  1
  In  In77  1  0.50377836  0.15946289  0.00228131  1
  In  In78  1  0.00382934  -0.00023370  0.75020139  1
  In  In79  1  -0.00152007  0.32828916  0.25622122  1
  In  In80  1  0.16668054  0.16547621  0.00360157  1
  In  In81  1  0.33465875  0.33553816  0.73841695  1
  In  In82  1  0.83024767  0.16416856  0.00865801  1
  In  In83  1  0.66418417  0.00351796  0.75237686  1
  In  In84  1  0.67084203  0.34112797  0.73149353  1
  In  In85  1  0.16786067  0.83362504  0.49825355  1
  Cu  Cu86  1  0.49622511  0.17214059  0.26207839  1
  Cu  Cu87  1  0.82729692  0.16961655  0.26020144  1
  Cu  Cu88  1  0.33472264  0.34033007  0.00444140  1
  Cu  Cu89  1  0.67046324  0.67172647  0.49545419  1
  Cu  Cu90  1  0.16127272  0.50007393  0.74507999  1
  Cu  Cu91  1  0.82981083  0.83374782  0.25153166  1
  Cu  Cu92  1  0.49238263  0.49380157  0.26469276  1
  Cu  Cu93  1  0.84470703  0.17484656  0.73828308  1
  Cu  Cu94  1  -0.00016030  0.66890933  -0.00251915  1
  Cu  Cu95  1  0.50319962  0.16527562  0.73757005  1
  Cu  Cu96  1  0.17087360  0.82745167  0.75089175  1
  Cu  Cu97  1  0.00095267  -0.00269054  0.49805081  1
  Cu  Cu98  1  0.33106261  -0.00876483  -0.00526117  1
  Cu  Cu99  1  0.00695480  0.34525435  -0.00605726  1
  Cu  Cu100  1  0.49239946  0.82478016  0.74705363  1
  Cu  Cu101  1  -0.00176502  0.32749991  0.49766566  1
  Cu  Cu102  1  0.83137423  0.49662632  0.26215978  1
  Cu  Cu103  1  0.48832997  0.50330545  0.73972479  1
  Cu  Cu104  1  0.83472729  0.82675061  0.75067266  1
  Cu  Cu105  1  0.66223848  0.66528312  0.00748562  1
  Cu  Cu106  1  0.33704461  0.00480709  0.49374945  1
  Cu  Cu107  1  0.17274522  0.49346923  0.25363990  1
  Cu  Cu108  1  0.65839716  0.33829116  0.00776434  1
  Cu  Cu109  1  0.17597299  0.17192103  0.74207253  1
  Cu  Cu110  1  0.16285117  0.83216351  0.25333958  1
  Cu  Cu111  1  0.67045183  -0.00478694  0.49372941  1
  Cu  Cu112  1  0.33258172  0.66148567  -0.00244239  1
  Cu  Cu113  1  0.83874271  0.49892434  0.73857513  1
  Cu  Cu114  1  -0.00414068  -0.00324254  0.00478086  1
  Se  Se115  1  0.07352498  0.07940482  0.06446576  1
  Se  Se116  1  0.08558045  0.08043763  0.55112226  1
  Se  Se117  1  0.08973504  0.42779763  0.04681371  1
  Se  Se118  1  0.07941733  0.41405713  0.55139334  1
  Se  Se119  1  0.08353791  0.74854643  0.05538377  1
  Se  Se120  1  0.08393656  0.75444024  0.56874743  1
  Se  Se121  1  0.40817623  0.07059846  0.05863744  1
  Se  Se122  1  0.42121812  0.08380283  0.55074137  1
  Se  Se123  1  0.42251636  0.41523509  0.05969762  1
  Se  Se124  1  0.39698415  0.41646249  0.54031283  1
  Se  Se125  1  0.41315563  0.74462774  0.05449894  1
  Se  Se126  1  0.42624310  0.77579401  0.55099915  1
  Se  Se127  1  0.73706152  0.07657993  0.06387663  1
  Se  Se128  1  0.75336590  0.07903977  0.54666393  1
  Se  Se129  1  0.74394252  0.41472346  0.06637757  1
  Se  Se130  1  0.72672064  0.39192438  0.54881688  1
  Se  Se131  1  0.74893159  0.74972604  0.05498146  1
  Se  Se132  1  0.75568636  0.75489697  0.54823273  1
  Se  Se133  1  0.26039230  0.25385603  0.06274739  1
  Se  Se134  1  0.25675238  0.25692907  0.54350224  1
  Se  Se135  1  0.25106055  0.57940500  0.05461649  1
  Se  Se136  1  0.23910804  0.58890541  0.54607815  1
  Se  Se137  1  0.24521302  0.91322846  0.05096877  1
  Se  Se138  1  0.25712401  0.92582992  0.55736909  1
  Se  Se139  1  0.58650606  0.25071140  0.06737206  1
  Se  Se140  1  0.58682438  0.25442430  0.53407733  1
  Se  Se141  1  0.58310220  0.57498287  0.05687640  1
  Se  Se142  1  0.58492653  0.58974099  0.54794980  1
  Se  Se143  1  0.57700684  0.91242858  0.05761245  1
  Se  Se144  1  0.58932863  0.91629779  0.55332759  1
  Se  Se145  1  0.92648174  0.26648004  0.05501820  1
  Se  Se146  1  0.91468034  0.24135191  0.54983826  1
  Se  Se147  1  0.92235337  0.59316104  0.06379928  1
  Se  Se148  1  0.89275381  0.55388603  0.55821627  1
  Se  Se149  1  0.91322802  0.91592153  0.05907532  1
  Se  Se150  1  0.91693136  0.91159380  0.54740515  1
  Se  Se151  1  0.08480129  0.24552163  0.44781476  1
  Se  Se152  1  0.08104806  0.25579557  0.93772687  1
  Se  Se153  1  0.05652788  0.61417450  0.45419959  1
  Se  Se154  1  0.07877667  0.58528726  0.94100996  1
  Se  Se155  1  0.08246281  0.92378249  0.43359395  1
  Se  Se156  1  0.08292508  0.91817030  0.95083678  1
  Se  Se157  1  0.42461875  0.24578574  0.45184625  1
  Se  Se158  1  0.41145301  0.25594479  0.94421071  1
  Se  Se159  1  0.40867330  0.60600574  0.45903773  1
  Se  Se160  1  0.41932214  0.58060211  0.94497410  1
  Se  Se161  1  0.42237271  0.91891870  0.44656900  1
  Se  Se162  1  0.41580199  0.91224229  0.93950663  1
  Se  Se163  1  0.76040568  0.23307872  0.44971425  1
  Se  Se164  1  0.73913641  0.25965027  0.94575629  1
  Se  Se165  1  0.75090445  0.58063692  0.44707168  1
  Se  Se166  1  0.74145808  0.58945220  0.94039793  1
  Se  Se167  1  0.75208340  0.91115921  0.43897692  1
  Se  Se168  1  0.75505927  0.92088208  0.94977982  1
  Se  Se169  1  0.24659329  0.08522030  0.44585841  1
  Se  Se170  1  0.25692671  0.08067816  0.93740952  1
  Se  Se171  1  0.22099309  0.45658738  0.43950170  1
  Se  Se172  1  0.25156880  0.41825724  0.94748848  1
  Se  Se173  1  0.26194871  0.74468785  0.44156689  1
  Se  Se174  1  0.25014697  0.74515822  0.94251077  1
  Se  Se175  1  0.58310709  0.08236696  0.44902109  1
  Se  Se176  1  0.59382617  0.06881752  0.94164542  1
  Se  Se177  1  0.56777850  0.43723419  0.44747112  1
  Se  Se178  1  0.57509971  0.41777461  0.95204194  1
  Se  Se179  1  0.58681850  0.75309445  0.44083513  1
  Se  Se180  1  0.57977037  0.74643560  0.95029927  1
  Se  Se181  1  0.91810601  0.07851742  0.44265005  1
  Se  Se182  1  0.92537290  0.08309908  0.94236020  1
  Se  Se183  1  0.91614565  0.41731950  0.45050162  1
  Se  Se184  1  0.91897875  0.41627818  0.93375945  1
  Se  Se185  1  0.93820892  0.73441904  0.45266367  1
  Se  Se186  1  0.91299142  0.75168566  0.94760960  1
  Se  Se187  1  0.24215363  0.25347715  0.31039280  1
  Se  Se188  1  0.25277400  0.24651098  0.80957787  1
  Se  Se189  1  0.25205924  0.56758143  0.31675246  1
  Se  Se190  1  0.24659056  0.57868020  0.80131350  1
  Se  Se191  1  0.24479610  0.91184647  0.31231636  1
  Se  Se192  1  0.25323948  0.91424290  0.80182850  1
  Se  Se193  1  0.58630293  0.25207059  0.31085986  1
  Se  Se194  1  0.58283954  0.24592093  0.79805058  1
  Se  Se195  1  0.57959357  0.58368754  0.30672035  1
  Se  Se196  1  0.57515752  0.56948676  0.80501735  1
  Se  Se197  1  0.58861095  0.92448311  0.29740727  1
  Se  Se198  1  0.57792442  0.90231172  0.80660942  1
  Se  Se199  1  0.90555775  0.25060379  0.32066889  1
  Se  Se200  1  0.92370611  0.25837531  0.79380157  1
  Se  Se201  1  0.91248846  0.57495537  0.32016411  1
  Se  Se202  1  0.91177918  0.58738181  0.79578636  1
  Se  Se203  1  0.91840297  0.91555953  0.30175492  1
  Se  Se204  1  0.91393616  0.90939997  0.81037637  1
  Se  Se205  1  0.07512159  0.08815675  0.29571016  1
  Se  Se206  1  0.09879356  0.09156225  0.80747559  1
  Se  Se207  1  0.08547652  0.42155264  0.31357191  1
  Se  Se208  1  0.08057951  0.41458001  0.79881609  1
  Se  Se209  1  0.09496571  0.75156905  0.31944141  1
  Se  Se210  1  0.08165662  0.74968293  0.80332832  1
  Se  Se211  1  0.41721113  0.08831246  0.32081529  1
  Se  Se212  1  0.42506827  0.08070198  0.79353801  1
  Se  Se213  1  0.40955979  0.41723127  0.32402637  1
  Se  Se214  1  0.42155888  0.41891203  0.80659838  1
  Se  Se215  1  0.43347832  0.75706087  0.30733143  1
  Se  Se216  1  0.41335379  0.73865451  0.80109627  1
  Se  Se217  1  0.74312958  0.08004000  0.30562525  1
  Se  Se218  1  0.76372539  0.09968280  0.80302114  1
  Se  Se219  1  0.74354698  0.41325096  0.30842033  1
  Se  Se220  1  0.75654469  0.42491988  0.80350593  1
  Se  Se221  1  0.75601603  0.74612666  0.30798517  1
  Se  Se222  1  0.74735321  0.75547175  0.81156145  1
  Se  Se223  1  0.24058329  0.09501806  0.19282508  1
  Se  Se224  1  0.26183700  0.08864614  0.69383563  1
  Se  Se225  1  0.25330649  0.41349373  0.19631239  1
  Se  Se226  1  0.24212475  0.42469267  0.68215712  1
  Se  Se227  1  0.24448426  0.75144883  0.19604420  1
  Se  Se228  1  0.25387430  0.74489884  0.69707451  1
  Se  Se229  1  0.57100298  0.08610286  0.20258291  1
  Se  Se230  1  0.58701757  0.08791413  0.67987999  1
  Se  Se231  1  0.57840987  0.41646130  0.20633014  1
  Se  Se232  1  0.56526984  0.42245491  0.67959027  1
  Se  Se233  1  0.59840849  0.73068099  0.19337908  1
  Se  Se234  1  0.57276389  0.74844592  0.68478940  1
  Se  Se235  1  0.90745218  0.08965762  0.20026498  1
  Se  Se236  1  0.91723286  0.08360761  0.68323427  1
  Se  Se237  1  0.91325845  0.42866691  0.19468002  1
  Se  Se238  1  0.91904463  0.40959330  0.69029994  1
  Se  Se239  1  0.91491547  0.75242193  0.19333832  1
  Se  Se240  1  0.91452195  0.74465291  0.69523502  1
  Se  Se241  1  0.09000213  0.24942095  0.18894980  1
  Se  Se242  1  0.08845864  0.25292313  0.69290254  1
  Se  Se243  1  0.09286738  0.57948937  0.19785456  1
  Se  Se244  1  0.07749308  0.58528991  0.69461842  1
  Se  Se245  1  0.08398529  0.91636869  0.19829155  1
  Se  Se246  1  0.09516484  0.91168446  0.68928933  1
  Se  Se247  1  0.40998105  0.25310201  0.20925637  1
  Se  Se248  1  0.42841281  0.24942453  0.67894590  1
  Se  Se249  1  0.42315372  0.57625103  0.19596020  1
  Se  Se250  1  0.40773631  0.58860023  0.68777446  1
  Se  Se251  1  0.41512752  0.90367611  0.19570639  1
  Se  Se252  1  0.41654490  0.91914591  0.69760873  1
  Se  Se253  1  0.74717949  0.25547202  0.20466701  1
  Se  Se254  1  0.75819078  0.24486535  0.67871133  1
  Se  Se255  1  0.75186962  0.58236972  0.20698365  1
  Se  Se256  1  0.75209083  0.57667940  0.68261718  1
  Se  Se257  1  0.74588391  0.91459777  0.19704135  1
  Se  Se258  1  0.75577805  0.91032791  0.69372543  1
