# generated using pymatgen
data_In86Cu29Se144
_symmetry_space_group_name_H-M   'P 1'
_cell_length_a   17.58061791
_cell_length_b   17.58268316
_cell_length_c   23.43946202
_cell_angle_alpha   90.00459616
_cell_angle_beta   90.01086888
_cell_angle_gamma   90.01528873
_symmetry_Int_Tables_number   1
_chemical_formula_structural   In86Cu29Se144
_chemical_formula_sum   'In86 Cu29 Se144'
_cell_volume   7245.47563705
_cell_formula_units_Z   1
loop_
 _symmetry_equiv_pos_site_id
 _symmetry_equiv_pos_as_xyz
  1  'x, y, z'
loop_
 _atom_site_type_symbol
 _atom_site_label
 _atom_site_symmetry_multiplicity
 _atom_site_fract_x
 _atom_site_fract_y
 _atom_site_fract_z
 _atom_site_occupancy
  In  In0  1  -0.00488358  0.17739509  0.12587204  1
  In  In1  1  0.00788261  0.17912904  0.61863123  1
  In  In2  1  -0.00052642  0.48018917  0.12902312  1
  In  In3  1  -0.01115121  0.50443306  0.63848483  1
  In  In4  1  -0.00581242  0.82610107  0.11331517  1
  In  In5  1  0.00218681  0.82374917  0.62984522  1
  In  In6  1  0.33761847  0.16281208  0.13546916  1
  In  In7  1  0.33979055  0.16611498  0.61121817  1
  In  In8  1  0.33353913  0.49853927  0.13263766  1
  In  In9  1  0.33453699  0.48743348  0.61563980  1
  In  In10  1  0.32443500  0.84344848  0.12895522  1
  In  In11  1  0.32982956  0.83973848  0.62113349  1
  In  In12  1  0.68040160  0.17780343  0.11193994  1
  In  In13  1  0.67013453  0.16608514  0.62512891  1
  In  In14  1  0.65723729  0.49981560  0.12115174  1
  In  In15  1  0.66808032  0.49554840  0.62805182  1
  In  In16  1  0.66772723  0.82345821  0.10798231  1
  In  In17  1  0.69811035  0.81338669  0.65878437  1
  In  In18  1  0.17403835  -0.00537401  0.37837363  1
  In  In19  1  0.15710986  -0.01168125  0.87411141  1
  In  In20  1  0.15510110  0.33040939  0.36398075  1
  In  In21  1  0.17226821  0.34358321  0.87797566  1
  In  In22  1  0.17757336  0.65743789  0.37716451  1
  In  In23  1  0.14977381  0.67404797  0.88284432  1
  In  In24  1  0.49686508  0.01353832  0.37514910  1
  In  In25  1  0.53062287  0.00380745  0.88528408  1
  In  In26  1  0.50278878  0.33539388  0.37375790  1
  In  In27  1  0.50991103  0.32624341  0.88558832  1
  In  In28  1  0.48971365  0.66087132  0.37177164  1
  In  In29  1  0.50018563  0.64906805  0.87772332  1
  In  In30  1  0.84468396  0.00814148  0.37652320  1
  In  In31  1  0.81771908  0.01077282  0.88572644  1
  In  In32  1  0.82714003  0.33378093  0.37331226  1
  In  In33  1  0.82443954  0.33393931  0.85932084  1
  In  In34  1  0.82087037  0.66071191  0.37709475  1
  In  In35  1  0.84081974  0.66891042  0.86047238  1
  In  In36  1  -0.01058709  0.18459538  0.38559089  1
  In  In37  1  -0.01447898  0.16148855  0.87459673  1
  In  In38  1  -0.00405750  0.48598412  0.36996941  1
  In  In39  1  0.00125326  0.50519145  0.86661984  1
  In  In40  1  0.00011161  0.84753618  0.37893431  1
  In  In41  1  0.00422483  0.82354745  0.87588066  1
  In  In42  1  0.33372422  0.16811328  0.37091657  1
  In  In43  1  0.34252353  0.17921759  0.88235089  1
  In  In44  1  0.33542993  0.51024962  0.36363947  1
  In  In45  1  0.33442394  0.49709675  0.88950673  1
  In  In46  1  0.32138772  0.81994020  0.36576719  1
  In  In47  1  0.32449196  0.82596051  0.87988697  1
  In  In48  1  0.65110738  0.17713821  0.38650801  1
  In  In49  1  0.66736018  0.17370579  0.87624730  1
  In  In50  1  0.68485323  0.47981662  0.38852707  1
  In  In51  1  0.66933860  0.49098616  0.86228674  1
  In  In52  1  0.66218750  0.82786487  0.37895153  1
  In  In53  1  0.67991211  0.83977722  0.86459204  1
  In  In54  1  0.17567221  -0.00400927  0.12490234  1
  In  In55  1  0.16417822  0.00108391  0.61573874  1
  In  In56  1  0.15903903  0.34389050  0.14004880  1
  In  In57  1  0.16891927  0.32679833  0.62140876  1
  In  In58  1  0.17216697  0.67389583  0.12143635  1
  In  In59  1  0.15181453  0.66798999  0.62614379  1
  In  In60  1  0.49011750  0.00057196  0.12370032  1
  In  In61  1  0.51285398  0.00886382  0.62188871  1
  In  In62  1  0.50109216  0.33465949  0.12839300  1
  In  In63  1  0.50785506  0.33785978  0.61527191  1
  In  In64  1  0.50101487  0.64838553  0.11897924  1
  In  In65  1  0.51544743  0.66312831  0.62769935  1
  In  In66  1  0.83001739  0.00158698  0.10879855  1
  In  In67  1  0.82220230  -0.00027358  0.62966217  1
  In  In68  1  0.84200442  0.32931348  0.13283480  1
  In  In69  1  0.83392310  0.33455008  0.62691466  1
  In  In70  1  0.81620446  0.66513191  0.11225959  1
  In  In71  1  0.84654036  0.64831123  0.64652566  1
  In  In72  1  0.66254509  0.00575736  0.24551274  1
  In  In73  1  0.33398064  0.33306989  0.74432055  1
  In  In74  1  0.16429202  0.49745606  0.49250682  1
  In  In75  1  0.50329461  0.84041429  0.50698526  1
  In  In76  1  0.33204443  0.66438323  0.75105878  1
  In  In77  1  0.33874733  0.00223795  0.75897740  1
  In  In78  1  0.83529872  0.50143256  -0.01119567  1
  In  In79  1  0.00283636  0.65880223  0.25371228  1
  In  In80  1  0.16679370  0.16485144  0.00932450  1
  In  In81  1  0.83574458  0.83402733  0.51509495  1
  In  In82  1  -0.00748218  -0.00406688  0.74873056  1
  In  In83  1  0.49918270  0.83373414  -0.00540483  1
  In  In84  1  0.00386697  0.00732967  0.24730532  1
  In  In85  1  0.65866718  0.65904050  0.23824162  1
  Cu  Cu86  1  0.50307600  0.49832372  0.25022196  1
  Cu  Cu87  1  0.00435847  0.65709308  -0.00446186  1
  Cu  Cu88  1  0.16638224  0.16509206  0.74098034  1
  Cu  Cu89  1  0.82900847  0.82931881  0.23974173  1
  Cu  Cu90  1  0.50396862  0.83892311  0.75391219  1
  Cu  Cu91  1  0.67075797  -0.00388248  0.50619795  1
  Cu  Cu92  1  0.51278281  0.17030732  0.75161343  1
  Cu  Cu93  1  -0.00777525  0.66865784  0.50877457  1
  Cu  Cu94  1  0.50001510  0.17325042  0.25263786  1
  Cu  Cu95  1  0.67051136  0.33874928  -0.00528570  1
  Cu  Cu96  1  -0.00512412  0.33628383  0.49932502  1
  Cu  Cu97  1  0.83088898  0.17473937  0.75037159  1
  Cu  Cu98  1  0.33254232  0.66682830  0.49293580  1
  Cu  Cu99  1  0.33382636  -0.00146167  0.49518265  1
  Cu  Cu100  1  0.15794604  0.50701627  0.75643987  1
  Cu  Cu101  1  0.50111285  0.48949556  0.74970605  1
  Cu  Cu102  1  0.33254334  0.66211999  0.00371133  1
  Cu  Cu103  1  0.17012318  0.82999586  0.25017235  1
  Cu  Cu104  1  0.32913261  0.00082301  0.00371358  1
  Cu  Cu105  1  0.66804734  0.32866980  0.50352648  1
  Cu  Cu106  1  0.33743617  0.34030478  0.01133959  1
  Cu  Cu107  1  -0.00230339  0.32767120  0.00280207  1
  Cu  Cu108  1  0.82608967  0.17328109  0.25270417  1
  Cu  Cu109  1  0.33813412  0.32829789  0.49052715  1
  Cu  Cu110  1  0.16475240  0.16552056  0.25163909  1
  Cu  Cu111  1  0.66546827  0.65248355  0.50740649  1
  Cu  Cu112  1  0.49076622  0.83656979  0.24723227  1
  Cu  Cu113  1  -0.00375071  -0.00750131  -0.00615590  1
  Cu  Cu114  1  0.00725001  0.01228440  0.49936912  1
  Se  Se115  1  0.07023750  0.07092297  0.06241041  1
  Se  Se116  1  0.09253483  0.09601713  0.55087093  1
  Se  Se117  1  0.08355055  0.40737934  0.05600208  1
  Se  Se118  1  0.07528169  0.41739930  0.56044139  1
  Se  Se119  1  0.08343394  0.74546886  0.04975875  1
  Se  Se120  1  0.08199320  0.75344741  0.55199300  1
  Se  Se121  1  0.40946771  0.08623317  0.05584125  1
  Se  Se122  1  0.42219853  0.07519845  0.54957094  1
  Se  Se123  1  0.42303151  0.42504029  0.06075892  1
  Se  Se124  1  0.41827339  0.41291072  0.54570538  1
  Se  Se125  1  0.41140725  0.74877278  0.06147684  1
  Se  Se126  1  0.41224514  0.73985656  0.56044736  1
  Se  Se127  1  0.74285923  0.08057568  0.04485808  1
  Se  Se128  1  0.75468622  0.08374098  0.55442168  1
  Se  Se129  1  0.75282025  0.41415285  0.05772913  1
  Se  Se130  1  0.74933360  0.41490353  0.55663160  1
  Se  Se131  1  0.76123000  0.75870049  0.03987651  1
  Se  Se132  1  0.74431848  0.73847865  0.56578528  1
  Se  Se133  1  0.25414210  0.25676289  0.06761212  1
  Se  Se134  1  0.25318065  0.25311011  0.54947693  1
  Se  Se135  1  0.25167525  0.57929159  0.05978558  1
  Se  Se136  1  0.25137793  0.58976544  0.55755301  1
  Se  Se137  1  0.24537850  0.91230113  0.04970627  1
  Se  Se138  1  0.24964600  0.91683060  0.54951137  1
  Se  Se139  1  0.58622235  0.26128517  0.05372973  1
  Se  Se140  1  0.58311208  0.24155613  0.55298371  1
  Se  Se141  1  0.61036516  0.60674551  0.05409052  1
  Se  Se142  1  0.57671074  0.57093695  0.55599434  1
  Se  Se143  1  0.58561600  0.92829899  0.05428020  1
  Se  Se144  1  0.60478399  0.90888642  0.57006009  1
  Se  Se145  1  0.90910640  0.24795461  0.05336032  1
  Se  Se146  1  0.91325926  0.25187347  0.55351621  1
  Se  Se147  1  0.92448094  0.58160550  0.05992533  1
  Se  Se148  1  0.91383353  0.58197804  0.56152858  1
  Se  Se149  1  0.91156880  0.90981824  0.04697905  1
  Se  Se150  1  0.93043609  0.93163298  0.56408489  1
  Se  Se151  1  0.08743999  0.25920501  0.44764900  1
  Se  Se152  1  0.08076386  0.24867753  0.94125388  1
  Se  Se153  1  0.06784118  0.59162766  0.44050840  1
  Se  Se154  1  0.08565188  0.56923992  0.94526659  1
  Se  Se155  1  0.08497393  0.92043873  0.44946012  1
  Se  Se156  1  0.08445665  0.90842189  0.94770562  1
  Se  Se157  1  0.42323568  0.24400725  0.44034660  1
  Se  Se158  1  0.41832861  0.25582681  0.95635769  1
  Se  Se159  1  0.41403255  0.57877465  0.44432194  1
  Se  Se160  1  0.42094637  0.57978447  0.95512995  1
  Se  Se161  1  0.41208119  0.91364228  0.43596855  1
  Se  Se162  1  0.40926972  0.92936130  0.93588047  1
  Se  Se163  1  0.75213531  0.24849652  0.44670004  1
  Se  Se164  1  0.75653097  0.25937215  0.94046593  1
  Se  Se165  1  0.75578066  0.57824551  0.45359536  1
  Se  Se166  1  0.74640975  0.58937211  0.92966078  1
  Se  Se167  1  0.74966087  0.91870896  0.44187376  1
  Se  Se168  1  0.73858289  0.91764065  0.94729587  1
  Se  Se169  1  0.25277199  0.08572273  0.44297522  1
  Se  Se170  1  0.25090011  0.07904065  0.93823808  1
  Se  Se171  1  0.25659193  0.41087806  0.43331989  1
  Se  Se172  1  0.24858293  0.41462397  0.95578406  1
  Se  Se173  1  0.24551637  0.75177900  0.44651875  1
  Se  Se174  1  0.24782825  0.74395960  0.94997039  1
  Se  Se175  1  0.58525188  0.07454466  0.45051039  1
  Se  Se176  1  0.57411301  0.11110798  0.95000714  1
  Se  Se177  1  0.58279890  0.41242166  0.44986544  1
  Se  Se178  1  0.58889919  0.42562828  0.94320629  1
  Se  Se179  1  0.58673142  0.73668269  0.44803372  1
  Se  Se180  1  0.58635918  0.74924572  0.93114854  1
  Se  Se181  1  0.91452278  0.08962474  0.45097617  1
  Se  Se182  1  0.91376218  0.08577673  0.95126374  1
  Se  Se183  1  0.91186532  0.41666694  0.44399865  1
  Se  Se184  1  0.92476890  0.40492686  0.93529378  1
  Se  Se185  1  0.91667525  0.74794338  0.44158817  1
  Se  Se186  1  0.91965334  0.73759045  0.94090061  1
  Se  Se187  1  0.24933714  0.25013112  0.30236870  1
  Se  Se188  1  0.24556427  0.24105667  0.80685618  1
  Se  Se189  1  0.24526354  0.58663324  0.29762579  1
  Se  Se190  1  0.24703230  0.57678220  0.81644778  1
  Se  Se191  1  0.25047639  0.91919125  0.30177684  1
  Se  Se192  1  0.24237002  0.90470691  0.80367516  1
  Se  Se193  1  0.58809415  0.25253419  0.30433385  1
  Se  Se194  1  0.58759093  0.26039595  0.80527259  1
  Se  Se195  1  0.58565660  0.57506568  0.31315253  1
  Se  Se196  1  0.57889604  0.57951787  0.80091856  1
  Se  Se197  1  0.57680808  0.90951458  0.30820213  1
  Se  Se198  1  0.58729164  0.92513964  0.80300745  1
  Se  Se199  1  0.91557417  0.25175820  0.30470793  1
  Se  Se200  1  0.92254479  0.25052354  0.80158192  1
  Se  Se201  1  0.90152498  0.57572977  0.30757191  1
  Se  Se202  1  0.91677285  0.57735356  0.79538496  1
  Se  Se203  1  0.90668667  0.91025538  0.30090937  1
  Se  Se204  1  0.91058941  0.91982752  0.82079540  1
  Se  Se205  1  0.08360883  0.09217670  0.31673751  1
  Se  Se206  1  0.08958760  0.08875790  0.80590772  1
  Se  Se207  1  0.09490183  0.43417709  0.30035753  1
  Se  Se208  1  0.08511113  0.41035631  0.80534796  1
  Se  Se209  1  0.08597920  0.75870551  0.31279040  1
  Se  Se210  1  0.08447387  0.74747649  0.80248022  1
  Se  Se211  1  0.41640538  0.08387477  0.30010543  1
  Se  Se212  1  0.43051529  0.09432185  0.81441240  1
  Se  Se213  1  0.41882823  0.41644700  0.30418290  1
  Se  Se214  1  0.41768815  0.41732791  0.81284474  1
  Se  Se215  1  0.41619770  0.74637716  0.30080590  1
  Se  Se216  1  0.42325873  0.75627164  0.81121210  1
  Se  Se217  1  0.75015459  0.08960113  0.31300920  1
  Se  Se218  1  0.75132993  0.09148513  0.80686727  1
  Se  Se219  1  0.74340664  0.41328115  0.30294692  1
  Se  Se220  1  0.76318723  0.42980263  0.79027489  1
  Se  Se221  1  0.74872840  0.75461509  0.30273136  1
  Se  Se222  1  0.75066492  0.74981754  0.79618225  1
  Se  Se223  1  0.24547331  0.08003879  0.19833246  1
  Se  Se224  1  0.25357267  0.08671919  0.68772995  1
  Se  Se225  1  0.26094116  0.40791181  0.20124547  1
  Se  Se226  1  0.23823232  0.42988700  0.69259677  1
  Se  Se227  1  0.25382675  0.74837662  0.19643219  1
  Se  Se228  1  0.24508394  0.75543496  0.69039606  1
  Se  Se229  1  0.57671847  0.09709792  0.18562020  1
  Se  Se230  1  0.59020074  0.08223957  0.69788850  1
  Se  Se231  1  0.58755367  0.41738045  0.19660241  1
  Se  Se232  1  0.58261227  0.40738173  0.69456267  1
  Se  Se233  1  0.57283162  0.76142845  0.18450551  1
  Se  Se234  1  0.58024379  0.74714432  0.70351606  1
  Se  Se235  1  0.90088766  0.08760559  0.19121317  1
  Se  Se236  1  0.91365691  0.09635149  0.68893286  1
  Se  Se237  1  0.91770462  0.41269596  0.20345840  1
  Se  Se238  1  0.91711874  0.40859094  0.70066734  1
  Se  Se239  1  0.91042368  0.74460802  0.18718623  1
  Se  Se240  1  0.89277045  0.77482940  0.69158535  1
  Se  Se241  1  0.07792363  0.24698765  0.19986557  1
  Se  Se242  1  0.08499638  0.25525308  0.69523379  1
  Se  Se243  1  0.08837745  0.57861742  0.18622123  1
  Se  Se244  1  0.07795084  0.59054751  0.70125530  1
  Se  Se245  1  0.08383554  0.90420628  0.18966649  1
  Se  Se246  1  0.09393325  0.91404215  0.69214603  1
  Se  Se247  1  0.41538101  0.25571703  0.19903269  1
  Se  Se248  1  0.42525075  0.24016697  0.68890918  1
  Se  Se249  1  0.42150053  0.58562429  0.19847240  1
  Se  Se250  1  0.41806224  0.56926615  0.69001536  1
  Se  Se251  1  0.41037852  0.92438353  0.19708196  1
  Se  Se252  1  0.42509066  0.91488291  0.69094496  1
  Se  Se253  1  0.74438668  0.25181214  0.19486767  1
  Se  Se254  1  0.74581919  0.25338176  0.69492419  1
  Se  Se255  1  0.76051694  0.57184676  0.18939300  1
  Se  Se256  1  0.72838370  0.59525258  0.69645754  1
  Se  Se257  1  0.74908270  0.91186951  0.18371995  1
  Se  Se258  1  0.75151798  0.93079920  0.70946861  1
