# generated using pymatgen
data_In86Cu29Se144
_symmetry_space_group_name_H-M   'P 1'
_cell_length_a   17.58008821
_cell_length_b   17.58566099
_cell_length_c   23.45153591
_cell_angle_alpha   89.99200567
_cell_angle_beta   90.00145250
_cell_angle_gamma   89.97032913
_symmetry_Int_Tables_number   1
_chemical_formula_structural   In86Cu29Se144
_chemical_formula_sum   'In86 Cu29 Se144'
_cell_volume   7250.21650124
_cell_formula_units_Z   1
loop_
 _symmetry_equiv_pos_site_id
 _symmetry_equiv_pos_as_xyz
  1  'x, y, z'
loop_
 _atom_site_type_symbol
 _atom_site_label
 _atom_site_symmetry_multiplicity
 _atom_site_fract_x
 _atom_site_fract_y
 _atom_site_fract_z
 _atom_site_occupancy
  In  In0  1  0.01414553  0.17292282  0.13013943  1
  In  In1  1  -0.00955912  0.15143472  0.61724639  1
  In  In2  1  0.00728045  0.49989751  0.13127754  1
  In  In3  1  0.00671300  0.48888827  0.62375842  1
  In  In4  1  0.00371557  0.82009520  0.12866068  1
  In  In5  1  0.01303145  0.84649721  0.61398650  1
  In  In6  1  0.34255585  0.16259755  0.13219604  1
  In  In7  1  0.32420671  0.15709443  0.61448017  1
  In  In8  1  0.32996849  0.50583883  0.12123299  1
  In  In9  1  0.33445815  0.51843151  0.62653289  1
  In  In10  1  0.32512225  0.83718825  0.12793237  1
  In  In11  1  0.32969433  0.83831174  0.62552827  1
  In  In12  1  0.66655461  0.17786755  0.12601609  1
  In  In13  1  0.66750533  0.16788876  0.61497041  1
  In  In14  1  0.65519213  0.50442238  0.13131836  1
  In  In15  1  0.66209286  0.51170517  0.63192391  1
  In  In16  1  0.65068301  0.82590974  0.12481333  1
  In  In17  1  0.65514378  0.82407195  0.61588324  1
  In  In18  1  0.18107911  -0.01027153  0.38051962  1
  In  In19  1  0.15819391  -0.01246809  0.86562942  1
  In  In20  1  0.17026455  0.33693602  0.37358227  1
  In  In21  1  0.18314820  0.34274187  0.88329552  1
  In  In22  1  0.16869069  0.66797854  0.37386446  1
  In  In23  1  0.19459292  0.65713440  0.89515903  1
  In  In24  1  0.48949755  0.00733381  0.38114150  1
  In  In25  1  0.50245423  0.01326160  0.87240120  1
  In  In26  1  0.49300989  0.32588423  0.36557828  1
  In  In27  1  0.48215083  0.33531486  0.89376446  1
  In  In28  1  0.50437614  0.67110114  0.36933815  1
  In  In29  1  0.48027079  0.65018386  0.84795578  1
  In  In30  1  0.83422877  0.00115404  0.38710619  1
  In  In31  1  0.82988868  -0.01075499  0.86602556  1
  In  In32  1  0.82809545  0.32808727  0.37079739  1
  In  In33  1  0.84085064  0.33358624  0.87961587  1
  In  In34  1  0.83382950  0.66736020  0.37138394  1
  In  In35  1  0.83482388  0.67641811  0.87206294  1
  In  In36  1  -0.00373825  0.17562461  0.38034923  1
  In  In37  1  0.00735059  0.16253199  0.86966967  1
  In  In38  1  0.01024228  0.50998070  0.36731066  1
  In  In39  1  0.03115599  0.51546172  0.88540863  1
  In  In40  1  0.00534780  0.82421462  0.38095479  1
  In  In41  1  0.00017779  0.83342446  0.87163639  1
  In  In42  1  0.33438001  0.16534730  0.37499625  1
  In  In43  1  0.34390224  0.16687973  0.87428585  1
  In  In44  1  0.32576699  0.49590608  0.36717937  1
  In  In45  1  0.33348155  0.50576381  0.88461500  1
  In  In46  1  0.33286942  0.83126525  0.37369786  1
  In  In47  1  0.32629354  0.82184235  0.85836919  1
  In  In48  1  0.66012386  0.17059657  0.38157698  1
  In  In49  1  0.64721380  0.15242280  0.87341143  1
  In  In50  1  0.66439157  0.49767718  0.36475764  1
  In  In51  1  0.64257259  0.50359314  0.87934642  1
  In  In52  1  0.67040247  0.82833999  0.38167762  1
  In  In53  1  0.66956771  0.82919721  0.86817474  1
  In  In54  1  0.17926219  0.00524295  0.12632927  1
  In  In55  1  0.16913549  -0.00278000  0.62427295  1
  In  In56  1  0.16663765  0.33993600  0.13528153  1
  In  In57  1  0.17209971  0.33444236  0.61182274  1
  In  In58  1  0.16718852  0.66900491  0.12495850  1
  In  In59  1  0.17196956  0.67852187  0.61423906  1
  In  In60  1  0.48739880  -0.01112549  0.12043784  1
  In  In61  1  0.48669165  -0.01320327  0.61956277  1
  In  In62  1  0.49444840  0.33794568  0.12897389  1
  In  In63  1  0.51016361  0.33298200  0.62152013  1
  In  In64  1  0.50088056  0.66193705  0.12790295  1
  In  In65  1  0.46915808  0.70037306  0.65707479  1
  In  In66  1  0.82915599  0.00998346  0.12533017  1
  In  In67  1  0.84686149  0.00991873  0.61769294  1
  In  In68  1  0.83475064  0.33529009  0.13558830  1
  In  In69  1  0.83553655  0.32611939  0.62042265  1
  In  In70  1  0.83643901  0.66115321  0.13311625  1
  In  In71  1  0.81912511  0.66990744  0.62382093  1
  In  In72  1  -0.00033732  0.32243838  0.74871256  1
  In  In73  1  0.83724245  0.83257602  -0.01154262  1
  In  In74  1  0.66336169  0.33440594  0.74638389  1
  In  In75  1  0.49089102  0.82429027  -0.00705900  1
  In  In76  1  0.17373641  0.17055621  0.00331716  1
  In  In77  1  0.33251098  0.33195258  0.75650314  1
  In  In78  1  0.83405792  0.50238015  0.01357702  1
  In  In79  1  0.66197517  -0.00345946  0.25162441  1
  In  In80  1  0.00559275  -0.00359722  0.26761889  1
  In  In81  1  0.00285017  0.67035121  0.75138548  1
  In  In82  1  0.49684805  0.50406144  0.50284101  1
  In  In83  1  0.66426946  -0.00407862  0.74247758  1
  In  In84  1  0.83642152  0.50022883  0.50301421  1
  In  In85  1  0.82152758  0.16554890  -0.00066581  1
  Cu  Cu86  1  0.17507358  0.17475794  0.25301195  1
  Cu  Cu87  1  0.66899104  0.66844593  0.00053795  1
  Cu  Cu88  1  0.83108096  0.50137504  0.75725807  1
  Cu  Cu89  1  0.83495515  0.49891149  0.25055779  1
  Cu  Cu90  1  -0.00316420  -0.00634033  -0.00489316  1
  Cu  Cu91  1  0.33283767  -0.00367417  0.49922021  1
  Cu  Cu92  1  0.17091103  0.50448024  0.75395527  1
  Cu  Cu93  1  0.66736885  -0.00313384  0.50330121  1
  Cu  Cu94  1  0.49667128  0.49940818  0.24548659  1
  Cu  Cu95  1  0.49382560  0.82824152  0.24904541  1
  Cu  Cu96  1  0.50071124  0.16775046  0.25384695  1
  Cu  Cu97  1  0.16859844  0.82958442  0.74584048  1
  Cu  Cu98  1  0.65919533  0.66854943  0.50023526  1
  Cu  Cu99  1  0.66574804  0.33005679  0.49495563  1
  Cu  Cu100  1  0.33685883  0.33014797  0.49025437  1
  Cu  Cu101  1  0.33121997  0.67273019  0.50073352  1
  Cu  Cu102  1  0.83890764  0.16779248  0.25458430  1
  Cu  Cu103  1  0.16765708  0.83035702  0.25354453  1
  Cu  Cu104  1  0.82514360  0.82297562  0.25211286  1
  Cu  Cu105  1  0.33029259  -0.00380192  -0.00135574  1
  Cu  Cu106  1  0.00118678  0.66642971  0.49225924  1
  Cu  Cu107  1  -0.00040474  0.33667714  0.00577110  1
  Cu  Cu108  1  0.65273095  0.32974135  0.00289225  1
  Cu  Cu109  1  0.16404500  0.15576884  0.74274174  1
  Cu  Cu110  1  0.83758423  0.83778886  0.74358765  1
  Cu  Cu111  1  0.00697396  0.00189532  0.49825695  1
  Cu  Cu112  1  0.00630815  0.33554889  0.49701620  1
  Cu  Cu113  1  0.49557264  0.16789265  0.74855985  1
  Cu  Cu114  1  0.17043801  0.50736930  0.24842223  1
  Se  Se115  1  0.07482844  0.07618122  0.05589803  1
  Se  Se116  1  0.09007833  0.08366479  0.55373073  1
  Se  Se117  1  0.08418911  0.41402267  0.06082688  1
  Se  Se118  1  0.08823565  0.42245846  0.54758775  1
  Se  Se119  1  0.09690630  0.76555739  0.05713949  1
  Se  Se120  1  0.08300942  0.75255267  0.54595332  1
  Se  Se121  1  0.41006411  0.07902564  0.05448988  1
  Se  Se122  1  0.41865539  0.08118616  0.55057114  1
  Se  Se123  1  0.43225717  0.43535388  0.06034937  1
  Se  Se124  1  0.40584155  0.40973904  0.56040798  1
  Se  Se125  1  0.40633559  0.74258093  0.06138610  1
  Se  Se126  1  0.41515069  0.74855429  0.56072343  1
  Se  Se127  1  0.73106487  0.07284655  0.05591566  1
  Se  Se128  1  0.75307136  0.08412304  0.55061750  1
  Se  Se129  1  0.74017485  0.40457827  0.06177896  1
  Se  Se130  1  0.73718922  0.41263037  0.56053808  1
  Se  Se131  1  0.75048622  0.74758990  0.05875266  1
  Se  Se132  1  0.75017714  0.75062563  0.54792565  1
  Se  Se133  1  0.25794459  0.25691883  0.06678889  1
  Se  Se134  1  0.25210885  0.24827109  0.54569253  1
  Se  Se135  1  0.23157184  0.57335781  0.05347794  1
  Se  Se136  1  0.24974427  0.58360454  0.55084544  1
  Se  Se137  1  0.24613736  0.91724676  0.05368559  1
  Se  Se138  1  0.24707483  0.91371295  0.55207102  1
  Se  Se139  1  0.57340840  0.24747704  0.05900281  1
  Se  Se140  1  0.58010313  0.24850861  0.54816003  1
  Se  Se141  1  0.58631301  0.58698326  0.05541921  1
  Se  Se142  1  0.57922266  0.59619629  0.56427566  1
  Se  Se143  1  0.58491083  0.91680707  0.05170673  1
  Se  Se144  1  0.57795271  0.91429734  0.55054247  1
  Se  Se145  1  0.91967717  0.25149235  0.05972882  1
  Se  Se146  1  0.92261849  0.25306957  0.55181914  1
  Se  Se147  1  0.93097739  0.59598917  0.05992065  1
  Se  Se148  1  0.92701170  0.59219974  0.56235593  1
  Se  Se149  1  0.91685993  0.92184643  0.06066463  1
  Se  Se150  1  0.91802121  0.91832665  0.54802597  1
  Se  Se151  1  0.08975625  0.25230362  0.44428895  1
  Se  Se152  1  0.07652776  0.25782478  0.94178330  1
  Se  Se153  1  0.08753548  0.58211494  0.44429142  1
  Se  Se154  1  0.10771244  0.57898540  0.96453977  1
  Se  Se155  1  0.08564007  0.91495109  0.44447169  1
  Se  Se156  1  0.08178661  0.91328853  0.94278651  1
  Se  Se157  1  0.42381317  0.24616997  0.44299557  1
  Se  Se158  1  0.40439829  0.24325822  0.95487474  1
  Se  Se159  1  0.40843402  0.58999337  0.43890703  1
  Se  Se160  1  0.42256340  0.59869216  0.93965329  1
  Se  Se161  1  0.41561390  0.91216079  0.44540196  1
  Se  Se162  1  0.40902213  0.92227219  0.93334181  1
  Se  Se163  1  0.75471284  0.24807594  0.44631527  1
  Se  Se164  1  0.73440800  0.25802696  0.93775000  1
  Se  Se165  1  0.73926563  0.58316378  0.44307999  1
  Se  Se166  1  0.75115040  0.58660806  0.94160251  1
  Se  Se167  1  0.75046914  0.91372701  0.44972273  1
  Se  Se168  1  0.73722504  0.92656466  0.94107674  1
  Se  Se169  1  0.25231048  0.08459011  0.44678850  1
  Se  Se170  1  0.24843757  0.07530140  0.93650596  1
  Se  Se171  1  0.25275425  0.41958825  0.44468396  1
  Se  Se172  1  0.26573884  0.41243374  0.95428234  1
  Se  Se173  1  0.24731561  0.75306397  0.44463149  1
  Se  Se174  1  0.26173866  0.76594494  0.94710208  1
  Se  Se175  1  0.58478501  0.07949199  0.44701936  1
  Se  Se176  1  0.57163083  0.08761281  0.95205156  1
  Se  Se177  1  0.58446571  0.41355772  0.43927707  1
  Se  Se178  1  0.57370066  0.42058950  0.95373205  1
  Se  Se179  1  0.57583494  0.75112038  0.44601019  1
  Se  Se180  1  0.58948579  0.74078751  0.93588750  1
  Se  Se181  1  0.92037299  0.08700358  0.44901761  1
  Se  Se182  1  0.91701984  0.07731900  0.93867610  1
  Se  Se183  1  0.92250650  0.41512879  0.43766943  1
  Se  Se184  1  0.92819959  0.42194857  0.94360216  1
  Se  Se185  1  0.91050734  0.74736047  0.44512405  1
  Se  Se186  1  0.93427301  0.73379878  0.94406063  1
  Se  Se187  1  0.25908550  0.25666812  0.30648291  1
  Se  Se188  1  0.23486252  0.23822968  0.80943480  1
  Se  Se189  1  0.25331283  0.59107043  0.30207921  1
  Se  Se190  1  0.25307820  0.58364706  0.80980775  1
  Se  Se191  1  0.25344706  0.91649775  0.30169131  1
  Se  Se192  1  0.25054543  0.91885726  0.79622617  1
  Se  Se193  1  0.59024810  0.24852694  0.30330387  1
  Se  Se194  1  0.56841137  0.25210845  0.81059991  1
  Se  Se195  1  0.58040449  0.58244127  0.30052348  1
  Se  Se196  1  0.60377667  0.59796779  0.80233401  1
  Se  Se197  1  0.57309749  0.90829512  0.31190917  1
  Se  Se198  1  0.57484115  0.91157758  0.80557219  1
  Se  Se199  1  0.92250823  0.25395957  0.30391959  1
  Se  Se200  1  0.90275101  0.23744604  0.80707188  1
  Se  Se201  1  0.91634001  0.58545512  0.30304634  1
  Se  Se202  1  0.92171051  0.57161173  0.81546017  1
  Se  Se203  1  0.90283447  0.90528965  0.31282884  1
  Se  Se204  1  0.92167640  0.91580001  0.79973411  1
  Se  Se205  1  0.09773394  0.09358922  0.31607658  1
  Se  Se206  1  0.07856261  0.07749908  0.79840188  1
  Se  Se207  1  0.08916954  0.42010309  0.30223140  1
  Se  Se208  1  0.09082782  0.41791214  0.80898238  1
  Se  Se209  1  0.08060670  0.74854455  0.30451588  1
  Se  Se210  1  0.09931032  0.74765943  0.81326858  1
  Se  Se211  1  0.41581884  0.08194461  0.30339841  1
  Se  Se212  1  0.41312209  0.08243662  0.79963414  1
  Se  Se213  1  0.41533462  0.41669038  0.30127722  1
  Se  Se214  1  0.42376754  0.42203556  0.81240217  1
  Se  Se215  1  0.41106587  0.74528627  0.30304574  1
  Se  Se216  1  0.42407884  0.76047278  0.78980655  1
  Se  Se217  1  0.75665135  0.08498978  0.31042292  1
  Se  Se218  1  0.74945737  0.08987876  0.80546688  1
  Se  Se219  1  0.75045436  0.41355930  0.30121300  1
  Se  Se220  1  0.75164309  0.41990650  0.81539421  1
  Se  Se221  1  0.73963353  0.74389236  0.30621486  1
  Se  Se222  1  0.75742359  0.75349048  0.79846584  1
  Se  Se223  1  0.25226657  0.08515540  0.20024524  1
  Se  Se224  1  0.25595844  0.07888526  0.69310184  1
  Se  Se225  1  0.25563234  0.42287410  0.19767774  1
  Se  Se226  1  0.24388716  0.41957963  0.69158569  1
  Se  Se227  1  0.24990630  0.74907368  0.19729140  1
  Se  Se228  1  0.25043111  0.74482652  0.69287352  1
  Se  Se229  1  0.57473167  0.08511229  0.18887296  1
  Se  Se230  1  0.57494681  0.09083250  0.68530932  1
  Se  Se231  1  0.58511915  0.41209905  0.19999223  1
  Se  Se232  1  0.56794802  0.42922146  0.69681848  1
  Se  Se233  1  0.58206066  0.74539146  0.19987184  1
  Se  Se234  1  0.60013342  0.74092133  0.69573460  1
  Se  Se235  1  0.91959865  0.08523387  0.19659486  1
  Se  Se236  1  0.91681787  0.08406825  0.69686819  1
  Se  Se237  1  0.92196382  0.41711181  0.19903235  1
  Se  Se238  1  0.90677459  0.42178255  0.69442136  1
  Se  Se239  1  0.91691491  0.74827163  0.19994943  1
  Se  Se240  1  0.91832111  0.75612400  0.68402146  1
  Se  Se241  1  0.08404600  0.25433862  0.20389396  1
  Se  Se242  1  0.09197919  0.24400123  0.68355304  1
  Se  Se243  1  0.08320757  0.59051650  0.19789757  1
  Se  Se244  1  0.09046942  0.57883257  0.69000520  1
  Se  Se245  1  0.08857359  0.91732612  0.19499970  1
  Se  Se246  1  0.08463186  0.91546614  0.69506788  1
  Se  Se247  1  0.41707400  0.25208411  0.20079797  1
  Se  Se248  1  0.41733228  0.24776048  0.68637511  1
  Se  Se249  1  0.41235177  0.58498452  0.19541173  1
  Se  Se250  1  0.41849626  0.57689903  0.70325374  1
  Se  Se251  1  0.41296844  0.91597640  0.19749329  1
  Se  Se252  1  0.41783275  0.91154897  0.69691413  1
  Se  Se253  1  0.75278312  0.24596018  0.19933926  1
  Se  Se254  1  0.75533796  0.24107575  0.69204350  1
  Se  Se255  1  0.74851702  0.58051416  0.19722060  1
  Se  Se256  1  0.75440343  0.58393325  0.69962297  1
  Se  Se257  1  0.75422802  0.90727676  0.18902076  1
  Se  Se258  1  0.75632037  0.91205528  0.67998875  1
