# generated using pymatgen
data_In86Cu29Se144
_symmetry_space_group_name_H-M   'P 1'
_cell_length_a   17.58289142
_cell_length_b   17.58003123
_cell_length_c   23.44211891
_cell_angle_alpha   90.00039082
_cell_angle_beta   89.97238928
_cell_angle_gamma   89.98829191
_symmetry_Int_Tables_number   1
_chemical_formula_structural   In86Cu29Se144
_chemical_formula_sum   'In86 Cu29 Se144'
_cell_volume   7246.14034993
_cell_formula_units_Z   1
loop_
 _symmetry_equiv_pos_site_id
 _symmetry_equiv_pos_as_xyz
  1  'x, y, z'
loop_
 _atom_site_type_symbol
 _atom_site_label
 _atom_site_symmetry_multiplicity
 _atom_site_fract_x
 _atom_site_fract_y
 _atom_site_fract_z
 _atom_site_occupancy
  In  In0  1  0.01102635  0.15291164  0.12951235  1
  In  In1  1  0.01367847  0.16522515  0.62790973  1
  In  In2  1  -0.00262206  0.50150128  0.12246362  1
  In  In3  1  0.01447768  0.49787602  0.63249856  1
  In  In4  1  0.00273624  0.82903715  0.12054958  1
  In  In5  1  -0.00479806  0.83041649  0.61803583  1
  In  In6  1  0.33193144  0.16689752  0.11852996  1
  In  In7  1  0.32880297  0.15768743  0.61820623  1
  In  In8  1  0.34218732  0.51411856  0.12118094  1
  In  In9  1  0.32143010  0.50838417  0.62249828  1
  In  In10  1  0.31718697  0.83100336  0.12504497  1
  In  In11  1  0.33135082  0.85708177  0.62214407  1
  In  In12  1  0.66377088  0.17515963  0.11893306  1
  In  In13  1  0.65424331  0.16130961  0.63128038  1
  In  In14  1  0.67427226  0.50582934  0.11699104  1
  In  In15  1  0.67828990  0.50705093  0.63209810  1
  In  In16  1  0.66523547  0.82131472  0.12046469  1
  In  In17  1  0.67228505  0.83129611  0.63393462  1
  In  In18  1  0.16212758  0.00888506  0.38239293  1
  In  In19  1  0.17363043  -0.00495244  0.87462853  1
  In  In20  1  0.16559082  0.34459891  0.38018042  1
  In  In21  1  0.15685271  0.34173813  0.88217689  1
  In  In22  1  0.15998660  0.66552253  0.37261812  1
  In  In23  1  0.15312294  0.67555598  0.89029535  1
  In  In24  1  0.48893363  0.00889843  0.38212524  1
  In  In25  1  0.51105706  0.01598335  0.85976731  1
  In  In26  1  0.47879737  0.33132739  0.37729509  1
  In  In27  1  0.49918194  0.33250161  0.88054558  1
  In  In28  1  0.49946764  0.66117618  0.35628067  1
  In  In29  1  0.50425312  0.65060337  0.87875882  1
  In  In30  1  0.83148230  -0.01928427  0.37867986  1
  In  In31  1  0.81070455  -0.00432937  0.87534417  1
  In  In32  1  0.84233782  0.32474458  0.37276012  1
  In  In33  1  0.84978249  0.32688539  0.87215713  1
  In  In34  1  0.84421363  0.67481735  0.36334052  1
  In  In35  1  0.83860274  0.67007314  0.88433069  1
  In  In36  1  0.01542659  0.17327010  0.36713521  1
  In  In37  1  -0.00861896  0.18444471  0.87143005  1
  In  In38  1  0.01013503  0.51008229  0.36185006  1
  In  In39  1  -0.00053225  0.50205434  0.88308287  1
  In  In40  1  -0.00161692  0.83149647  0.37262721  1
  In  In41  1  0.00496215  0.82093079  0.88551764  1
  In  In42  1  0.31325420  0.18613335  0.40444724  1
  In  In43  1  0.34132642  0.15670613  0.87509610  1
  In  In44  1  0.32482351  0.50123964  0.36913500  1
  In  In45  1  0.32894742  0.50190186  0.88652842  1
  In  In46  1  0.33262069  0.81876086  0.37479415  1
  In  In47  1  0.31970231  0.83891297  0.87273112  1
  In  In48  1  0.65507673  0.15598329  0.37769610  1
  In  In49  1  0.65818642  0.15097808  0.86648030  1
  In  In50  1  0.66218938  0.51387595  0.37056361  1
  In  In51  1  0.66158586  0.50554774  0.88123098  1
  In  In52  1  0.67444989  0.82708594  0.37495278  1
  In  In53  1  0.68282220  0.84371949  0.87689048  1
  In  In54  1  0.15730285  -0.01587413  0.11353482  1
  In  In55  1  0.17379370  0.00829146  0.60922801  1
  In  In56  1  0.15838077  0.32603689  0.12031324  1
  In  In57  1  0.16655818  0.32389596  0.61638305  1
  In  In58  1  0.16124762  0.66909766  0.12306248  1
  In  In59  1  0.15620379  0.66068835  0.61790515  1
  In  In60  1  0.49797697  0.00702385  0.12011188  1
  In  In61  1  0.48752614  0.02039022  0.65900536  1
  In  In62  1  0.50066723  0.33646857  0.11599143  1
  In  In63  1  0.50014804  0.32280703  0.62324793  1
  In  In64  1  0.51026371  0.65426925  0.13843806  1
  In  In65  1  0.50511549  0.67671561  0.62957319  1
  In  In66  1  0.84856277  0.00528967  0.12000064  1
  In  In67  1  0.84133641  -0.01749581  0.62728137  1
  In  In68  1  0.83915511  0.34647779  0.11807104  1
  In  In69  1  0.84005257  0.34907165  0.63115092  1
  In  In70  1  0.83891592  0.66236244  0.11923429  1
  In  In71  1  0.83225057  0.68076430  0.63232063  1
  In  In72  1  0.49603898  0.83592281  0.00073216  1
  In  In73  1  0.67439689  0.32942129  0.75803569  1
  In  In74  1  0.67159571  -0.00488223  0.25433690  1
  In  In75  1  -0.00062317  0.00019332  0.74879556  1
  In  In76  1  0.32969370  0.34175706  0.25582865  1
  In  In77  1  0.67461522  0.33974481  0.24014547  1
  In  In78  1  0.33152446  0.67120462  0.74912463  1
  In  In79  1  0.49628328  0.83616557  0.50355950  1
  In  In80  1  0.32912641  -0.00179382  0.25799885  1
  In  In81  1  0.82800163  0.16402287  -0.00777569  1
  In  In82  1  0.83758425  0.16077457  0.50813599  1
  In  In83  1  0.32707014  0.32944114  0.74489493  1
  In  In84  1  0.83692898  0.50380705  0.50310886  1
  In  In85  1  0.49425757  0.49495797  0.49711265  1
  Cu  Cu86  1  0.15638789  0.82775776  0.24636763  1
  Cu  Cu87  1  0.32681718  0.33108467  0.00064343  1
  Cu  Cu88  1  0.49889255  0.17240883  0.25275057  1
  Cu  Cu89  1  0.16287654  0.83423319  0.75033876  1
  Cu  Cu90  1  -0.00065463  0.33294515  0.00000490  1
  Cu  Cu91  1  0.49753236  0.83405017  0.24936558  1
  Cu  Cu92  1  0.84739984  0.16472566  0.25030914  1
  Cu  Cu93  1  0.84191491  0.51499956  0.75468569  1
  Cu  Cu94  1  0.15688267  0.50627292  0.75923536  1
  Cu  Cu95  1  0.65753512  -0.00888900  0.50380714  1
  Cu  Cu96  1  0.67001860  0.66682498  0.00226847  1
  Cu  Cu97  1  0.50397297  0.49545775  0.75486212  1
  Cu  Cu98  1  0.83689728  0.82920921  0.24569878  1
  Cu  Cu99  1  0.33298095  0.66740398  0.00271423  1
  Cu  Cu100  1  -0.00119383  -0.00117952  0.49726639  1
  Cu  Cu101  1  0.83901385  0.82752821  0.75630812  1
  Cu  Cu102  1  0.16493564  0.17135208  0.74509597  1
  Cu  Cu103  1  0.50979997  0.82758833  0.75482340  1
  Cu  Cu104  1  0.83563453  0.50184869  0.24012907  1
  Cu  Cu105  1  -0.00213363  0.66699335  0.49269209  1
  Cu  Cu106  1  0.66640846  0.67290709  0.50325372  1
  Cu  Cu107  1  0.33702364  0.00689779  -0.00353803  1
  Cu  Cu108  1  0.00763738  0.33906501  0.49907092  1
  Cu  Cu109  1  0.65974110  0.32503053  0.49984454  1
  Cu  Cu110  1  0.00422779  -0.00208080  -0.00246974  1
  Cu  Cu111  1  0.32216665  0.66655216  0.49753180  1
  Cu  Cu112  1  0.65784804  0.33258958  -0.00394640  1
  Cu  Cu113  1  0.16360137  0.50189065  0.24549362  1
  Cu  Cu114  1  0.16741526  0.15967289  0.24813442  1
  Se  Se115  1  0.08666681  0.08397403  0.04956129  1
  Se  Se116  1  0.07860991  0.08867735  0.54772553  1
  Se  Se117  1  0.08159782  0.41601955  0.05415840  1
  Se  Se118  1  0.08836297  0.42168861  0.55508567  1
  Se  Se119  1  0.09887660  0.76398072  0.05227034  1
  Se  Se120  1  0.08009591  0.74931753  0.54939943  1
  Se  Se121  1  0.42019050  0.08934716  0.05036134  1
  Se  Se122  1  0.42249694  0.06575702  0.56727937  1
  Se  Se123  1  0.41012654  0.41659993  0.05324098  1
  Se  Se124  1  0.40737476  0.41035771  0.56205513  1
  Se  Se125  1  0.41475421  0.74438879  0.06550134  1
  Se  Se126  1  0.40403376  0.74058090  0.56136445  1
  Se  Se127  1  0.74198674  0.07620408  0.05777831  1
  Se  Se128  1  0.74291629  0.07035805  0.56287819  1
  Se  Se129  1  0.74480601  0.41144191  0.04921373  1
  Se  Se130  1  0.73922287  0.40897759  0.55634628  1
  Se  Se131  1  0.75522185  0.75057311  0.05195871  1
  Se  Se132  1  0.74966605  0.75353971  0.55746480  1
  Se  Se133  1  0.24433185  0.24535684  0.05226667  1
  Se  Se134  1  0.25843242  0.25129513  0.55183895  1
  Se  Se135  1  0.24736754  0.58471987  0.05493358  1
  Se  Se136  1  0.24066767  0.57926020  0.54790301  1
  Se  Se137  1  0.25730909  0.91794771  0.04796659  1
  Se  Se138  1  0.23402454  0.90115449  0.54874074  1
  Se  Se139  1  0.57670289  0.24634237  0.04829620  1
  Se  Se140  1  0.58189751  0.24078720  0.55458082  1
  Se  Se141  1  0.58073472  0.58737504  0.05452921  1
  Se  Se142  1  0.58803227  0.58596923  0.55874636  1
  Se  Se143  1  0.59143220  0.92472110  0.05761941  1
  Se  Se144  1  0.58063576  0.91879990  0.57075674  1
  Se  Se145  1  0.92110859  0.24499491  0.05877143  1
  Se  Se146  1  0.92502053  0.26270900  0.56002743  1
  Se  Se147  1  0.90248704  0.56415996  0.05196227  1
  Se  Se148  1  0.92462962  0.59245611  0.56384859  1
  Se  Se149  1  0.92011352  0.91628197  0.05116918  1
  Se  Se150  1  0.91410924  0.91364210  0.54707169  1
  Se  Se151  1  0.08587978  0.25169872  0.44473930  1
  Se  Se152  1  0.07986563  0.24661429  0.94683690  1
  Se  Se153  1  0.08108681  0.57862179  0.44383337  1
  Se  Se154  1  0.09392543  0.57061189  0.95138427  1
  Se  Se155  1  0.07953392  0.91469358  0.44253611  1
  Se  Se156  1  0.08930564  0.91568455  0.94407303  1
  Se  Se157  1  0.43499108  0.23638127  0.45184089  1
  Se  Se158  1  0.41103733  0.25043505  0.94433905  1
  Se  Se159  1  0.41279505  0.59506556  0.43858869  1
  Se  Se160  1  0.41783705  0.58233971  0.95192151  1
  Se  Se161  1  0.40038747  0.92004649  0.44364882  1
  Se  Se162  1  0.41438256  0.92505606  0.93457124  1
  Se  Se163  1  0.74604921  0.24891359  0.44203444  1
  Se  Se164  1  0.73871145  0.25645223  0.93281214  1
  Se  Se165  1  0.74785545  0.59404386  0.44215207  1
  Se  Se166  1  0.75084338  0.58172561  0.94817470  1
  Se  Se167  1  0.74278613  0.91108827  0.45038300  1
  Se  Se168  1  0.75665777  0.91350250  0.95605246  1
  Se  Se169  1  0.25258142  0.07327539  0.45447136  1
  Se  Se170  1  0.24801735  0.08551040  0.94356357  1
  Se  Se171  1  0.27599782  0.40128727  0.43930645  1
  Se  Se172  1  0.24410549  0.41815507  0.95120829  1
  Se  Se173  1  0.24073719  0.74931065  0.44357463  1
  Se  Se174  1  0.25448985  0.75321132  0.94785836  1
  Se  Se175  1  0.57914205  0.07980044  0.45237905  1
  Se  Se176  1  0.58201649  0.08050218  0.94300892  1
  Se  Se177  1  0.59092786  0.40940126  0.43601950  1
  Se  Se178  1  0.57539058  0.42207040  0.94723045  1
  Se  Se179  1  0.57943271  0.74108530  0.43989992  1
  Se  Se180  1  0.58797307  0.74640193  0.94114800  1
  Se  Se181  1  0.92013221  0.08122078  0.43585660  1
  Se  Se182  1  0.92331566  0.07553038  0.93472523  1
  Se  Se183  1  0.92423024  0.41561667  0.43919578  1
  Se  Se184  1  0.91251015  0.41344376  0.94790032  1
  Se  Se185  1  0.91153285  0.75080969  0.44329162  1
  Se  Se186  1  0.91877122  0.74918171  0.95607873  1
  Se  Se187  1  0.24502664  0.24037496  0.31041258  1
  Se  Se188  1  0.24085108  0.24699495  0.81251655  1
  Se  Se189  1  0.24480714  0.58481020  0.30172901  1
  Se  Se190  1  0.24506510  0.58429185  0.81388262  1
  Se  Se191  1  0.23642176  0.90474882  0.31089328  1
  Se  Se192  1  0.24956122  0.92017397  0.79649629  1
  Se  Se193  1  0.58367340  0.25408347  0.30784828  1
  Se  Se194  1  0.56839283  0.24460114  0.80425351  1
  Se  Se195  1  0.59377000  0.58839211  0.29300998  1
  Se  Se196  1  0.58762275  0.58212192  0.80267608  1
  Se  Se197  1  0.57162785  0.91339581  0.31471131  1
  Se  Se198  1  0.59151025  0.91387823  0.80633980  1
  Se  Se199  1  0.92674244  0.25394046  0.30053036  1
  Se  Se200  1  0.91729503  0.25323616  0.79238996  1
  Se  Se201  1  0.91812958  0.58434581  0.29613509  1
  Se  Se202  1  0.92447526  0.59185186  0.81299828  1
  Se  Se203  1  0.91402728  0.91483641  0.30249108  1
  Se  Se204  1  0.91692197  0.91200905  0.81569843  1
  Se  Se205  1  0.08460427  0.07513210  0.30157393  1
  Se  Se206  1  0.08739104  0.09210386  0.80924673  1
  Se  Se207  1  0.08758399  0.41259349  0.30098957  1
  Se  Se208  1  0.07635619  0.41711578  0.80862326  1
  Se  Se209  1  0.07475706  0.74427698  0.30231268  1
  Se  Se210  1  0.08666284  0.75089986  0.80819955  1
  Se  Se211  1  0.41292012  0.09946737  0.31237155  1
  Se  Se212  1  0.40639084  0.07630329  0.79698433  1
  Se  Se213  1  0.43161438  0.43248168  0.30355788  1
  Se  Se214  1  0.41428387  0.42164376  0.80943951  1
  Se  Se215  1  0.41049765  0.74932112  0.29712833  1
  Se  Se216  1  0.42437949  0.75202636  0.81510061  1
  Se  Se217  1  0.76150618  0.09162689  0.31174811  1
  Se  Se218  1  0.76945415  0.10080620  0.80603997  1
  Se  Se219  1  0.76133232  0.42521540  0.30946145  1
  Se  Se220  1  0.76120189  0.42872004  0.81190447  1
  Se  Se221  1  0.74793842  0.74988221  0.29913385  1
  Se  Se222  1  0.75385036  0.74770806  0.81117442  1
  Se  Se223  1  0.24559120  0.07993064  0.18690909  1
  Se  Se224  1  0.24162202  0.08416329  0.69015205  1
  Se  Se225  1  0.24457281  0.42125485  0.18580227  1
  Se  Se226  1  0.23657019  0.42905767  0.69462841  1
  Se  Se227  1  0.24601586  0.74684427  0.19732878  1
  Se  Se228  1  0.24370697  0.75737084  0.68571860  1
  Se  Se229  1  0.58102277  0.09091560  0.19580341  1
  Se  Se230  1  0.60377540  0.07467629  0.71068774  1
  Se  Se231  1  0.57717586  0.42554302  0.18684588  1
  Se  Se232  1  0.58168837  0.41766940  0.69117037  1
  Se  Se233  1  0.58607730  0.75451116  0.19842985  1
  Se  Se234  1  0.59170110  0.74333232  0.70227081  1
  Se  Se235  1  0.92388126  0.07483036  0.19880352  1
  Se  Se236  1  0.91006553  0.09076352  0.68829348  1
  Se  Se237  1  0.92031949  0.41275718  0.19493328  1
  Se  Se238  1  0.92089980  0.42694081  0.70123925  1
  Se  Se239  1  0.91835730  0.74733878  0.19002162  1
  Se  Se240  1  0.92654528  0.75356543  0.69867977  1
  Se  Se241  1  0.08498714  0.24623584  0.19659993  1
  Se  Se242  1  0.08396654  0.25972900  0.69541184  1
  Se  Se243  1  0.07957122  0.58424932  0.19230294  1
  Se  Se244  1  0.08311931  0.59362990  0.70062488  1
  Se  Se245  1  0.07997000  0.91688607  0.19287717  1
  Se  Se246  1  0.08864155  0.91521292  0.68524783  1
  Se  Se247  1  0.41852501  0.25010490  0.19175629  1
  Se  Se248  1  0.42131889  0.23744469  0.69357006  1
  Se  Se249  1  0.40964903  0.58762589  0.20120285  1
  Se  Se250  1  0.42405787  0.57432593  0.69208775  1
  Se  Se251  1  0.42032209  0.91577473  0.19005535  1
  Se  Se252  1  0.41840201  0.90445536  0.70366949  1
  Se  Se253  1  0.76537241  0.24005706  0.18807265  1
  Se  Se254  1  0.75744803  0.24803536  0.68690016  1
  Se  Se255  1  0.74983808  0.58559320  0.19095297  1
  Se  Se256  1  0.75340216  0.59196192  0.70081576  1
  Se  Se257  1  0.75693340  0.91237231  0.18678173  1
  Se  Se258  1  0.75774438  0.91341980  0.70226638  1
