# generated using pymatgen
data_In86Cu29Se144
_symmetry_space_group_name_H-M   'P 1'
_cell_length_a   17.58137667
_cell_length_b   17.58046406
_cell_length_c   23.43960737
_cell_angle_alpha   89.98113043
_cell_angle_beta   90.02066454
_cell_angle_gamma   89.99703144
_symmetry_Int_Tables_number   1
_chemical_formula_structural   In86Cu29Se144
_chemical_formula_sum   'In86 Cu29 Se144'
_cell_volume   7244.91831857
_cell_formula_units_Z   1
loop_
 _symmetry_equiv_pos_site_id
 _symmetry_equiv_pos_as_xyz
  1  'x, y, z'
loop_
 _atom_site_type_symbol
 _atom_site_label
 _atom_site_symmetry_multiplicity
 _atom_site_fract_x
 _atom_site_fract_y
 _atom_site_fract_z
 _atom_site_occupancy
  In  In0  1  0.02176147  0.17346568  0.12461477  1
  In  In1  1  0.00532116  0.17663786  0.62473090  1
  In  In2  1  -0.00184765  0.50110446  0.12752203  1
  In  In3  1  0.00610162  0.50834877  0.62081571  1
  In  In4  1  -0.01344196  0.81825491  0.12050311  1
  In  In5  1  -0.01601962  0.82842348  0.62519579  1
  In  In6  1  0.30953024  0.17628959  0.14691143  1
  In  In7  1  0.34158965  0.17101803  0.62537790  1
  In  In8  1  0.32584935  0.51182844  0.13344015  1
  In  In9  1  0.32309611  0.49324252  0.61382406  1
  In  In10  1  0.33296448  0.83167864  0.12720671  1
  In  In11  1  0.33726214  0.82509121  0.62241160  1
  In  In12  1  0.66121457  0.16966212  0.13263279  1
  In  In13  1  0.67217228  0.17641528  0.62100480  1
  In  In14  1  0.67028141  0.49766473  0.13001254  1
  In  In15  1  0.66514465  0.49340724  0.61039310  1
  In  In16  1  0.66858940  0.82872628  0.13018202  1
  In  In17  1  0.66223380  0.82275004  0.61528732  1
  In  In18  1  0.17557283  -0.00474864  0.36471947  1
  In  In19  1  0.16948513  0.00181205  0.88689493  1
  In  In20  1  0.18369842  0.34661702  0.35832236  1
  In  In21  1  0.17542352  0.32668235  0.88587937  1
  In  In22  1  0.15815405  0.65619236  0.36513115  1
  In  In23  1  0.15497562  0.67590102  0.88388229  1
  In  In24  1  0.48986187  -0.01578186  0.37155875  1
  In  In25  1  0.49323103  -0.00669666  0.87881245  1
  In  In26  1  0.51068161  0.34883895  0.36701523  1
  In  In27  1  0.49739883  0.33752873  0.86473657  1
  In  In28  1  0.50375729  0.66318867  0.37242391  1
  In  In29  1  0.50756678  0.67551949  0.87979740  1
  In  In30  1  0.81873855  -0.00126665  0.37102072  1
  In  In31  1  0.82247651  -0.00674266  0.87964967  1
  In  In32  1  0.83644124  0.34073875  0.37066234  1
  In  In33  1  0.83481197  0.36094162  0.87176958  1
  In  In34  1  0.83300743  0.66493135  0.37373965  1
  In  In35  1  0.84436657  0.64791583  0.89031293  1
  In  In36  1  -0.00604187  0.17420476  0.36921349  1
  In  In37  1  0.01227758  0.17713020  0.87968419  1
  In  In38  1  0.00021240  0.50271310  0.37422548  1
  In  In39  1  -0.00722324  0.51076172  0.88377055  1
  In  In40  1  0.00011799  0.81551077  0.37032843  1
  In  In41  1  0.00575944  0.82528203  0.88351916  1
  In  In42  1  0.32791160  0.16410164  0.36370436  1
  In  In43  1  0.32425101  0.17405190  0.87766161  1
  In  In44  1  0.33501676  0.50064656  0.37119708  1
  In  In45  1  0.33202035  0.48349894  0.87762902  1
  In  In46  1  0.35155474  0.83918478  0.36883930  1
  In  In47  1  0.33508235  0.83051582  0.88772632  1
  In  In48  1  0.67084487  0.17117014  0.36435235  1
  In  In49  1  0.65639607  0.17435660  0.87457704  1
  In  In50  1  0.66500701  0.49814392  0.37540243  1
  In  In51  1  0.69072878  0.50393848  0.87126514  1
  In  In52  1  0.66477249  0.82894623  0.37342235  1
  In  In53  1  0.66666261  0.82042247  0.89112560  1
  In  In54  1  0.17801910  0.00570615  0.12301554  1
  In  In55  1  0.17372297  -0.00357514  0.62633662  1
  In  In56  1  0.16290409  0.33595366  0.12909714  1
  In  In57  1  0.16323171  0.34176828  0.62653615  1
  In  In58  1  0.16448536  0.66361799  0.12522357  1
  In  In59  1  0.17438548  0.65333021  0.62625857  1
  In  In60  1  0.50265408  -0.00583977  0.13341708  1
  In  In61  1  0.50006828  -0.00524263  0.61851867  1
  In  In62  1  0.49916787  0.32969183  0.13375484  1
  In  In63  1  0.49436080  0.33969035  0.62085675  1
  In  In64  1  0.49524902  0.67472744  0.13243683  1
  In  In65  1  0.50571809  0.66766422  0.61533014  1
  In  In66  1  0.83228775  -0.01753760  0.12661827  1
  In  In67  1  0.83790318  -0.00801519  0.62044082  1
  In  In68  1  0.82333731  0.34897370  0.12969768  1
  In  In69  1  0.82173494  0.34420770  0.62506894  1
  In  In70  1  0.83129785  0.66549538  0.13053973  1
  In  In71  1  0.83412570  0.66524177  0.61905865  1
  In  In72  1  0.83238458  0.16982425  0.48886378  1
  In  In73  1  0.49743217  0.16639990  0.49696669  1
  In  In74  1  0.00209816  0.00028505  0.23969967  1
  In  In75  1  0.49758538  0.16073955  0.00655505  1
  In  In76  1  0.66237611  0.00105983  0.75441255  1
  In  In77  1  0.00101999  0.00164274  0.76421615  1
  In  In78  1  0.50161488  0.50810833  0.00173118  1
  In  In79  1  0.00257570  0.33964700  0.74874917  1
  In  In80  1  0.16585697  0.16778534  0.48796811  1
  In  In81  1  0.66231903  0.66239465  0.74831229  1
  In  In82  1  0.33320075  0.66359908  0.75555408  1
  In  In83  1  0.17024713  0.82289392  0.49540857  1
  In  In84  1  0.33588245  0.00466917  0.74878008  1
  In  In85  1  0.84091524  0.16507622  -0.00092071  1
  Cu  Cu86  1  0.33610027  -0.00083295  0.00708009  1
  Cu  Cu87  1  0.82694201  0.82145616  0.74756584  1
  Cu  Cu88  1  0.66291923  -0.00675117  0.49351175  1
  Cu  Cu89  1  0.00231914  -0.01049602  0.50080200  1
  Cu  Cu90  1  -0.00042151  0.34530822  0.49736684  1
  Cu  Cu91  1  0.16488068  0.50003198  0.24789719  1
  Cu  Cu92  1  -0.00239519  0.66391253  0.49568620  1
  Cu  Cu93  1  0.50125402  0.17969991  0.74650149  1
  Cu  Cu94  1  0.33954168  0.66341823  0.49361698  1
  Cu  Cu95  1  0.83428933  0.17339331  0.24596354  1
  Cu  Cu96  1  0.33357999  0.33664555  0.49281606  1
  Cu  Cu97  1  0.82997618  0.82930517  0.24911464  1
  Cu  Cu98  1  0.50151678  0.49896943  0.25125880  1
  Cu  Cu99  1  0.16284549  0.49902130  0.75032115  1
  Cu  Cu100  1  0.00732158  -0.00526466  0.00679034  1
  Cu  Cu101  1  0.67309133  0.34450921  -0.00219013  1
  Cu  Cu102  1  0.49826755  0.49900720  0.74203709  1
  Cu  Cu103  1  0.83609208  0.50233007  0.25305942  1
  Cu  Cu104  1  0.49813255  0.16227264  0.25317629  1
  Cu  Cu105  1  0.17052974  0.82666824  0.24589153  1
  Cu  Cu106  1  0.66915698  -0.01146765  0.00842295  1
  Cu  Cu107  1  0.83733165  0.17457126  0.74506886  1
  Cu  Cu108  1  0.15865741  0.83404153  0.75894222  1
  Cu  Cu109  1  0.66867494  0.66446664  0.49283059  1
  Cu  Cu110  1  -0.00026381  0.66353761  0.00757108  1
  Cu  Cu111  1  0.33095313  0.33316053  0.00876502  1
  Cu  Cu112  1  0.00367729  0.33828751  0.00322492  1
  Cu  Cu113  1  0.50493390  0.83003817  0.25083077  1
  Cu  Cu114  1  0.32784861  0.66648581  0.00831705  1
  Se  Se115  1  0.08974631  0.08340500  0.05358857  1
  Se  Se116  1  0.07833668  0.07583157  0.55724344  1
  Se  Se117  1  0.08529123  0.42111162  0.05827239  1
  Se  Se118  1  0.08734625  0.42056023  0.55344973  1
  Se  Se119  1  0.08529111  0.74991350  0.05521978  1
  Se  Se120  1  0.07777202  0.74162223  0.56036133  1
  Se  Se121  1  0.40624576  0.08310775  0.07156486  1
  Se  Se122  1  0.40404989  0.07389573  0.55383091  1
  Se  Se123  1  0.41504996  0.41499729  0.06328783  1
  Se  Se124  1  0.41604945  0.41914520  0.54760196  1
  Se  Se125  1  0.41570389  0.74878275  0.05664595  1
  Se  Se126  1  0.41691598  0.74938497  0.54982596  1
  Se  Se127  1  0.74537153  0.08093901  0.06115727  1
  Se  Se128  1  0.74389576  0.07519427  0.55350599  1
  Se  Se129  1  0.75297716  0.42790690  0.05198488  1
  Se  Se130  1  0.75780268  0.41762130  0.54482457  1
  Se  Se131  1  0.76896802  0.76632690  0.06411003  1
  Se  Se132  1  0.75152445  0.74733224  0.54935680  1
  Se  Se133  1  0.24876470  0.24889635  0.06167299  1
  Se  Se134  1  0.25405834  0.25519419  0.55407584  1
  Se  Se135  1  0.24558828  0.57768046  0.05482822  1
  Se  Se136  1  0.24898546  0.58573588  0.54636778  1
  Se  Se137  1  0.25030860  0.91298206  0.05536924  1
  Se  Se138  1  0.25697884  0.91910035  0.55447475  1
  Se  Se139  1  0.59216696  0.26121915  0.05520293  1
  Se  Se140  1  0.58936552  0.25897089  0.55168887  1
  Se  Se141  1  0.58913481  0.59332297  0.06446528  1
  Se  Se142  1  0.58261048  0.58283278  0.54672220  1
  Se  Se143  1  0.58134022  0.91264548  0.06217835  1
  Se  Se144  1  0.58149952  0.91304657  0.55072481  1
  Se  Se145  1  0.92053060  0.25778807  0.06315445  1
  Se  Se146  1  0.92199742  0.25724089  0.55454424  1
  Se  Se147  1  0.91245787  0.58205476  0.05870534  1
  Se  Se148  1  0.91614832  0.58051970  0.55092926  1
  Se  Se149  1  0.91612968  0.91380882  0.05217415  1
  Se  Se150  1  0.91293863  0.90901605  0.54883233  1
  Se  Se151  1  0.07641256  0.26461847  0.43612058  1
  Se  Se152  1  0.08780593  0.24961765  0.95607734  1
  Se  Se153  1  0.08584017  0.58323957  0.44484089  1
  Se  Se154  1  0.08469796  0.58235955  0.95215579  1
  Se  Se155  1  0.08142077  0.91732308  0.43553491  1
  Se  Se156  1  0.08813727  0.91204008  0.94946951  1
  Se  Se157  1  0.41018168  0.25410372  0.43292593  1
  Se  Se158  1  0.41697133  0.26049546  0.94622658  1
  Se  Se159  1  0.42126625  0.57803585  0.44147000  1
  Se  Se160  1  0.40457222  0.59155747  0.93978206  1
  Se  Se161  1  0.41872660  0.91126220  0.45010873  1
  Se  Se162  1  0.41940150  0.91616127  0.95374315  1
  Se  Se163  1  0.73817851  0.26231008  0.43924075  1
  Se  Se164  1  0.74918812  0.25682247  0.93987575  1
  Se  Se165  1  0.75305337  0.57999985  0.44284371  1
  Se  Se166  1  0.72462510  0.60387130  0.94524149  1
  Se  Se167  1  0.75107619  0.91163264  0.44360860  1
  Se  Se168  1  0.75353259  0.90966966  0.95274868  1
  Se  Se169  1  0.25936536  0.07097412  0.44037771  1
  Se  Se170  1  0.25784044  0.08535675  0.95044974  1
  Se  Se171  1  0.24752557  0.41960147  0.44126893  1
  Se  Se172  1  0.24944739  0.41785241  0.95477898  1
  Se  Se173  1  0.25830652  0.74022858  0.43067938  1
  Se  Se174  1  0.24633748  0.75049406  0.95164097  1
  Se  Se175  1  0.58921480  0.08015513  0.43476844  1
  Se  Se176  1  0.59378027  0.07222523  0.94601347  1
  Se  Se177  1  0.57734016  0.42242804  0.44603237  1
  Se  Se178  1  0.58592940  0.41645874  0.93712342  1
  Se  Se179  1  0.58154070  0.74894441  0.44400274  1
  Se  Se180  1  0.56926501  0.75574437  0.95738796  1
  Se  Se181  1  0.92613373  0.07163528  0.43784105  1
  Se  Se182  1  0.93053430  0.07132712  0.93861963  1
  Se  Se183  1  0.91296195  0.42280706  0.44349779  1
  Se  Se184  1  0.91585844  0.41954121  0.95205397  1
  Se  Se185  1  0.91511418  0.75001809  0.44517523  1
  Se  Se186  1  0.91788927  0.74725419  0.95094478  1
  Se  Se187  1  0.24069026  0.24034934  0.29700166  1
  Se  Se188  1  0.25859634  0.26429192  0.80796568  1
  Se  Se189  1  0.25216105  0.58217729  0.30007514  1
  Se  Se190  1  0.24053639  0.57741090  0.81535073  1
  Se  Se191  1  0.25417214  0.90756158  0.29998637  1
  Se  Se192  1  0.24688373  0.91251055  0.81211144  1
  Se  Se193  1  0.58154383  0.25200139  0.30065957  1
  Se  Se194  1  0.58859967  0.25768721  0.79984498  1
  Se  Se195  1  0.58716730  0.58192327  0.30290146  1
  Se  Se196  1  0.57145664  0.57311046  0.81093494  1
  Se  Se197  1  0.58621558  0.91684068  0.30408795  1
  Se  Se198  1  0.58097030  0.90645977  0.81427544  1
  Se  Se199  1  0.91603161  0.25618901  0.29965987  1
  Se  Se200  1  0.91285566  0.24788613  0.81232349  1
  Se  Se201  1  0.92051262  0.58727549  0.30414806  1
  Se  Se202  1  0.90510449  0.57310737  0.80851664  1
  Se  Se203  1  0.91432748  0.91349564  0.30648963  1
  Se  Se204  1  0.90427176  0.90431132  0.80983604  1
  Se  Se205  1  0.08597418  0.08811161  0.30576595  1
  Se  Se206  1  0.10022762  0.09422028  0.81050932  1
  Se  Se207  1  0.07903602  0.41876497  0.30209635  1
  Se  Se208  1  0.08793675  0.42227166  0.81721298  1
  Se  Se209  1  0.08231221  0.74579320  0.29610695  1
  Se  Se210  1  0.07558955  0.74577111  0.80550457  1
  Se  Se211  1  0.41586131  0.07601698  0.30346447  1
  Se  Se212  1  0.42866101  0.09564711  0.80971759  1
  Se  Se213  1  0.41276751  0.41465242  0.29985620  1
  Se  Se214  1  0.41226313  0.41970284  0.79784856  1
  Se  Se215  1  0.42003823  0.74426322  0.30137530  1
  Se  Se216  1  0.42182787  0.76019646  0.80906665  1
  Se  Se217  1  0.75291162  0.08588239  0.29715602  1
  Se  Se218  1  0.75918604  0.09517203  0.80873518  1
  Se  Se219  1  0.74846023  0.41820404  0.30281287  1
  Se  Se220  1  0.73919741  0.40813418  0.79755313  1
  Se  Se221  1  0.74825606  0.74645030  0.30455547  1
  Se  Se222  1  0.74999483  0.74800651  0.81318185  1
  Se  Se223  1  0.24945576  0.06826418  0.20614935  1
  Se  Se224  1  0.24236357  0.09581262  0.69310211  1
  Se  Se225  1  0.25138741  0.41652456  0.19722965  1
  Se  Se226  1  0.24890417  0.42206404  0.69434413  1
  Se  Se227  1  0.25353372  0.74166636  0.19377664  1
  Se  Se228  1  0.24129281  0.75850230  0.69601432  1
  Se  Se229  1  0.58447402  0.08163234  0.19966159  1
  Se  Se230  1  0.57672131  0.09253094  0.68774781  1
  Se  Se231  1  0.58478082  0.41523657  0.19723332  1
  Se  Se232  1  0.58303396  0.42048966  0.68672201  1
  Se  Se233  1  0.58926803  0.74490625  0.20090528  1
  Se  Se234  1  0.57254656  0.75825804  0.69274275  1
  Se  Se235  1  0.91004049  0.09330309  0.18174831  1
  Se  Se236  1  0.91456006  0.08752163  0.69078849  1
  Se  Se237  1  0.91741447  0.41693174  0.19834559  1
  Se  Se238  1  0.91264332  0.42807495  0.69065274  1
  Se  Se239  1  0.91828528  0.74561710  0.20162888  1
  Se  Se240  1  0.91390812  0.74118475  0.69624205  1
  Se  Se241  1  0.08572733  0.25266333  0.20183150  1
  Se  Se242  1  0.09634135  0.24209295  0.69812188  1
  Se  Se243  1  0.08071766  0.58498347  0.19652550  1
  Se  Se244  1  0.08374431  0.58567463  0.69723880  1
  Se  Se245  1  0.08825956  0.90433024  0.18366835  1
  Se  Se246  1  0.08324721  0.91274495  0.69347863  1
  Se  Se247  1  0.41523199  0.24937862  0.20201115  1
  Se  Se248  1  0.41426342  0.25878316  0.69407846  1
  Se  Se249  1  0.41816301  0.58484448  0.19987032  1
  Se  Se250  1  0.41739480  0.58124012  0.68503452  1
  Se  Se251  1  0.41655247  0.91129166  0.19908198  1
  Se  Se252  1  0.42421948  0.90905567  0.69367296  1
  Se  Se253  1  0.74665162  0.25615120  0.19544176  1
  Se  Se254  1  0.74949487  0.25379263  0.69454626  1
  Se  Se255  1  0.74915591  0.58255517  0.19998647  1
  Se  Se256  1  0.74899763  0.57599067  0.68562685  1
  Se  Se257  1  0.74671828  0.91810797  0.20157874  1
  Se  Se258  1  0.75103951  0.90944324  0.69108540  1
