# generated using pymatgen
data_In86Cu29Se144
_symmetry_space_group_name_H-M   'P 1'
_cell_length_a   17.57215510
_cell_length_b   17.57360898
_cell_length_c   23.43520418
_cell_angle_alpha   89.99071509
_cell_angle_beta   89.98600700
_cell_angle_gamma   90.00109300
_symmetry_Int_Tables_number   1
_chemical_formula_structural   In86Cu29Se144
_chemical_formula_sum   'In86 Cu29 Se144'
_cell_volume   7236.93562756
_cell_formula_units_Z   1
loop_
 _symmetry_equiv_pos_site_id
 _symmetry_equiv_pos_as_xyz
  1  'x, y, z'
loop_
 _atom_site_type_symbol
 _atom_site_label
 _atom_site_symmetry_multiplicity
 _atom_site_fract_x
 _atom_site_fract_y
 _atom_site_fract_z
 _atom_site_occupancy
  In  In0  1  0.01484097  0.15089962  0.13092429  1
  In  In1  1  0.00703716  0.16904500  0.62490312  1
  In  In2  1  -0.01319589  0.49679541  0.12334079  1
  In  In3  1  0.00319218  0.49677108  0.63372881  1
  In  In4  1  0.00813914  0.84038699  0.12645994  1
  In  In5  1  0.00183040  0.83708337  0.62315216  1
  In  In6  1  0.32935873  0.16428958  0.13167489  1
  In  In7  1  0.32628930  0.16053991  0.61415051  1
  In  In8  1  0.32389608  0.50420277  0.13879341  1
  In  In9  1  0.34823970  0.49956716  0.62272458  1
  In  In10  1  0.34788578  0.82561298  0.13575180  1
  In  In11  1  0.32709290  0.82785378  0.61712571  1
  In  In12  1  0.66009879  0.17837000  0.11704996  1
  In  In13  1  0.66133103  0.15860913  0.61759657  1
  In  In14  1  0.68236581  0.50101403  0.12054151  1
  In  In15  1  0.66569936  0.51517884  0.62729181  1
  In  In16  1  0.64416379  0.83139193  0.11956478  1
  In  In17  1  0.66095287  0.82708067  0.61775955  1
  In  In18  1  0.16849186  0.00079451  0.37742001  1
  In  In19  1  0.16122389  0.00983483  0.87644248  1
  In  In20  1  0.15484735  0.32908841  0.36196922  1
  In  In21  1  0.15473060  0.32771858  0.87406756  1
  In  In22  1  0.18373210  0.66980727  0.37307184  1
  In  In23  1  0.17155052  0.67163789  0.86564058  1
  In  In24  1  0.49089014  0.00886424  0.37916290  1
  In  In25  1  0.50023723  -0.00183388  0.89228860  1
  In  In26  1  0.49272731  0.34298666  0.37982319  1
  In  In27  1  0.48942908  0.32807793  0.88122130  1
  In  In28  1  0.49918312  0.66733532  0.37408858  1
  In  In29  1  0.50483724  0.67126711  0.87190623  1
  In  In30  1  0.84141850  -0.00537536  0.37881525  1
  In  In31  1  0.83921086  -0.00865873  0.87216650  1
  In  In32  1  0.83555952  0.31915348  0.37705228  1
  In  In33  1  0.84856426  0.32934557  0.87596985  1
  In  In34  1  0.83405379  0.68110595  0.37564144  1
  In  In35  1  0.82380065  0.66199882  0.86953362  1
  In  In36  1  0.00388230  0.16445299  0.37676975  1
  In  In37  1  0.00681581  0.16536805  0.86697727  1
  In  In38  1  0.01468000  0.49025832  0.37125189  1
  In  In39  1  -0.00929475  0.49457908  0.87073597  1
  In  In40  1  -0.00781608  0.84653523  0.38292370  1
  In  In41  1  0.00663732  0.83891585  0.86301172  1
  In  In42  1  0.33140667  0.16588387  0.37355949  1
  In  In43  1  0.33061475  0.16272751  0.88508392  1
  In  In44  1  0.33695861  0.51309848  0.36125019  1
  In  In45  1  0.32457745  0.50094653  0.87600402  1
  In  In46  1  0.33520648  0.83515376  0.37781684  1
  In  In47  1  0.34548697  0.82764120  0.87727583  1
  In  In48  1  0.66864783  0.16642508  0.38290145  1
  In  In49  1  0.65931188  0.15865072  0.87855044  1
  In  In50  1  0.65074430  0.49959493  0.37430801  1
  In  In51  1  0.66633488  0.52475824  0.88292710  1
  In  In52  1  0.67252682  0.82425884  0.37772900  1
  In  In53  1  0.66696668  0.81896366  0.88168752  1
  In  In54  1  0.15787621  0.01072355  0.13247589  1
  In  In55  1  0.16306779  -0.00095207  0.62087979  1
  In  In56  1  0.17883900  0.32226002  0.13960955  1
  In  In57  1  0.16103604  0.32101948  0.62155309  1
  In  In58  1  0.17632736  0.67870618  0.12619661  1
  In  In59  1  0.16031751  0.67413974  0.62940712  1
  In  In60  1  0.49237819  -0.01174582  0.11889538  1
  In  In61  1  0.49726660  -0.00373760  0.61417380  1
  In  In62  1  0.49603480  0.32161368  0.12577497  1
  In  In63  1  0.49175875  0.32936035  0.61511553  1
  In  In64  1  0.49030665  0.67484992  0.12905904  1
  In  In65  1  0.50201331  0.66913375  0.62408551  1
  In  In66  1  0.83791980  0.00824068  0.12679634  1
  In  In67  1  0.84370853  0.01083067  0.61719449  1
  In  In68  1  0.83183133  0.34257217  0.12391258  1
  In  In69  1  0.85079981  0.33141884  0.62625360  1
  In  In70  1  0.83357450  0.65185929  0.12135602  1
  In  In71  1  0.82687183  0.67626250  0.63089871  1
  In  In72  1  0.32455680  -0.00446406  0.74430172  1
  In  In73  1  0.66550387  -0.00283653  0.24383917  1
  In  In74  1  0.83064872  0.50160106  0.51042582  1
  In  In75  1  0.17489274  0.50276004  0.49049786  1
  In  In76  1  0.32571469  0.33566677  0.75407619  1
  In  In77  1  0.82790885  0.16932274  -0.00101328  1
  In  In78  1  0.67216080  0.33858949  0.75342168  1
  In  In79  1  0.67007473  -0.00824566  0.75449311  1
  In  In80  1  0.17254781  0.83851205  -0.00517388  1
  In  In81  1  0.66488629  0.33582900  0.24468373  1
  In  In82  1  0.00604518  0.66483603  0.25108459  1
  In  In83  1  0.50246927  0.49561551  0.00315863  1
  In  In84  1  0.16593123  0.49938817  0.00849883  1
  In  In85  1  0.82882171  0.83344647  -0.00158111  1
  Cu  Cu86  1  0.17156139  0.84029622  0.25285003  1
  Cu  Cu87  1  0.49636669  0.83357650  0.25296654  1
  Cu  Cu88  1  0.34121878  0.66841994  0.49707066  1
  Cu  Cu89  1  0.66396333  0.32911058  0.49927849  1
  Cu  Cu90  1  0.00277553  0.67880770  0.50276539  1
  Cu  Cu91  1  0.16849677  0.83174269  0.74269930  1
  Cu  Cu92  1  0.16751824  0.50436006  0.75075503  1
  Cu  Cu93  1  0.83423660  0.49872890  0.24824257  1
  Cu  Cu94  1  0.84530443  0.16420523  0.25344824  1
  Cu  Cu95  1  0.84340915  0.16995227  0.74572003  1
  Cu  Cu96  1  0.50290140  0.82377998  0.74958950  1
  Cu  Cu97  1  0.00150480  0.32648804  0.49786605  1
  Cu  Cu98  1  0.00083620  0.32619438  -0.00083578  1
  Cu  Cu99  1  -0.00312648  0.66420951  -0.00608707  1
  Cu  Cu100  1  0.83640124  0.50688855  0.75178578  1
  Cu  Cu101  1  0.49510500  0.16744276  0.25147860  1
  Cu  Cu102  1  0.32729667  0.00000604  0.00803388  1
  Cu  Cu103  1  0.50513547  0.50956179  0.74762524  1
  Cu  Cu104  1  0.33462461  0.00216676  0.49530511  1
  Cu  Cu105  1  0.66105947  0.66510241  0.50038549  1
  Cu  Cu106  1  0.00297300  0.00378878  0.49988040  1
  Cu  Cu107  1  0.49921108  0.50801099  0.25060157  1
  Cu  Cu108  1  0.66916917  -0.00618086  0.49673974  1
  Cu  Cu109  1  0.16621359  0.16081625  0.25501219  1
  Cu  Cu110  1  0.83230141  0.83088638  0.25335208  1
  Cu  Cu111  1  0.83827473  0.83399116  0.74730898  1
  Cu  Cu112  1  0.32924458  0.32184250  0.00842684  1
  Cu  Cu113  1  0.33357752  0.33044550  0.49355958  1
  Cu  Cu114  1  0.49067426  0.16056123  0.75051608  1
  Se  Se115  1  0.08287958  0.07676485  0.05152259  1
  Se  Se116  1  0.08668513  0.08806586  0.55238810  1
  Se  Se117  1  0.07905743  0.40304614  0.06412396  1
  Se  Se118  1  0.07946641  0.41750584  0.55278563  1
  Se  Se119  1  0.07648208  0.74360238  0.05361512  1
  Se  Se120  1  0.09124029  0.75763309  0.55419857  1
  Se  Se121  1  0.41197115  0.08492941  0.05976522  1
  Se  Se122  1  0.41921727  0.08642171  0.54904760  1
  Se  Se123  1  0.40232304  0.41387300  0.06350465  1
  Se  Se124  1  0.41505849  0.41687133  0.54613776  1
  Se  Se125  1  0.42113268  0.76002250  0.05496039  1
  Se  Se126  1  0.42185021  0.75212908  0.55305162  1
  Se  Se127  1  0.73971429  0.07498813  0.05818488  1
  Se  Se128  1  0.74893997  0.08154757  0.55025357  1
  Se  Se129  1  0.74476322  0.40700596  0.05118435  1
  Se  Se130  1  0.74023633  0.40567145  0.56651605  1
  Se  Se131  1  0.74377077  0.74397408  0.06067203  1
  Se  Se132  1  0.75023162  0.74574461  0.55174597  1
  Se  Se133  1  0.24201382  0.24169720  0.05992787  1
  Se  Se134  1  0.24817851  0.25188897  0.54897606  1
  Se  Se135  1  0.26232923  0.59311157  0.05737064  1
  Se  Se136  1  0.25723968  0.58965529  0.55835666  1
  Se  Se137  1  0.25193631  0.91693034  0.06969136  1
  Se  Se138  1  0.25214130  0.92157717  0.55313755  1
  Se  Se139  1  0.58502532  0.26538357  0.05011524  1
  Se  Se140  1  0.57899055  0.24513107  0.55203946  1
  Se  Se141  1  0.58547223  0.58959430  0.06334465  1
  Se  Se142  1  0.57918869  0.58007652  0.55296657  1
  Se  Se143  1  0.58564084  0.92456562  0.04866558  1
  Se  Se144  1  0.58251464  0.91286415  0.54913172  1
  Se  Se145  1  0.92313831  0.24796561  0.06386042  1
  Se  Se146  1  0.91781757  0.24582712  0.55271528  1
  Se  Se147  1  0.91665951  0.57902303  0.04753729  1
  Se  Se148  1  0.92783341  0.59244897  0.56273285  1
  Se  Se149  1  0.92283031  0.92332367  0.05596313  1
  Se  Se150  1  0.91919284  0.91765864  0.55201100  1
  Se  Se151  1  0.08930720  0.25134289  0.44273453  1
  Se  Se152  1  0.08177883  0.24249645  0.94555098  1
  Se  Se153  1  0.07543436  0.59580554  0.43957884  1
  Se  Se154  1  0.08431962  0.58607676  0.93780552  1
  Se  Se155  1  0.08697493  0.91766542  0.44878412  1
  Se  Se156  1  0.07136035  0.92341874  0.94356542  1
  Se  Se157  1  0.41957556  0.24573286  0.44292215  1
  Se  Se158  1  0.41575222  0.24425536  0.95278170  1
  Se  Se159  1  0.41555573  0.57983541  0.44107417  1
  Se  Se160  1  0.41358049  0.58365654  0.94080173  1
  Se  Se161  1  0.42022259  0.91550483  0.44759218  1
  Se  Se162  1  0.40815522  0.91551870  0.95264782  1
  Se  Se163  1  0.75349419  0.24787884  0.45118822  1
  Se  Se164  1  0.74152766  0.25973621  0.93677640  1
  Se  Se165  1  0.74615735  0.58576007  0.44116417  1
  Se  Se166  1  0.75606021  0.59277901  0.95197082  1
  Se  Se167  1  0.75408300  0.91166047  0.44371504  1
  Se  Se168  1  0.73892004  0.92847163  0.94061823  1
  Se  Se169  1  0.24905915  0.08719401  0.44597068  1
  Se  Se170  1  0.24505843  0.07993152  0.95115086  1
  Se  Se171  1  0.25738436  0.40978179  0.42944067  1
  Se  Se172  1  0.25288287  0.40378306  0.94556785  1
  Se  Se173  1  0.25231942  0.75157361  0.44884774  1
  Se  Se174  1  0.25890175  0.73730200  0.94410488  1
  Se  Se175  1  0.58468031  0.08067969  0.44684842  1
  Se  Se176  1  0.57534647  0.09350594  0.95262805  1
  Se  Se177  1  0.58268170  0.41724730  0.44976285  1
  Se  Se178  1  0.58993333  0.41240227  0.93590951  1
  Se  Se179  1  0.58096592  0.74942381  0.44497261  1
  Se  Se180  1  0.57566217  0.74916163  0.94865820  1
  Se  Se181  1  0.91679648  0.08538690  0.44590073  1
  Se  Se182  1  0.91938555  0.08122424  0.93948879  1
  Se  Se183  1  0.92102709  0.41566425  0.44402356  1
  Se  Se184  1  0.92051367  0.41515548  0.94889197  1
  Se  Se185  1  0.91342210  0.75536411  0.44953373  1
  Se  Se186  1  0.92376411  0.75093227  0.93482887  1
  Se  Se187  1  0.25104881  0.24843372  0.30256065  1
  Se  Se188  1  0.24275349  0.23660465  0.80928709  1
  Se  Se189  1  0.23361781  0.57635280  0.29854070  1
  Se  Se190  1  0.25608284  0.58415388  0.80110264  1
  Se  Se191  1  0.25506640  0.92067216  0.30842121  1
  Se  Se192  1  0.24357348  0.90620226  0.81257027  1
  Se  Se193  1  0.58038264  0.24593125  0.30959096  1
  Se  Se194  1  0.57352470  0.24392614  0.80554413  1
  Se  Se195  1  0.58591751  0.58898482  0.30210071  1
  Se  Se196  1  0.58908426  0.58891642  0.80236306  1
  Se  Se197  1  0.57999556  0.91402993  0.31180960  1
  Se  Se198  1  0.57201905  0.90994231  0.81322924  1
  Se  Se199  1  0.92399317  0.25181715  0.30565301  1
  Se  Se200  1  0.92362550  0.25359535  0.80075680  1
  Se  Se201  1  0.91194738  0.57696986  0.31279286  1
  Se  Se202  1  0.92084638  0.59079135  0.80412319  1
  Se  Se203  1  0.91621662  0.91591960  0.30264458  1
  Se  Se204  1  0.92021715  0.92201746  0.79656189  1
  Se  Se205  1  0.08102023  0.07750524  0.30697518  1
  Se  Se206  1  0.08049161  0.07395449  0.79959903  1
  Se  Se207  1  0.08430133  0.42036435  0.29228623  1
  Se  Se208  1  0.08646788  0.42035336  0.80557722  1
  Se  Se209  1  0.08711333  0.76090593  0.31310084  1
  Se  Se210  1  0.08429725  0.74859280  0.79758540  1
  Se  Se211  1  0.41326033  0.08133884  0.30282602  1
  Se  Se212  1  0.41597025  0.07843061  0.81154075  1
  Se  Se213  1  0.42051302  0.41760168  0.30158919  1
  Se  Se214  1  0.42651921  0.42611075  0.80726374  1
  Se  Se215  1  0.41314859  0.74935595  0.30668281  1
  Se  Se216  1  0.41421234  0.74470815  0.80142453  1
  Se  Se217  1  0.75352607  0.08712851  0.30756372  1
  Se  Se218  1  0.75960728  0.09375142  0.80663077  1
  Se  Se219  1  0.75487842  0.41970795  0.31219036  1
  Se  Se220  1  0.75787476  0.42830068  0.81526056  1
  Se  Se221  1  0.74682424  0.74548202  0.30047666  1
  Se  Se222  1  0.75087444  0.75729866  0.80309864  1
  Se  Se223  1  0.25128974  0.07839157  0.20195504  1
  Se  Se224  1  0.23914958  0.09552857  0.69208736  1
  Se  Se225  1  0.24690103  0.41794572  0.20498468  1
  Se  Se226  1  0.24292115  0.42410537  0.68603148  1
  Se  Se227  1  0.25267561  0.75189112  0.20238418  1
  Se  Se228  1  0.25642739  0.74859376  0.69461119  1
  Se  Se229  1  0.57662565  0.09293976  0.18831615  1
  Se  Se230  1  0.57481499  0.08056611  0.69398278  1
  Se  Se231  1  0.57512774  0.42782985  0.18635350  1
  Se  Se232  1  0.57471854  0.41749464  0.68888981  1
  Se  Se233  1  0.58025158  0.75160363  0.19907163  1
  Se  Se234  1  0.58999961  0.74703031  0.69454811  1
  Se  Se235  1  0.92285143  0.07611399  0.20050149  1
  Se  Se236  1  0.92277789  0.08275299  0.69306802  1
  Se  Se237  1  0.91654710  0.41266737  0.19856670  1
  Se  Se238  1  0.91600781  0.41750024  0.70120444  1
  Se  Se239  1  0.91285836  0.75228258  0.18884373  1
  Se  Se240  1  0.92241501  0.75094841  0.69402021  1
  Se  Se241  1  0.08202522  0.24419741  0.20055484  1
  Se  Se242  1  0.07455736  0.26158207  0.69624654  1
  Se  Se243  1  0.08796371  0.58008355  0.18265034  1
  Se  Se244  1  0.08282453  0.58663027  0.69780507  1
  Se  Se245  1  0.08199699  0.91831202  0.20095293  1
  Se  Se246  1  0.08550345  0.91850361  0.69377091  1
  Se  Se247  1  0.41166546  0.25257398  0.19984566  1
  Se  Se248  1  0.41414185  0.24371399  0.69143624  1
  Se  Se249  1  0.41242796  0.59053087  0.19975285  1
  Se  Se250  1  0.41713473  0.58733455  0.69449848  1
  Se  Se251  1  0.41778772  0.92364140  0.20158097  1
  Se  Se252  1  0.42485113  0.90847446  0.69055768  1
  Se  Se253  1  0.75932251  0.23885464  0.19253020  1
  Se  Se254  1  0.75194063  0.24218407  0.68878161  1
  Se  Se255  1  0.75076552  0.58310980  0.19796533  1
  Se  Se256  1  0.74957302  0.58733396  0.69944140  1
  Se  Se257  1  0.75546477  0.90466618  0.18550590  1
  Se  Se258  1  0.75662572  0.91294002  0.68510357  1
