# generated using pymatgen
data_In86Cu29Se144
_symmetry_space_group_name_H-M   'P 1'
_cell_length_a   17.57150211
_cell_length_b   17.56919360
_cell_length_c   23.43023376
_cell_angle_alpha   90.00720763
_cell_angle_beta   89.98225598
_cell_angle_gamma   90.00075719
_symmetry_Int_Tables_number   1
_chemical_formula_structural   In86Cu29Se144
_chemical_formula_sum   'In86 Cu29 Se144'
_cell_volume   7233.31394109
_cell_formula_units_Z   1
loop_
 _symmetry_equiv_pos_site_id
 _symmetry_equiv_pos_as_xyz
  1  'x, y, z'
loop_
 _atom_site_type_symbol
 _atom_site_label
 _atom_site_symmetry_multiplicity
 _atom_site_fract_x
 _atom_site_fract_y
 _atom_site_fract_z
 _atom_site_occupancy
  In  In0  1  -0.00372672  0.16563297  0.11884008  1
  In  In1  1  -0.00599714  0.16781655  0.61906946  1
  In  In2  1  -0.01189920  0.50897995  0.13477847  1
  In  In3  1  0.01030719  0.50359720  0.62378899  1
  In  In4  1  -0.00855908  0.83039111  0.11538229  1
  In  In5  1  -0.01019780  0.83085444  0.61637759  1
  In  In6  1  0.32576775  0.16515632  0.11449948  1
  In  In7  1  0.35959079  0.15122308  0.64993037  1
  In  In8  1  0.34146845  0.50405853  0.11954624  1
  In  In9  1  0.34709674  0.48599373  0.63574419  1
  In  In10  1  0.33106164  0.84386727  0.11012611  1
  In  In11  1  0.32750456  0.84665022  0.64049547  1
  In  In12  1  0.66871962  0.16227772  0.12748222  1
  In  In13  1  0.66648988  0.16573834  0.63494576  1
  In  In14  1  0.66975022  0.49477768  0.13205997  1
  In  In15  1  0.65641356  0.50926439  0.62816718  1
  In  In16  1  0.66971494  0.82988393  0.12149809  1
  In  In17  1  0.66897203  0.83234743  0.63541459  1
  In  In18  1  0.15410850  -0.00931584  0.38257036  1
  In  In19  1  0.19117159  -0.01665480  0.90178175  1
  In  In20  1  0.16909847  0.34150488  0.37022923  1
  In  In21  1  0.16939539  0.31817126  0.87323685  1
  In  In22  1  0.16092930  0.67887812  0.37851467  1
  In  In23  1  0.18277240  0.68382514  0.86232568  1
  In  In24  1  0.51749055  -0.00827889  0.37762802  1
  In  In25  1  0.48285716  -0.02761927  0.83970743  1
  In  In26  1  0.51343124  0.32031616  0.39175104  1
  In  In27  1  0.50929625  0.32635041  0.86098881  1
  In  In28  1  0.49934325  0.65799827  0.38351082  1
  In  In29  1  0.51801824  0.69094302  0.85192183  1
  In  In30  1  0.82941343  0.01073876  0.38988263  1
  In  In31  1  0.82775636  0.00848106  0.88615259  1
  In  In32  1  0.81758321  0.32207742  0.36641496  1
  In  In33  1  0.81746133  0.31117201  0.87394509  1
  In  In34  1  0.84047758  0.67584513  0.36882598  1
  In  In35  1  0.84620427  0.67169499  0.86892539  1
  In  In36  1  -0.02265628  0.15988108  0.37385647  1
  In  In37  1  0.00751245  0.15120720  0.89503341  1
  In  In38  1  -0.00116730  0.49929115  0.36443311  1
  In  In39  1  -0.01216723  0.50796463  0.87551772  1
  In  In40  1  0.00321929  0.83280045  0.38252608  1
  In  In41  1  0.01059989  0.83534628  0.88556604  1
  In  In42  1  0.33536392  0.17914723  0.37896106  1
  In  In43  1  0.33249371  0.14707936  0.85288073  1
  In  In44  1  0.33895401  0.50930666  0.38335385  1
  In  In45  1  0.33917853  0.50695616  0.86719146  1
  In  In46  1  0.32808202  0.82585640  0.38573893  1
  In  In47  1  0.33906194  0.83546116  0.87292795  1
  In  In48  1  0.66581597  0.16591037  0.37683976  1
  In  In49  1  0.66405142  0.16102555  0.86837485  1
  In  In50  1  0.66109515  0.49495997  0.37603094  1
  In  In51  1  0.66539465  0.49167778  0.86934152  1
  In  In52  1  0.67791055  0.84376867  0.36846929  1
  In  In53  1  0.67038296  0.83354453  0.87171461  1
  In  In54  1  0.14926473  -0.00695219  0.10135945  1
  In  In55  1  0.19032257  -0.00501882  0.62509571  1
  In  In56  1  0.15803756  0.31721856  0.11974514  1
  In  In57  1  0.16961018  0.33958369  0.62706182  1
  In  In58  1  0.15570589  0.67189344  0.12397763  1
  In  In59  1  0.15913391  0.67861369  0.63479687  1
  In  In60  1  0.51532627  0.00450661  0.12244078  1
  In  In61  1  0.49297673  0.00763902  0.64316318  1
  In  In62  1  0.50329592  0.33432318  0.12561830  1
  In  In63  1  0.50460911  0.33002831  0.63001858  1
  In  In64  1  0.50040145  0.67963109  0.12071799  1
  In  In65  1  0.51223701  0.66774013  0.63704096  1
  In  In66  1  0.82309730  -0.01294648  0.10746314  1
  In  In67  1  0.82724686  -0.01182631  0.61584599  1
  In  In68  1  0.82994718  0.33291849  0.13091913  1
  In  In69  1  0.83359654  0.31353483  0.62189145  1
  In  In70  1  0.82899839  0.67166694  0.12775562  1
  In  In71  1  0.82082752  0.68107492  0.63337967  1
  In  In72  1  -0.00463578  0.33478579  0.74973118  1
  In  In73  1  0.33497046  0.66927566  0.25830078  1
  In  In74  1  0.00400239  -0.00127978  0.75485949  1
  In  In75  1  0.82789147  0.49995285  0.00701017  1
  In  In76  1  -0.00890209  -0.00307984  0.24538131  1
  In  In77  1  0.17224942  0.50060671  0.49981305  1
  In  In78  1  0.33684541  0.33958615  0.24501573  1
  In  In79  1  0.17252990  0.16079735  0.50183116  1
  In  In80  1  0.33514577  0.00328666  0.24524459  1
  In  In81  1  0.49714872  0.15219679  -0.01208211  1
  In  In82  1  0.16513014  0.50620059  0.00568339  1
  In  In83  1  0.49547882  0.84135971  0.50914564  1
  In  In84  1  0.82650509  0.50043739  0.49606656  1
  In  In85  1  0.50529293  0.50083510  -0.01481048  1
  Cu  Cu86  1  0.16397398  0.83072443  0.25233952  1
  Cu  Cu87  1  0.16337028  0.50521637  0.74971562  1
  Cu  Cu88  1  0.00901129  0.67820521  -0.00688815  1
  Cu  Cu89  1  0.50277349  0.49809386  0.74959254  1
  Cu  Cu90  1  0.33851241  0.68486705  -0.01120665  1
  Cu  Cu91  1  0.66459680  0.01078451  0.50478536  1
  Cu  Cu92  1  0.51362024  0.83182937  0.24590879  1
  Cu  Cu93  1  0.66707297  0.67800189  0.50602339  1
  Cu  Cu94  1  0.33446650  0.66324592  0.51119879  1
  Cu  Cu95  1  0.82912829  0.50248715  0.74849783  1
  Cu  Cu96  1  0.50840970  0.16552862  0.25535982  1
  Cu  Cu97  1  0.16942690  0.16158638  0.75229882  1
  Cu  Cu98  1  0.83010017  0.50453758  0.25252914  1
  Cu  Cu99  1  0.66688055  0.67121782  -0.00403746  1
  Cu  Cu100  1  0.66281531  0.32753488  0.50349069  1
  Cu  Cu101  1  0.65497003  -0.00855003  -0.00597111  1
  Cu  Cu102  1  -0.00702457  0.32276893  0.49106150  1
  Cu  Cu103  1  0.83458579  0.83558362  0.24519015  1
  Cu  Cu104  1  0.33240768  0.32841067  -0.01141966  1
  Cu  Cu105  1  -0.01087008  0.33072801  0.00186731  1
  Cu  Cu106  1  0.50713500  0.49719854  0.25638646  1
  Cu  Cu107  1  0.82611518  0.16673498  0.25050620  1
  Cu  Cu108  1  0.15579259  0.49772287  0.24654052  1
  Cu  Cu109  1  -0.01024287  0.67023907  0.50281727  1
  Cu  Cu110  1  0.16208201  0.83955609  0.75737661  1
  Cu  Cu111  1  0.83307898  0.15870883  0.75441149  1
  Cu  Cu112  1  0.15470523  0.16494604  0.24083605  1
  Cu  Cu113  1  0.34815469  0.32536276  0.51354559  1
  Cu  Cu114  1  0.83624296  0.83591772  0.74959237  1
  Se  Se115  1  0.09769171  0.11047613  0.05072470  1
  Se  Se116  1  0.08523547  0.07319211  0.56482892  1
  Se  Se117  1  0.06770873  0.41618794  0.06085003  1
  Se  Se118  1  0.07360743  0.40353516  0.55083128  1
  Se  Se119  1  0.09100907  0.75896494  0.04994861  1
  Se  Se120  1  0.08169758  0.74562566  0.55494793  1
  Se  Se121  1  0.40861157  0.06843346  0.05589429  1
  Se  Se122  1  0.41370112  0.07610846  0.56528137  1
  Se  Se123  1  0.41290413  0.40805601  0.04915214  1
  Se  Se124  1  0.42732550  0.41951669  0.55768490  1
  Se  Se125  1  0.42242036  0.75901871  0.04918864  1
  Se  Se126  1  0.41282200  0.74601361  0.56993094  1
  Se  Se127  1  0.73329959  0.07675851  0.05027082  1
  Se  Se128  1  0.74907338  0.09023635  0.56073239  1
  Se  Se129  1  0.73458863  0.40419297  0.05625851  1
  Se  Se130  1  0.74451721  0.41028427  0.56217309  1
  Se  Se131  1  0.75439525  0.74840629  0.05116365  1
  Se  Se132  1  0.74960494  0.76191089  0.55739628  1
  Se  Se133  1  0.24837282  0.25252440  0.04650691  1
  Se  Se134  1  0.25702339  0.24913042  0.56647079  1
  Se  Se135  1  0.26507541  0.60243041  0.05418397  1
  Se  Se136  1  0.25211769  0.58277330  0.57079809  1
  Se  Se137  1  0.24931307  0.92220030  0.04152029  1
  Se  Se138  1  0.26380767  0.91110711  0.55413229  1
  Se  Se139  1  0.57833449  0.24429526  0.05616170  1
  Se  Se140  1  0.58468963  0.24472341  0.56126588  1
  Se  Se141  1  0.58969741  0.58556545  0.05591228  1
  Se  Se142  1  0.58239407  0.59299969  0.55554519  1
  Se  Se143  1  0.57925373  0.90851206  0.05373377  1
  Se  Se144  1  0.58867622  0.92896800  0.56806383  1
  Se  Se145  1  0.90552754  0.25111982  0.05738435  1
  Se  Se146  1  0.91102996  0.24033814  0.54500749  1
  Se  Se147  1  0.92785952  0.59596215  0.05382929  1
  Se  Se148  1  0.91364924  0.58687537  0.56264927  1
  Se  Se149  1  0.93460027  0.93265484  0.04955080  1
  Se  Se150  1  0.92221537  0.92328622  0.54818380  1
  Se  Se151  1  0.08360591  0.24941089  0.43444757  1
  Se  Se152  1  0.08194864  0.25782523  0.94910258  1
  Se  Se153  1  0.07129121  0.58608931  0.44400279  1
  Se  Se154  1  0.08561467  0.59257885  0.93514615  1
  Se  Se155  1  0.09821406  0.89554961  0.45269106  1
  Se  Se156  1  0.06552197  0.94312118  0.94796052  1
  Se  Se157  1  0.42316016  0.23902609  0.45549441  1
  Se  Se158  1  0.41335435  0.25061988  0.92919121  1
  Se  Se159  1  0.41930484  0.58214295  0.45800683  1
  Se  Se160  1  0.41887465  0.60022480  0.93304885  1
  Se  Se161  1  0.40938054  0.92738000  0.44220496  1
  Se  Se162  1  0.42067842  0.92991666  0.93279973  1
  Se  Se163  1  0.74898215  0.24944237  0.44733934  1
  Se  Se164  1  0.74458756  0.23037387  0.94610509  1
  Se  Se165  1  0.74110090  0.59778401  0.43989123  1
  Se  Se166  1  0.74650047  0.58739771  0.93752795  1
  Se  Se167  1  0.74116260  0.92185785  0.44980405  1
  Se  Se168  1  0.74850789  0.91152131  0.94634481  1
  Se  Se169  1  0.25934695  0.07410121  0.43687025  1
  Se  Se170  1  0.25464037  0.10526676  0.93948393  1
  Se  Se171  1  0.26620137  0.40133735  0.44760333  1
  Se  Se172  1  0.25212094  0.41999383  0.93833296  1
  Se  Se173  1  0.25014705  0.74016178  0.45418251  1
  Se  Se174  1  0.24384581  0.76258208  0.94339080  1
  Se  Se175  1  0.58015734  0.08670160  0.44757860  1
  Se  Se176  1  0.57758943  0.05910041  0.92500246  1
  Se  Se177  1  0.58471198  0.42101837  0.45365515  1
  Se  Se178  1  0.59453917  0.39746415  0.94093634  1
  Se  Se179  1  0.58617994  0.75636261  0.44241998  1
  Se  Se180  1  0.58264901  0.75096012  0.94047072  1
  Se  Se181  1  0.93861629  0.06593385  0.45131661  1
  Se  Se182  1  0.90272854  0.09312785  0.95637274  1
  Se  Se183  1  0.91755179  0.41106161  0.43493190  1
  Se  Se184  1  0.91258055  0.40977604  0.93986842  1
  Se  Se185  1  0.90972049  0.75329772  0.44714658  1
  Se  Se186  1  0.91382851  0.75395656  0.94574090  1
  Se  Se187  1  0.24273452  0.24234576  0.29937139  1
  Se  Se188  1  0.25389750  0.25181171  0.79863039  1
  Se  Se189  1  0.23860236  0.57302163  0.31106529  1
  Se  Se190  1  0.25278674  0.58587614  0.79904669  1
  Se  Se191  1  0.24743715  0.91010283  0.30924955  1
  Se  Se192  1  0.24625067  0.92179674  0.81051223  1
  Se  Se193  1  0.58447062  0.25453668  0.30847427  1
  Se  Se194  1  0.59317135  0.24648925  0.79414247  1
  Se  Se195  1  0.58347599  0.58716384  0.30949723  1
  Se  Se196  1  0.58986186  0.58036153  0.80096798  1
  Se  Se197  1  0.59098380  0.92164802  0.29833004  1
  Se  Se198  1  0.58599887  0.89230550  0.78978822  1
  Se  Se199  1  0.91442040  0.24942202  0.30059570  1
  Se  Se200  1  0.92195494  0.23456831  0.81222881  1
  Se  Se201  1  0.91831676  0.58810732  0.30060001  1
  Se  Se202  1  0.91950267  0.58354325  0.79682106  1
  Se  Se203  1  0.90772977  0.91261264  0.31331679  1
  Se  Se204  1  0.91153623  0.91333868  0.81533679  1
  Se  Se205  1  0.08570693  0.08411403  0.30763245  1
  Se  Se206  1  0.09308743  0.08518643  0.81636607  1
  Se  Se207  1  0.07856933  0.40879601  0.29934311  1
  Se  Se208  1  0.08670725  0.42316354  0.81281774  1
  Se  Se209  1  0.07780555  0.75089316  0.30517488  1
  Se  Se210  1  0.07549144  0.75408757  0.80618834  1
  Se  Se211  1  0.42202156  0.08852304  0.31257505  1
  Se  Se212  1  0.44804672  0.10251357  0.79272055  1
  Se  Se213  1  0.42239860  0.41909627  0.31617543  1
  Se  Se214  1  0.41858358  0.41595880  0.80345005  1
  Se  Se215  1  0.42998755  0.76245876  0.31306799  1
  Se  Se216  1  0.39317982  0.73184198  0.80509350  1
  Se  Se217  1  0.75345221  0.08184150  0.31118729  1
  Se  Se218  1  0.74983713  0.07222663  0.80442979  1
  Se  Se219  1  0.74556096  0.42016342  0.30422670  1
  Se  Se220  1  0.75874051  0.41298446  0.80618718  1
  Se  Se221  1  0.75118509  0.75221498  0.30052628  1
  Se  Se222  1  0.75521683  0.74836469  0.80335583  1
  Se  Se223  1  0.23642615  0.08282329  0.18382639  1
  Se  Se224  1  0.25476736  0.07457172  0.70467250  1
  Se  Se225  1  0.24122733  0.42629582  0.18316223  1
  Se  Se226  1  0.24561146  0.41830201  0.69985700  1
  Se  Se227  1  0.25031234  0.75705705  0.19047492  1
  Se  Se228  1  0.24647852  0.75452369  0.70355986  1
  Se  Se229  1  0.58755899  0.08009896  0.19983119  1
  Se  Se230  1  0.57221476  0.10076656  0.70681661  1
  Se  Se231  1  0.58285797  0.41151308  0.19836998  1
  Se  Se232  1  0.58920502  0.41576233  0.69722857  1
  Se  Se233  1  0.59035388  0.74330769  0.19360407  1
  Se  Se234  1  0.58025306  0.76159503  0.70672632  1
  Se  Se235  1  0.90062841  0.08500333  0.18606253  1
  Se  Se236  1  0.91357308  0.08388217  0.69106899  1
  Se  Se237  1  0.91144658  0.41809174  0.19915232  1
  Se  Se238  1  0.90708920  0.42312094  0.68440704  1
  Se  Se239  1  0.91970495  0.75282778  0.19267719  1
  Se  Se240  1  0.92055245  0.75344458  0.69576014  1
  Se  Se241  1  0.07018314  0.25179813  0.19364612  1
  Se  Se242  1  0.08797074  0.23994131  0.69264615  1
  Se  Se243  1  0.07993399  0.59107537  0.19718147  1
  Se  Se244  1  0.07760316  0.58643537  0.69857744  1
  Se  Se245  1  0.08993741  0.91196959  0.18783333  1
  Se  Se246  1  0.08802019  0.91221767  0.68725593  1
  Se  Se247  1  0.42179511  0.23544332  0.19002912  1
  Se  Se248  1  0.39564461  0.27822297  0.69484950  1
  Se  Se249  1  0.42536429  0.57764173  0.19566709  1
  Se  Se250  1  0.41960236  0.58415792  0.69840250  1
  Se  Se251  1  0.42472015  0.90723660  0.18874075  1
  Se  Se252  1  0.42346489  0.91082756  0.70873250  1
  Se  Se253  1  0.74265198  0.25136951  0.19793455  1
  Se  Se254  1  0.75635074  0.24983235  0.70191126  1
  Se  Se255  1  0.74841324  0.58582334  0.19547738  1
  Se  Se256  1  0.74520366  0.58669776  0.69656171  1
  Se  Se257  1  0.75232536  0.91674956  0.18904210  1
  Se  Se258  1  0.75438750  0.92230455  0.69814019  1
