# generated using pymatgen
data_In86Cu29Se144
_symmetry_space_group_name_H-M   'P 1'
_cell_length_a   17.57575398
_cell_length_b   17.57726414
_cell_length_c   23.43941462
_cell_angle_alpha   89.99760402
_cell_angle_beta   90.01960275
_cell_angle_gamma   90.00932945
_symmetry_Int_Tables_number   1
_chemical_formula_structural   In86Cu29Se144
_chemical_formula_sum   'In86 Cu29 Se144'
_cell_volume   7241.22385589
_cell_formula_units_Z   1
loop_
 _symmetry_equiv_pos_site_id
 _symmetry_equiv_pos_as_xyz
  1  'x, y, z'
loop_
 _atom_site_type_symbol
 _atom_site_label
 _atom_site_symmetry_multiplicity
 _atom_site_fract_x
 _atom_site_fract_y
 _atom_site_fract_z
 _atom_site_occupancy
  In  In0  1  -0.00915114  0.17104711  0.13348912  1
  In  In1  1  0.00449153  0.17832633  0.62417977  1
  In  In2  1  -0.01212707  0.50603784  0.13211530  1
  In  In3  1  -0.00368963  0.48913610  0.62456208  1
  In  In4  1  0.00801590  0.82662345  0.13176402  1
  In  In5  1  0.00162172  0.82325200  0.61931038  1
  In  In6  1  0.33461282  0.15638446  0.12341135  1
  In  In7  1  0.32182124  0.16473401  0.64455345  1
  In  In8  1  0.35117154  0.50547162  0.11939399  1
  In  In9  1  0.32443354  0.51188200  0.63262481  1
  In  In10  1  0.33304685  0.83199395  0.12192088  1
  In  In11  1  0.32807069  0.83900997  0.63258513  1
  In  In12  1  0.65598003  0.14518614  0.10351583  1
  In  In13  1  0.68288733  0.16899937  0.62656281  1
  In  In14  1  0.67707917  0.51479451  0.10723990  1
  In  In15  1  0.66059528  0.50497262  0.63609374  1
  In  In16  1  0.65596087  0.84265290  0.12284682  1
  In  In17  1  0.66132148  0.83549776  0.62792977  1
  In  In18  1  0.15542090  -0.01497321  0.37086478  1
  In  In19  1  0.16508272  -0.01614439  0.87770658  1
  In  In20  1  0.16330313  0.34947698  0.37912421  1
  In  In21  1  0.16576325  0.32600047  0.85755712  1
  In  In22  1  0.16929652  0.66966300  0.37319779  1
  In  In23  1  0.18162987  0.66712109  0.87459852  1
  In  In24  1  0.49686281  -0.00058037  0.36037359  1
  In  In25  1  0.49687994  0.00827211  0.88963827  1
  In  In26  1  0.50641439  0.33279775  0.37338519  1
  In  In27  1  0.50337119  0.33197806  0.87323354  1
  In  In28  1  0.50601428  0.67960518  0.36273205  1
  In  In29  1  0.50220547  0.66951120  0.88279382  1
  In  In30  1  0.84004473  0.00350830  0.37127920  1
  In  In31  1  0.84362249  0.00644595  0.88175077  1
  In  In32  1  0.83602907  0.31431355  0.37759321  1
  In  In33  1  0.83321926  0.33845749  0.87723270  1
  In  In34  1  0.83066914  0.66384771  0.36475086  1
  In  In35  1  0.79547522  0.67000554  0.88082332  1
  In  In36  1  -0.01658535  0.15022764  0.36560536  1
  In  In37  1  -0.00889312  0.17093069  0.87730503  1
  In  In38  1  0.00859671  0.51056898  0.36510592  1
  In  In39  1  -0.00175256  0.49030946  0.87414620  1
  In  In40  1  0.01256964  0.84490099  0.36892633  1
  In  In41  1  -0.00236684  0.84337958  0.88149972  1
  In  In42  1  0.34472915  0.16033211  0.36927292  1
  In  In43  1  0.34157849  0.17383636  0.86295248  1
  In  In44  1  0.31856189  0.50233653  0.37735124  1
  In  In45  1  0.34490243  0.50812168  0.86685621  1
  In  In46  1  0.32771762  0.82689087  0.36779060  1
  In  In47  1  0.33630365  0.83219011  0.87846486  1
  In  In48  1  0.68123695  0.16205873  0.37858965  1
  In  In49  1  0.65720926  0.17225622  0.88771129  1
  In  In50  1  0.66005543  0.50992526  0.37308178  1
  In  In51  1  0.66557947  0.50266175  0.88157566  1
  In  In52  1  0.66886468  0.83494766  0.36421375  1
  In  In53  1  0.66469540  0.81740719  0.87859135  1
  In  In54  1  0.17959915  -0.01089430  0.13482852  1
  In  In55  1  0.17726975  0.00228924  0.62325374  1
  In  In56  1  0.16456007  0.32301347  0.12746951  1
  In  In57  1  0.15360862  0.33730611  0.63432680  1
  In  In58  1  0.15776591  0.67566940  0.12930333  1
  In  In59  1  0.17497430  0.67759911  0.61511723  1
  In  In60  1  0.50059704  -0.00641058  0.11776155  1
  In  In61  1  0.49331794  -0.01153353  0.62747932  1
  In  In62  1  0.51320320  0.34241543  0.11130489  1
  In  In63  1  0.49732741  0.33559899  0.64050492  1
  In  In64  1  0.50116608  0.66759910  0.12276100  1
  In  In65  1  0.50360765  0.66427291  0.63427313  1
  In  In66  1  0.82256311  0.00881003  0.12930707  1
  In  In67  1  0.82141913  0.01131277  0.61736784  1
  In  In68  1  0.83293980  0.33254580  0.12221260  1
  In  In69  1  0.84526838  0.32833380  0.63616709  1
  In  In70  1  0.83434900  0.66397632  0.12942705  1
  In  In71  1  0.83032133  0.66365341  0.62811865  1
  In  In72  1  0.00376761  0.00351976  0.75103006  1
  In  In73  1  -0.00438665  0.66189863  0.74755447  1
  In  In74  1  0.16196853  0.16183358  0.49889525  1
  In  In75  1  0.82914562  0.83297863  0.00363853  1
  In  In76  1  0.50017237  0.16451569  0.50012272  1
  In  In77  1  0.16764908  0.16071485  -0.00246245  1
  In  In78  1  0.83599626  0.49888639  0.49675938  1
  In  In79  1  0.33299340  0.33470254  0.25026345  1
  In  In80  1  0.83774434  0.83773212  0.49619765  1
  In  In81  1  0.49532841  0.50805704  0.51004814  1
  In  In82  1  0.50393116  0.83388232  0.50104463  1
  In  In83  1  0.17000402  0.49915797  -0.00688218  1
  In  In84  1  0.66370258  0.00032938  0.75284779  1
  In  In85  1  0.67145762  0.33130414  0.24987921  1
  Cu  Cu86  1  0.33433743  0.67226211  -0.00104157  1
  Cu  Cu87  1  0.16928572  0.49944831  0.74909134  1
  Cu  Cu88  1  0.49538799  0.83601181  0.24032674  1
  Cu  Cu89  1  0.50293382  0.16326589  0.75924780  1
  Cu  Cu90  1  0.33240133  0.66935781  0.49701854  1
  Cu  Cu91  1  0.16674199  0.50537403  0.24932092  1
  Cu  Cu92  1  0.00269365  0.33027198  0.50277442  1
  Cu  Cu93  1  0.33143277  -0.00510236  0.50197567  1
  Cu  Cu94  1  0.50167353  0.49932512  0.75919249  1
  Cu  Cu95  1  0.50215353  0.50947375  0.24533011  1
  Cu  Cu96  1  -0.00373104  0.33874856  0.00283054  1
  Cu  Cu97  1  0.66968671  0.33042684  -0.00515861  1
  Cu  Cu98  1  0.34027876  0.33120792  -0.01178759  1
  Cu  Cu99  1  0.17166701  0.82578912  0.75117786  1
  Cu  Cu100  1  0.00963321  0.66712712  0.49168143  1
  Cu  Cu101  1  -0.00453505  0.66640067  0.00638949  1
  Cu  Cu102  1  0.32388789  0.33362249  0.50543321  1
  Cu  Cu103  1  0.82873406  0.16155193  0.24758225  1
  Cu  Cu104  1  0.00451589  0.00029317  0.00619641  1
  Cu  Cu105  1  0.16978265  0.83216640  0.24993382  1
  Cu  Cu106  1  0.83332906  0.83128384  0.24531416  1
  Cu  Cu107  1  0.49711557  0.82677136  0.75570870  1
  Cu  Cu108  1  0.67081295  0.33762666  0.50698325  1
  Cu  Cu109  1  0.82554977  0.50291738  0.75519721  1
  Cu  Cu110  1  0.33582501  -0.00463772  0.00268380  1
  Cu  Cu111  1  0.16007313  0.16725453  0.25133543  1
  Cu  Cu112  1  0.83313113  0.17548540  0.75427811  1
  Cu  Cu113  1  0.50222837  0.16104287  0.23691035  1
  Cu  Cu114  1  0.83279005  0.49539574  0.24425497  1
  Se  Se115  1  0.08389772  0.07998199  0.06780095  1
  Se  Se116  1  0.07308683  0.07321252  0.55990785  1
  Se  Se117  1  0.08227735  0.41564811  0.06093827  1
  Se  Se118  1  0.08464623  0.41553255  0.55464696  1
  Se  Se119  1  0.08200951  0.75165477  0.05261560  1
  Se  Se120  1  0.08741867  0.75404736  0.54617353  1
  Se  Se121  1  0.41797882  0.08478332  0.05113582  1
  Se  Se122  1  0.40521765  0.08029136  0.56253491  1
  Se  Se123  1  0.41590724  0.41506561  0.04711390  1
  Se  Se124  1  0.40847498  0.40975045  0.56438062  1
  Se  Se125  1  0.41946437  0.75299215  0.05331051  1
  Se  Se126  1  0.41364891  0.74357394  0.56111817  1
  Se  Se127  1  0.76784453  0.08789549  0.04670502  1
  Se  Se128  1  0.74377979  0.09066716  0.54687879  1
  Se  Se129  1  0.75186308  0.41243999  0.05106242  1
  Se  Se130  1  0.74946471  0.41753189  0.56671112  1
  Se  Se131  1  0.74028483  0.74234529  0.06199317  1
  Se  Se132  1  0.74656909  0.74875909  0.55808939  1
  Se  Se133  1  0.26011486  0.25746626  0.05358120  1
  Se  Se134  1  0.25024505  0.24820423  0.56397628  1
  Se  Se135  1  0.25246606  0.58989109  0.05824548  1
  Se  Se136  1  0.25243580  0.58264310  0.55137432  1
  Se  Se137  1  0.24663341  0.91550522  0.05353286  1
  Se  Se138  1  0.24963808  0.91037965  0.55455329  1
  Se  Se139  1  0.58172968  0.24700132  0.04485694  1
  Se  Se140  1  0.58295622  0.25984683  0.56282854  1
  Se  Se141  1  0.55641022  0.56075111  0.05742808  1
  Se  Se142  1  0.59603172  0.59647794  0.55815023  1
  Se  Se143  1  0.59078759  0.92563771  0.04594373  1
  Se  Se144  1  0.59413756  0.93176908  0.55527560  1
  Se  Se145  1  0.91989773  0.24884161  0.05550020  1
  Se  Se146  1  0.91421782  0.25279002  0.55578975  1
  Se  Se147  1  0.91212713  0.58173066  0.05569343  1
  Se  Se148  1  0.92747506  0.59315909  0.55560844  1
  Se  Se149  1  0.92214514  0.91925900  0.06497826  1
  Se  Se150  1  0.92306345  0.92620530  0.56030815  1
  Se  Se151  1  0.07524587  0.25109673  0.43569836  1
  Se  Se152  1  0.08204884  0.26249464  0.94328233  1
  Se  Se153  1  0.09037257  0.57893566  0.44170132  1
  Se  Se154  1  0.07577255  0.59329316  0.93902508  1
  Se  Se155  1  0.08020235  0.91775036  0.44982589  1
  Se  Se156  1  0.08392788  0.91324380  0.95414506  1
  Se  Se157  1  0.40718639  0.26143064  0.44291817  1
  Se  Se158  1  0.42186599  0.24180341  0.94052585  1
  Se  Se159  1  0.41653191  0.59278473  0.43711386  1
  Se  Se160  1  0.41272756  0.58272185  0.94701106  1
  Se  Se161  1  0.41376353  0.92148727  0.43873349  1
  Se  Se162  1  0.41932468  0.91084252  0.95012393  1
  Se  Se163  1  0.74771061  0.25085960  0.45217278  1
  Se  Se164  1  0.75842443  0.24781536  0.94631785  1
  Se  Se165  1  0.74404901  0.59351402  0.44385955  1
  Se  Se166  1  0.75085907  0.57542499  0.95531663  1
  Se  Se167  1  0.74219939  0.92256507  0.43799949  1
  Se  Se168  1  0.74607255  0.92206980  0.93874423  1
  Se  Se169  1  0.25749350  0.07699463  0.43801525  1
  Se  Se170  1  0.25996943  0.07527271  0.93747926  1
  Se  Se171  1  0.24646518  0.42186868  0.45290338  1
  Se  Se172  1  0.25439462  0.40732321  0.93070900  1
  Se  Se173  1  0.25002728  0.75384959  0.44428583  1
  Se  Se174  1  0.24675414  0.75402537  0.94865224  1
  Se  Se175  1  0.58296747  0.07454120  0.43699838  1
  Se  Se176  1  0.59692315  0.07190007  0.95421627  1
  Se  Se177  1  0.58852900  0.41467385  0.44740861  1
  Se  Se178  1  0.58115067  0.41358406  0.94585857  1
  Se  Se179  1  0.59358765  0.74566766  0.44032544  1
  Se  Se180  1  0.59074684  0.74168441  0.95336374  1
  Se  Se181  1  0.90736532  0.08935246  0.44618235  1
  Se  Se182  1  0.92445494  0.08616046  0.95311624  1
  Se  Se183  1  0.92653028  0.41006935  0.43716699  1
  Se  Se184  1  0.91474677  0.42212198  0.94910966  1
  Se  Se185  1  0.92257852  0.74332717  0.43454257  1
  Se  Se186  1  0.91571975  0.74133029  0.93942119  1
  Se  Se187  1  0.24203211  0.24612421  0.31317214  1
  Se  Se188  1  0.24853209  0.24107911  0.79480182  1
  Se  Se189  1  0.25267079  0.58634992  0.30224534  1
  Se  Se190  1  0.25215842  0.58465384  0.80051497  1
  Se  Se191  1  0.25207051  0.91982932  0.30212386  1
  Se  Se192  1  0.25103041  0.91124271  0.80620569  1
  Se  Se193  1  0.57683333  0.23602908  0.30590239  1
  Se  Se194  1  0.59032752  0.24738005  0.80656771  1
  Se  Se195  1  0.58866497  0.59010233  0.29854118  1
  Se  Se196  1  0.58290614  0.58539618  0.81137063  1
  Se  Se197  1  0.58193979  0.91480513  0.29672703  1
  Se  Se198  1  0.57566833  0.91150715  0.81443922  1
  Se  Se199  1  0.91339722  0.24767637  0.29833836  1
  Se  Se200  1  0.91910986  0.25751717  0.80626009  1
  Se  Se201  1  0.91515369  0.58147128  0.29811009  1
  Se  Se202  1  0.90605780  0.58402798  0.81558595  1
  Se  Se203  1  0.91427535  0.91316077  0.30312813  1
  Se  Se204  1  0.90862433  0.91210010  0.80661210  1
  Se  Se205  1  0.08196796  0.07835579  0.30354632  1
  Se  Se206  1  0.08998948  0.08854837  0.81619704  1
  Se  Se207  1  0.08554664  0.41667900  0.29989305  1
  Se  Se208  1  0.08068701  0.41948078  0.79963136  1
  Se  Se209  1  0.08443152  0.74924343  0.30335045  1
  Se  Se210  1  0.08327305  0.75417539  0.81103750  1
  Se  Se211  1  0.41423478  0.08286640  0.29191175  1
  Se  Se212  1  0.42215705  0.07292038  0.80691981  1
  Se  Se213  1  0.42619767  0.42799870  0.30904568  1
  Se  Se214  1  0.41541678  0.40977007  0.80332455  1
  Se  Se215  1  0.41412628  0.75233207  0.29676698  1
  Se  Se216  1  0.41465394  0.74403079  0.81010547  1
  Se  Se217  1  0.74680600  0.07874516  0.30261354  1
  Se  Se218  1  0.75563733  0.09036830  0.81237090  1
  Se  Se219  1  0.75869851  0.42148734  0.31492342  1
  Se  Se220  1  0.74566816  0.41819897  0.80978483  1
  Se  Se221  1  0.74799033  0.74727410  0.29741921  1
  Se  Se222  1  0.75164121  0.75856410  0.80115959  1
  Se  Se223  1  0.24909135  0.09033774  0.19804069  1
  Se  Se224  1  0.24932991  0.06676587  0.70444909  1
  Se  Se225  1  0.24678847  0.42607633  0.18668239  1
  Se  Se226  1  0.25141867  0.41417583  0.69585348  1
  Se  Se227  1  0.25184460  0.74987499  0.19422069  1
  Se  Se228  1  0.25284926  0.74204615  0.69620507  1
  Se  Se229  1  0.58698333  0.07744332  0.18712657  1
  Se  Se230  1  0.57660569  0.09057453  0.68778853  1
  Se  Se231  1  0.58305524  0.42325872  0.19104644  1
  Se  Se232  1  0.58608969  0.41648073  0.70453168  1
  Se  Se233  1  0.58271266  0.75175812  0.19191737  1
  Se  Se234  1  0.58526432  0.75249913  0.69909711  1
  Se  Se235  1  0.91728826  0.07696765  0.19913238  1
  Se  Se236  1  0.90742398  0.09158385  0.69221976  1
  Se  Se237  1  0.91557384  0.40791436  0.19591383  1
  Se  Se238  1  0.91590061  0.42385461  0.70298894  1
  Se  Se239  1  0.91892248  0.74563760  0.19699118  1
  Se  Se240  1  0.90783397  0.76097427  0.69371064  1
  Se  Se241  1  0.07940644  0.25349463  0.19982410  1
  Se  Se242  1  0.08550478  0.24188732  0.70064776  1
  Se  Se243  1  0.07994092  0.58554439  0.19557014  1
  Se  Se244  1  0.09057457  0.57962307  0.68577829  1
  Se  Se245  1  0.08329543  0.91734616  0.19991388  1
  Se  Se246  1  0.08867044  0.90509941  0.69163594  1
  Se  Se247  1  0.42546462  0.25324444  0.18518322  1
  Se  Se248  1  0.41747697  0.24504943  0.70405870  1
  Se  Se249  1  0.41351586  0.59024328  0.19601120  1
  Se  Se250  1  0.42026905  0.58068616  0.69994474  1
  Se  Se251  1  0.41189708  0.92175934  0.18961029  1
  Se  Se252  1  0.41646957  0.91408122  0.70233229  1
  Se  Se253  1  0.74607017  0.23661761  0.18455251  1
  Se  Se254  1  0.74722230  0.25668727  0.70098402  1
  Se  Se255  1  0.74609696  0.57732657  0.19350468  1
  Se  Se256  1  0.74759425  0.58939365  0.70035297  1
  Se  Se257  1  0.74802004  0.91421830  0.19324966  1
  Se  Se258  1  0.75832270  0.91654552  0.69139283  1
