# generated using pymatgen
data_In86Cu29Se144
_symmetry_space_group_name_H-M   'P 1'
_cell_length_a   17.57671635
_cell_length_b   17.57579066
_cell_length_c   23.43230131
_cell_angle_alpha   89.97942193
_cell_angle_beta   89.99019459
_cell_angle_gamma   90.00020043
_symmetry_Int_Tables_number   1
_chemical_formula_structural   In86Cu29Se144
_chemical_formula_sum   'In86 Cu29 Se144'
_cell_volume   7238.81577742
_cell_formula_units_Z   1
loop_
 _symmetry_equiv_pos_site_id
 _symmetry_equiv_pos_as_xyz
  1  'x, y, z'
loop_
 _atom_site_type_symbol
 _atom_site_label
 _atom_site_symmetry_multiplicity
 _atom_site_fract_x
 _atom_site_fract_y
 _atom_site_fract_z
 _atom_site_occupancy
  In  In0  1  -0.00886549  0.15481146  0.11222119  1
  In  In1  1  -0.00554359  0.14810068  0.62751672  1
  In  In2  1  0.00025896  0.50418853  0.11541119  1
  In  In3  1  0.00005698  0.52155766  0.63005989  1
  In  In4  1  -0.01012261  0.84749278  0.14064127  1
  In  In5  1  -0.00339052  0.83270736  0.62623663  1
  In  In6  1  0.33734902  0.17115870  0.11935815  1
  In  In7  1  0.32340935  0.17253560  0.62326105  1
  In  In8  1  0.33332416  0.50454299  0.11787990  1
  In  In9  1  0.35219582  0.50591678  0.61684076  1
  In  In10  1  0.32563943  0.82751590  0.12943406  1
  In  In11  1  0.32092284  0.81406866  0.60343838  1
  In  In12  1  0.66951399  0.16277623  0.11931240  1
  In  In13  1  0.67196482  0.15643827  0.63948908  1
  In  In14  1  0.66412440  0.50040225  0.11452458  1
  In  In15  1  0.67182460  0.50238489  0.62791988  1
  In  In16  1  0.68143309  0.82705847  0.12411265  1
  In  In17  1  0.66683438  0.83435787  0.62633812  1
  In  In18  1  0.16282247  0.00071903  0.38188011  1
  In  In19  1  0.15488628  0.00845325  0.87827931  1
  In  In20  1  0.15421734  0.32546869  0.37499294  1
  In  In21  1  0.17209868  0.33208257  0.88123260  1
  In  In22  1  0.16112038  0.69399465  0.37911294  1
  In  In23  1  0.15978180  0.66506193  0.86934845  1
  In  In24  1  0.50655884  -0.00832282  0.37938515  1
  In  In25  1  0.51209431  -0.00079505  0.87573131  1
  In  In26  1  0.50434218  0.34530954  0.37451965  1
  In  In27  1  0.50548917  0.32892088  0.88027651  1
  In  In28  1  0.49507633  0.66834035  0.39222514  1
  In  In29  1  0.50187236  0.66007159  0.86734642  1
  In  In30  1  0.81990045  -0.01261118  0.36114458  1
  In  In31  1  0.83514099  -0.00083376  0.87493961  1
  In  In32  1  0.84147888  0.33572861  0.37514751  1
  In  In33  1  0.82241399  0.34234709  0.88151372  1
  In  In34  1  0.83841483  0.66626959  0.38101891  1
  In  In35  1  0.82761402  0.66711773  0.86819472  1
  In  In36  1  0.00982385  0.16119507  0.37413086  1
  In  In37  1  0.00372294  0.15797086  0.88028528  1
  In  In38  1  -0.01902851  0.50463408  0.37691967  1
  In  In39  1  -0.00668259  0.50984297  0.88275235  1
  In  In40  1  -0.00498737  0.83154766  0.37589853  1
  In  In41  1  -0.02668073  0.81560757  0.85103073  1
  In  In42  1  0.32835004  0.14386568  0.38048315  1
  In  In43  1  0.32846022  0.17188077  0.88299413  1
  In  In44  1  0.33896558  0.51804296  0.38073986  1
  In  In45  1  0.32990112  0.50868717  0.88047846  1
  In  In46  1  0.33023358  0.84450073  0.40663084  1
  In  In47  1  0.34229033  0.82855448  0.86730120  1
  In  In48  1  0.67750528  0.15208322  0.37239882  1
  In  In49  1  0.66603150  0.16661947  0.87844532  1
  In  In50  1  0.66154022  0.51122876  0.38485071  1
  In  In51  1  0.66774683  0.49917583  0.87080155  1
  In  In52  1  0.66283282  0.84906540  0.38919559  1
  In  In53  1  0.69247604  0.85321565  0.84840353  1
  In  In54  1  0.13727953  -0.00015650  0.12904326  1
  In  In55  1  0.15587474  -0.02002616  0.60498827  1
  In  In56  1  0.16623658  0.33405651  0.11677180  1
  In  In57  1  0.17259268  0.33122932  0.62435538  1
  In  In58  1  0.16264275  0.66182284  0.12376537  1
  In  In59  1  0.15322835  0.67992804  0.63357413  1
  In  In60  1  0.50159539  0.01028948  0.12553954  1
  In  In61  1  0.51249954  -0.00912246  0.62314022  1
  In  In62  1  0.50643207  0.33925141  0.11944495  1
  In  In63  1  0.50470957  0.34469009  0.62526498  1
  In  In64  1  0.50819243  0.66605526  0.12092826  1
  In  In65  1  0.50187774  0.66848194  0.62180485  1
  In  In66  1  0.83742283  -0.00068334  0.12538767  1
  In  In67  1  0.83190062  -0.01684096  0.63582012  1
  In  In68  1  0.83148549  0.33176942  0.11422166  1
  In  In69  1  0.81747203  0.33177851  0.63155226  1
  In  In70  1  0.83918738  0.67705497  0.11290060  1
  In  In71  1  0.83891592  0.67394951  0.62881968  1
  In  In72  1  0.33800609  0.33801639  0.74906854  1
  In  In73  1  0.67080214  0.66814003  0.25772209  1
  In  In74  1  0.67054370  0.33426270  0.23573054  1
  In  In75  1  0.33087602  0.33545517  0.25919649  1
  In  In76  1  0.33251692  0.67238115  0.25641047  1
  In  In77  1  0.16063161  0.83893141  0.00293914  1
  In  In78  1  0.33708304  -0.00365738  0.74149612  1
  In  In79  1  0.16490733  0.50060876  0.50168680  1
  In  In80  1  0.33016393  -0.00746974  0.25989998  1
  In  In81  1  -0.00175496  0.33696431  0.76482595  1
  In  In82  1  -0.00363830  0.32653095  0.24886092  1
  In  In83  1  0.51040706  0.83008246  -0.01169896  1
  In  In84  1  0.83185606  0.16065255  0.50493930  1
  In  In85  1  0.49815367  0.16615961  0.49981726  1
  Cu  Cu86  1  0.15600189  0.15979906  0.74839087  1
  Cu  Cu87  1  0.16244597  0.15388732  0.24591744  1
  Cu  Cu88  1  0.33744564  0.33657927  0.00021371  1
  Cu  Cu89  1  0.33121305  0.00816283  0.00256256  1
  Cu  Cu90  1  0.67504494  0.66411052  0.50836576  1
  Cu  Cu91  1  0.50857458  0.50394561  0.74607419  1
  Cu  Cu92  1  0.82669312  0.50159541  0.24945271  1
  Cu  Cu93  1  0.32719439  0.32756236  0.50049423  1
  Cu  Cu94  1  0.49945084  0.82268430  0.74469476  1
  Cu  Cu95  1  0.15990538  0.50655069  0.24504765  1
  Cu  Cu96  1  0.50549985  0.16352205  0.75452482  1
  Cu  Cu97  1  0.33406199  0.66461492  -0.00371561  1
  Cu  Cu98  1  0.83547382  0.50311954  0.75261846  1
  Cu  Cu99  1  0.16930497  0.84130238  0.74094005  1
  Cu  Cu100  1  0.83660063  0.83737898  0.24886995  1
  Cu  Cu101  1  0.50267083  0.83584211  0.26184534  1
  Cu  Cu102  1  -0.00417026  0.67494780  0.50439102  1
  Cu  Cu103  1  0.51231381  0.16911442  0.24565882  1
  Cu  Cu104  1  0.00325067  0.33105964  -0.00290690  1
  Cu  Cu105  1  -0.00403552  0.33285874  0.49818788  1
  Cu  Cu106  1  0.66587665  0.33752163  0.50343480  1
  Cu  Cu107  1  0.17627085  0.51233252  0.75282554  1
  Cu  Cu108  1  0.67194523  -0.00096199  -0.00304815  1
  Cu  Cu109  1  -0.00780268  -0.00781248  -0.00139099  1
  Cu  Cu110  1  0.82430241  0.16119990  0.75424264  1
  Cu  Cu111  1  -0.00329830  0.66994189  -0.00699659  1
  Cu  Cu112  1  0.66888814  0.66299707  -0.00972237  1
  Cu  Cu113  1  0.66718983  0.33399547  -0.00162467  1
  Cu  Cu114  1  -0.00139304  -0.00382771  0.50018986  1
  Se  Se115  1  0.08317753  0.07733300  0.04525927  1
  Se  Se116  1  0.07956613  0.08586117  0.55098482  1
  Se  Se117  1  0.08435270  0.41817696  0.05020746  1
  Se  Se118  1  0.07191993  0.41281789  0.56355501  1
  Se  Se119  1  0.06970382  0.74845363  0.06067137  1
  Se  Se120  1  0.08493397  0.75633982  0.55381792  1
  Se  Se121  1  0.42154133  0.08680126  0.05297735  1
  Se  Se122  1  0.41198170  0.08025471  0.56473285  1
  Se  Se123  1  0.41987000  0.42106068  0.05354732  1
  Se  Se124  1  0.41655270  0.40783454  0.54964006  1
  Se  Se125  1  0.41186732  0.75005675  0.05488693  1
  Se  Se126  1  0.43024510  0.75210211  0.54784303  1
  Se  Se127  1  0.75514036  0.07994595  0.05307100  1
  Se  Se128  1  0.74347281  0.07145886  0.56477365  1
  Se  Se129  1  0.75179084  0.42044965  0.04889198  1
  Se  Se130  1  0.75306887  0.41723536  0.55627626  1
  Se  Se131  1  0.74776566  0.75055497  0.04461966  1
  Se  Se132  1  0.75535379  0.75280130  0.55815686  1
  Se  Se133  1  0.25227913  0.25109245  0.05172974  1
  Se  Se134  1  0.24023275  0.24645151  0.54952785  1
  Se  Se135  1  0.24760309  0.58722119  0.05210882  1
  Se  Se136  1  0.24564338  0.58879210  0.56667917  1
  Se  Se137  1  0.25396335  0.92807431  0.06454817  1
  Se  Se138  1  0.25596644  0.91699657  0.54145676  1
  Se  Se139  1  0.58567823  0.25052849  0.05465731  1
  Se  Se140  1  0.59314115  0.24958048  0.56302623  1
  Se  Se141  1  0.58215414  0.58668353  0.04710054  1
  Se  Se142  1  0.58721221  0.57949858  0.55682527  1
  Se  Se143  1  0.58954629  0.91880463  0.05833111  1
  Se  Se144  1  0.58312012  0.90710743  0.55136842  1
  Se  Se145  1  0.91626682  0.24882351  0.04812467  1
  Se  Se146  1  0.91989703  0.25525271  0.56496746  1
  Se  Se147  1  0.91382801  0.58364163  0.04726708  1
  Se  Se148  1  0.91529237  0.58601577  0.55499787  1
  Se  Se149  1  0.91492232  0.90794552  0.05649238  1
  Se  Se150  1  0.91475609  0.91810180  0.55740939  1
  Se  Se151  1  0.07937576  0.24695875  0.44918473  1
  Se  Se152  1  0.08678070  0.24684947  0.94485525  1
  Se  Se153  1  0.07282010  0.58954096  0.44262452  1
  Se  Se154  1  0.08808903  0.58731914  0.94700600  1
  Se  Se155  1  0.08052235  0.91132759  0.44612922  1
  Se  Se156  1  0.06734488  0.91113506  0.93473685  1
  Se  Se157  1  0.40802180  0.25505949  0.43458756  1
  Se  Se158  1  0.41854136  0.24941381  0.94806644  1
  Se  Se159  1  0.41977519  0.57751900  0.45887383  1
  Se  Se160  1  0.42351700  0.58639955  0.94496179  1
  Se  Se161  1  0.42583005  0.93001821  0.45703454  1
  Se  Se162  1  0.40713448  0.92462463  0.94194577  1
  Se  Se163  1  0.74367814  0.25562047  0.44225411  1
  Se  Se164  1  0.75055623  0.24766227  0.94791572  1
  Se  Se165  1  0.75600658  0.58192732  0.44980821  1
  Se  Se166  1  0.75472111  0.57887923  0.94000046  1
  Se  Se167  1  0.76134140  0.92456232  0.44886993  1
  Se  Se168  1  0.74830621  0.91260122  0.94080828  1
  Se  Se169  1  0.24569263  0.07790280  0.45391914  1
  Se  Se170  1  0.24441590  0.08385901  0.94639898  1
  Se  Se171  1  0.25241693  0.40967006  0.43651930  1
  Se  Se172  1  0.25246484  0.41905699  0.94729311  1
  Se  Se173  1  0.26813944  0.72345341  0.44824382  1
  Se  Se174  1  0.25482218  0.75133614  0.94107103  1
  Se  Se175  1  0.59671448  0.07786978  0.44797265  1
  Se  Se176  1  0.58283390  0.08281995  0.94926458  1
  Se  Se177  1  0.58165959  0.41945955  0.44962644  1
  Se  Se178  1  0.58574526  0.41940713  0.94413565  1
  Se  Se179  1  0.59466665  0.74570275  0.44971032  1
  Se  Se180  1  0.60059883  0.74854241  0.92561682  1
  Se  Se181  1  0.91895345  0.07684073  0.43947454  1
  Se  Se182  1  0.91296720  0.08263529  0.94784934  1
  Se  Se183  1  0.91100439  0.41815509  0.45046414  1
  Se  Se184  1  0.91815082  0.41563857  0.94636272  1
  Se  Se185  1  0.91063894  0.75656077  0.45043083  1
  Se  Se186  1  0.91197693  0.75078761  0.93868660  1
  Se  Se187  1  0.24039989  0.23290890  0.30859566  1
  Se  Se188  1  0.24191302  0.24208523  0.80255802  1
  Se  Se189  1  0.23642270  0.58045670  0.31205335  1
  Se  Se190  1  0.26041439  0.59362414  0.80603485  1
  Se  Se191  1  0.24697010  0.89980096  0.32022048  1
  Se  Se192  1  0.24389324  0.91696777  0.80996804  1
  Se  Se193  1  0.58521929  0.25101306  0.30919383  1
  Se  Se194  1  0.58423172  0.25060111  0.80731069  1
  Se  Se195  1  0.57070563  0.58423311  0.31198163  1
  Se  Se196  1  0.59305418  0.58638695  0.79914483  1
  Se  Se197  1  0.59162993  0.92063804  0.30621184  1
  Se  Se198  1  0.57310050  0.91305608  0.79962616  1
  Se  Se199  1  0.90731921  0.23534266  0.30792627  1
  Se  Se200  1  0.90527466  0.24092368  0.81500814  1
  Se  Se201  1  0.90907563  0.58582582  0.30230335  1
  Se  Se202  1  0.92181867  0.58441751  0.80452987  1
  Se  Se203  1  0.92334943  0.91884728  0.30135711  1
  Se  Se204  1  0.92499161  0.93493042  0.80055266  1
  Se  Se205  1  0.08374550  0.07339540  0.30396332  1
  Se  Se206  1  0.07356639  0.07830468  0.80168170  1
  Se  Se207  1  0.08315470  0.42488321  0.30786043  1
  Se  Se208  1  0.09756225  0.42959259  0.81315190  1
  Se  Se209  1  0.06119929  0.73368090  0.30725756  1
  Se  Se210  1  0.09157809  0.75811257  0.80029924  1
  Se  Se211  1  0.43022688  0.08999795  0.30686514  1
  Se  Se212  1  0.41620640  0.08830684  0.81101030  1
  Se  Se213  1  0.42194928  0.43482246  0.30629492  1
  Se  Se214  1  0.42609015  0.42687362  0.80947619  1
  Se  Se215  1  0.41860359  0.76157390  0.32066372  1
  Se  Se216  1  0.41545979  0.74160403  0.79884799  1
  Se  Se217  1  0.75360811  0.08554072  0.29527764  1
  Se  Se218  1  0.74158854  0.07828939  0.80884591  1
  Se  Se219  1  0.74861953  0.42210882  0.31012826  1
  Se  Se220  1  0.75177615  0.41527885  0.80142105  1
  Se  Se221  1  0.75604009  0.76310179  0.31456480  1
  Se  Se222  1  0.76081662  0.75076964  0.79074510  1
  Se  Se223  1  0.25149522  0.08133146  0.18786377  1
  Se  Se224  1  0.23746677  0.08346413  0.68742166  1
  Se  Se225  1  0.24356149  0.42292501  0.19222149  1
  Se  Se226  1  0.24743558  0.42968018  0.68923430  1
  Se  Se227  1  0.23377055  0.75603813  0.19850758  1
  Se  Se228  1  0.25541535  0.75536048  0.69280907  1
  Se  Se229  1  0.59143908  0.08241587  0.19431784  1
  Se  Se230  1  0.58022210  0.07378782  0.70067760  1
  Se  Se231  1  0.57449405  0.43385757  0.19294150  1
  Se  Se232  1  0.58996699  0.41472056  0.69742349  1
  Se  Se233  1  0.57742565  0.75798083  0.19529937  1
  Se  Se234  1  0.58766087  0.74290099  0.69375576  1
  Se  Se235  1  0.93554457  0.06976909  0.19041149  1
  Se  Se236  1  0.90854532  0.08026722  0.69986561  1
  Se  Se237  1  0.90808024  0.42100985  0.18976691  1
  Se  Se238  1  0.91610325  0.42024293  0.69325783  1
  Se  Se239  1  0.91038517  0.74475665  0.19551962  1
  Se  Se240  1  0.93354790  0.74034316  0.69823590  1
  Se  Se241  1  0.08898199  0.24153563  0.18702282  1
  Se  Se242  1  0.08024746  0.25026641  0.69284803  1
  Se  Se243  1  0.07394758  0.58413413  0.19150122  1
  Se  Se244  1  0.08303137  0.59004513  0.70513935  1
  Se  Se245  1  0.09677283  0.90366425  0.20364371  1
  Se  Se246  1  0.08341611  0.92309823  0.69053958  1
  Se  Se247  1  0.42456265  0.25069631  0.19414755  1
  Se  Se248  1  0.42654191  0.24142656  0.69116818  1
  Se  Se249  1  0.41964176  0.58490480  0.19090526  1
  Se  Se250  1  0.42037500  0.58378999  0.69419459  1
  Se  Se251  1  0.42352563  0.90842931  0.19329603  1
  Se  Se252  1  0.41771389  0.89992822  0.68266977  1
  Se  Se253  1  0.76635201  0.23912972  0.18926660  1
  Se  Se254  1  0.74372792  0.25146637  0.70548775  1
  Se  Se255  1  0.75157520  0.58297072  0.18658707  1
  Se  Se256  1  0.75519361  0.58547311  0.69565327  1
  Se  Se257  1  0.75018016  0.91633353  0.19411714  1
  Se  Se258  1  0.74427171  0.90862501  0.70433373  1
