# generated using pymatgen
data_In86Cu29Se144
_symmetry_space_group_name_H-M   'P 1'
_cell_length_a   17.62722097
_cell_length_b   17.62580808
_cell_length_c   23.48806749
_cell_angle_alpha   89.98187498
_cell_angle_beta   89.98543626
_cell_angle_gamma   89.99325065
_symmetry_Int_Tables_number   1
_chemical_formula_structural   In86Cu29Se144
_chemical_formula_sum   'In86 Cu29 Se144'
_cell_volume   7297.60131570
_cell_formula_units_Z   1
loop_
 _symmetry_equiv_pos_site_id
 _symmetry_equiv_pos_as_xyz
  1  'x, y, z'
loop_
 _atom_site_type_symbol
 _atom_site_label
 _atom_site_symmetry_multiplicity
 _atom_site_fract_x
 _atom_site_fract_y
 _atom_site_fract_z
 _atom_site_occupancy
  In  In0  1  0.00754655  0.16423396  0.12503224  1
  In  In1  1  0.01445933  0.16652088  0.63810761  1
  In  In2  1  -0.00417034  0.50336913  0.12540407  1
  In  In3  1  0.00307930  0.49004726  0.62386932  1
  In  In4  1  -0.00731998  0.82261827  0.12292382  1
  In  In5  1  0.01922183  0.82988879  0.62836030  1
  In  In6  1  0.33947658  0.17329042  0.12847704  1
  In  In7  1  0.33348813  0.14416960  0.62455790  1
  In  In8  1  0.32835502  0.50129673  0.13188350  1
  In  In9  1  0.32824707  0.51563672  0.62119862  1
  In  In10  1  0.31565048  0.81213650  0.11621905  1
  In  In11  1  0.34056527  0.83412043  0.61986548  1
  In  In12  1  0.66627017  0.16078467  0.12821986  1
  In  In13  1  0.66608353  0.17168226  0.62865541  1
  In  In14  1  0.65572100  0.49668277  0.11665383  1
  In  In15  1  0.66835545  0.49305522  0.63695205  1
  In  In16  1  0.67439650  0.83962388  0.11785598  1
  In  In17  1  0.63579420  0.85931409  0.65503452  1
  In  In18  1  0.16228950  -0.01072706  0.37809374  1
  In  In19  1  0.15435079  -0.02089060  0.84942535  1
  In  In20  1  0.17181356  0.35071161  0.35789967  1
  In  In21  1  0.16233439  0.34701328  0.87810073  1
  In  In22  1  0.17205556  0.67941910  0.36997302  1
  In  In23  1  0.16255573  0.67309787  0.88376269  1
  In  In24  1  0.50418888  -0.00794561  0.38155347  1
  In  In25  1  0.49081953  -0.01469960  0.85565111  1
  In  In26  1  0.49447170  0.33328704  0.37278813  1
  In  In27  1  0.50600199  0.33104448  0.87844139  1
  In  In28  1  0.49646556  0.68246596  0.37651626  1
  In  In29  1  0.50345892  0.66222909  0.88212007  1
  In  In30  1  0.83126484  0.01415438  0.37536010  1
  In  In31  1  0.82882957  -0.00640995  0.86819481  1
  In  In32  1  0.84579920  0.34515504  0.36311907  1
  In  In33  1  0.83940830  0.33722291  0.87879738  1
  In  In34  1  0.83602546  0.65888674  0.37175024  1
  In  In35  1  0.82725454  0.67786358  0.88787868  1
  In  In36  1  -0.00551787  0.17103480  0.37151242  1
  In  In37  1  0.00359861  0.15949050  0.86401548  1
  In  In38  1  0.04823775  0.54394816  0.31886642  1
  In  In39  1  0.00398826  0.49881025  0.88604407  1
  In  In40  1  0.01039312  0.83958237  0.37129747  1
  In  In41  1  0.00312252  0.83993430  0.87944138  1
  In  In42  1  0.33669596  0.18159952  0.37800101  1
  In  In43  1  0.34443004  0.16276199  0.87164086  1
  In  In44  1  0.31437889  0.49619437  0.35729973  1
  In  In45  1  0.32592790  0.50478587  0.88895764  1
  In  In46  1  0.33510203  0.83151795  0.37487599  1
  In  In47  1  0.32985698  0.83927287  0.87379124  1
  In  In48  1  0.66055888  0.16476126  0.37457530  1
  In  In49  1  0.66403950  0.16375499  0.86643617  1
  In  In50  1  0.67955886  0.50089585  0.37039472  1
  In  In51  1  0.66726594  0.49879846  0.88245877  1
  In  In52  1  0.64994050  0.82858481  0.37599432  1
  In  In53  1  0.66507306  0.83356900  0.87308149  1
  In  In54  1  0.16190499  -0.01241972  0.11591172  1
  In  In55  1  0.19528626  -0.02213517  0.65608893  1
  In  In56  1  0.14864664  0.35496671  0.14572978  1
  In  In57  1  0.15735145  0.33123256  0.62037584  1
  In  In58  1  0.16625368  0.66264536  0.13473524  1
  In  In59  1  0.17307864  0.66597869  0.61484817  1
  In  In60  1  0.51206381  -0.00440894  0.12315969  1
  In  In61  1  0.49507758  -0.00073021  0.62371557  1
  In  In62  1  0.48667333  0.34673519  0.13601977  1
  In  In63  1  0.51575053  0.33368553  0.62186508  1
  In  In64  1  0.49079965  0.65999982  0.11908023  1
  In  In65  1  0.49800634  0.68383872  0.63075470  1
  In  In66  1  0.82858178  -0.03157665  0.12199234  1
  In  In67  1  0.83645528  0.00020067  0.63512655  1
  In  In68  1  0.82012472  0.33536931  0.12551085  1
  In  In69  1  0.84163117  0.32812327  0.63255095  1
  In  In70  1  0.84787522  0.68140725  0.11889955  1
  In  In71  1  0.82594303  0.65483057  0.62822258  1
  In  In72  1  -0.00721475  -0.00185493  0.24148409  1
  In  In73  1  0.84208909  0.49715711  0.49568668  1
  In  In74  1  0.33266244  0.33210435  0.74951695  1
  In  In75  1  0.33597107  0.66989665  0.75397384  1
  In  In76  1  0.83503727  0.16959925  0.50746352  1
  In  In77  1  0.82598516  0.82722157  0.50404910  1
  In  In78  1  0.49495466  0.50054621  0.49730714  1
  In  In79  1  0.33553495  -0.00180758  0.25016364  1
  In  In80  1  0.17326420  0.16540186  -0.00109315  1
  In  In81  1  -0.00293573  0.66842129  0.76093883  1
  In  In82  1  0.67097616  0.67149766  0.24772575  1
  In  In83  1  0.83373034  0.15990336  -0.01035537  1
  In  In84  1  0.16846942  0.16181038  0.50329087  1
  In  In85  1  0.50175680  0.16430150  -0.00202538  1
  Cu  Cu86  1  0.33217324  0.66716798  0.00530079  1
  Cu  Cu87  1  0.01231065  0.66186479  0.48883233  1
  Cu  Cu88  1  0.65749736  0.67105637  0.50939059  1
  Cu  Cu89  1  0.50555750  0.17088042  0.25140205  1
  Cu  Cu90  1  0.33255173  0.33537332  0.49085810  1
  Cu  Cu91  1  0.82748433  0.49389897  0.75717974  1
  Cu  Cu92  1  0.65770631  -0.00619528  0.50236614  1
  Cu  Cu93  1  0.00016036  0.33630837  0.00488463  1
  Cu  Cu94  1  0.32507048  0.66409909  0.49433890  1
  Cu  Cu95  1  0.83247231  0.17252904  0.75252615  1
  Cu  Cu96  1  0.33466308  -0.00776735  0.50373453  1
  Cu  Cu97  1  0.15790434  0.49928530  0.75235857  1
  Cu  Cu98  1  0.66856993  0.66864324  0.00114068  1
  Cu  Cu99  1  0.50666808  0.49640542  0.75737888  1
  Cu  Cu100  1  0.50219377  0.50332688  0.24539961  1
  Cu  Cu101  1  0.32625229  0.34244021  0.01064454  1
  Cu  Cu102  1  0.83443195  0.82556729  0.75813241  1
  Cu  Cu103  1  0.33468174  -0.00727748  -0.00605267  1
  Cu  Cu104  1  0.50225699  0.16332435  0.74561272  1
  Cu  Cu105  1  0.00889000  0.66304960  0.00494601  1
  Cu  Cu106  1  0.66731745  -0.00885369  -0.00610633  1
  Cu  Cu107  1  0.01122120  0.33872532  0.49480004  1
  Cu  Cu108  1  0.65836102  0.33792397  0.00397611  1
  Cu  Cu109  1  0.82615505  0.49630525  0.23981344  1
  Cu  Cu110  1  0.00926730  -0.00678855  0.50652100  1
  Cu  Cu111  1  0.82505076  0.16655868  0.24842828  1
  Cu  Cu112  1  0.49901768  0.83663124  0.24875685  1
  Cu  Cu113  1  0.67249040  0.32883689  0.50029034  1
  Cu  Cu114  1  0.16925049  0.16769910  0.24923285  1
  Se  Se115  1  0.07391159  0.07425125  0.05070610  1
  Se  Se116  1  0.08506870  0.07412428  0.56708183  1
  Se  Se117  1  0.08309097  0.41797946  0.05928545  1
  Se  Se118  1  0.09043761  0.42387713  0.54933296  1
  Se  Se119  1  0.08811443  0.74499988  0.06161102  1
  Se  Se120  1  0.08363495  0.74684144  0.55036043  1
  Se  Se121  1  0.40830585  0.07493920  0.05763505  1
  Se  Se122  1  0.41882670  0.08152709  0.54895765  1
  Se  Se123  1  0.41540278  0.42381514  0.05908478  1
  Se  Se124  1  0.40768671  0.41028717  0.56094567  1
  Se  Se125  1  0.42002167  0.75390272  0.05122135  1
  Se  Se126  1  0.41165726  0.73990103  0.55211995  1
  Se  Se127  1  0.74419687  0.07445873  0.05439753  1
  Se  Se128  1  0.74432690  0.07151716  0.55925225  1
  Se  Se129  1  0.74884288  0.41847020  0.05155074  1
  Se  Se130  1  0.75098120  0.41043292  0.56003251  1
  Se  Se131  1  0.75402141  0.75287833  0.05136070  1
  Se  Se132  1  0.73766087  0.74768371  0.57022965  1
  Se  Se133  1  0.24676388  0.25873847  0.06751250  1
  Se  Se134  1  0.26142684  0.25530373  0.55911942  1
  Se  Se135  1  0.25021074  0.58590555  0.06146443  1
  Se  Se136  1  0.24361242  0.57608048  0.54377365  1
  Se  Se137  1  0.25127204  0.91269079  0.04950010  1
  Se  Se138  1  0.24668584  0.92022110  0.56179016  1
  Se  Se139  1  0.58072736  0.25577268  0.06410238  1
  Se  Se140  1  0.58808892  0.24621547  0.55134674  1
  Se  Se141  1  0.57992828  0.58572557  0.04973101  1
  Se  Se142  1  0.58409596  0.58057726  0.56551132  1
  Se  Se143  1  0.58157172  0.91246672  0.04875860  1
  Se  Se144  1  0.58133984  0.90960295  0.55978005  1
  Se  Se145  1  0.91823643  0.24923617  0.05753100  1
  Se  Se146  1  0.93479299  0.25859297  0.55786119  1
  Se  Se147  1  0.91708585  0.58436750  0.05340511  1
  Se  Se148  1  0.92908482  0.59275995  0.55589052  1
  Se  Se149  1  0.93035216  0.92093759  0.05442142  1
  Se  Se150  1  0.92050884  0.91705478  0.56184550  1
  Se  Se151  1  0.08711044  0.25180104  0.43677447  1
  Se  Se152  1  0.07458723  0.25384134  0.94263401  1
  Se  Se153  1  0.08122106  0.58136273  0.42446479  1
  Se  Se154  1  0.09159780  0.58041739  0.95100358  1
  Se  Se155  1  0.08676055  0.90900013  0.45090501  1
  Se  Se156  1  0.10104212  0.91621348  0.93891171  1
  Se  Se157  1  0.42470231  0.25158247  0.44967419  1
  Se  Se158  1  0.40356701  0.26059674  0.94824668  1
  Se  Se159  1  0.40666600  0.58537977  0.43373925  1
  Se  Se160  1  0.41612522  0.58431506  0.95134155  1
  Se  Se161  1  0.41648115  0.91118022  0.44640902  1
  Se  Se162  1  0.42304571  0.91731349  0.93974340  1
  Se  Se163  1  0.75752822  0.25802628  0.43780190  1
  Se  Se164  1  0.73469720  0.25434112  0.94293666  1
  Se  Se165  1  0.74049938  0.59405784  0.44875595  1
  Se  Se166  1  0.75168772  0.58187449  0.95065110  1
  Se  Se167  1  0.74390752  0.92258757  0.44089419  1
  Se  Se168  1  0.75517521  0.91156808  0.94216589  1
  Se  Se169  1  0.25997205  0.07406444  0.43884202  1
  Se  Se170  1  0.25782420  0.07680059  0.93602511  1
  Se  Se171  1  0.24930408  0.41741904  0.43827826  1
  Se  Se172  1  0.24129904  0.41980183  0.95393946  1
  Se  Se173  1  0.24786510  0.75731212  0.44596209  1
  Se  Se174  1  0.25703498  0.75058876  0.94487393  1
  Se  Se175  1  0.58351263  0.08276222  0.44673326  1
  Se  Se176  1  0.58530948  0.07281219  0.93578808  1
  Se  Se177  1  0.59620893  0.41523489  0.44171017  1
  Se  Se178  1  0.57526208  0.41906346  0.94931842  1
  Se  Se179  1  0.57727705  0.75245080  0.45317427  1
  Se  Se180  1  0.58651687  0.75113272  0.94566658  1
  Se  Se181  1  0.93022445  0.07705894  0.44905517  1
  Se  Se182  1  0.92799735  0.07111707  0.93575498  1
  Se  Se183  1  0.93435759  0.41857907  0.43353641  1
  Se  Se184  1  0.91472042  0.41816856  0.95216525  1
  Se  Se185  1  0.92044390  0.74456743  0.44076218  1
  Se  Se186  1  0.93035266  0.74727870  0.94687498  1
  Se  Se187  1  0.25210899  0.24857124  0.30367895  1
  Se  Se188  1  0.24492408  0.25058511  0.81514963  1
  Se  Se189  1  0.25541747  0.60214230  0.29759632  1
  Se  Se190  1  0.24084921  0.57800504  0.81035853  1
  Se  Se191  1  0.23985157  0.90859562  0.30394145  1
  Se  Se192  1  0.26747290  0.92191045  0.79452194  1
  Se  Se193  1  0.58521786  0.25511692  0.30711269  1
  Se  Se194  1  0.57620995  0.24889238  0.80362422  1
  Se  Se195  1  0.57845811  0.58276845  0.31085365  1
  Se  Se196  1  0.58524677  0.58094474  0.81176306  1
  Se  Se197  1  0.58103125  0.91748905  0.30422489  1
  Se  Se198  1  0.59908931  0.92333636  0.79946790  1
  Se  Se199  1  0.91494862  0.24578749  0.29839007  1
  Se  Se200  1  0.91553866  0.25184634  0.80831979  1
  Se  Se201  1  0.90518975  0.57858567  0.29706899  1
  Se  Se202  1  0.90655360  0.57658219  0.81710600  1
  Se  Se203  1  0.90640366  0.91679340  0.31081081  1
  Se  Se204  1  0.92035547  0.91191866  0.80475074  1
  Se  Se205  1  0.08839891  0.08470713  0.30748838  1
  Se  Se206  1  0.09902853  0.09513311  0.79711885  1
  Se  Se207  1  0.05885449  0.39974093  0.30058073  1
  Se  Se208  1  0.07495296  0.41987372  0.80721888  1
  Se  Se209  1  0.06697855  0.74083118  0.30440114  1
  Se  Se210  1  0.09656974  0.75943584  0.80637976  1
  Se  Se211  1  0.42294418  0.09004956  0.31154681  1
  Se  Se212  1  0.41363923  0.08296399  0.79528439  1
  Se  Se213  1  0.42126641  0.42197674  0.30390555  1
  Se  Se214  1  0.41501251  0.42491227  0.81433287  1
  Se  Se215  1  0.41589856  0.75359939  0.30150908  1
  Se  Se216  1  0.42882131  0.75597749  0.81055457  1
  Se  Se217  1  0.74469807  0.08466504  0.30454683  1
  Se  Se218  1  0.75123841  0.08343103  0.80147136  1
  Se  Se219  1  0.74717692  0.41440375  0.29796056  1
  Se  Se220  1  0.74622436  0.41138893  0.81257793  1
  Se  Se221  1  0.75528133  0.76019308  0.31235229  1
  Se  Se222  1  0.74941687  0.74337015  0.80816852  1
  Se  Se223  1  0.24113464  0.08435598  0.18676055  1
  Se  Se224  1  0.22710401  0.11148923  0.69380244  1
  Se  Se225  1  0.26146861  0.40734808  0.20168704  1
  Se  Se226  1  0.24492337  0.42820001  0.69071625  1
  Se  Se227  1  0.25219231  0.74660778  0.20039568  1
  Se  Se228  1  0.24570482  0.75142036  0.68932079  1
  Se  Se229  1  0.57963298  0.08231792  0.19642800  1
  Se  Se230  1  0.58416442  0.08136294  0.69071243  1
  Se  Se231  1  0.58791392  0.41910747  0.19665951  1
  Se  Se232  1  0.58268952  0.40930115  0.70211808  1
  Se  Se233  1  0.57705372  0.75499515  0.18662096  1
  Se  Se234  1  0.59621789  0.73333725  0.70126922  1
  Se  Se235  1  0.90033672  0.08742668  0.18284840  1
  Se  Se236  1  0.91636704  0.09019249  0.69828664  1
  Se  Se237  1  0.91227082  0.41328534  0.18946071  1
  Se  Se238  1  0.91519014  0.42322591  0.69699424  1
  Se  Se239  1  0.91241732  0.75510581  0.19982862  1
  Se  Se240  1  0.91168826  0.75153409  0.68996323  1
  Se  Se241  1  0.07833778  0.24552392  0.19922071  1
  Se  Se242  1  0.07231931  0.27541142  0.69742071  1
  Se  Se243  1  0.08301919  0.57302815  0.19855024  1
  Se  Se244  1  0.08587873  0.58495810  0.69085390  1
  Se  Se245  1  0.08931734  0.90727796  0.19227378  1
  Se  Se246  1  0.07389845  0.92295254  0.70077407  1
  Se  Se247  1  0.41561783  0.25090975  0.20207413  1
  Se  Se248  1  0.42175270  0.24546045  0.68538332  1
  Se  Se249  1  0.41671790  0.58706260  0.19685203  1
  Se  Se250  1  0.42678003  0.57436655  0.69481883  1
  Se  Se251  1  0.41727116  0.90966916  0.18428422  1
  Se  Se252  1  0.41604163  0.91396861  0.69200301  1
  Se  Se253  1  0.74217578  0.25032452  0.19514574  1
  Se  Se254  1  0.74872768  0.25363395  0.69719518  1
  Se  Se255  1  0.75128333  0.58274132  0.18105551  1
  Se  Se256  1  0.74878830  0.57972977  0.70310244  1
  Se  Se257  1  0.73341647  0.92404279  0.19678084  1
  Se  Se258  1  0.75771952  0.91338388  0.70199346  1
