# generated using pymatgen
data_In86Cu29Se144
_symmetry_space_group_name_H-M   'P 1'
_cell_length_a   17.58515319
_cell_length_b   17.57865192
_cell_length_c   23.44517124
_cell_angle_alpha   90.00400890
_cell_angle_beta   89.97758814
_cell_angle_gamma   90.00019831
_symmetry_Int_Tables_number   1
_chemical_formula_structural   In86Cu29Se144
_chemical_formula_sum   'In86 Cu29 Se144'
_cell_volume   7247.44782155
_cell_formula_units_Z   1
loop_
 _symmetry_equiv_pos_site_id
 _symmetry_equiv_pos_as_xyz
  1  'x, y, z'
loop_
 _atom_site_type_symbol
 _atom_site_label
 _atom_site_symmetry_multiplicity
 _atom_site_fract_x
 _atom_site_fract_y
 _atom_site_fract_z
 _atom_site_occupancy
  In  In0  1  0.00454548  0.18001451  0.12206707  1
  In  In1  1  0.00016359  0.16194739  0.62060752  1
  In  In2  1  -0.00323304  0.49441016  0.12553482  1
  In  In3  1  -0.00060006  0.51158208  0.62514697  1
  In  In4  1  -0.00778109  0.83889783  0.12177850  1
  In  In5  1  0.00064137  0.81437474  0.62370798  1
  In  In6  1  0.32525402  0.17097367  0.12052744  1
  In  In7  1  0.33308581  0.16545107  0.62393019  1
  In  In8  1  0.33874393  0.51348545  0.12585666  1
  In  In9  1  0.34258312  0.48797032  0.63444996  1
  In  In10  1  0.32679182  0.82216996  0.11850512  1
  In  In11  1  0.33342366  0.83498011  0.62938235  1
  In  In12  1  0.67885296  0.17492448  0.12234429  1
  In  In13  1  0.65524427  0.20940971  0.62732938  1
  In  In14  1  0.67866403  0.48243862  0.13199148  1
  In  In15  1  0.66640429  0.49922211  0.62258524  1
  In  In16  1  0.66779730  0.83137844  0.11453297  1
  In  In17  1  0.64887203  0.83379401  0.62650341  1
  In  In18  1  0.16592490  -0.00717531  0.38240727  1
  In  In19  1  0.18788054  0.00749619  0.87827818  1
  In  In20  1  0.15554273  0.32826872  0.37540686  1
  In  In21  1  0.17266189  0.32809895  0.88107081  1
  In  In22  1  0.17022610  0.66304642  0.37065669  1
  In  In23  1  0.15475659  0.65675002  0.86875594  1
  In  In24  1  0.49547805  -0.00024042  0.38456955  1
  In  In25  1  0.47932841  -0.00395266  0.87266407  1
  In  In26  1  0.51469113  0.32191762  0.39427836  1
  In  In27  1  0.50969489  0.34340223  0.86302694  1
  In  In28  1  0.49809839  0.66833424  0.38530214  1
  In  In29  1  0.51057419  0.67114851  0.86837761  1
  In  In30  1  0.82915198  0.01555502  0.37034513  1
  In  In31  1  0.82930158  0.00015007  0.88203522  1
  In  In32  1  0.83653643  0.34224719  0.36740917  1
  In  In33  1  0.82806744  0.33722494  0.88001418  1
  In  In34  1  0.82738414  0.64253151  0.36995595  1
  In  In35  1  0.83665544  0.66274919  0.87493090  1
  In  In36  1  -0.00090638  0.18331014  0.36836455  1
  In  In37  1  -0.00086734  0.17178581  0.88515952  1
  In  In38  1  -0.01675978  0.48641023  0.35689643  1
  In  In39  1  -0.01111503  0.51137082  0.88245967  1
  In  In40  1  0.01338749  0.83274730  0.37263957  1
  In  In41  1  0.00031215  0.81721016  0.87548647  1
  In  In42  1  0.33103957  0.16761752  0.38195331  1
  In  In43  1  0.32902834  0.16248749  0.86695827  1
  In  In44  1  0.33398818  0.51366800  0.37648979  1
  In  In45  1  0.32901689  0.49254013  0.86579561  1
  In  In46  1  0.33804276  0.81979067  0.38429357  1
  In  In47  1  0.34231173  0.83948996  0.86924429  1
  In  In48  1  0.66345326  0.16636860  0.37307787  1
  In  In49  1  0.67003794  0.18035938  0.87064170  1
  In  In50  1  0.68455275  0.47904778  0.40776256  1
  In  In51  1  0.68992877  0.51226762  0.85438698  1
  In  In52  1  0.66462268  0.82343461  0.38236933  1
  In  In53  1  0.67460489  0.82117127  0.88155896  1
  In  In54  1  0.15937037  0.00520140  0.12121923  1
  In  In55  1  0.17945479  0.00929832  0.62029663  1
  In  In56  1  0.14771868  0.32109768  0.11862127  1
  In  In57  1  0.17903068  0.33313287  0.62459463  1
  In  In58  1  0.17416119  0.65647238  0.12677060  1
  In  In59  1  0.16404307  0.67475810  0.63091347  1
  In  In60  1  0.51154817  0.00057250  0.12197458  1
  In  In61  1  0.49174620  -0.00914564  0.62095790  1
  In  In62  1  0.51058401  0.34452388  0.13035810  1
  In  In63  1  0.49952134  0.33230855  0.61701103  1
  In  In64  1  0.49037878  0.66552564  0.12527840  1
  In  In65  1  0.49667725  0.66631793  0.63041611  1
  In  In66  1  0.83757846  0.00391013  0.11217687  1
  In  In67  1  0.83057060  0.00640849  0.62766696  1
  In  In68  1  0.83893520  0.33669690  0.12333251  1
  In  In69  1  0.80809784  0.35021483  0.63675411  1
  In  In70  1  0.83727280  0.66727094  0.12257633  1
  In  In71  1  0.83731728  0.64897432  0.63808700  1
  In  In72  1  0.50861551  0.50489862  -0.00108035  1
  In  In73  1  0.33161532  -0.00333785  0.24166962  1
  In  In74  1  0.16809458  0.50137427  0.49835728  1
  In  In75  1  0.66760714  0.00541130  0.25452566  1
  In  In76  1  0.65963255  0.00211058  0.74944775  1
  In  In77  1  0.66887545  0.65536085  0.24906079  1
  In  In78  1  0.49378345  0.16299683  -0.00954911  1
  In  In79  1  -0.00111289  0.00317174  0.24394567  1
  In  In80  1  0.83488135  0.82853946  0.50121893  1
  In  In81  1  0.00606110  -0.00331478  0.74822481  1
  In  In82  1  -0.00353878  0.33945899  0.75608586  1
  In  In83  1  0.16789005  0.83544767  -0.00534347  1
  In  In84  1  0.32761407  0.34198757  0.25493744  1
  In  In85  1  0.83679272  0.17040057  0.50171433  1
  Cu  Cu86  1  0.66284766  -0.00470675  -0.00324376  1
  Cu  Cu87  1  0.83483422  0.83291506  0.24348352  1
  Cu  Cu88  1  0.49558437  0.83132878  0.74943877  1
  Cu  Cu89  1  -0.00183493  0.66250072  0.00034225  1
  Cu  Cu90  1  0.33012280  0.33712952  -0.00388030  1
  Cu  Cu91  1  0.33409795  0.32746689  0.50389360  1
  Cu  Cu92  1  0.66440717  0.00609417  0.50247997  1
  Cu  Cu93  1  0.49903348  0.49577251  0.74235309  1
  Cu  Cu94  1  0.17632667  0.82058916  0.25053641  1
  Cu  Cu95  1  0.49483430  0.82484451  0.25581907  1
  Cu  Cu96  1  0.49744776  0.17793976  0.25705025  1
  Cu  Cu97  1  0.66006667  0.66968859  0.50776969  1
  Cu  Cu98  1  -0.00174357  0.66044676  0.49842167  1
  Cu  Cu99  1  0.33540075  0.66788102  -0.00167748  1
  Cu  Cu100  1  0.17064310  0.83268155  0.75310878  1
  Cu  Cu101  1  0.33168079  0.67028017  0.50701975  1
  Cu  Cu102  1  -0.00015540  0.33697384  0.00142219  1
  Cu  Cu103  1  -0.00418781  0.33355757  0.49460473  1
  Cu  Cu104  1  0.16670353  0.50278562  0.74912414  1
  Cu  Cu105  1  -0.00175543  0.00225780  -0.00040754  1
  Cu  Cu106  1  0.16969970  0.17032454  0.75076574  1
  Cu  Cu107  1  0.01045712  -0.00290307  0.50151694  1
  Cu  Cu108  1  0.49672652  0.17080233  0.74426673  1
  Cu  Cu109  1  0.67115151  0.66103520  -0.00370973  1
  Cu  Cu110  1  0.83090737  0.82389913  0.75357039  1
  Cu  Cu111  1  0.50326179  0.50328185  0.25995093  1
  Cu  Cu112  1  0.67179793  0.33475391  -0.00083566  1
  Cu  Cu113  1  0.33125331  -0.00548339  0.50294682  1
  Cu  Cu114  1  0.16425481  0.50147529  0.24583990  1
  Se  Se115  1  0.07976375  0.08664568  0.05304235  1
  Se  Se116  1  0.08798086  0.08635047  0.55336972  1
  Se  Se117  1  0.08519246  0.42140025  0.05230413  1
  Se  Se118  1  0.07695448  0.41038477  0.55926801  1
  Se  Se119  1  0.08105948  0.74595556  0.05832874  1
  Se  Se120  1  0.08397019  0.74207862  0.55048204  1
  Se  Se121  1  0.41086836  0.07704793  0.05884453  1
  Se  Se122  1  0.41430888  0.08065735  0.55436926  1
  Se  Se123  1  0.41452771  0.41196892  0.05713965  1
  Se  Se124  1  0.41223353  0.41950423  0.55223587  1
  Se  Se125  1  0.42002784  0.74964219  0.05079472  1
  Se  Se126  1  0.41656783  0.75220442  0.56030405  1
  Se  Se127  1  0.74222329  0.08214518  0.05074583  1
  Se  Se128  1  0.73965015  0.08741859  0.56334066  1
  Se  Se129  1  0.75533413  0.41892606  0.05124916  1
  Se  Se130  1  0.74421632  0.41339852  0.55161731  1
  Se  Se131  1  0.75335318  0.74616834  0.05177189  1
  Se  Se132  1  0.74692098  0.74688864  0.56726909  1
  Se  Se133  1  0.24856003  0.25467133  0.05155034  1
  Se  Se134  1  0.24626285  0.24467984  0.55252697  1
  Se  Se135  1  0.25417237  0.58257770  0.05091208  1
  Se  Se136  1  0.25444320  0.58416549  0.56561944  1
  Se  Se137  1  0.25566023  0.92643702  0.05618289  1
  Se  Se138  1  0.24805859  0.91066510  0.55603606  1
  Se  Se139  1  0.58088359  0.25653767  0.05280247  1
  Se  Se140  1  0.57726762  0.25158150  0.54261138  1
  Se  Se141  1  0.59703769  0.58769654  0.06696800  1
  Se  Se142  1  0.57692555  0.58486769  0.55898297  1
  Se  Se143  1  0.57916077  0.91298101  0.04955280  1
  Se  Se144  1  0.58183072  0.91713893  0.55072747  1
  Se  Se145  1  0.91491481  0.24992983  0.05114326  1
  Se  Se146  1  0.91827838  0.26453838  0.56515253  1
  Se  Se147  1  0.91586594  0.57934067  0.05509672  1
  Se  Se148  1  0.91235858  0.58409590  0.55419061  1
  Se  Se149  1  0.91460435  0.91290595  0.04620241  1
  Se  Se150  1  0.92404100  0.92363075  0.56183994  1
  Se  Se151  1  0.08056897  0.24580915  0.44876575  1
  Se  Se152  1  0.08596193  0.25168502  0.95088261  1
  Se  Se153  1  0.07379325  0.57933230  0.43482924  1
  Se  Se154  1  0.08606123  0.58174290  0.94910603  1
  Se  Se155  1  0.08716750  0.90608115  0.45084771  1
  Se  Se156  1  0.07712958  0.92633872  0.93421743  1
  Se  Se157  1  0.41710438  0.24166797  0.45210675  1
  Se  Se158  1  0.41477568  0.26479781  0.93356978  1
  Se  Se159  1  0.41247020  0.58540269  0.45299001  1
  Se  Se160  1  0.41448041  0.58669038  0.93674501  1
  Se  Se161  1  0.41586023  0.91143459  0.44926256  1
  Se  Se162  1  0.40826077  0.91823433  0.94785670  1
  Se  Se163  1  0.74949643  0.25570744  0.43830107  1
  Se  Se164  1  0.75197547  0.24509898  0.94867106  1
  Se  Se165  1  0.75243484  0.59297087  0.45707072  1
  Se  Se166  1  0.75164742  0.57690255  0.94229180  1
  Se  Se167  1  0.74727097  0.92787321  0.44205040  1
  Se  Se168  1  0.75117998  0.91158522  0.94826218  1
  Se  Se169  1  0.25027837  0.07833137  0.44673152  1
  Se  Se170  1  0.25355015  0.09812570  0.94811075  1
  Se  Se171  1  0.25742184  0.40736333  0.43908066  1
  Se  Se172  1  0.24959970  0.42457449  0.94464956  1
  Se  Se173  1  0.24394393  0.74209562  0.44763952  1
  Se  Se174  1  0.25296323  0.74198110  0.93456360  1
  Se  Se175  1  0.58356842  0.08671509  0.44472175  1
  Se  Se176  1  0.58887884  0.07519045  0.93138536  1
  Se  Se177  1  0.55715951  0.43982769  0.45081534  1
  Se  Se178  1  0.59656686  0.41727859  0.93718857  1
  Se  Se179  1  0.57911346  0.75465783  0.45454204  1
  Se  Se180  1  0.58265185  0.74447857  0.94834331  1
  Se  Se181  1  0.92817760  0.07671075  0.44155172  1
  Se  Se182  1  0.91259802  0.08528947  0.94794929  1
  Se  Se183  1  0.91662059  0.42031289  0.44245575  1
  Se  Se184  1  0.91447587  0.41697769  0.94727203  1
  Se  Se185  1  0.92060598  0.74278385  0.43577996  1
  Se  Se186  1  0.91492782  0.74713424  0.94798901  1
  Se  Se187  1  0.24325262  0.24024008  0.30762856  1
  Se  Se188  1  0.25116283  0.25642523  0.80318048  1
  Se  Se189  1  0.25132393  0.58057318  0.29980112  1
  Se  Se190  1  0.25084281  0.58634135  0.80207848  1
  Se  Se191  1  0.25017369  0.90753358  0.30942645  1
  Se  Se192  1  0.25183822  0.92006986  0.80341239  1
  Se  Se193  1  0.58360768  0.25757689  0.30849072  1
  Se  Se194  1  0.58445549  0.24978637  0.79721878  1
  Se  Se195  1  0.58573748  0.57855604  0.32094693  1
  Se  Se196  1  0.57978913  0.57757103  0.79969465  1
  Se  Se197  1  0.57671738  0.90833931  0.31108903  1
  Se  Se198  1  0.57855014  0.90825112  0.81266273  1
  Se  Se199  1  0.91566888  0.25696611  0.29908238  1
  Se  Se200  1  0.91145499  0.24212253  0.81130671  1
  Se  Se201  1  0.92855510  0.59908700  0.29912144  1
  Se  Se202  1  0.91915869  0.58382017  0.80401745  1
  Se  Se203  1  0.90836394  0.91348012  0.30880354  1
  Se  Se204  1  0.91080653  0.91019070  0.80907642  1
  Se  Se205  1  0.08781353  0.08280606  0.31124955  1
  Se  Se206  1  0.08918094  0.09044578  0.81113167  1
  Se  Se207  1  0.08868095  0.41400168  0.30136197  1
  Se  Se208  1  0.08967027  0.42541330  0.81505605  1
  Se  Se209  1  0.08459597  0.74532414  0.30189957  1
  Se  Se210  1  0.08161360  0.74898369  0.79964536  1
  Se  Se211  1  0.41972355  0.08629429  0.30733224  1
  Se  Se212  1  0.41673782  0.08525897  0.79812399  1
  Se  Se213  1  0.42402402  0.41845682  0.31771639  1
  Se  Se214  1  0.41455674  0.41352768  0.79709139  1
  Se  Se215  1  0.41485025  0.74141373  0.30930324  1
  Se  Se216  1  0.41503037  0.74547069  0.80329367  1
  Se  Se217  1  0.76267436  0.10664965  0.29730541  1
  Se  Se218  1  0.75643381  0.08655399  0.80643012  1
  Se  Se219  1  0.74744988  0.43685659  0.31461013  1
  Se  Se220  1  0.74017847  0.39409227  0.80235959  1
  Se  Se221  1  0.75537860  0.75684924  0.30765384  1
  Se  Se222  1  0.74659082  0.74195811  0.80582935  1
  Se  Se223  1  0.23794109  0.09328892  0.19382040  1
  Se  Se224  1  0.25176001  0.08497506  0.69779746  1
  Se  Se225  1  0.24462889  0.42213917  0.18395792  1
  Se  Se226  1  0.24823101  0.41338468  0.70047194  1
  Se  Se227  1  0.25909645  0.74071487  0.19454657  1
  Se  Se228  1  0.25382063  0.74916997  0.69925827  1
  Se  Se229  1  0.57614314  0.09687167  0.19410777  1
  Se  Se230  1  0.57845382  0.09159128  0.68310598  1
  Se  Se231  1  0.58540736  0.42048374  0.20534690  1
  Se  Se232  1  0.58138548  0.41168974  0.68906908  1
  Se  Se233  1  0.58195290  0.75521137  0.19259479  1
  Se  Se234  1  0.58259853  0.74807369  0.70065133  1
  Se  Se235  1  0.90696612  0.09191359  0.18677767  1
  Se  Se236  1  0.91183997  0.09206276  0.69708384  1
  Se  Se237  1  0.93407398  0.39791679  0.19522682  1
  Se  Se238  1  0.91008451  0.43069230  0.69563644  1
  Se  Se239  1  0.91954934  0.75152194  0.19215651  1
  Se  Se240  1  0.91731018  0.74607081  0.69812876  1
  Se  Se241  1  0.08510377  0.24640790  0.19977802  1
  Se  Se242  1  0.08540679  0.24726737  0.69233299  1
  Se  Se243  1  0.08046955  0.58361515  0.19212988  1
  Se  Se244  1  0.08285317  0.58567430  0.69674018  1
  Se  Se245  1  0.09576321  0.90492478  0.19262079  1
  Se  Se246  1  0.09212811  0.90773266  0.68598890  1
  Se  Se247  1  0.41883225  0.25005336  0.19083711  1
  Se  Se248  1  0.41462044  0.25390452  0.68932618  1
  Se  Se249  1  0.42235412  0.58252940  0.20149707  1
  Se  Se250  1  0.41146819  0.58543668  0.69973336  1
  Se  Se251  1  0.42700736  0.90540579  0.18788903  1
  Se  Se252  1  0.41519472  0.92036069  0.69939357  1
  Se  Se253  1  0.73276044  0.27532859  0.18854573  1
  Se  Se254  1  0.76507515  0.23376052  0.69513187  1
  Se  Se255  1  0.76835709  0.57038474  0.19557582  1
  Se  Se256  1  0.73630418  0.58285391  0.69860160  1
  Se  Se257  1  0.75299182  0.91567366  0.18791689  1
  Se  Se258  1  0.75509886  0.90750248  0.69262240  1
