# generated using pymatgen
data_In86Cu29Se144
_symmetry_space_group_name_H-M   'P 1'
_cell_length_a   17.57238427
_cell_length_b   17.57380930
_cell_length_c   23.44036481
_cell_angle_alpha   89.99092471
_cell_angle_beta   90.00909821
_cell_angle_gamma   90.00975823
_symmetry_Int_Tables_number   1
_chemical_formula_structural   In86Cu29Se144
_chemical_formula_sum   'In86 Cu29 Se144'
_cell_volume   7238.70620550
_cell_formula_units_Z   1
loop_
 _symmetry_equiv_pos_site_id
 _symmetry_equiv_pos_as_xyz
  1  'x, y, z'
loop_
 _atom_site_type_symbol
 _atom_site_label
 _atom_site_symmetry_multiplicity
 _atom_site_fract_x
 _atom_site_fract_y
 _atom_site_fract_z
 _atom_site_occupancy
  In  In0  1  -0.00957786  0.16524408  0.11982139  1
  In  In1  1  -0.01291387  0.17486292  0.63118559  1
  In  In2  1  -0.00347202  0.50226971  0.11107571  1
  In  In3  1  0.00334472  0.49696158  0.63031510  1
  In  In4  1  0.00493395  0.83858523  0.12990750  1
  In  In5  1  0.00348831  0.82452070  0.63895204  1
  In  In6  1  0.34451697  0.14831337  0.12424620  1
  In  In7  1  0.34509797  0.16992164  0.63136801  1
  In  In8  1  0.33098958  0.49697905  0.11359685  1
  In  In9  1  0.32070073  0.51920609  0.64185959  1
  In  In10  1  0.34553246  0.83991866  0.12035104  1
  In  In11  1  0.31906645  0.80959750  0.60068597  1
  In  In12  1  0.66752913  0.16764278  0.12211443  1
  In  In13  1  0.67908432  0.15262341  0.63258642  1
  In  In14  1  0.66438719  0.49836684  0.12216679  1
  In  In15  1  0.65462393  0.49760204  0.63143980  1
  In  In16  1  0.65691950  0.84752790  0.14029358  1
  In  In17  1  0.67352389  0.85300406  0.61401236  1
  In  In18  1  0.15627316  -0.01141691  0.37242667  1
  In  In19  1  0.16138418  0.00853848  0.87266984  1
  In  In20  1  0.17316838  0.34636344  0.38195097  1
  In  In21  1  0.17902536  0.34219254  0.86584274  1
  In  In22  1  0.15713437  0.67665462  0.40269633  1
  In  In23  1  0.15812794  0.65701670  0.86506481  1
  In  In24  1  0.50233758  -0.00484347  0.36636387  1
  In  In25  1  0.50883330  -0.01403889  0.88857162  1
  In  In26  1  0.50662566  0.32402562  0.37188796  1
  In  In27  1  0.50310220  0.33334367  0.87845595  1
  In  In28  1  0.51503334  0.67161653  0.37730234  1
  In  In29  1  0.49256986  0.67594704  0.87817421  1
  In  In30  1  0.84443619  -0.00226335  0.36766322  1
  In  In31  1  0.84208242  0.00625869  0.87055110  1
  In  In32  1  0.81620215  0.33495306  0.37419338  1
  In  In33  1  0.83096168  0.33171313  0.87366597  1
  In  In34  1  0.82240763  0.67949379  0.37655814  1
  In  In35  1  0.83359463  0.65625764  0.87122389  1
  In  In36  1  -0.00292514  0.15030342  0.37797726  1
  In  In37  1  -0.01185304  0.16036886  0.86911628  1
  In  In38  1  0.00626335  0.50907467  0.37880788  1
  In  In39  1  0.00066531  0.49605418  0.87033237  1
  In  In40  1  -0.00701667  0.84151986  0.38064626  1
  In  In41  1  0.00084889  0.83650112  0.85706712  1
  In  In42  1  0.35199747  0.16433628  0.37363865  1
  In  In43  1  0.33572883  0.17495869  0.87598997  1
  In  In44  1  0.32413772  0.50137216  0.38056672  1
  In  In45  1  0.33358488  0.50045075  0.87502630  1
  In  In46  1  0.32541529  0.83697478  0.38240277  1
  In  In47  1  0.35107348  0.83210002  0.87391490  1
  In  In48  1  0.67467686  0.16649355  0.37056034  1
  In  In49  1  0.66761304  0.16624535  0.87901724  1
  In  In50  1  0.66731806  0.49935626  0.36555485  1
  In  In51  1  0.67888301  0.49296598  0.88226666  1
  In  In52  1  0.66314371  0.82633198  0.36736376  1
  In  In53  1  0.65171761  0.83325296  0.87328894  1
  In  In54  1  0.16990307  -0.00238041  0.13388527  1
  In  In55  1  0.16705104  -0.01737236  0.62311094  1
  In  In56  1  0.15890667  0.33921686  0.11836201  1
  In  In57  1  0.15839415  0.34466135  0.63680108  1
  In  In58  1  0.17255534  0.66356951  0.12411216  1
  In  In59  1  0.16568527  0.66685382  0.62059579  1
  In  In60  1  0.50344498  0.00401448  0.12087032  1
  In  In61  1  0.51572235  -0.00975768  0.62875395  1
  In  In62  1  0.50983783  0.34324955  0.11360223  1
  In  In63  1  0.50037210  0.33443436  0.64005635  1
  In  In64  1  0.50588234  0.67411440  0.11621568  1
  In  In65  1  0.49112768  0.66762008  0.62128910  1
  In  In66  1  0.82177069  0.00775704  0.13661411  1
  In  In67  1  0.81632194  0.00577742  0.63326708  1
  In  In68  1  0.82380223  0.32321489  0.11350153  1
  In  In69  1  0.83936106  0.32387826  0.63242366  1
  In  In70  1  0.82972529  0.65386394  0.12064652  1
  In  In71  1  0.84453972  0.68253562  0.62890723  1
  In  In72  1  0.16906329  0.82986695  0.00335061  1
  In  In73  1  0.33470358  -0.00221826  0.74781199  1
  In  In74  1  0.66848398  0.66894948  0.74897452  1
  In  In75  1  0.50269411  0.16501837  0.50043570  1
  In  In76  1  0.83544267  0.83422012  0.50088853  1
  In  In77  1  0.17240272  0.17278380  -0.00764021  1
  In  In78  1  0.83422457  0.50080392  0.50110690  1
  In  In79  1  -0.00579209  0.32664374  0.23926759  1
  In  In80  1  -0.01021835  0.67338396  0.25873682  1
  In  In81  1  0.33829538  0.33100374  0.25126027  1
  In  In82  1  0.82926147  0.83175374  0.00211371  1
  In  In83  1  0.16481448  0.16525423  0.50131256  1
  In  In84  1  0.33256356  0.66919849  0.25027751  1
  In  In85  1  0.49568401  0.50402118  0.50182174  1
  Cu  Cu86  1  0.83235992  0.16503861  0.24598325  1
  Cu  Cu87  1  0.66875742  0.33307839  -0.00231836  1
  Cu  Cu88  1  0.50431469  0.50207392  0.24437548  1
  Cu  Cu89  1  0.16257895  0.50707474  0.25062498  1
  Cu  Cu90  1  0.50093165  0.49728424  0.75826045  1
  Cu  Cu91  1  0.16954470  0.50149983  0.75015726  1
  Cu  Cu92  1  0.82210413  0.49760799  0.24554707  1
  Cu  Cu93  1  0.16577071  0.84344780  0.25579138  1
  Cu  Cu94  1  0.50198399  0.16828468  0.75629045  1
  Cu  Cu95  1  0.50196569  0.83769314  0.24577264  1
  Cu  Cu96  1  -0.00258937  0.66032867  -0.01059671  1
  Cu  Cu97  1  -0.00050233  0.33944039  -0.00702281  1
  Cu  Cu98  1  0.66939269  0.00099151  0.00723001  1
  Cu  Cu99  1  0.83720909  0.49674469  0.75345601  1
  Cu  Cu100  1  -0.00350042  0.33136664  0.50883459  1
  Cu  Cu101  1  0.17307298  0.82734393  0.74286419  1
  Cu  Cu102  1  0.33566117  -0.00395054  0.49517330  1
  Cu  Cu103  1  0.82628560  0.16976109  0.75333084  1
  Cu  Cu104  1  -0.00531652  -0.00429276  0.50198525  1
  Cu  Cu105  1  -0.00205096  0.00305076  -0.00293674  1
  Cu  Cu106  1  0.17287938  0.15749635  0.25360663  1
  Cu  Cu107  1  0.32711561  0.65857746  -0.00386322  1
  Cu  Cu108  1  0.66099605  0.66592160  -0.00124936  1
  Cu  Cu109  1  0.33680773  0.33397186  -0.00564222  1
  Cu  Cu110  1  0.66929436  0.32641025  0.50201140  1
  Cu  Cu111  1  0.32672007  0.34576861  0.51022007  1
  Cu  Cu112  1  0.51070734  0.16303465  0.24661118  1
  Cu  Cu113  1  0.15810841  0.16615815  0.75182609  1
  Cu  Cu114  1  0.49780879  0.83530550  0.74740038  1
  Se  Se115  1  0.08569252  0.07877018  0.05580411  1
  Se  Se116  1  0.07509632  0.07790629  0.56283249  1
  Se  Se117  1  0.08531497  0.42098645  0.04598860  1
  Se  Se118  1  0.08239755  0.41459455  0.55752541  1
  Se  Se119  1  0.07040040  0.73811188  0.05724286  1
  Se  Se120  1  0.08111638  0.75881869  0.56057002  1
  Se  Se121  1  0.42470552  0.08444098  0.04786419  1
  Se  Se122  1  0.41072553  0.07434125  0.55965221  1
  Se  Se123  1  0.41904493  0.41993908  0.04722092  1
  Se  Se124  1  0.41289317  0.41796959  0.56998656  1
  Se  Se125  1  0.40736480  0.74351209  0.05129918  1
  Se  Se126  1  0.43949313  0.76421023  0.54805853  1
  Se  Se127  1  0.75673742  0.08434043  0.05578413  1
  Se  Se128  1  0.74814607  0.08093090  0.55322447  1
  Se  Se129  1  0.75025613  0.42023262  0.05101875  1
  Se  Se130  1  0.74358517  0.41153646  0.56286967  1
  Se  Se131  1  0.73675691  0.74686636  0.06248762  1
  Se  Se132  1  0.74397505  0.73999635  0.55772404  1
  Se  Se133  1  0.26058799  0.25615650  0.06160910  1
  Se  Se134  1  0.25298061  0.25385677  0.56487728  1
  Se  Se135  1  0.24065696  0.57935176  0.05016071  1
  Se  Se136  1  0.26076474  0.58786041  0.55783026  1
  Se  Se137  1  0.25549891  0.92862969  0.05596211  1
  Se  Se138  1  0.24639837  0.91618539  0.54529962  1
  Se  Se139  1  0.58557974  0.24811502  0.05072438  1
  Se  Se140  1  0.58588107  0.25489472  0.56556861  1
  Se  Se141  1  0.57938372  0.57901647  0.05164599  1
  Se  Se142  1  0.59406207  0.59018916  0.55675968  1
  Se  Se143  1  0.58661484  0.91230899  0.05636704  1
  Se  Se144  1  0.58204275  0.92231615  0.54615072  1
  Se  Se145  1  0.92177488  0.25301823  0.04828382  1
  Se  Se146  1  0.90905188  0.24618434  0.55321122  1
  Se  Se147  1  0.91028744  0.58261779  0.04431960  1
  Se  Se148  1  0.92331453  0.58983538  0.56058702  1
  Se  Se149  1  0.92053455  0.92389522  0.06042583  1
  Se  Se150  1  0.91864768  0.92056209  0.56851059  1
  Se  Se151  1  0.07482988  0.25730179  0.44039499  1
  Se  Se152  1  0.07876198  0.25723141  0.93232396  1
  Se  Se153  1  0.08372103  0.57313464  0.45648602  1
  Se  Se154  1  0.08532802  0.57809212  0.94099608  1
  Se  Se155  1  0.08235244  0.91461209  0.45086767  1
  Se  Se156  1  0.07617594  0.91773467  0.94092740  1
  Se  Se157  1  0.40731442  0.26612171  0.44862096  1
  Se  Se158  1  0.42147744  0.24677833  0.94792642  1
  Se  Se159  1  0.41068559  0.59465543  0.43952620  1
  Se  Se160  1  0.41808848  0.58217045  0.94425682  1
  Se  Se161  1  0.42225803  0.91939066  0.44049607  1
  Se  Se162  1  0.41389010  0.91132989  0.95185130  1
  Se  Se163  1  0.75134588  0.24557946  0.44717770  1
  Se  Se164  1  0.75386124  0.24881685  0.94659223  1
  Se  Se165  1  0.73891661  0.58600810  0.44182046  1
  Se  Se166  1  0.75193768  0.58871925  0.94798042  1
  Se  Se167  1  0.75014941  0.91789204  0.43457525  1
  Se  Se168  1  0.74341071  0.92214856  0.93953478  1
  Se  Se169  1  0.25721473  0.08170778  0.43741135  1
  Se  Se170  1  0.26103113  0.07264608  0.94127807  1
  Se  Se171  1  0.24410851  0.42772205  0.45642614  1
  Se  Se172  1  0.24933764  0.41702175  0.94515217  1
  Se  Se173  1  0.26165484  0.74760099  0.45543257  1
  Se  Se174  1  0.25099683  0.74312412  0.93546230  1
  Se  Se175  1  0.58941699  0.07839101  0.43833383  1
  Se  Se176  1  0.58652653  0.08192265  0.94972918  1
  Se  Se177  1  0.58903220  0.40907095  0.44341816  1
  Se  Se178  1  0.58430455  0.41885485  0.94731537  1
  Se  Se179  1  0.58604260  0.75843730  0.44706644  1
  Se  Se180  1  0.57878104  0.75367214  0.94864819  1
  Se  Se181  1  0.91131765  0.07845280  0.44882826  1
  Se  Se182  1  0.91281471  0.08702343  0.94780860  1
  Se  Se183  1  0.92161393  0.40696375  0.43932724  1
  Se  Se184  1  0.91285740  0.42046102  0.94066687  1
  Se  Se185  1  0.92610338  0.73618002  0.44571789  1
  Se  Se186  1  0.92321990  0.75175420  0.93569117  1
  Se  Se187  1  0.24372294  0.24436602  0.31423010  1
  Se  Se188  1  0.24997821  0.24325922  0.80194745  1
  Se  Se189  1  0.23671066  0.58768993  0.31288407  1
  Se  Se190  1  0.25602071  0.58395311  0.80207182  1
  Se  Se191  1  0.25626423  0.92148617  0.30689565  1
  Se  Se192  1  0.24416578  0.90803391  0.81047694  1
  Se  Se193  1  0.58945820  0.24914982  0.30141783  1
  Se  Se194  1  0.58644418  0.25094878  0.80909882  1
  Se  Se195  1  0.58162534  0.58529844  0.30213871  1
  Se  Se196  1  0.58361971  0.58085465  0.81531995  1
  Se  Se197  1  0.58985167  0.91834834  0.29760241  1
  Se  Se198  1  0.57692368  0.92002548  0.80265701  1
  Se  Se199  1  0.91121353  0.24447430  0.30996335  1
  Se  Se200  1  0.91502491  0.25286668  0.80217675  1
  Se  Se201  1  0.90183758  0.57071412  0.31122869  1
  Se  Se202  1  0.92149837  0.58433755  0.80090002  1
  Se  Se203  1  0.92006694  0.90690190  0.30085934  1
  Se  Se204  1  0.91384147  0.92167484  0.79810087  1
  Se  Se205  1  0.08218136  0.08095789  0.30483276  1
  Se  Se206  1  0.07571456  0.07929144  0.80136505  1
  Se  Se207  1  0.08351165  0.41734695  0.30418388  1
  Se  Se208  1  0.08469847  0.41530182  0.80018821  1
  Se  Se209  1  0.09394633  0.75380113  0.31468491  1
  Se  Se210  1  0.08526285  0.74700606  0.79616292  1
  Se  Se211  1  0.42149816  0.08400675  0.29847383  1
  Se  Se212  1  0.42339422  0.08148758  0.81296916  1
  Se  Se213  1  0.42448933  0.42806043  0.31104398  1
  Se  Se214  1  0.41616006  0.41283132  0.80891427  1
  Se  Se215  1  0.42275090  0.75827043  0.30909189  1
  Se  Se216  1  0.41687804  0.74721750  0.79811119  1
  Se  Se217  1  0.75418793  0.08035791  0.30265884  1
  Se  Se218  1  0.74679870  0.08324954  0.80727504  1
  Se  Se219  1  0.74201851  0.40921203  0.29698372  1
  Se  Se220  1  0.74851805  0.41618196  0.80353744  1
  Se  Se221  1  0.74976886  0.74780893  0.29853818  1
  Se  Se222  1  0.75484393  0.75855205  0.81159224  1
  Se  Se223  1  0.25801702  0.08029140  0.19835242  1
  Se  Se224  1  0.24005106  0.08890560  0.68891160  1
  Se  Se225  1  0.24305639  0.42355743  0.19331091  1
  Se  Se226  1  0.25643254  0.41299766  0.70232150  1
  Se  Se227  1  0.24148177  0.76370111  0.19116166  1
  Se  Se228  1  0.25715316  0.74664591  0.68906064  1
  Se  Se229  1  0.59152866  0.07900855  0.19183464  1
  Se  Se230  1  0.57959730  0.08480671  0.69844819  1
  Se  Se231  1  0.58398221  0.41330014  0.19361885  1
  Se  Se232  1  0.58734765  0.41500262  0.70723224  1
  Se  Se233  1  0.57896088  0.74437110  0.19605407  1
  Se  Se234  1  0.58142774  0.75740457  0.68673032  1
  Se  Se235  1  0.92266801  0.08466886  0.19623045  1
  Se  Se236  1  0.90841252  0.08617539  0.69746048  1
  Se  Se237  1  0.90791016  0.42431051  0.18440472  1
  Se  Se238  1  0.91914211  0.41357648  0.69742117  1
  Se  Se239  1  0.90770744  0.75253405  0.18703748  1
  Se  Se240  1  0.91028561  0.75604784  0.70830363  1
  Se  Se241  1  0.09738757  0.23729517  0.18928325  1
  Se  Se242  1  0.07724261  0.25172787  0.69823378  1
  Se  Se243  1  0.07769790  0.58255616  0.19156601  1
  Se  Se244  1  0.08744681  0.58409090  0.69449038  1
  Se  Se245  1  0.07955160  0.92239266  0.20142382  1
  Se  Se246  1  0.08644460  0.91841612  0.70118670  1
  Se  Se247  1  0.42773173  0.24652851  0.18828838  1
  Se  Se248  1  0.41446208  0.25126720  0.70661349  1
  Se  Se249  1  0.41678177  0.57689719  0.18724986  1
  Se  Se250  1  0.42763804  0.58550586  0.70074484  1
  Se  Se251  1  0.41904641  0.92170967  0.19285762  1
  Se  Se252  1  0.41237451  0.90532707  0.68254564  1
  Se  Se253  1  0.75154523  0.25068029  0.19272458  1
  Se  Se254  1  0.74324430  0.25340545  0.69858824  1
  Se  Se255  1  0.74269671  0.58467910  0.19356337  1
  Se  Se256  1  0.76043792  0.57694240  0.68909076  1
  Se  Se257  1  0.76106547  0.90783098  0.20154900  1
  Se  Se258  1  0.74172168  0.91282620  0.69877565  1
