# generated using pymatgen
data_In86Cu29Se144
_symmetry_space_group_name_H-M   'P 1'
_cell_length_a   17.58438613
_cell_length_b   17.58261375
_cell_length_c   23.44129944
_cell_angle_alpha   89.97883080
_cell_angle_beta   89.98056611
_cell_angle_gamma   90.01541714
_symmetry_Int_Tables_number   1
_chemical_formula_structural   In86Cu29Se144
_chemical_formula_sum   'In86 Cu29 Se144'
_cell_volume   7247.56734933
_cell_formula_units_Z   1
loop_
 _symmetry_equiv_pos_site_id
 _symmetry_equiv_pos_as_xyz
  1  'x, y, z'
loop_
 _atom_site_type_symbol
 _atom_site_label
 _atom_site_symmetry_multiplicity
 _atom_site_fract_x
 _atom_site_fract_y
 _atom_site_fract_z
 _atom_site_occupancy
  In  In0  1  0.00656189  0.17201706  0.11781233  1
  In  In1  1  0.00256185  0.17720686  0.62275647  1
  In  In2  1  -0.01170238  0.50237232  0.13986354  1
  In  In3  1  0.00836503  0.49524550  0.62969446  1
  In  In4  1  -0.00014444  0.81920743  0.12353166  1
  In  In5  1  -0.01598638  0.82357559  0.62093578  1
  In  In6  1  0.33834004  0.18034672  0.12055603  1
  In  In7  1  0.34068889  0.16384677  0.63728729  1
  In  In8  1  0.33303332  0.49020460  0.12499829  1
  In  In9  1  0.33284573  0.50058043  0.62320255  1
  In  In10  1  0.33533589  0.84053446  0.12191474  1
  In  In11  1  0.34515987  0.82221102  0.63027172  1
  In  In12  1  0.68157573  0.16462384  0.11713189  1
  In  In13  1  0.65706732  0.16224752  0.61921641  1
  In  In14  1  0.67042452  0.49662347  0.13070529  1
  In  In15  1  0.65373628  0.51589898  0.61166670  1
  In  In16  1  0.66694298  0.83038928  0.12844156  1
  In  In17  1  0.66921093  0.83277705  0.61439532  1
  In  In18  1  0.17248136  -0.00618427  0.37934150  1
  In  In19  1  0.17444973  -0.00869388  0.87858933  1
  In  In20  1  0.18034505  0.34565610  0.36518686  1
  In  In21  1  0.16126675  0.32909894  0.87249977  1
  In  In22  1  0.14792398  0.65944316  0.38071915  1
  In  In23  1  0.17066306  0.67137383  0.86933090  1
  In  In24  1  0.51517739  -0.00429357  0.38538809  1
  In  In25  1  0.49940876  -0.00164061  0.86280459  1
  In  In26  1  0.49782823  0.34143703  0.37309157  1
  In  In27  1  0.50192203  0.34983950  0.87370569  1
  In  In28  1  0.52668816  0.63577979  0.41378220  1
  In  In29  1  0.49407233  0.66720651  0.87559902  1
  In  In30  1  0.82389058  -0.00259683  0.38152794  1
  In  In31  1  0.83343693  0.01125364  0.87358325  1
  In  In32  1  0.82565955  0.33214160  0.36048792  1
  In  In33  1  0.83808999  0.32956688  0.88148301  1
  In  In34  1  0.83999910  0.66649544  0.36383365  1
  In  In35  1  0.83213156  0.64861878  0.87710978  1
  In  In36  1  -0.01438911  0.16745486  0.37772048  1
  In  In37  1  -0.00655615  0.18155032  0.88083586  1
  In  In38  1  0.00430529  0.50834619  0.36566316  1
  In  In39  1  -0.00401369  0.49153524  0.87091805  1
  In  In40  1  -0.01670856  0.80678993  0.36938225  1
  In  In41  1  0.01171622  0.83346775  0.87310006  1
  In  In42  1  0.33794608  0.18769895  0.37619105  1
  In  In43  1  0.32598827  0.15940523  0.86820362  1
  In  In44  1  0.34599127  0.49193404  0.39224280  1
  In  In45  1  0.34172298  0.50994787  0.86960388  1
  In  In46  1  0.34172332  0.83201317  0.38367427  1
  In  In47  1  0.32905942  0.82388051  0.86318013  1
  In  In48  1  0.65821525  0.17748759  0.38080498  1
  In  In49  1  0.67912999  0.16308641  0.87628807  1
  In  In50  1  0.66011061  0.48875765  0.34984276  1
  In  In51  1  0.66820461  0.50268758  0.88804208  1
  In  In52  1  0.69197596  0.79648761  0.40723286  1
  In  In53  1  0.65513266  0.83212211  0.87048539  1
  In  In54  1  0.16543748  -0.00236997  0.11027981  1
  In  In55  1  0.16814428  0.01118831  0.63085739  1
  In  In56  1  0.17094629  0.32638083  0.12735559  1
  In  In57  1  0.16229199  0.34506211  0.63330989  1
  In  In58  1  0.15320103  0.66218144  0.12439053  1
  In  In59  1  0.17597297  0.65504239  0.62582658  1
  In  In60  1  0.50689861  -0.00575843  0.12344622  1
  In  In61  1  0.50029011  0.00279253  0.62831055  1
  In  In62  1  0.49349202  0.34956204  0.14011316  1
  In  In63  1  0.49647127  0.32822381  0.62033388  1
  In  In64  1  0.51855557  0.65333756  0.13644154  1
  In  In65  1  0.47845735  0.65317688  0.59564325  1
  In  In66  1  0.82373031  0.01383480  0.11857942  1
  In  In67  1  0.81970072  -0.00684968  0.61901894  1
  In  In68  1  0.83239592  0.33186216  0.12915493  1
  In  In69  1  0.85061112  0.33737456  0.62153018  1
  In  In70  1  0.84700479  0.64960514  0.15323472  1
  In  In71  1  0.82820282  0.67450242  0.61893389  1
  In  In72  1  0.16367780  0.83383763  0.50631066  1
  In  In73  1  0.00273241  -0.00252018  0.25943203  1
  In  In74  1  0.66838177  -0.00188185  0.24423114  1
  In  In75  1  0.50336882  0.16776720  -0.00330226  1
  In  In76  1  0.66313194  0.67246424  0.73896202  1
  In  In77  1  0.50243608  0.82946948  0.00580589  1
  In  In78  1  0.66771675  0.32984997  0.74864748  1
  In  In79  1  0.00247989  0.00187457  0.75361767  1
  In  In80  1  0.16754112  0.17396235  0.50783280  1
  In  In81  1  0.33512605  0.01026911  0.24948416  1
  In  In82  1  0.33338474  0.65963571  0.25843933  1
  In  In83  1  0.16369881  0.49627937  0.00178567  1
  In  In84  1  0.83537474  0.83466459  0.00166397  1
  In  In85  1  0.83423860  0.49675517  0.49291568  1
  Cu  Cu86  1  0.66571411  0.33753325  0.00560734  1
  Cu  Cu87  1  0.33311742  0.33273795  0.00257132  1
  Cu  Cu88  1  0.16458261  0.49612697  0.25078569  1
  Cu  Cu89  1  0.82885894  0.83073135  0.74168676  1
  Cu  Cu90  1  0.33100308  -0.00471216  -0.00722095  1
  Cu  Cu91  1  0.49941749  0.83442342  0.74190931  1
  Cu  Cu92  1  0.16213927  0.17417856  0.24514677  1
  Cu  Cu93  1  0.50740816  0.82816306  0.26127421  1
  Cu  Cu94  1  0.16538693  0.82966833  0.74813391  1
  Cu  Cu95  1  -0.00196262  0.66312812  0.00772046  1
  Cu  Cu96  1  -0.00925544  0.33664427  0.00223638  1
  Cu  Cu97  1  -0.00992117  -0.01038754  0.49649392  1
  Cu  Cu98  1  0.16804413  0.17415192  0.75214826  1
  Cu  Cu99  1  0.83829988  0.49658248  0.74983291  1
  Cu  Cu100  1  0.50114553  0.17769711  0.25393801  1
  Cu  Cu101  1  0.00077632  0.00620208  -0.00726274  1
  Cu  Cu102  1  0.67044246  0.33365029  0.49123987  1
  Cu  Cu103  1  0.66227298  0.00788909  0.50337219  1
  Cu  Cu104  1  0.00149095  0.33204670  0.49889884  1
  Cu  Cu105  1  0.16515851  0.82701828  0.24834406  1
  Cu  Cu106  1  0.33610865  0.66881822  -0.00748039  1
  Cu  Cu107  1  0.49815533  0.50736686  0.74504812  1
  Cu  Cu108  1  0.49853379  0.16742189  0.74567747  1
  Cu  Cu109  1  0.33894654  0.34108148  0.50176831  1
  Cu  Cu110  1  0.33889591  0.01133357  0.50924450  1
  Cu  Cu111  1  0.67394137  0.65625509  0.01128418  1
  Cu  Cu112  1  0.83475051  0.16817761  0.24830972  1
  Cu  Cu113  1  0.83664136  0.16676477  0.75177535  1
  Cu  Cu114  1  0.17303234  0.50355499  0.75065839  1
  Se  Se115  1  0.08541190  0.08808916  0.04745016  1
  Se  Se116  1  0.07209370  0.07143954  0.55485405  1
  Se  Se117  1  0.07147125  0.41388898  0.06507399  1
  Se  Se118  1  0.08283117  0.41313132  0.55493011  1
  Se  Se119  1  0.08729647  0.75063940  0.05012048  1
  Se  Se120  1  0.07585837  0.73733230  0.55982353  1
  Se  Se121  1  0.41093329  0.07213466  0.05646126  1
  Se  Se122  1  0.42179455  0.09506129  0.56073545  1
  Se  Se123  1  0.41845004  0.41285863  0.05552654  1
  Se  Se124  1  0.42479032  0.42315364  0.55456448  1
  Se  Se125  1  0.41526801  0.73579498  0.06498060  1
  Se  Se126  1  0.41422098  0.76622683  0.54381329  1
  Se  Se127  1  0.74746673  0.08234943  0.04163186  1
  Se  Se128  1  0.75214774  0.09056932  0.55267200  1
  Se  Se129  1  0.75275659  0.41685601  0.05884700  1
  Se  Se130  1  0.74273231  0.41097311  0.56017828  1
  Se  Se131  1  0.75445850  0.74218746  0.06510113  1
  Se  Se132  1  0.73977701  0.73901858  0.54677929  1
  Se  Se133  1  0.24649005  0.24842180  0.05047091  1
  Se  Se134  1  0.26070277  0.26060776  0.56604849  1
  Se  Se135  1  0.25704925  0.59073495  0.05760105  1
  Se  Se136  1  0.25232081  0.58019117  0.55091026  1
  Se  Se137  1  0.25123945  0.90951173  0.04796699  1
  Se  Se138  1  0.25456245  0.92801473  0.56320139  1
  Se  Se139  1  0.58217051  0.25738395  0.06391429  1
  Se  Se140  1  0.58742557  0.25633877  0.55134865  1
  Se  Se141  1  0.58248770  0.57403084  0.05714480  1
  Se  Se142  1  0.58877451  0.59600636  0.53459889  1
  Se  Se143  1  0.60074839  0.92521066  0.05260700  1
  Se  Se144  1  0.58002139  0.92262525  0.55590111  1
  Se  Se145  1  0.91101265  0.24936670  0.05598239  1
  Se  Se146  1  0.91680190  0.24690459  0.54857680  1
  Se  Se147  1  0.91500880  0.58638730  0.06594212  1
  Se  Se148  1  0.91857339  0.58033950  0.56116339  1
  Se  Se149  1  0.92716947  0.92730854  0.06049260  1
  Se  Se150  1  0.90739445  0.91060612  0.55338919  1
  Se  Se151  1  0.08469291  0.25459728  0.43695176  1
  Se  Se152  1  0.08128741  0.25843956  0.94968101  1
  Se  Se153  1  0.07042804  0.57612017  0.44932304  1
  Se  Se154  1  0.07803205  0.58858513  0.94118619  1
  Se  Se155  1  0.07156000  0.91304281  0.43620169  1
  Se  Se156  1  0.08337803  0.91582829  0.94644963  1
  Se  Se157  1  0.42238095  0.25697153  0.44904769  1
  Se  Se158  1  0.41160545  0.25628172  0.93703120  1
  Se  Se159  1  0.39888991  0.59503206  0.45991839  1
  Se  Se160  1  0.42168216  0.58094073  0.94740743  1
  Se  Se161  1  0.41177680  0.92909231  0.44760849  1
  Se  Se162  1  0.41574877  0.91466337  0.93727251  1
  Se  Se163  1  0.75844625  0.25332224  0.44046281  1
  Se  Se164  1  0.74479546  0.25456558  0.94735233  1
  Se  Se165  1  0.74654396  0.57340141  0.42507785  1
  Se  Se166  1  0.75902228  0.57659179  0.95610406  1
  Se  Se167  1  0.74544461  0.91967699  0.45450481  1
  Se  Se168  1  0.74556653  0.91705920  0.93602621  1
  Se  Se169  1  0.25729389  0.08442705  0.44433401  1
  Se  Se170  1  0.24917075  0.08523534  0.94502950  1
  Se  Se171  1  0.24428890  0.41413337  0.45043207  1
  Se  Se172  1  0.25737842  0.41466247  0.93938680  1
  Se  Se173  1  0.24663494  0.74524720  0.44124578  1
  Se  Se174  1  0.25182720  0.75169551  0.94145114  1
  Se  Se175  1  0.57995915  0.09450089  0.45152122  1
  Se  Se176  1  0.58706400  0.07212847  0.93785877  1
  Se  Se177  1  0.59205434  0.42002637  0.43679018  1
  Se  Se178  1  0.58072256  0.41832071  0.95131434  1
  Se  Se179  1  0.55604137  0.77484913  0.44330686  1
  Se  Se180  1  0.59593149  0.73591290  0.94736273  1
  Se  Se181  1  0.91152374  0.08060613  0.44670224  1
  Se  Se182  1  0.91364159  0.08936936  0.94481536  1
  Se  Se183  1  0.92301022  0.40564314  0.43349907  1
  Se  Se184  1  0.91313243  0.42327459  0.94748119  1
  Se  Se185  1  0.90546725  0.74200928  0.44692688  1
  Se  Se186  1  0.92333279  0.74193658  0.94086429  1
  Se  Se187  1  0.25235231  0.24945909  0.29932784  1
  Se  Se188  1  0.25374474  0.25683023  0.80417209  1
  Se  Se189  1  0.24079539  0.57238176  0.31680564  1
  Se  Se190  1  0.25600725  0.58977349  0.80235029  1
  Se  Se191  1  0.24853298  0.90760071  0.30514696  1
  Se  Se192  1  0.24745153  0.91607607  0.80042401  1
  Se  Se193  1  0.58692852  0.25880736  0.30555958  1
  Se  Se194  1  0.57695872  0.24265067  0.81201550  1
  Se  Se195  1  0.55831442  0.58499127  0.31457195  1
  Se  Se196  1  0.58451120  0.57888942  0.80755769  1
  Se  Se197  1  0.59115511  0.91145591  0.31368965  1
  Se  Se198  1  0.58454385  0.91426919  0.79646747  1
  Se  Se199  1  0.92169984  0.24899395  0.29992904  1
  Se  Se200  1  0.91516407  0.25500248  0.80406456  1
  Se  Se201  1  0.91617371  0.57973125  0.29537615  1
  Se  Se202  1  0.91865018  0.58267359  0.80294238  1
  Se  Se203  1  0.90315055  0.91037953  0.30972719  1
  Se  Se204  1  0.90733613  0.90746412  0.80766007  1
  Se  Se205  1  0.09685420  0.09247763  0.31373390  1
  Se  Se206  1  0.08842945  0.09306781  0.81485793  1
  Se  Se207  1  0.07896835  0.41123460  0.30109681  1
  Se  Se208  1  0.08789062  0.41934946  0.80349269  1
  Se  Se209  1  0.08393782  0.74470741  0.30264088  1
  Se  Se210  1  0.08016342  0.74714056  0.80028474  1
  Se  Se211  1  0.42793026  0.09038998  0.31384837  1
  Se  Se212  1  0.41434513  0.08335567  0.79946867  1
  Se  Se213  1  0.39992101  0.41302977  0.30955958  1
  Se  Se214  1  0.41891071  0.42157576  0.80012887  1
  Se  Se215  1  0.42392226  0.74869520  0.31591253  1
  Se  Se216  1  0.42333019  0.74703755  0.79962589  1
  Se  Se217  1  0.75156874  0.09143410  0.30867889  1
  Se  Se218  1  0.74923054  0.08231901  0.79908031  1
  Se  Se219  1  0.76817596  0.42937690  0.28861326  1
  Se  Se220  1  0.75157486  0.42369379  0.81081737  1
  Se  Se221  1  0.74376969  0.75516394  0.31053854  1
  Se  Se222  1  0.75541539  0.75022224  0.80924180  1
  Se  Se223  1  0.24042694  0.09012036  0.18553625  1
  Se  Se224  1  0.24935862  0.08546109  0.70315559  1
  Se  Se225  1  0.24770636  0.41547087  0.19509846  1
  Se  Se226  1  0.25646786  0.41914392  0.69811910  1
  Se  Se227  1  0.24954532  0.75070951  0.18908790  1
  Se  Se228  1  0.24981171  0.74810139  0.69387649  1
  Se  Se229  1  0.57460281  0.09474377  0.19005268  1
  Se  Se230  1  0.58683043  0.08493413  0.69732873  1
  Se  Se231  1  0.59428280  0.41209398  0.20274656  1
  Se  Se232  1  0.58298327  0.42707947  0.68865707  1
  Se  Se233  1  0.58731796  0.75208937  0.20036316  1
  Se  Se234  1  0.56820484  0.75022676  0.67702905  1
  Se  Se235  1  0.91700641  0.08521212  0.19198343  1
  Se  Se236  1  0.91347215  0.08567208  0.68817782  1
  Se  Se237  1  0.89547103  0.42419062  0.20378953  1
  Se  Se238  1  0.92300011  0.41259890  0.69884840  1
  Se  Se239  1  0.92408196  0.75604103  0.20233061  1
  Se  Se240  1  0.91192325  0.74192877  0.69620529  1
  Se  Se241  1  0.07537974  0.25455462  0.19423150  1
  Se  Se242  1  0.08192445  0.25115849  0.69677551  1
  Se  Se243  1  0.08270707  0.58467061  0.20085564  1
  Se  Se244  1  0.08626858  0.58394960  0.69741070  1
  Se  Se245  1  0.09176354  0.91545617  0.19047294  1
  Se  Se246  1  0.08324920  0.90851057  0.68761418  1
  Se  Se247  1  0.41165967  0.25215629  0.19866898  1
  Se  Se248  1  0.41858566  0.25994678  0.69962020  1
  Se  Se249  1  0.42049866  0.57025877  0.19625745  1
  Se  Se250  1  0.42117745  0.58982360  0.68629206  1
  Se  Se251  1  0.42883488  0.90789715  0.19848530  1
  Se  Se252  1  0.41205211  0.92161608  0.69554427  1
  Se  Se253  1  0.74581893  0.24514061  0.19519010  1
  Se  Se254  1  0.75957675  0.24554199  0.68669325  1
  Se  Se255  1  0.71939723  0.60894343  0.19448873  1
  Se  Se256  1  0.75420963  0.57109613  0.68795254  1
  Se  Se257  1  0.76722302  0.91121721  0.18911822  1
  Se  Se258  1  0.74267595  0.91243474  0.69221297  1
