# generated using pymatgen
data_In86Cu29Se144
_symmetry_space_group_name_H-M   'P 1'
_cell_length_a   17.72251601
_cell_length_b   17.71971226
_cell_length_c   23.54083132
_cell_angle_alpha   89.94512716
_cell_angle_beta   89.98582877
_cell_angle_gamma   89.97898192
_symmetry_Int_Tables_number   1
_chemical_formula_structural   In86Cu29Se144
_chemical_formula_sum   'In86 Cu29 Se144'
_cell_volume   7392.70874944
_cell_formula_units_Z   1
loop_
 _symmetry_equiv_pos_site_id
 _symmetry_equiv_pos_as_xyz
  1  'x, y, z'
loop_
 _atom_site_type_symbol
 _atom_site_label
 _atom_site_symmetry_multiplicity
 _atom_site_fract_x
 _atom_site_fract_y
 _atom_site_fract_z
 _atom_site_occupancy
  In  In0  1  -0.00445975  0.16861309  0.13937311  1
  In  In1  1  -0.00382775  0.18109227  0.62972926  1
  In  In2  1  -0.00128299  0.49252767  0.12647883  1
  In  In3  1  0.02089057  0.51989994  0.61899565  1
  In  In4  1  0.01140856  0.83139128  0.13370317  1
  In  In5  1  -0.01294606  0.81801773  0.61196998  1
  In  In6  1  0.32636868  0.17413063  0.13825235  1
  In  In7  1  0.33553752  0.15973987  0.62675723  1
  In  In8  1  0.32306675  0.51153094  0.13295461  1
  In  In9  1  0.33200584  0.49921199  0.62261098  1
  In  In10  1  0.33146210  0.83045364  0.13759485  1
  In  In11  1  0.33795651  0.83554192  0.61526676  1
  In  In12  1  0.66794908  0.17106729  0.12329255  1
  In  In13  1  0.67592548  0.17757649  0.61842959  1
  In  In14  1  0.67451470  0.50204807  0.13015773  1
  In  In15  1  0.66846963  0.50287046  0.62981447  1
  In  In16  1  0.65551052  0.83090822  0.13300125  1
  In  In17  1  0.65722397  0.82687472  0.61525731  1
  In  In18  1  0.16048382  -0.01141797  0.37587979  1
  In  In19  1  0.16883430  -0.01388073  0.87165969  1
  In  In20  1  0.17262484  0.33800471  0.37371427  1
  In  In21  1  0.18084234  0.34832590  0.85920905  1
  In  In22  1  0.18585883  0.65504943  0.39473388  1
  In  In23  1  0.14506842  0.63123114  0.83728676  1
  In  In24  1  0.48790647  0.01509464  0.37992128  1
  In  In25  1  0.49797771  0.00848953  0.87407356  1
  In  In26  1  0.49570853  0.33917692  0.38340144  1
  In  In27  1  0.50705998  0.34029855  0.86287734  1
  In  In28  1  0.48676591  0.65939741  0.38618325  1
  In  In29  1  0.50162664  0.66299797  0.86250055  1
  In  In30  1  0.84774964  -0.00881371  0.38860445  1
  In  In31  1  0.83346048  -0.00054232  0.87721733  1
  In  In32  1  0.84358527  0.32690020  0.38426595  1
  In  In33  1  0.88338772  0.36474103  0.77799289  1
  In  In34  1  0.82433718  0.67175959  0.38477114  1
  In  In35  1  0.82885652  0.65242278  0.84893924  1
  In  In36  1  -0.00533518  0.16156934  0.37328695  1
  In  In37  1  0.00040777  0.19326458  0.87247375  1
  In  In38  1  0.01068848  0.49209316  0.38345106  1
  In  In39  1  0.00425962  0.49055282  0.87869137  1
  In  In40  1  0.00166936  0.83430796  0.38986007  1
  In  In41  1  0.01497705  0.82473845  0.87171222  1
  In  In42  1  0.34398791  0.17445764  0.36500321  1
  In  In43  1  0.34217040  0.16857080  0.86570989  1
  In  In44  1  0.33270797  0.49904526  0.38230776  1
  In  In45  1  0.32853680  0.49756041  0.86184813  1
  In  In46  1  0.33215482  0.83238257  0.38007540  1
  In  In47  1  0.32937030  0.82475415  0.86430522  1
  In  In48  1  0.66518538  0.17304674  0.38304637  1
  In  In49  1  0.67023858  0.17251364  0.87235080  1
  In  In50  1  0.65829365  0.50750977  0.38510818  1
  In  In51  1  0.68361907  0.49655199  0.84658108  1
  In  In52  1  0.66883206  0.82444168  0.38252230  1
  In  In53  1  0.67756976  0.82947499  0.87112585  1
  In  In54  1  0.16771694  -0.00319155  0.14041936  1
  In  In55  1  0.17231424  0.00415107  0.61897177  1
  In  In56  1  0.15740898  0.34341978  0.12960655  1
  In  In57  1  0.16155268  0.34566984  0.63733315  1
  In  In58  1  0.17398562  0.66405234  0.12667920  1
  In  In59  1  0.17978207  0.65787722  0.62060806  1
  In  In60  1  0.49624083  -0.00642450  0.13379106  1
  In  In61  1  0.49257377  -0.00743666  0.61116856  1
  In  In62  1  0.49562818  0.32476840  0.12560548  1
  In  In63  1  0.49871905  0.33190183  0.62458815  1
  In  In64  1  0.49437746  0.67042188  0.13719248  1
  In  In65  1  0.49893686  0.67035304  0.62133982  1
  In  In66  1  0.83506188  0.01229208  0.13454307  1
  In  In67  1  0.84329123  -0.00023501  0.60873672  1
  In  In68  1  0.83332665  0.33566341  0.12709288  1
  In  In69  1  0.82268043  0.33082600  0.62330302  1
  In  In70  1  0.83257877  0.65375483  0.12904264  1
  In  In71  1  0.82653872  0.66015459  0.63099074  1
  In  In72  1  0.83851019  0.82911849  -0.00561313  1
  In  In73  1  -0.00254244  0.66945036  0.26530469  1
  In  In74  1  0.17008589  0.16354385  0.00408074  1
  In  In75  1  0.83161400  0.17080840  0.00000507  1
  In  In76  1  0.66159684  -0.00814281  0.73890983  1
  In  In77  1  0.17034589  0.82643338  0.00362831  1
  In  In78  1  0.66283188  0.00205811  0.25422765  1
  In  In79  1  0.49874770  0.83583969  0.01052174  1
  In  In80  1  0.49904914  0.16650990  -0.00304532  1
  In  In81  1  0.66042553  0.34014563  0.25485072  1
  In  In82  1  0.00564511  0.00009553  0.74315534  1
  In  In83  1  0.49847201  0.50257940  0.00116992  1
  In  In84  1  0.83635632  0.50063086  -0.02192523  1
  In  In85  1  0.16501267  0.16852215  0.49760852  1
  Cu  Cu86  1  0.49119882  0.15437640  0.74393042  1
  Cu  Cu87  1  -0.00554714  0.00226382  0.00850600  1
  Cu  Cu88  1  -0.00075619  0.65721810  0.50314398  1
  Cu  Cu89  1  0.32813966  0.34333118  -0.00583778  1
  Cu  Cu90  1  0.49779635  0.82925154  0.25864321  1
  Cu  Cu91  1  0.00678981  0.34444435  0.00048962  1
  Cu  Cu92  1  0.50003135  0.83519985  0.73656693  1
  Cu  Cu93  1  0.33250326  0.00286744  0.49686231  1
  Cu  Cu94  1  0.00034923  0.65990652  -0.01254301  1
  Cu  Cu95  1  0.49177590  0.50285647  0.26059532  1
  Cu  Cu96  1  0.83706075  0.83330031  0.74392737  1
  Cu  Cu97  1  0.50072393  0.49987181  0.74059627  1
  Cu  Cu98  1  0.83088758  0.49853101  0.25155651  1
  Cu  Cu99  1  0.16997479  0.82958114  0.73983385  1
  Cu  Cu100  1  0.33080109  0.33050165  0.50187788  1
  Cu  Cu101  1  0.66837682  0.66103889  0.50513928  1
  Cu  Cu102  1  0.16959472  0.83229758  0.25889889  1
  Cu  Cu103  1  0.16516417  0.50088878  0.25650824  1
  Cu  Cu104  1  0.65929222  0.34248137  0.50380700  1
  Cu  Cu105  1  0.66691932  0.00053815  0.49536439  1
  Cu  Cu106  1  0.83856193  0.16586764  0.26086180  1
  Cu  Cu107  1  0.67288610  0.34235102  -0.01207818  1
  Cu  Cu108  1  0.83441770  0.83396295  0.26411171  1
  Cu  Cu109  1  0.33702750  0.00037563  0.00146275  1
  Cu  Cu110  1  0.16735613  0.16775556  0.25695153  1
  Cu  Cu111  1  0.66486442  0.67157343  -0.00098953  1
  Cu  Cu112  1  0.16840421  0.16318660  0.74836331  1
  Cu  Cu113  1  0.32283603  0.66179515  -0.00232908  1
  Cu  Cu114  1  -0.00240316  0.33900468  0.50906756  1
  Se  Se115  1  0.07760339  0.07743836  0.06738454  1
  Se  Se116  1  0.07305905  0.08685594  0.56091313  1
  Se  Se117  1  0.08721558  0.42684904  0.05386441  1
  Se  Se118  1  0.08941533  0.41720753  0.55708033  1
  Se  Se119  1  0.07056019  0.73609177  0.05710406  1
  Se  Se120  1  0.08510554  0.73728174  0.55627709  1
  Se  Se121  1  0.41107667  0.08095233  0.06322846  1
  Se  Se122  1  0.41353828  0.08791036  0.54968215  1
  Se  Se123  1  0.40832058  0.41370183  0.06030606  1
  Se  Se124  1  0.41441296  0.41221953  0.55561767  1
  Se  Se125  1  0.40222165  0.73978019  0.06023314  1
  Se  Se126  1  0.44376098  0.77400430  0.55455120  1
  Se  Se127  1  0.74418363  0.07474746  0.05858752  1
  Se  Se128  1  0.74693158  0.08180953  0.55234315  1
  Se  Se129  1  0.74932238  0.41782770  0.05343900  1
  Se  Se130  1  0.74626014  0.42047528  0.55648857  1
  Se  Se131  1  0.74661634  0.74504763  0.06126901  1
  Se  Se132  1  0.75212032  0.74484630  0.55728042  1
  Se  Se133  1  0.25686152  0.26040507  0.05901613  1
  Se  Se134  1  0.24873886  0.25505831  0.56363873  1
  Se  Se135  1  0.24412733  0.57925551  0.05379973  1
  Se  Se136  1  0.27472938  0.59520390  0.54792994  1
  Se  Se137  1  0.25660173  0.92285317  0.06273863  1
  Se  Se138  1  0.25016807  0.92083974  0.55006947  1
  Se  Se139  1  0.59461503  0.26443118  0.05066966  1
  Se  Se140  1  0.58182805  0.25119530  0.55389852  1
  Se  Se141  1  0.58956393  0.59317554  0.06260310  1
  Se  Se142  1  0.58385784  0.58065432  0.55877995  1
  Se  Se143  1  0.59395969  0.92921042  0.06146776  1
  Se  Se144  1  0.58410757  0.91605013  0.54657699  1
  Se  Se145  1  0.92947837  0.25835819  0.05961062  1
  Se  Se146  1  0.91364552  0.25218975  0.55594214  1
  Se  Se147  1  0.91895356  0.58469472  0.05113319  1
  Se  Se148  1  0.91339896  0.58198456  0.56027475  1
  Se  Se149  1  0.91917650  0.91748333  0.06599616  1
  Se  Se150  1  0.92891745  0.91873194  0.54524435  1
  Se  Se151  1  0.07368197  0.26102609  0.44200633  1
  Se  Se152  1  0.09055890  0.26155929  0.94474915  1
  Se  Se153  1  0.08724940  0.57728881  0.45238529  1
  Se  Se154  1  0.08968917  0.58550641  0.93445178  1
  Se  Se155  1  0.07310851  0.93150769  0.45294271  1
  Se  Se156  1  0.07483428  0.92156742  0.94872684  1
  Se  Se157  1  0.41195054  0.24916326  0.44583817  1
  Se  Se158  1  0.41207937  0.26296568  0.93908779  1
  Se  Se159  1  0.38904284  0.59605059  0.45587123  1
  Se  Se160  1  0.41357941  0.59239082  0.93939366  1
  Se  Se161  1  0.41742328  0.91988842  0.44486913  1
  Se  Se162  1  0.41153454  0.91757357  0.94113735  1
  Se  Se163  1  0.74306954  0.26133137  0.44819967  1
  Se  Se164  1  0.75503791  0.26021372  0.93475173  1
  Se  Se165  1  0.75236143  0.57870610  0.45131365  1
  Se  Se166  1  0.73655712  0.59363343  0.93166371  1
  Se  Se167  1  0.75012660  0.91315412  0.44698163  1
  Se  Se168  1  0.74111701  0.92286802  0.94625207  1
  Se  Se169  1  0.25528585  0.08412892  0.43503473  1
  Se  Se170  1  0.25676282  0.07546713  0.93885203  1
  Se  Se171  1  0.24775242  0.41368483  0.44896395  1
  Se  Se172  1  0.24927967  0.42487114  0.93832035  1
  Se  Se173  1  0.22918360  0.77496693  0.44628308  1
  Se  Se174  1  0.24818066  0.74171198  0.93549150  1
  Se  Se175  1  0.58228719  0.08600362  0.44653232  1
  Se  Se176  1  0.59380634  0.07653023  0.94332891  1
  Se  Se177  1  0.57461362  0.42410311  0.45111276  1
  Se  Se178  1  0.59020332  0.42495701  0.93425780  1
  Se  Se179  1  0.58513014  0.73845087  0.44661789  1
  Se  Se180  1  0.58370653  0.75023523  0.94084275  1
  Se  Se181  1  0.90044381  0.10411150  0.44499138  1
  Se  Se182  1  0.92793933  0.08208235  0.94172358  1
  Se  Se183  1  0.91746852  0.41950609  0.45025786  1
  Se  Se184  1  0.91512550  0.39390887  0.93425476  1
  Se  Se185  1  0.91850845  0.74300671  0.45032350  1
  Se  Se186  1  0.91773081  0.73590820  0.92911738  1
  Se  Se187  1  0.25091674  0.25489753  0.30395299  1
  Se  Se188  1  0.25283238  0.24628535  0.80112082  1
  Se  Se189  1  0.24811013  0.58081751  0.31155596  1
  Se  Se190  1  0.28216427  0.61435948  0.80652970  1
  Se  Se191  1  0.25313115  0.91757715  0.30822996  1
  Se  Se192  1  0.24791701  0.91205497  0.79890732  1
  Se  Se193  1  0.57489846  0.24714231  0.31106554  1
  Se  Se194  1  0.56952700  0.23132009  0.80601881  1
  Se  Se195  1  0.57446345  0.58352046  0.31434346  1
  Se  Se196  1  0.58509923  0.58141798  0.79566260  1
  Se  Se197  1  0.57803655  0.91164451  0.31587166  1
  Se  Se198  1  0.57534788  0.90801245  0.80803618  1
  Se  Se199  1  0.92067571  0.25624838  0.30605263  1
  Se  Se200  1  0.89521657  0.22145302  0.80316781  1
  Se  Se201  1  0.90815661  0.57345283  0.31712376  1
  Se  Se202  1  0.92404298  0.56495951  0.80315704  1
  Se  Se203  1  0.92179832  0.91143935  0.31399781  1
  Se  Se204  1  0.91536873  0.90920490  0.80881405  1
  Se  Se205  1  0.08638557  0.08390878  0.30989096  1
  Se  Se206  1  0.08784848  0.08848427  0.81347103  1
  Se  Se207  1  0.08197581  0.41569177  0.30591706  1
  Se  Se208  1  0.05918069  0.38900243  0.80790284  1
  Se  Se209  1  0.09311568  0.75241359  0.32080636  1
  Se  Se210  1  0.08217508  0.75070200  0.79287102  1
  Se  Se211  1  0.41840587  0.08302408  0.29906477  1
  Se  Se212  1  0.41121529  0.07204730  0.80007363  1
  Se  Se213  1  0.41296862  0.41632334  0.31172135  1
  Se  Se214  1  0.41901658  0.41849927  0.79825835  1
  Se  Se215  1  0.41488011  0.74753982  0.31265576  1
  Se  Se216  1  0.42445141  0.75474619  0.79898876  1
  Se  Se217  1  0.75387150  0.08647674  0.31584716  1
  Se  Se218  1  0.74921537  0.07613333  0.80586893  1
  Se  Se219  1  0.75319373  0.42156675  0.31583036  1
  Se  Se220  1  0.73954911  0.37524438  0.80781179  1
  Se  Se221  1  0.74897107  0.74751516  0.30811338  1
  Se  Se222  1  0.74845038  0.75286112  0.79521105  1
  Se  Se223  1  0.25003896  0.08333239  0.20294621  1
  Se  Se224  1  0.24808569  0.07946504  0.69459758  1
  Se  Se225  1  0.24519937  0.42048302  0.19717507  1
  Se  Se226  1  0.25732660  0.41913863  0.69726935  1
  Se  Se227  1  0.24437690  0.74697147  0.20018511  1
  Se  Se228  1  0.25570313  0.75386113  0.68484992  1
  Se  Se229  1  0.57800481  0.09558702  0.19185912  1
  Se  Se230  1  0.57637890  0.08546778  0.68097777  1
  Se  Se231  1  0.56979049  0.42948810  0.19223464  1
  Se  Se232  1  0.58361628  0.41246654  0.69311518  1
  Se  Se233  1  0.58217384  0.74817656  0.20385660  1
  Se  Se234  1  0.58685993  0.74935495  0.69243912  1
  Se  Se235  1  0.91976757  0.08003168  0.20736007  1
  Se  Se236  1  0.90777447  0.08488913  0.68959968  1
  Se  Se237  1  0.91257383  0.41792576  0.19607790  1
  Se  Se238  1  0.92018626  0.41677960  0.67933039  1
  Se  Se239  1  0.90869171  0.75386122  0.19560649  1
  Se  Se240  1  0.91792983  0.74654493  0.69318675  1
  Se  Se241  1  0.08798872  0.24969042  0.19772721  1
  Se  Se242  1  0.08460214  0.24946741  0.70022274  1
  Se  Se243  1  0.08208408  0.58158958  0.19652155  1
  Se  Se244  1  0.10364934  0.58036372  0.69677409  1
  Se  Se245  1  0.08285341  0.91347932  0.20582843  1
  Se  Se246  1  0.08641356  0.90766710  0.68116519  1
  Se  Se247  1  0.41911775  0.25198946  0.19820167  1
  Se  Se248  1  0.41590506  0.24641307  0.69301602  1
  Se  Se249  1  0.41243908  0.58489335  0.20109427  1
  Se  Se250  1  0.41893789  0.58379024  0.68892372  1
  Se  Se251  1  0.41679413  0.91265429  0.20247536  1
  Se  Se252  1  0.41619695  0.92054918  0.68850863  1
  Se  Se253  1  0.75667057  0.24304690  0.19819761  1
  Se  Se254  1  0.74582136  0.25069562  0.69688373  1
  Se  Se255  1  0.74753714  0.58484062  0.20249078  1
  Se  Se256  1  0.75313997  0.57526902  0.70244313  1
  Se  Se257  1  0.75719547  0.90903742  0.19622922  1
  Se  Se258  1  0.76026953  0.91076761  0.68123764  1
