# generated using pymatgen
data_In86Cu29Se144
_symmetry_space_group_name_H-M   'P 1'
_cell_length_a   17.57511550
_cell_length_b   17.57808094
_cell_length_c   23.43586565
_cell_angle_alpha   89.97372939
_cell_angle_beta   90.02378893
_cell_angle_gamma   89.99757622
_symmetry_Int_Tables_number   1
_chemical_formula_structural   In86Cu29Se144
_chemical_formula_sum   'In86 Cu29 Se144'
_cell_volume   7240.20001206
_cell_formula_units_Z   1
loop_
 _symmetry_equiv_pos_site_id
 _symmetry_equiv_pos_as_xyz
  1  'x, y, z'
loop_
 _atom_site_type_symbol
 _atom_site_label
 _atom_site_symmetry_multiplicity
 _atom_site_fract_x
 _atom_site_fract_y
 _atom_site_fract_z
 _atom_site_occupancy
  In  In0  1  0.00163035  0.16580511  0.11650730  1
  In  In1  1  0.00957767  0.17926934  0.61999666  1
  In  In2  1  0.01257761  0.50543071  0.13033222  1
  In  In3  1  0.00024509  0.48853721  0.62736619  1
  In  In4  1  -0.00776302  0.82995417  0.12906862  1
  In  In5  1  0.00328098  0.82920080  0.60812517  1
  In  In6  1  0.33150918  0.16415598  0.11905429  1
  In  In7  1  0.33489188  0.16561819  0.62621569  1
  In  In8  1  0.34054997  0.49781879  0.12303720  1
  In  In9  1  0.31825506  0.51837620  0.64807700  1
  In  In10  1  0.35135046  0.83019095  0.14454440  1
  In  In11  1  0.32810120  0.84152073  0.62601933  1
  In  In12  1  0.67252746  0.17245465  0.11698330  1
  In  In13  1  0.65252724  0.15993311  0.62260529  1
  In  In14  1  0.65534790  0.50839883  0.12878032  1
  In  In15  1  0.67600660  0.50673263  0.63347466  1
  In  In16  1  0.66389778  0.82452658  0.12354388  1
  In  In17  1  0.67044239  0.83462833  0.62787434  1
  In  In18  1  0.17769907  -0.01023336  0.38936297  1
  In  In19  1  0.18419578  0.00288663  0.86805984  1
  In  In20  1  0.16559193  0.33489169  0.38456569  1
  In  In21  1  0.15885405  0.33010067  0.85877046  1
  In  In22  1  0.17424926  0.66245036  0.37427010  1
  In  In23  1  0.17808335  0.65715892  0.86947634  1
  In  In24  1  0.49536994  0.00872175  0.37504975  1
  In  In25  1  0.50791306  0.00768725  0.87293622  1
  In  In26  1  0.49848612  0.32058418  0.37546225  1
  In  In27  1  0.48671921  0.34034652  0.88103241  1
  In  In28  1  0.49904785  0.67253832  0.35960558  1
  In  In29  1  0.49469291  0.65739417  0.86608818  1
  In  In30  1  0.83609551  -0.00850785  0.38475988  1
  In  In31  1  0.81907027  0.00690510  0.88656276  1
  In  In32  1  0.82259081  0.33376825  0.37368959  1
  In  In33  1  0.83127833  0.31742935  0.87196143  1
  In  In34  1  0.83941488  0.67397186  0.36888500  1
  In  In35  1  0.82825617  0.68651728  0.88078912  1
  In  In36  1  0.00458869  0.15775543  0.38434274  1
  In  In37  1  -0.00445446  0.17012896  0.87451700  1
  In  In38  1  0.01151950  0.51560561  0.37374418  1
  In  In39  1  0.01656573  0.49372144  0.86661467  1
  In  In40  1  0.02024723  0.79931041  0.40273706  1
  In  In41  1  -0.01249484  0.82670326  0.87459734  1
  In  In42  1  0.33713987  0.16054239  0.39043593  1
  In  In43  1  0.33357181  0.16417378  0.87529832  1
  In  In44  1  0.31818570  0.50990161  0.37877588  1
  In  In45  1  0.34339057  0.50467765  0.85576733  1
  In  In46  1  0.33332677  0.83107426  0.37042216  1
  In  In47  1  0.33708058  0.83416146  0.86169268  1
  In  In48  1  0.66232242  0.16792435  0.37858105  1
  In  In49  1  0.66751836  0.15375727  0.88634567  1
  In  In50  1  0.66650484  0.49943596  0.36386762  1
  In  In51  1  0.64381807  0.49719327  0.87142087  1
  In  In52  1  0.67608702  0.83426199  0.37454386  1
  In  In53  1  0.67025268  0.84081753  0.87193366  1
  In  In54  1  0.17359055  0.01054395  0.12558794  1
  In  In55  1  0.18867862  0.01120909  0.60579269  1
  In  In56  1  0.17771961  0.32996839  0.12391752  1
  In  In57  1  0.17208950  0.33672828  0.62874144  1
  In  In58  1  0.17010953  0.65818600  0.14472655  1
  In  In59  1  0.17376380  0.67805136  0.60880003  1
  In  In60  1  0.48901918  -0.00471799  0.12365683  1
  In  In61  1  0.48612477  0.01633449  0.63525680  1
  In  In62  1  0.50156548  0.34520082  0.11451337  1
  In  In63  1  0.49543289  0.32070261  0.62814619  1
  In  In64  1  0.50742303  0.66438256  0.12939656  1
  In  In65  1  0.49674866  0.66528807  0.63703593  1
  In  In66  1  0.82799639  -0.00274997  0.11080400  1
  In  In67  1  0.82228705  -0.00460885  0.62224145  1
  In  In68  1  0.83193641  0.31489265  0.12261901  1
  In  In69  1  0.84529235  0.33521851  0.62878215  1
  In  In70  1  0.82569835  0.67459015  0.13274433  1
  In  In71  1  0.83255462  0.66888175  0.62309464  1
  In  In72  1  0.16277005  0.84251773  0.00292888  1
  In  In73  1  0.66345433  0.33190398  0.75618009  1
  In  In74  1  0.49841694  0.84041860  0.49520284  1
  In  In75  1  0.00247927  -0.00276117  0.73554399  1
  In  In76  1  0.00244964  0.66624925  0.74607935  1
  In  In77  1  -0.00430574  0.33572054  0.25851736  1
  In  In78  1  0.49595910  0.49189795  0.50517004  1
  In  In79  1  -0.00084753  -0.00457383  0.25511629  1
  In  In80  1  0.17301487  0.49490801  -0.00483265  1
  In  In81  1  0.82950030  0.49729869  -0.00021507  1
  In  In82  1  0.65882606  -0.00638930  0.24521311  1
  In  In83  1  0.50574402  0.83895678  0.00433345  1
  In  In84  1  0.33494098  0.34251434  0.25033577  1
  In  In85  1  0.83979154  0.49701602  0.49885171  1
  Cu  Cu86  1  0.49975334  0.50142258  0.24487956  1
  Cu  Cu87  1  0.33280899  0.00345576  0.00014870  1
  Cu  Cu88  1  0.32943501  0.32683181  -0.00518579  1
  Cu  Cu89  1  0.83251919  0.16598388  0.75482919  1
  Cu  Cu90  1  0.66228301  0.00411985  0.50113498  1
  Cu  Cu91  1  0.66838173  0.32447106  0.50013589  1
  Cu  Cu92  1  0.00104760  0.32641860  -0.00716066  1
  Cu  Cu93  1  0.50014248  0.17236518  0.25332451  1
  Cu  Cu94  1  0.17086709  0.83016688  0.73984419  1
  Cu  Cu95  1  0.50190315  0.82978155  0.74880097  1
  Cu  Cu96  1  0.00258089  0.32998254  0.50401144  1
  Cu  Cu97  1  0.17411133  0.16954126  0.25034547  1
  Cu  Cu98  1  0.83600512  0.50853864  0.75017100  1
  Cu  Cu99  1  0.83768124  0.82700622  0.25477715  1
  Cu  Cu100  1  0.49798834  0.16174478  0.75392458  1
  Cu  Cu101  1  0.67095708  0.66715745  0.50241469  1
  Cu  Cu102  1  0.82699990  0.84138345  0.75107490  1
  Cu  Cu103  1  -0.00201237  0.67123956  0.00392735  1
  Cu  Cu104  1  0.16912694  0.16510736  0.74198639  1
  Cu  Cu105  1  0.82831190  0.49680205  0.24882223  1
  Cu  Cu106  1  0.16566819  0.83439746  0.26207945  1
  Cu  Cu107  1  0.82696145  0.15759617  0.24662050  1
  Cu  Cu108  1  0.66094963  0.33189440  -0.00467973  1
  Cu  Cu109  1  0.33364313  0.66703686  0.49976328  1
  Cu  Cu110  1  -0.01127264  0.00528480  0.50533853  1
  Cu  Cu111  1  0.00345836  0.00454376  -0.00189476  1
  Cu  Cu112  1  0.33486667  0.66649870  -0.00619639  1
  Cu  Cu113  1  0.66139079  0.66545400  0.00355339  1
  Cu  Cu114  1  0.32805372  0.33249256  0.50640285  1
  Se  Se115  1  0.08964964  0.08320298  0.05231680  1
  Se  Se116  1  0.08034546  0.08453590  0.55368653  1
  Se  Se117  1  0.07659029  0.40770294  0.05599400  1
  Se  Se118  1  0.08522701  0.41427398  0.55641372  1
  Se  Se119  1  0.08610807  0.74138103  0.06423043  1
  Se  Se120  1  0.07925415  0.74358754  0.53980806  1
  Se  Se121  1  0.41979646  0.08466346  0.05192643  1
  Se  Se122  1  0.41741216  0.08581234  0.55507327  1
  Se  Se123  1  0.40818922  0.41739962  0.04632807  1
  Se  Se124  1  0.40381262  0.41382631  0.56904675  1
  Se  Se125  1  0.40937921  0.74650415  0.05820633  1
  Se  Se126  1  0.41812045  0.74367447  0.55896585  1
  Se  Se127  1  0.75706407  0.09287493  0.04913800  1
  Se  Se128  1  0.74584065  0.08711586  0.55524619  1
  Se  Se129  1  0.74061327  0.40876162  0.06086492  1
  Se  Se130  1  0.74363657  0.40988771  0.56002458  1
  Se  Se131  1  0.74930451  0.74640295  0.05399952  1
  Se  Se132  1  0.74979028  0.75275996  0.55561217  1
  Se  Se133  1  0.24597033  0.24644385  0.05012369  1
  Se  Se134  1  0.24635017  0.24681416  0.55876678  1
  Se  Se135  1  0.25179562  0.59385580  0.05773781  1
  Se  Se136  1  0.25968542  0.57765573  0.55603393  1
  Se  Se137  1  0.26416338  0.91670273  0.06408881  1
  Se  Se138  1  0.24326310  0.89985026  0.54760906  1
  Se  Se139  1  0.57907954  0.25022675  0.05224119  1
  Se  Se140  1  0.57827290  0.24946751  0.55319105  1
  Se  Se141  1  0.57547639  0.58125216  0.05247992  1
  Se  Se142  1  0.58981654  0.58681821  0.56032492  1
  Se  Se143  1  0.59769089  0.93124798  0.05951410  1
  Se  Se144  1  0.58188036  0.92542061  0.56301627  1
  Se  Se145  1  0.91697681  0.24671133  0.04814268  1
  Se  Se146  1  0.91206511  0.25060454  0.55348752  1
  Se  Se147  1  0.92058041  0.58542460  0.06118745  1
  Se  Se148  1  0.92664843  0.58773245  0.55881764  1
  Se  Se149  1  0.92752105  0.91729528  0.05426139  1
  Se  Se150  1  0.90793125  0.91594721  0.55354578  1
  Se  Se151  1  0.08498669  0.24665116  0.44955404  1
  Se  Se152  1  0.08851029  0.25086119  0.93753380  1
  Se  Se153  1  0.09136984  0.58523097  0.44762790  1
  Se  Se154  1  0.07694969  0.59251852  0.94226507  1
  Se  Se155  1  0.06975809  0.92488606  0.44705102  1
  Se  Se156  1  0.07756906  0.92495905  0.93245942  1
  Se  Se157  1  0.41710219  0.25486914  0.45259670  1
  Se  Se158  1  0.41778247  0.24287411  0.94675987  1
  Se  Se159  1  0.42071423  0.59137165  0.44107165  1
  Se  Se160  1  0.41064356  0.58089167  0.93796242  1
  Se  Se161  1  0.40218727  0.92945620  0.44316367  1
  Se  Se162  1  0.40830861  0.91801361  0.94041418  1
  Se  Se163  1  0.75365592  0.24580117  0.44567692  1
  Se  Se164  1  0.74945899  0.24958171  0.94704016  1
  Se  Se165  1  0.74386818  0.58299713  0.44014355  1
  Se  Se166  1  0.74029681  0.58710274  0.93932246  1
  Se  Se167  1  0.74389222  0.91534511  0.45114549  1
  Se  Se168  1  0.75806174  0.90141543  0.94759253  1
  Se  Se169  1  0.23251577  0.09808832  0.45067122  1
  Se  Se170  1  0.24718163  0.08392021  0.94672567  1
  Se  Se171  1  0.25134377  0.41870093  0.45001480  1
  Se  Se172  1  0.25674011  0.40926195  0.92998471  1
  Se  Se173  1  0.25491017  0.75057372  0.44322534  1
  Se  Se174  1  0.25332981  0.75141368  0.93977491  1
  Se  Se175  1  0.57876937  0.08541262  0.44634756  1
  Se  Se176  1  0.58026127  0.07509345  0.95291279  1
  Se  Se177  1  0.59212013  0.41108267  0.44122740  1
  Se  Se178  1  0.57559066  0.41935420  0.94934730  1
  Se  Se179  1  0.58713388  0.74083243  0.44053163  1
  Se  Se180  1  0.58262954  0.74337255  0.93909230  1
  Se  Se181  1  0.90725760  0.08838783  0.44963738  1
  Se  Se182  1  0.91797127  0.08585246  0.94469626  1
  Se  Se183  1  0.92845832  0.40790063  0.43596561  1
  Se  Se184  1  0.92404239  0.41362223  0.93643339  1
  Se  Se185  1  0.89763399  0.75134138  0.45050661  1
  Se  Se186  1  0.91414856  0.75650018  0.95470962  1
  Se  Se187  1  0.25010773  0.25034302  0.31233755  1
  Se  Se188  1  0.25145006  0.24246551  0.80195308  1
  Se  Se189  1  0.25836799  0.58999292  0.30016883  1
  Se  Se190  1  0.24269986  0.57609726  0.79470635  1
  Se  Se191  1  0.24960263  0.92370788  0.30709608  1
  Se  Se192  1  0.25143910  0.91603212  0.79470026  1
  Se  Se193  1  0.58837659  0.25192648  0.30415666  1
  Se  Se194  1  0.57757308  0.24100809  0.81734097  1
  Se  Se195  1  0.58497563  0.58495114  0.29749828  1
  Se  Se196  1  0.59033004  0.58970326  0.79800504  1
  Se  Se197  1  0.57358449  0.90907143  0.31199065  1
  Se  Se198  1  0.58031745  0.91575556  0.80446129  1
  Se  Se199  1  0.90915074  0.23361608  0.30995793  1
  Se  Se200  1  0.92109498  0.25164928  0.79933667  1
  Se  Se201  1  0.91125805  0.57566581  0.30587842  1
  Se  Se202  1  0.91250926  0.58602891  0.81602461  1
  Se  Se203  1  0.91780066  0.90291305  0.31712772  1
  Se  Se204  1  0.91244744  0.92124749  0.80713297  1
  Se  Se205  1  0.09369189  0.08744932  0.30926250  1
  Se  Se206  1  0.08683762  0.08482192  0.80300487  1
  Se  Se207  1  0.09629637  0.42325826  0.30724018  1
  Se  Se208  1  0.09356510  0.42660823  0.79028087  1
  Se  Se209  1  0.08159759  0.74807725  0.31077454  1
  Se  Se210  1  0.09216617  0.75965770  0.80795211  1
  Se  Se211  1  0.41383714  0.09528193  0.30810341  1
  Se  Se212  1  0.41257809  0.07692535  0.80573390  1
  Se  Se213  1  0.42476686  0.42825856  0.31484904  1
  Se  Se214  1  0.42022223  0.40620924  0.79745178  1
  Se  Se215  1  0.41206356  0.75376317  0.29753804  1
  Se  Se216  1  0.41490319  0.74415050  0.79760494  1
  Se  Se217  1  0.75227258  0.07675788  0.30954594  1
  Se  Se218  1  0.74855420  0.08444711  0.80803342  1
  Se  Se219  1  0.74610429  0.40942710  0.29827861  1
  Se  Se220  1  0.75790807  0.42631991  0.81269632  1
  Se  Se221  1  0.74470257  0.74668089  0.30167271  1
  Se  Se222  1  0.74827054  0.75198202  0.80250895  1
  Se  Se223  1  0.25702464  0.08686050  0.19682351  1
  Se  Se224  1  0.25116110  0.07682415  0.69293350  1
  Se  Se225  1  0.23874404  0.43074840  0.19262047  1
  Se  Se226  1  0.26522063  0.40111198  0.70011324  1
  Se  Se227  1  0.24849761  0.75627493  0.20215605  1
  Se  Se228  1  0.25329619  0.74349049  0.68931954  1
  Se  Se229  1  0.57666076  0.09393051  0.18851253  1
  Se  Se230  1  0.58627983  0.08147468  0.70230672  1
  Se  Se231  1  0.58017125  0.41298607  0.19371406  1
  Se  Se232  1  0.58022718  0.41930159  0.69036737  1
  Se  Se233  1  0.57131127  0.76477812  0.19406256  1
  Se  Se234  1  0.58862318  0.75012428  0.69598046  1
  Se  Se235  1  0.91294549  0.08321932  0.18829918  1
  Se  Se236  1  0.90885497  0.09407481  0.68577014  1
  Se  Se237  1  0.90923571  0.41825695  0.18716452  1
  Se  Se238  1  0.91684831  0.41852609  0.70281058  1
  Se  Se239  1  0.92121913  0.74350389  0.20109663  1
  Se  Se240  1  0.91355471  0.76511170  0.69136435  1
  Se  Se241  1  0.08697243  0.24613039  0.19343236  1
  Se  Se242  1  0.08335172  0.25357150  0.69696823  1
  Se  Se243  1  0.07371346  0.58701492  0.20745071  1
  Se  Se244  1  0.09081026  0.58586393  0.68164754  1
  Se  Se245  1  0.09372487  0.91110436  0.19144177  1
  Se  Se246  1  0.09423276  0.90917041  0.67751527  1
  Se  Se247  1  0.42097046  0.25113791  0.18884289  1
  Se  Se248  1  0.41489779  0.24461253  0.70111402  1
  Se  Se249  1  0.41443015  0.58403930  0.19313581  1
  Se  Se250  1  0.43177868  0.57166277  0.70468422  1
  Se  Se251  1  0.41815669  0.93111304  0.20547293  1
  Se  Se252  1  0.41710351  0.91385205  0.69626374  1
  Se  Se253  1  0.74693402  0.24651945  0.19706230  1
  Se  Se254  1  0.75195135  0.24582998  0.69158236  1
  Se  Se255  1  0.74600926  0.58316804  0.19604592  1
  Se  Se256  1  0.75461255  0.59447550  0.69988822  1
  Se  Se257  1  0.76269338  0.90918879  0.19147659  1
  Se  Se258  1  0.74266355  0.92517614  0.69946927  1
