# generated using pymatgen
data_In86Cu29Se144
_symmetry_space_group_name_H-M   'P 1'
_cell_length_a   17.58807187
_cell_length_b   17.58971069
_cell_length_c   23.45019070
_cell_angle_alpha   90.01528064
_cell_angle_beta   90.01016741
_cell_angle_gamma   90.01300168
_symmetry_Int_Tables_number   1
_chemical_formula_structural   In86Cu29Se144
_chemical_formula_sum   'In86 Cu29 Se144'
_cell_volume   7254.76373412
_cell_formula_units_Z   1
loop_
 _symmetry_equiv_pos_site_id
 _symmetry_equiv_pos_as_xyz
  1  'x, y, z'
loop_
 _atom_site_type_symbol
 _atom_site_label
 _atom_site_symmetry_multiplicity
 _atom_site_fract_x
 _atom_site_fract_y
 _atom_site_fract_z
 _atom_site_occupancy
  In  In0  1  -0.00970734  0.15729767  0.11696404  1
  In  In1  1  0.01214050  0.17720718  0.62225946  1
  In  In2  1  0.00194496  0.50791538  0.12831223  1
  In  In3  1  -0.00869373  0.50187978  0.62698274  1
  In  In4  1  0.00398446  0.83544120  0.12050594  1
  In  In5  1  -0.00380175  0.82139928  0.62811722  1
  In  In6  1  0.32865703  0.16632626  0.12373984  1
  In  In7  1  0.32102977  0.16825041  0.62356281  1
  In  In8  1  0.32225565  0.49427837  0.13030221  1
  In  In9  1  0.33048268  0.47104813  0.61828187  1
  In  In10  1  0.34329888  0.84605084  0.11375598  1
  In  In11  1  0.32912755  0.85064906  0.62469937  1
  In  In12  1  0.66737217  0.17047398  0.11444762  1
  In  In13  1  0.65861052  0.15708432  0.62784866  1
  In  In14  1  0.67275812  0.48954678  0.12468692  1
  In  In15  1  0.66417795  0.49202715  0.61555955  1
  In  In16  1  0.67046353  0.83999373  0.11484947  1
  In  In17  1  0.67090673  0.85184393  0.63033393  1
  In  In18  1  0.16673883  0.00238230  0.37376847  1
  In  In19  1  0.16967893  -0.00118655  0.87547528  1
  In  In20  1  0.17070128  0.31630204  0.38037187  1
  In  In21  1  0.15234142  0.31617628  0.85734430  1
  In  In22  1  0.16376473  0.68163582  0.37824936  1
  In  In23  1  0.16228682  0.68469145  0.87465888  1
  In  In24  1  0.49470819  0.01713657  0.37669867  1
  In  In25  1  0.49533445  0.00927218  0.87427704  1
  In  In26  1  0.49146163  0.33354465  0.38572257  1
  In  In27  1  0.48202224  0.31404516  0.86297068  1
  In  In28  1  0.48797361  0.66529220  0.37787923  1
  In  In29  1  0.51514523  0.66634819  0.87514646  1
  In  In30  1  0.84677413  -0.00491056  0.37639830  1
  In  In31  1  0.83063264  0.00461234  0.87884894  1
  In  In32  1  0.83509057  0.33489282  0.38258413  1
  In  In33  1  0.85677962  0.31981102  0.89115886  1
  In  In34  1  0.84750578  0.64972189  0.37576341  1
  In  In35  1  0.84206661  0.65576018  0.88344124  1
  In  In36  1  0.00887920  0.15951564  0.38336243  1
  In  In37  1  0.00630571  0.16817085  0.87865774  1
  In  In38  1  -0.01162900  0.50714973  0.37708816  1
  In  In39  1  -0.01106662  0.48988327  0.86820279  1
  In  In40  1  0.00968725  0.84196210  0.36709998  1
  In  In41  1  0.00363178  0.82870659  0.87761915  1
  In  In42  1  0.33369962  0.16683131  0.37455842  1
  In  In43  1  0.32906983  0.16472211  0.87412566  1
  In  In44  1  0.34346070  0.49109723  0.38328910  1
  In  In45  1  0.33499381  0.48583873  0.86925389  1
  In  In46  1  0.31408598  0.83437317  0.37617877  1
  In  In47  1  0.32519899  0.84997277  0.88107852  1
  In  In48  1  0.66302713  0.17191108  0.38520806  1
  In  In49  1  0.66902594  0.16363678  0.87334108  1
  In  In50  1  0.67416905  0.49339855  0.38141063  1
  In  In51  1  0.67395945  0.50680147  0.87451816  1
  In  In52  1  0.67257362  0.83814402  0.37183690  1
  In  In53  1  0.66008518  0.84209042  0.88305797  1
  In  In54  1  0.16688090  0.00159203  0.12166998  1
  In  In55  1  0.17725151  0.01309272  0.61926986  1
  In  In56  1  0.17770510  0.33745403  0.12603422  1
  In  In57  1  0.18185772  0.31034611  0.64590105  1
  In  In58  1  0.15550683  0.66642754  0.12537505  1
  In  In59  1  0.14212897  0.66547027  0.61791977  1
  In  In60  1  0.49341705  -0.00135454  0.11740460  1
  In  In61  1  0.45956217  0.04565360  0.66972322  1
  In  In62  1  0.49539998  0.32159925  0.12234222  1
  In  In63  1  0.46652010  0.29922608  0.59362031  1
  In  In64  1  0.48516400  0.67296019  0.12362619  1
  In  In65  1  0.51054632  0.66136478  0.62259191  1
  In  In66  1  0.84464035  0.00819633  0.11697230  1
  In  In67  1  0.81725370  -0.00363499  0.63662381  1
  In  In68  1  0.84182144  0.33386034  0.10913701  1
  In  In69  1  0.84157844  0.33823620  0.62241417  1
  In  In70  1  0.84014725  0.67270427  0.11999186  1
  In  In71  1  0.85545093  0.66361270  0.62232806  1
  In  In72  1  0.00386287  0.32967205  0.24749031  1
  In  In73  1  0.67050788  0.00469631  0.24290640  1
  In  In74  1  0.16217551  0.49053768  0.50089203  1
  In  In75  1  0.50968467  0.49926114  -0.00385888  1
  In  In76  1  0.67274092  0.33072386  0.25770586  1
  In  In77  1  0.66312979  0.33220608  0.75115832  1
  In  In78  1  0.32881156  0.66806340  0.74904317  1
  In  In79  1  0.00361050  0.00547707  0.75467325  1
  In  In80  1  0.32396382  0.66650132  0.25184520  1
  In  In81  1  0.67592490  0.67362728  0.74609687  1
  In  In82  1  0.16093880  0.49855016  0.00426800  1
  In  In83  1  0.67142292  0.66810661  0.24370028  1
  In  In84  1  0.83576438  0.83420176  0.50579861  1
  In  In85  1  0.50107845  0.83612584  0.50685824  1
  Cu  Cu86  1  0.83519208  0.16405047  0.24719472  1
  Cu  Cu87  1  0.48533879  0.16845138  0.24816995  1
  Cu  Cu88  1  0.33216400  0.00804651  -0.00144059  1
  Cu  Cu89  1  0.15932039  0.83356434  0.74945043  1
  Cu  Cu90  1  0.33185621  0.00566711  0.50290231  1
  Cu  Cu91  1  0.16606682  0.49429714  0.25440218  1
  Cu  Cu92  1  0.67371986  0.33111465  0.50301236  1
  Cu  Cu93  1  0.66163753  0.00781209  0.50840111  1
  Cu  Cu94  1  0.66637274  0.33272979  -0.00697685  1
  Cu  Cu95  1  0.66406929  0.00286032  -0.00463217  1
  Cu  Cu96  1  0.16719846  0.15919743  0.25200563  1
  Cu  Cu97  1  0.00179734  0.33343351  0.50515278  1
  Cu  Cu98  1  0.32805782  0.66195582  0.49965228  1
  Cu  Cu99  1  0.49322290  0.84531052  0.24383518  1
  Cu  Cu100  1  0.50100069  0.49333814  0.73789218  1
  Cu  Cu101  1  0.83478772  0.49721647  0.75023774  1
  Cu  Cu102  1  0.67128952  0.67048459  -0.00049772  1
  Cu  Cu103  1  0.00335762  -0.00355508  -0.00379950  1
  Cu  Cu104  1  0.00100903  0.66826403  0.00097407  1
  Cu  Cu105  1  0.49740843  0.83979722  0.76031156  1
  Cu  Cu106  1  0.83671166  0.16961577  0.75655935  1
  Cu  Cu107  1  0.33556762  0.67397965  -0.00531238  1
  Cu  Cu108  1  0.33213146  0.32540690  -0.00296645  1
  Cu  Cu109  1  0.16010929  0.50468686  0.74372118  1
  Cu  Cu110  1  0.00159352  0.00278035  0.49965974  1
  Cu  Cu111  1  0.67154292  0.66576335  0.50019904  1
  Cu  Cu112  1  0.84792949  0.82887042  0.24662686  1
  Cu  Cu113  1  0.50200919  0.49349502  0.26006311  1
  Cu  Cu114  1  0.16448144  0.84013777  0.24626853  1
  Se  Se115  1  0.08343562  0.08216256  0.05129950  1
  Se  Se116  1  0.08536527  0.08755791  0.55235252  1
  Se  Se117  1  0.07241236  0.40590309  0.06201290  1
  Se  Se118  1  0.08322023  0.40505610  0.57047066  1
  Se  Se119  1  0.08819371  0.75105777  0.05105919  1
  Se  Se120  1  0.07568900  0.75687568  0.54948261  1
  Se  Se121  1  0.41638304  0.09048852  0.05292877  1
  Se  Se122  1  0.41503851  0.07673819  0.56590921  1
  Se  Se123  1  0.40854476  0.41581423  0.05489308  1
  Se  Se124  1  0.43328604  0.42851739  0.54841756  1
  Se  Se125  1  0.42149767  0.75534547  0.04682726  1
  Se  Se126  1  0.40699109  0.74262758  0.56294386  1
  Se  Se127  1  0.74968490  0.08194031  0.05179283  1
  Se  Se128  1  0.75339439  0.08278886  0.56050922  1
  Se  Se129  1  0.74727792  0.41594088  0.04851392  1
  Se  Se130  1  0.75849428  0.41786407  0.55124780  1
  Se  Se131  1  0.75531203  0.75391900  0.05194486  1
  Se  Se132  1  0.74149960  0.74583105  0.56520957  1
  Se  Se133  1  0.24570216  0.24970413  0.05357127  1
  Se  Se134  1  0.24484972  0.25717386  0.55617566  1
  Se  Se135  1  0.26002917  0.59275220  0.05780166  1
  Se  Se136  1  0.25177959  0.58319492  0.56394181  1
  Se  Se137  1  0.24933692  0.92024502  0.04974955  1
  Se  Se138  1  0.24593555  0.91787305  0.54913473  1
  Se  Se139  1  0.58128323  0.25382128  0.04894639  1
  Se  Se140  1  0.59145881  0.24378760  0.55250483  1
  Se  Se141  1  0.59035057  0.59262897  0.06358357  1
  Se  Se142  1  0.58452667  0.58191673  0.54893356  1
  Se  Se143  1  0.58136540  0.91918820  0.05069026  1
  Se  Se144  1  0.57831717  0.93174734  0.56773674  1
  Se  Se145  1  0.91277441  0.23987265  0.04644977  1
  Se  Se146  1  0.91678250  0.24717896  0.55466023  1
  Se  Se147  1  0.92019502  0.58226699  0.05448275  1
  Se  Se148  1  0.92224096  0.58052764  0.54868447  1
  Se  Se149  1  0.91831315  0.91491127  0.05084689  1
  Se  Se150  1  0.92120330  0.92937789  0.56483013  1
  Se  Se151  1  0.08409663  0.24753007  0.45285555  1
  Se  Se152  1  0.08784175  0.25642765  0.94395728  1
  Se  Se153  1  0.07986220  0.58982578  0.44394654  1
  Se  Se154  1  0.07902772  0.58838705  0.93810989  1
  Se  Se155  1  0.08266880  0.91982458  0.44380435  1
  Se  Se156  1  0.08766213  0.91385181  0.94321738  1
  Se  Se157  1  0.42507486  0.23298406  0.44707778  1
  Se  Se158  1  0.41814745  0.24292958  0.94624426  1
  Se  Se159  1  0.41783655  0.58214635  0.45129104  1
  Se  Se160  1  0.41154759  0.58653813  0.93731668  1
  Se  Se161  1  0.41009137  0.92057496  0.44153846  1
  Se  Se162  1  0.41788699  0.92346544  0.94677656  1
  Se  Se163  1  0.75668518  0.24680459  0.44915830  1
  Se  Se164  1  0.75043878  0.24562210  0.94400920  1
  Se  Se165  1  0.75395792  0.58426953  0.44547022  1
  Se  Se166  1  0.75035354  0.57933652  0.95117595  1
  Se  Se167  1  0.74074623  0.92752443  0.44669502  1
  Se  Se168  1  0.75248802  0.91833730  0.94877433  1
  Se  Se169  1  0.24936356  0.08413347  0.44365089  1
  Se  Se170  1  0.24475390  0.08705207  0.94557610  1
  Se  Se171  1  0.26022361  0.40067880  0.44873678  1
  Se  Se172  1  0.25152945  0.41155131  0.94292271  1
  Se  Se173  1  0.24719989  0.75223140  0.45287612  1
  Se  Se174  1  0.24807976  0.75646743  0.94605152  1
  Se  Se175  1  0.57914683  0.08579592  0.45029351  1
  Se  Se176  1  0.58178844  0.08863450  0.94423725  1
  Se  Se177  1  0.58921799  0.41139082  0.44615603  1
  Se  Se178  1  0.58407586  0.40526976  0.92878928  1
  Se  Se179  1  0.59129190  0.74730570  0.44001391  1
  Se  Se180  1  0.58183415  0.75009660  0.94992466  1
  Se  Se181  1  0.91352575  0.08366363  0.44840789  1
  Se  Se182  1  0.92151050  0.08296090  0.94397830  1
  Se  Se183  1  0.92149071  0.41674750  0.44888170  1
  Se  Se184  1  0.91239033  0.43001259  0.94985650  1
  Se  Se185  1  0.92115266  0.75406689  0.43684884  1
  Se  Se186  1  0.91702316  0.75114078  0.94771309  1
  Se  Se187  1  0.24885367  0.24681587  0.30296859  1
  Se  Se188  1  0.27558241  0.27336555  0.80928787  1
  Se  Se189  1  0.24424227  0.57408518  0.31809068  1
  Se  Se190  1  0.23932693  0.57829050  0.81119491  1
  Se  Se191  1  0.24898061  0.91965877  0.30177748  1
  Se  Se192  1  0.24509723  0.91438297  0.80201372  1
  Se  Se193  1  0.57340400  0.24151209  0.30838459  1
  Se  Se194  1  0.57279527  0.23039664  0.79864143  1
  Se  Se195  1  0.58111210  0.58211008  0.31137684  1
  Se  Se196  1  0.57976719  0.57395316  0.79830683  1
  Se  Se197  1  0.57772207  0.91706847  0.30673661  1
  Se  Se198  1  0.58342368  0.92189194  0.81010165  1
  Se  Se199  1  0.91312928  0.24343414  0.31043912  1
  Se  Se200  1  0.92290829  0.25019494  0.80756323  1
  Se  Se201  1  0.92599503  0.58625009  0.29712861  1
  Se  Se202  1  0.91513634  0.58567993  0.80243710  1
  Se  Se203  1  0.92100488  0.92125396  0.29945657  1
  Se  Se204  1  0.91400758  0.91386866  0.81125046  1
  Se  Se205  1  0.07848143  0.08210533  0.30483791  1
  Se  Se206  1  0.09958497  0.09668051  0.80522358  1
  Se  Se207  1  0.08764620  0.41597048  0.31694715  1
  Se  Se208  1  0.08067876  0.41960360  0.79936416  1
  Se  Se209  1  0.08689581  0.75052991  0.29955895  1
  Se  Se210  1  0.07576231  0.74849261  0.79910603  1
  Se  Se211  1  0.40905335  0.07933117  0.30108788  1
  Se  Se212  1  0.40570411  0.07809931  0.80256669  1
  Se  Se213  1  0.41585987  0.40997123  0.30816336  1
  Se  Se214  1  0.41989681  0.41550250  0.79649255  1
  Se  Se215  1  0.41988126  0.76123174  0.30673437  1
  Se  Se216  1  0.41953657  0.75149463  0.81467352  1
  Se  Se217  1  0.75364032  0.09051629  0.31164226  1
  Se  Se218  1  0.75267198  0.08289968  0.80405746  1
  Se  Se219  1  0.76655691  0.42682553  0.30624459  1
  Se  Se220  1  0.75860535  0.41572710  0.81189217  1
  Se  Se221  1  0.76235573  0.75497542  0.30761537  1
  Se  Se222  1  0.75200239  0.75004266  0.82132973  1
  Se  Se223  1  0.25043845  0.08068277  0.19354957  1
  Se  Se224  1  0.25702760  0.07601646  0.69713899  1
  Se  Se225  1  0.25229450  0.41191881  0.20462149  1
  Se  Se226  1  0.25126701  0.41903312  0.70210957  1
  Se  Se227  1  0.24742115  0.76007471  0.18614644  1
  Se  Se228  1  0.23884815  0.75386142  0.68620762  1
  Se  Se229  1  0.57543311  0.09615440  0.18903225  1
  Se  Se230  1  0.59943731  0.06246997  0.69918512  1
  Se  Se231  1  0.57680459  0.41656807  0.19419189  1
  Se  Se232  1  0.57603018  0.40846503  0.68049652  1
  Se  Se233  1  0.57490059  0.76110253  0.18957671  1
  Se  Se234  1  0.57230927  0.76168220  0.69441553  1
  Se  Se235  1  0.91933331  0.08050513  0.19614377  1
  Se  Se236  1  0.91343375  0.09134050  0.69076900  1
  Se  Se237  1  0.90951932  0.41691667  0.18993562  1
  Se  Se238  1  0.91914852  0.41292325  0.69868578  1
  Se  Se239  1  0.92688731  0.74621486  0.19100585  1
  Se  Se240  1  0.89598811  0.76317359  0.69575583  1
  Se  Se241  1  0.09049850  0.23854373  0.18698869  1
  Se  Se242  1  0.07585648  0.24846922  0.70527571  1
  Se  Se243  1  0.08887098  0.58032768  0.20009972  1
  Se  Se244  1  0.07379966  0.58801961  0.69591829  1
  Se  Se245  1  0.08119135  0.92097542  0.19127503  1
  Se  Se246  1  0.08691691  0.91767244  0.68647911  1
  Se  Se247  1  0.40719333  0.25523150  0.19447736  1
  Se  Se248  1  0.41778089  0.24700411  0.68756540  1
  Se  Se249  1  0.42310378  0.57374829  0.19697514  1
  Se  Se250  1  0.41606893  0.57791565  0.68534359  1
  Se  Se251  1  0.40972026  0.92700874  0.19246558  1
  Se  Se252  1  0.40950748  0.91287022  0.70365712  1
  Se  Se253  1  0.75779647  0.24670008  0.18835077  1
  Se  Se254  1  0.75735771  0.24531280  0.69116774  1
  Se  Se255  1  0.76060591  0.57440119  0.18978497  1
  Se  Se256  1  0.75553980  0.57353320  0.68704458  1
  Se  Se257  1  0.76217600  0.90911806  0.18993472  1
  Se  Se258  1  0.75944793  0.90121062  0.70821673  1
