# generated using pymatgen
data_In86Cu29Se144
_symmetry_space_group_name_H-M   'P 1'
_cell_length_a   17.58401644
_cell_length_b   17.58778408
_cell_length_c   23.44782738
_cell_angle_alpha   90.02146376
_cell_angle_beta   90.01738061
_cell_angle_gamma   89.98163945
_symmetry_Int_Tables_number   1
_chemical_formula_structural   In86Cu29Se144
_chemical_formula_sum   'In86 Cu29 Se144'
_cell_volume   7251.56496300
_cell_formula_units_Z   1
loop_
 _symmetry_equiv_pos_site_id
 _symmetry_equiv_pos_as_xyz
  1  'x, y, z'
loop_
 _atom_site_type_symbol
 _atom_site_label
 _atom_site_symmetry_multiplicity
 _atom_site_fract_x
 _atom_site_fract_y
 _atom_site_fract_z
 _atom_site_occupancy
  In  In0  1  0.01304634  0.16625232  0.12674328  1
  In  In1  1  -0.00195810  0.16558381  0.62412206  1
  In  In2  1  -0.00049561  0.49940555  0.12693573  1
  In  In3  1  -0.02056575  0.49616925  0.63648023  1
  In  In4  1  -0.01848603  0.83702245  0.12623358  1
  In  In5  1  0.00358556  0.84036963  0.61708397  1
  In  In6  1  0.33039690  0.16608701  0.11994131  1
  In  In7  1  0.32383568  0.15127395  0.61684909  1
  In  In8  1  0.33673011  0.50434468  0.11332130  1
  In  In9  1  0.33351713  0.49792609  0.62777733  1
  In  In10  1  0.33646858  0.82197446  0.12703760  1
  In  In11  1  0.34495467  0.84808018  0.61820793  1
  In  In12  1  0.65728908  0.16802591  0.12450541  1
  In  In13  1  0.65317993  0.15660785  0.61444149  1
  In  In14  1  0.67388437  0.51094093  0.11101460  1
  In  In15  1  0.68298387  0.51040511  0.63225402  1
  In  In16  1  0.66809238  0.83146185  0.12327666  1
  In  In17  1  0.67160801  0.83717689  0.62971240  1
  In  In18  1  0.16512691  0.00122065  0.38203004  1
  In  In19  1  0.17655022  0.00658317  0.86553907  1
  In  In20  1  0.15784540  0.33026687  0.37329725  1
  In  In21  1  0.15533388  0.33254058  0.88210884  1
  In  In22  1  0.16080711  0.68353470  0.36853770  1
  In  In23  1  0.15382106  0.66265357  0.88167617  1
  In  In24  1  0.50995279  -0.01090259  0.38015774  1
  In  In25  1  0.50214845  -0.00234287  0.87690992  1
  In  In26  1  0.49954674  0.33137713  0.37523667  1
  In  In27  1  0.49775316  0.33265069  0.88265219  1
  In  In28  1  0.51676259  0.66750688  0.36850991  1
  In  In29  1  0.52533027  0.65660599  0.89430473  1
  In  In30  1  0.82649774  0.00546073  0.38354196  1
  In  In31  1  0.80773263  -0.03344444  0.84379077  1
  In  In32  1  0.83636816  0.31730274  0.37648819  1
  In  In33  1  0.84842403  0.33432727  0.87343021  1
  In  In34  1  0.84139108  0.67403216  0.36717604  1
  In  In35  1  0.81746527  0.67836187  0.89267856  1
  In  In36  1  -0.00049026  0.16766607  0.37945979  1
  In  In37  1  0.00171019  0.16292196  0.86862937  1
  In  In38  1  -0.00081774  0.50024775  0.36351102  1
  In  In39  1  0.00311872  0.49540148  0.88567797  1
  In  In40  1  0.00003199  0.83108974  0.38022268  1
  In  In41  1  -0.01522285  0.83398888  0.87116084  1
  In  In42  1  0.33504622  0.16860488  0.38186460  1
  In  In43  1  0.33937546  0.15581119  0.87996551  1
  In  In44  1  0.34323642  0.49226977  0.36881109  1
  In  In45  1  0.32972750  0.49673323  0.88281127  1
  In  In46  1  0.32690270  0.84288662  0.38294378  1
  In  In47  1  0.34308928  0.84814720  0.87084123  1
  In  In48  1  0.68246901  0.15717551  0.38887505  1
  In  In49  1  0.66467690  0.15149466  0.87191285  1
  In  In50  1  0.66065827  0.51465168  0.36668764  1
  In  In51  1  0.66421090  0.50692801  0.88605214  1
  In  In52  1  0.66718714  0.83275478  0.37483085  1
  In  In53  1  0.66454099  0.83163294  0.87898948  1
  In  In54  1  0.15337214  0.00658535  0.12277666  1
  In  In55  1  0.16490247  0.00243789  0.62308411  1
  In  In56  1  0.15393732  0.32270360  0.12331585  1
  In  In57  1  0.16398082  0.31590276  0.62285324  1
  In  In58  1  0.17272703  0.65595264  0.12704193  1
  In  In59  1  0.15083643  0.67319589  0.62306323  1
  In  In60  1  0.50819544  0.00983975  0.12055668  1
  In  In61  1  0.50229757  -0.00392936  0.62818895  1
  In  In62  1  0.50035083  0.33219086  0.11441114  1
  In  In63  1  0.51382037  0.31826375  0.62651379  1
  In  In64  1  0.51135295  0.67274382  0.11340053  1
  In  In65  1  0.50588565  0.68547989  0.62423760  1
  In  In66  1  0.82942624  -0.01798676  0.12069433  1
  In  In67  1  0.82935727  -0.00444693  0.62664011  1
  In  In68  1  0.83354434  0.34550640  0.12505765  1
  In  In69  1  0.84450833  0.33861145  0.62726882  1
  In  In70  1  0.82735714  0.66942343  0.12222619  1
  In  In71  1  0.81970079  0.66954167  0.63205269  1
  In  In72  1  -0.01243307  0.66832633  0.75680499  1
  In  In73  1  0.67265104  0.33770441  0.24691969  1
  In  In74  1  0.33167627  0.32991703  0.75742235  1
  In  In75  1  0.50329191  0.49946475  0.49074586  1
  In  In76  1  0.32973408  0.00033365  0.25765104  1
  In  In77  1  0.16558763  0.49998595  0.49909698  1
  In  In78  1  -0.00392435  -0.00393679  0.25385101  1
  In  In79  1  0.33577577  0.33574401  0.25377457  1
  In  In80  1  0.33619543  0.67575083  0.75382838  1
  In  In81  1  0.16760588  0.83288585  0.00249711  1
  In  In82  1  0.33675938  0.66584286  0.24542758  1
  In  In83  1  0.67216185  0.33108965  0.75050420  1
  In  In84  1  0.83132100  0.49882568  0.50638017  1
  In  In85  1  0.83792309  0.16197391  -0.01239036  1
  Cu  Cu86  1  0.34091054  0.32626177  0.50224887  1
  Cu  Cu87  1  0.51009498  0.16539645  0.24877192  1
  Cu  Cu88  1  0.66521751  0.33201811  0.00130517  1
  Cu  Cu89  1  0.66614051  -0.00205732  -0.00492999  1
  Cu  Cu90  1  0.32521814  0.33108729  -0.00071602  1
  Cu  Cu91  1  -0.00136127  0.00093872  -0.00580744  1
  Cu  Cu92  1  0.16849070  0.84055099  0.74457984  1
  Cu  Cu93  1  0.33102845  0.67684504  0.49832185  1
  Cu  Cu94  1  -0.00022696  0.33323220  0.00197529  1
  Cu  Cu95  1  0.66506062  -0.00847745  0.50390251  1
  Cu  Cu96  1  0.33500719  0.00342114  -0.00254135  1
  Cu  Cu97  1  0.83626873  0.16364099  0.74588737  1
  Cu  Cu98  1  0.00228462  0.32942725  0.50204151  1
  Cu  Cu99  1  0.82192117  0.82694092  0.24769945  1
  Cu  Cu100  1  0.51076680  0.83329524  0.75169550  1
  Cu  Cu101  1  0.83571552  0.50216843  0.24213400  1
  Cu  Cu102  1  0.50358227  0.83536973  0.24982848  1
  Cu  Cu103  1  0.83761898  0.16020306  0.25719476  1
  Cu  Cu104  1  0.16121224  0.16297721  0.74467025  1
  Cu  Cu105  1  -0.00341833  0.67723337  0.49673567  1
  Cu  Cu106  1  0.51080154  0.51276211  0.75665108  1
  Cu  Cu107  1  0.49363365  0.15643565  0.74922280  1
  Cu  Cu108  1  0.33724470  0.00318580  0.50210983  1
  Cu  Cu109  1  0.33877025  0.66960153  -0.00145708  1
  Cu  Cu110  1  0.66572947  0.67368230  0.50069927  1
  Cu  Cu111  1  0.16649837  0.49697968  0.24581478  1
  Cu  Cu112  1  -0.00413068  0.00603077  0.50329530  1
  Cu  Cu113  1  -0.00419253  0.66055609  0.00442782  1
  Cu  Cu114  1  0.15804939  0.49244050  0.75845883  1
  Se  Se115  1  0.07964849  0.08522743  0.04776344  1
  Se  Se116  1  0.08419189  0.08763954  0.55397530  1
  Se  Se117  1  0.08253350  0.41643660  0.05650156  1
  Se  Se118  1  0.07405394  0.41662191  0.56390697  1
  Se  Se119  1  0.07684334  0.74476556  0.06353650  1
  Se  Se120  1  0.08654297  0.75637557  0.54712420  1
  Se  Se121  1  0.41734745  0.08629094  0.05379744  1
  Se  Se122  1  0.42500593  0.08238398  0.55563809  1
  Se  Se123  1  0.41453568  0.41387972  0.04819334  1
  Se  Se124  1  0.41674116  0.41208512  0.55994090  1
  Se  Se125  1  0.41816928  0.75572433  0.05138302  1
  Se  Se126  1  0.41900017  0.75365848  0.55186568  1
  Se  Se127  1  0.74710647  0.08065049  0.05565306  1
  Se  Se128  1  0.74911337  0.07801179  0.55403764  1
  Se  Se129  1  0.75307399  0.41442705  0.04960500  1
  Se  Se130  1  0.73825126  0.40779139  0.56146563  1
  Se  Se131  1  0.76375278  0.76682905  0.05447637  1
  Se  Se132  1  0.75015810  0.75159249  0.55696803  1
  Se  Se133  1  0.24406166  0.24799503  0.05460460  1
  Se  Se134  1  0.25036298  0.24664831  0.55110037  1
  Se  Se135  1  0.24980019  0.58787940  0.04829172  1
  Se  Se136  1  0.25695879  0.59297792  0.55988624  1
  Se  Se137  1  0.25768685  0.92522059  0.06293327  1
  Se  Se138  1  0.24964760  0.92000979  0.55328926  1
  Se  Se139  1  0.58190594  0.24403573  0.04899457  1
  Se  Se140  1  0.58493265  0.25221065  0.54684651  1
  Se  Se141  1  0.58044975  0.58125668  0.04435905  1
  Se  Se142  1  0.58961373  0.58635770  0.55910851  1
  Se  Se143  1  0.58539568  0.91925586  0.05518124  1
  Se  Se144  1  0.58159208  0.91000078  0.55884499  1
  Se  Se145  1  0.91767778  0.24919895  0.05932270  1
  Se  Se146  1  0.91485084  0.25145227  0.55533909  1
  Se  Se147  1  0.91289399  0.57891542  0.05879500  1
  Se  Se148  1  0.92412867  0.59470162  0.56131279  1
  Se  Se149  1  0.91670983  0.91575945  0.04637749  1
  Se  Se150  1  0.91245365  0.91864452  0.55227329  1
  Se  Se151  1  0.08732002  0.24885203  0.44816418  1
  Se  Se152  1  0.07387809  0.24319513  0.94651526  1
  Se  Se153  1  0.07433577  0.58908178  0.44002938  1
  Se  Se154  1  0.08496645  0.57926551  0.95534352  1
  Se  Se155  1  0.07679765  0.92122760  0.44703922  1
  Se  Se156  1  0.08355957  0.91930539  0.93623931  1
  Se  Se157  1  0.42561233  0.24737198  0.44708672  1
  Se  Se158  1  0.41171591  0.24908877  0.94675043  1
  Se  Se159  1  0.40804568  0.59431325  0.43734088  1
  Se  Se160  1  0.41677587  0.58116711  0.94572946  1
  Se  Se161  1  0.41824882  0.91690732  0.44888938  1
  Se  Se162  1  0.41936957  0.91731115  0.94943600  1
  Se  Se163  1  0.75157064  0.25637287  0.45140158  1
  Se  Se164  1  0.74152373  0.25560342  0.93470724  1
  Se  Se165  1  0.74662657  0.59061031  0.44225606  1
  Se  Se166  1  0.73860680  0.59079381  0.95835734  1
  Se  Se167  1  0.74891295  0.91203162  0.44709095  1
  Se  Se168  1  0.75472216  0.92154077  0.94123879  1
  Se  Se169  1  0.25176091  0.08372184  0.44739666  1
  Se  Se170  1  0.24502519  0.08183100  0.94651423  1
  Se  Se171  1  0.26176889  0.40940759  0.44214675  1
  Se  Se172  1  0.24193452  0.41605355  0.94741188  1
  Se  Se173  1  0.24252097  0.75233056  0.44458576  1
  Se  Se174  1  0.25795873  0.74821176  0.93637756  1
  Se  Se175  1  0.58545553  0.07833267  0.44849805  1
  Se  Se176  1  0.58094587  0.08517506  0.94741543  1
  Se  Se177  1  0.60021773  0.41176541  0.43686989  1
  Se  Se178  1  0.58052326  0.41597132  0.94863025  1
  Se  Se179  1  0.58023939  0.75166018  0.44504723  1
  Se  Se180  1  0.57474039  0.76817180  0.95351810  1
  Se  Se181  1  0.91380436  0.08923493  0.44791904  1
  Se  Se182  1  0.91473239  0.06529174  0.92683023  1
  Se  Se183  1  0.92609788  0.41531771  0.44252285  1
  Se  Se184  1  0.91274596  0.41559708  0.95223307  1
  Se  Se185  1  0.90631187  0.75480168  0.44635778  1
  Se  Se186  1  0.92339887  0.75117485  0.94983899  1
  Se  Se187  1  0.24581959  0.24082103  0.30711577  1
  Se  Se188  1  0.23911633  0.23910846  0.81193406  1
  Se  Se189  1  0.24470957  0.57565283  0.30922485  1
  Se  Se190  1  0.24197220  0.57885549  0.80928732  1
  Se  Se191  1  0.23393063  0.90670162  0.30742162  1
  Se  Se192  1  0.25598665  0.91742465  0.79877969  1
  Se  Se193  1  0.58910879  0.24490413  0.31029380  1
  Se  Se194  1  0.57170786  0.24377419  0.80670358  1
  Se  Se195  1  0.58034349  0.58446842  0.29281387  1
  Se  Se196  1  0.59476122  0.59183143  0.80944020  1
  Se  Se197  1  0.58763466  0.91786575  0.30313520  1
  Se  Se198  1  0.58812522  0.91997415  0.80730033  1
  Se  Se199  1  0.92207896  0.24713839  0.30390612  1
  Se  Se200  1  0.91677615  0.24675930  0.80103607  1
  Se  Se201  1  0.91702995  0.58571359  0.29838281  1
  Se  Se202  1  0.90886141  0.58451540  0.82613996  1
  Se  Se203  1  0.90037349  0.90918301  0.31003410  1
  Se  Se204  1  0.93257320  0.92523229  0.79543145  1
  Se  Se205  1  0.08952269  0.08764672  0.30782174  1
  Se  Se206  1  0.08133418  0.07750498  0.79923485  1
  Se  Se207  1  0.08534462  0.41369321  0.30071365  1
  Se  Se208  1  0.07413112  0.41146402  0.80987405  1
  Se  Se209  1  0.06320764  0.74575440  0.30311641  1
  Se  Se210  1  0.09326567  0.75776949  0.80692368  1
  Se  Se211  1  0.42796913  0.09007068  0.31111219  1
  Se  Se212  1  0.41339709  0.07531556  0.80590707  1
  Se  Se213  1  0.44003477  0.42755445  0.29841608  1
  Se  Se214  1  0.42602534  0.42809407  0.80808439  1
  Se  Se215  1  0.41770011  0.76121092  0.31036782  1
  Se  Se216  1  0.43421051  0.75193097  0.81486712  1
  Se  Se217  1  0.74856447  0.08163312  0.30733710  1
  Se  Se218  1  0.74553844  0.08464229  0.79539598  1
  Se  Se219  1  0.76279149  0.42476248  0.31157349  1
  Se  Se220  1  0.75175377  0.42116155  0.81562624  1
  Se  Se221  1  0.74135703  0.74341130  0.30383166  1
  Se  Se222  1  0.76492291  0.76526931  0.81327746  1
  Se  Se223  1  0.24300363  0.08830569  0.19278944  1
  Se  Se224  1  0.25017710  0.08079914  0.69581136  1
  Se  Se225  1  0.25085945  0.42150444  0.18637342  1
  Se  Se226  1  0.23987960  0.41958157  0.69423833  1
  Se  Se227  1  0.23766610  0.75880436  0.19679774  1
  Se  Se228  1  0.24622126  0.75595591  0.68621212  1
  Se  Se229  1  0.59105066  0.07891697  0.19768091  1
  Se  Se230  1  0.58481566  0.08288323  0.69564231  1
  Se  Se231  1  0.58556539  0.41961742  0.18080240  1
  Se  Se232  1  0.57808122  0.42503260  0.69238576  1
  Se  Se233  1  0.58053479  0.75112464  0.19224956  1
  Se  Se234  1  0.59212184  0.74715173  0.69943016  1
  Se  Se235  1  0.90919225  0.08322709  0.18681406  1
  Se  Se236  1  0.91824406  0.07977915  0.69216157  1
  Se  Se237  1  0.92086654  0.41258047  0.19818700  1
  Se  Se238  1  0.90682322  0.41547761  0.70826675  1
  Se  Se239  1  0.91115967  0.74811476  0.19622225  1
  Se  Se240  1  0.91333282  0.76054517  0.68943656  1
  Se  Se241  1  0.08143660  0.24887975  0.20078761  1
  Se  Se242  1  0.07804436  0.25098016  0.69665202  1
  Se  Se243  1  0.08357343  0.58369514  0.19610830  1
  Se  Se244  1  0.08496758  0.57761469  0.69602323  1
  Se  Se245  1  0.08621104  0.90828332  0.19067720  1
  Se  Se246  1  0.08172622  0.91829742  0.69126968  1
  Se  Se247  1  0.42575694  0.24360830  0.19195989  1
  Se  Se248  1  0.41596828  0.24195464  0.69100335  1
  Se  Se249  1  0.42576249  0.57996879  0.18446120  1
  Se  Se250  1  0.42528055  0.58204299  0.69211723  1
  Se  Se251  1  0.41993988  0.91556846  0.19200679  1
  Se  Se252  1  0.42109371  0.91242031  0.69955988  1
  Se  Se253  1  0.76175947  0.23973237  0.19061936  1
  Se  Se254  1  0.75241276  0.24060953  0.68494800  1
  Se  Se255  1  0.74746194  0.58171846  0.19148795  1
  Se  Se256  1  0.76440486  0.57739038  0.70627046  1
  Se  Se257  1  0.74485350  0.91795587  0.19662720  1
  Se  Se258  1  0.74428268  0.92474007  0.70026637  1
