# generated using pymatgen
data_In86Cu29Se144
_symmetry_space_group_name_H-M   'P 1'
_cell_length_a   17.58999186
_cell_length_b   17.59228723
_cell_length_c   23.45018818
_cell_angle_alpha   90.01323205
_cell_angle_beta   89.99200873
_cell_angle_gamma   90.05073427
_symmetry_Int_Tables_number   1
_chemical_formula_structural   In86Cu29Se144
_chemical_formula_sum   'In86 Cu29 Se144'
_cell_volume   7256.61515985
_cell_formula_units_Z   1
loop_
 _symmetry_equiv_pos_site_id
 _symmetry_equiv_pos_as_xyz
  1  'x, y, z'
loop_
 _atom_site_type_symbol
 _atom_site_label
 _atom_site_symmetry_multiplicity
 _atom_site_fract_x
 _atom_site_fract_y
 _atom_site_fract_z
 _atom_site_occupancy
  In  In0  1  0.00657922  0.14392342  0.12185280  1
  In  In1  1  0.00483728  0.17381189  0.61747024  1
  In  In2  1  -0.00133163  0.50874677  0.13002776  1
  In  In3  1  0.00956099  0.50927730  0.61864616  1
  In  In4  1  -0.00834015  0.83319720  0.11968537  1
  In  In5  1  0.00125564  0.81812747  0.62365398  1
  In  In6  1  0.33675618  0.17263072  0.11892792  1
  In  In7  1  0.34000659  0.17155153  0.62222686  1
  In  In8  1  0.34173336  0.49563602  0.13434008  1
  In  In9  1  0.32422182  0.49067650  0.61959050  1
  In  In10  1  0.31747508  0.83105775  0.13098641  1
  In  In11  1  0.33397145  0.83303414  0.61245947  1
  In  In12  1  0.65165721  0.17385288  0.12949916  1
  In  In13  1  0.67304427  0.17298213  0.61589271  1
  In  In14  1  0.65640899  0.52804493  0.12786777  1
  In  In15  1  0.66537525  0.50114706  0.62100571  1
  In  In16  1  0.67385060  0.82321314  0.13239461  1
  In  In17  1  0.65290608  0.83702856  0.62157911  1
  In  In18  1  0.16919421  -0.00319780  0.38048106  1
  In  In19  1  0.16344498  -0.00068764  0.88234417  1
  In  In20  1  0.18030992  0.32353693  0.37896465  1
  In  In21  1  0.17897485  0.32321515  0.87433432  1
  In  In22  1  0.16707777  0.66279157  0.37161602  1
  In  In23  1  0.16366132  0.67749969  0.87968684  1
  In  In24  1  0.51141634  -0.01134338  0.38647867  1
  In  In25  1  0.51425683  0.00950182  0.87746844  1
  In  In26  1  0.49099811  0.34063370  0.38304602  1
  In  In27  1  0.49764697  0.33301391  0.86819027  1
  In  In28  1  0.50000032  0.66330944  0.37472029  1
  In  In29  1  0.49903021  0.65442959  0.87645097  1
  In  In30  1  0.83336934  0.01116013  0.37695333  1
  In  In31  1  0.81969231  -0.00819854  0.87782515  1
  In  In32  1  0.83223017  0.33649063  0.38557227  1
  In  In33  1  0.82726791  0.34620215  0.87022508  1
  In  In34  1  0.82837733  0.65351133  0.36504690  1
  In  In35  1  0.83808251  0.66946853  0.86871093  1
  In  In36  1  0.00134947  0.16949933  0.38465613  1
  In  In37  1  0.00885696  0.16861265  0.87591416  1
  In  In38  1  -0.00574000  0.50948192  0.37984953  1
  In  In39  1  -0.01475272  0.50358151  0.87195937  1
  In  In40  1  0.01791844  0.82258843  0.37294526  1
  In  In41  1  0.01031817  0.82428905  0.88150030  1
  In  In42  1  0.33051333  0.17235267  0.37932202  1
  In  In43  1  0.32249513  0.18475952  0.88346833  1
  In  In44  1  0.33648952  0.49702124  0.37533768  1
  In  In45  1  0.34775162  0.49485419  0.87730275  1
  In  In46  1  0.33321953  0.82621641  0.37293689  1
  In  In47  1  0.32053734  0.82327802  0.88165131  1
  In  In48  1  0.66971020  0.15677836  0.38705916  1
  In  In49  1  0.65214236  0.17078188  0.87525172  1
  In  In50  1  0.66311340  0.50398603  0.38058356  1
  In  In51  1  0.65907791  0.49396736  0.86474298  1
  In  In52  1  0.66243296  0.82487066  0.37061704  1
  In  In53  1  0.67942995  0.83257882  0.87858056  1
  In  In54  1  0.15672450  -0.00218833  0.11142368  1
  In  In55  1  0.17443801  0.00396701  0.61612047  1
  In  In56  1  0.18606149  0.33236778  0.12531211  1
  In  In57  1  0.17323285  0.33540017  0.62527313  1
  In  In58  1  0.15414994  0.68142968  0.14444098  1
  In  In59  1  0.16468914  0.66190137  0.61735757  1
  In  In60  1  0.49854809  0.01575660  0.12977997  1
  In  In61  1  0.51232865  0.00395080  0.60377213  1
  In  In62  1  0.48419699  0.33047671  0.11742333  1
  In  In63  1  0.49860657  0.33718639  0.62384958  1
  In  In64  1  0.50774606  0.65665167  0.13212173  1
  In  In65  1  0.50780722  0.67413953  0.61634919  1
  In  In66  1  0.83485132  -0.02160644  0.12818154  1
  In  In67  1  0.82240819  0.01403582  0.61891991  1
  In  In68  1  0.83510703  0.34029847  0.12414614  1
  In  In69  1  0.82289440  0.32675289  0.61592986  1
  In  In70  1  0.81231251  0.68297001  0.14124366  1
  In  In71  1  0.84058817  0.65770030  0.62733657  1
  In  In72  1  0.66687359  0.00142907  0.74552670  1
  In  In73  1  0.34082767  0.00070423  0.74295816  1
  In  In74  1  0.33217619  0.66006948  0.75120212  1
  In  In75  1  0.65889708  0.34176025  0.25921255  1
  In  In76  1  0.00370081  -0.00206253  0.75581485  1
  In  In77  1  0.17491026  0.50042860  0.00375667  1
  In  In78  1  0.83492292  0.83473491  0.49869495  1
  In  In79  1  0.83317528  0.15880593  -0.00508157  1
  In  In80  1  0.00418198  0.33828742  0.24597071  1
  In  In81  1  0.33373486  -0.00198130  0.25290390  1
  In  In82  1  0.00121026  0.34231070  0.74264692  1
  In  In83  1  0.82424596  0.50392060  0.00094198  1
  In  In84  1  -0.00181309  -0.00606751  0.24712204  1
  In  In85  1  0.49717195  0.83452197  0.00037611  1
  Cu  Cu86  1  0.33570495  0.00329867  0.00464777  1
  Cu  Cu87  1  0.82604489  0.50427052  0.74553866  1
  Cu  Cu88  1  0.33419525  0.33393522  0.50165945  1
  Cu  Cu89  1  0.32818613  -0.00106109  0.49340603  1
  Cu  Cu90  1  0.00680238  0.66605216  0.49787008  1
  Cu  Cu91  1  0.66847233  0.66511166  0.49538121  1
  Cu  Cu92  1  0.65371167  0.34052025  -0.00264123  1
  Cu  Cu93  1  0.67078980  -0.00254658  0.00568819  1
  Cu  Cu94  1  0.66272776  0.33490403  0.49980366  1
  Cu  Cu95  1  0.50155200  0.49958815  0.74620622  1
  Cu  Cu96  1  0.49777200  0.17537400  0.74780443  1
  Cu  Cu97  1  0.17368605  0.49724564  0.25358824  1
  Cu  Cu98  1  0.16316927  0.82881851  0.75196609  1
  Cu  Cu99  1  0.83317426  0.17407034  0.74363589  1
  Cu  Cu100  1  0.82481796  0.17032211  0.25803512  1
  Cu  Cu101  1  0.00526072  0.33763439  0.50152595  1
  Cu  Cu102  1  0.00731262  0.32676419  0.00311002  1
  Cu  Cu103  1  0.32768338  0.66533054  0.00639029  1
  Cu  Cu104  1  0.16469333  0.50267441  0.74452088  1
  Cu  Cu105  1  0.83366060  0.82338532  0.74938360  1
  Cu  Cu106  1  0.00044321  0.00264406  0.49785584  1
  Cu  Cu107  1  0.50239187  0.83036643  0.25628277  1
  Cu  Cu108  1  0.50047252  0.82738455  0.74362443  1
  Cu  Cu109  1  0.33382310  0.66339072  0.49310686  1
  Cu  Cu110  1  0.83034134  0.83058934  0.25201504  1
  Cu  Cu111  1  0.49911979  0.50031583  0.25473582  1
  Cu  Cu112  1  -0.00419815  0.67081424  0.00297178  1
  Cu  Cu113  1  0.49904809  0.16699189  0.25149196  1
  Cu  Cu114  1  0.17268173  0.16390369  0.25089420  1
  Se  Se115  1  0.08889189  0.09004981  0.04271082  1
  Se  Se116  1  0.08476490  0.08525869  0.55214948  1
  Se  Se117  1  0.07831062  0.41223346  0.06415075  1
  Se  Se118  1  0.09005007  0.41770834  0.55658642  1
  Se  Se119  1  0.08297237  0.74595083  0.05959776  1
  Se  Se120  1  0.08811467  0.75302049  0.54941779  1
  Se  Se121  1  0.42193801  0.08695395  0.05280793  1
  Se  Se122  1  0.40897325  0.08034840  0.55088415  1
  Se  Se123  1  0.40936095  0.42321252  0.05345678  1
  Se  Se124  1  0.41805108  0.42003695  0.55245078  1
  Se  Se125  1  0.41059127  0.74681332  0.06461641  1
  Se  Se126  1  0.41684993  0.74747517  0.54799092  1
  Se  Se127  1  0.74651367  0.08195802  0.06686858  1
  Se  Se128  1  0.73450286  0.07552998  0.54683052  1
  Se  Se129  1  0.73394007  0.41403643  0.06190509  1
  Se  Se130  1  0.74916732  0.41991119  0.55032438  1
  Se  Se131  1  0.74994323  0.74995695  0.05644738  1
  Se  Se132  1  0.74680386  0.74409995  0.55966927  1
  Se  Se133  1  0.24422561  0.24352842  0.05149512  1
  Se  Se134  1  0.25031471  0.24980875  0.55503272  1
  Se  Se135  1  0.24907851  0.59143029  0.07221900  1
  Se  Se136  1  0.25170059  0.58255402  0.55137710  1
  Se  Se137  1  0.25396086  0.91576468  0.05409700  1
  Se  Se138  1  0.24584613  0.91334287  0.54742027  1
  Se  Se139  1  0.57973697  0.25217257  0.05402678  1
  Se  Se140  1  0.57938006  0.25232447  0.55410970  1
  Se  Se141  1  0.57549751  0.58749899  0.04948865  1
  Se  Se142  1  0.58349112  0.58303815  0.54989100  1
  Se  Se143  1  0.58497010  0.92136825  0.06510640  1
  Se  Se144  1  0.58338452  0.90704684  0.54189326  1
  Se  Se145  1  0.92110629  0.25000040  0.06034180  1
  Se  Se146  1  0.91776967  0.25233419  0.55110382  1
  Se  Se147  1  0.91420786  0.59175415  0.06176306  1
  Se  Se148  1  0.91959161  0.58556887  0.55077405  1
  Se  Se149  1  0.93213093  0.93649562  0.05455934  1
  Se  Se150  1  0.92372354  0.92480103  0.56300679  1
  Se  Se151  1  0.08780021  0.25200707  0.44852407  1
  Se  Se152  1  0.08895976  0.25137850  0.94452774  1
  Se  Se153  1  0.08977430  0.58051730  0.44619680  1
  Se  Se154  1  0.07296726  0.58422409  0.94466457  1
  Se  Se155  1  0.08013277  0.91589167  0.44542423  1
  Se  Se156  1  0.09152171  0.90736464  0.94698366  1
  Se  Se157  1  0.41702393  0.24787793  0.45002242  1
  Se  Se158  1  0.43963759  0.23272882  0.93727120  1
  Se  Se159  1  0.42028499  0.57888826  0.44487545  1
  Se  Se160  1  0.41077555  0.58754156  0.94966342  1
  Se  Se161  1  0.41064149  0.91183920  0.44337360  1
  Se  Se162  1  0.40963151  0.92562116  0.93659366  1
  Se  Se163  1  0.74951376  0.25032933  0.44974300  1
  Se  Se164  1  0.74364565  0.26159943  0.94254178  1
  Se  Se165  1  0.75595066  0.58261047  0.44604088  1
  Se  Se166  1  0.74153099  0.58699552  0.93328838  1
  Se  Se167  1  0.74420742  0.92005056  0.43832441  1
  Se  Se168  1  0.75246062  0.91146970  0.95510649  1
  Se  Se169  1  0.24506917  0.08801458  0.44572142  1
  Se  Se170  1  0.25421874  0.08154545  0.94439139  1
  Se  Se171  1  0.25190071  0.41687816  0.44644969  1
  Se  Se172  1  0.26277607  0.40794041  0.94617179  1
  Se  Se173  1  0.24824265  0.74719979  0.44260204  1
  Se  Se174  1  0.24208162  0.74938358  0.95669263  1
  Se  Se175  1  0.56895005  0.09282548  0.45062774  1
  Se  Se176  1  0.59098231  0.08441344  0.95302133  1
  Se  Se177  1  0.58051091  0.42059316  0.44817327  1
  Se  Se178  1  0.57632610  0.42121187  0.93868876  1
  Se  Se179  1  0.58317101  0.74777133  0.44430692  1
  Se  Se180  1  0.58640260  0.74560579  0.94114156  1
  Se  Se181  1  0.91421203  0.08711122  0.44980009  1
  Se  Se182  1  0.92476353  0.07097742  0.93578937  1
  Se  Se183  1  0.92007583  0.41951750  0.44898591  1
  Se  Se184  1  0.92251151  0.40758152  0.94735272  1
  Se  Se185  1  0.92070970  0.74269667  0.43811696  1
  Se  Se186  1  0.91337309  0.74851254  0.94409974  1
  Se  Se187  1  0.25588971  0.24855554  0.30130584  1
  Se  Se188  1  0.25819118  0.25327967  0.79946898  1
  Se  Se189  1  0.25671151  0.58149492  0.30569871  1
  Se  Se190  1  0.24130073  0.57510997  0.81523991  1
  Se  Se191  1  0.23763878  0.90835492  0.30557143  1
  Se  Se192  1  0.24771709  0.91120274  0.80603717  1
  Se  Se193  1  0.57666773  0.24390283  0.31649821  1
  Se  Se194  1  0.58822178  0.25431781  0.79895289  1
  Se  Se195  1  0.58631373  0.58187879  0.30554016  1
  Se  Se196  1  0.58031269  0.58694783  0.79955281  1
  Se  Se197  1  0.58407959  0.91828965  0.30550926  1
  Se  Se198  1  0.57827640  0.90847621  0.80677229  1
  Se  Se199  1  0.91386033  0.24883931  0.31016826  1
  Se  Se200  1  0.91332396  0.24880387  0.80795054  1
  Se  Se201  1  0.93275128  0.59248869  0.30224535  1
  Se  Se202  1  0.91520023  0.58375470  0.79712501  1
  Se  Se203  1  0.91124859  0.90804543  0.31416823  1
  Se  Se204  1  0.90824028  0.90741533  0.81007708  1
  Se  Se205  1  0.08608495  0.08872259  0.30887020  1
  Se  Se206  1  0.09889663  0.09216571  0.80520925  1
  Se  Se207  1  0.09154440  0.41748553  0.31417253  1
  Se  Se208  1  0.08889059  0.42461572  0.81232969  1
  Se  Se209  1  0.08603864  0.74186878  0.29873313  1
  Se  Se210  1  0.08028015  0.74428475  0.80310912  1
  Se  Se211  1  0.42314576  0.08480061  0.31415790  1
  Se  Se212  1  0.42610309  0.08802100  0.80811197  1
  Se  Se213  1  0.41666435  0.41199758  0.30380704  1
  Se  Se214  1  0.41562915  0.41786514  0.79867829  1
  Se  Se215  1  0.41721011  0.74575640  0.30451178  1
  Se  Se216  1  0.41989191  0.75762416  0.80949828  1
  Se  Se217  1  0.74388138  0.08342615  0.30714465  1
  Se  Se218  1  0.75622286  0.09352668  0.80760887  1
  Se  Se219  1  0.75989798  0.42498891  0.31190891  1
  Se  Se220  1  0.74614522  0.41507744  0.79549906  1
  Se  Se221  1  0.74659583  0.74434583  0.30232593  1
  Se  Se222  1  0.74472201  0.74756798  0.80296901  1
  Se  Se223  1  0.24465147  0.08154022  0.18685247  1
  Se  Se224  1  0.24439296  0.09034085  0.69151195  1
  Se  Se225  1  0.25556646  0.41181225  0.20149417  1
  Se  Se226  1  0.25079434  0.41717129  0.69870944  1
  Se  Se227  1  0.25677515  0.74605556  0.20684775  1
  Se  Se228  1  0.24887052  0.75568221  0.69026125  1
  Se  Se229  1  0.58673326  0.08395715  0.20303963  1
  Se  Se230  1  0.57435142  0.08967485  0.68736421  1
  Se  Se231  1  0.57454929  0.42135737  0.18814940  1
  Se  Se232  1  0.58552665  0.41715969  0.69211209  1
  Se  Se233  1  0.58409021  0.74713372  0.19973451  1
  Se  Se234  1  0.58746611  0.74596064  0.69413504  1
  Se  Se235  1  0.90330834  0.09054514  0.19472576  1
  Se  Se236  1  0.91414807  0.08824206  0.69126106  1
  Se  Se237  1  0.90388587  0.42954096  0.19737541  1
  Se  Se238  1  0.90722001  0.42579476  0.68300481  1
  Se  Se239  1  0.91887554  0.75457438  0.19663302  1
  Se  Se240  1  0.92062673  0.74422964  0.69670631  1
  Se  Se241  1  0.08797032  0.23852348  0.18907612  1
  Se  Se242  1  0.09028835  0.24252786  0.69460620  1
  Se  Se243  1  0.08425064  0.57664191  0.20321006  1
  Se  Se244  1  0.08456089  0.58918194  0.69422494  1
  Se  Se245  1  0.09186194  0.90915096  0.18937517  1
  Se  Se246  1  0.09047804  0.91221067  0.68888060  1
  Se  Se247  1  0.41712482  0.24628098  0.19460779  1
  Se  Se248  1  0.41371608  0.25626036  0.69444709  1
  Se  Se249  1  0.41647585  0.58608094  0.20218607  1
  Se  Se250  1  0.42149903  0.57993155  0.68523808  1
  Se  Se251  1  0.42551552  0.90917543  0.19151422  1
  Se  Se252  1  0.42982172  0.91137752  0.68163552  1
  Se  Se253  1  0.75306845  0.25312102  0.19481031  1
  Se  Se254  1  0.74524657  0.25261055  0.69287322  1
  Se  Se255  1  0.75345400  0.57488127  0.20080993  1
  Se  Se256  1  0.74326769  0.58785973  0.69229039  1
  Se  Se257  1  0.74576669  0.91669492  0.20221402  1
  Se  Se258  1  0.75977183  0.90839470  0.68825645  1
