# generated using pymatgen
data_In86Cu29Se144
_symmetry_space_group_name_H-M   'P 1'
_cell_length_a   17.57843344
_cell_length_b   17.57964146
_cell_length_c   23.43467819
_cell_angle_alpha   89.99055048
_cell_angle_beta   89.97846688
_cell_angle_gamma   90.01115752
_symmetry_Int_Tables_number   1
_chemical_formula_structural   In86Cu29Se144
_chemical_formula_sum   'In86 Cu29 Se144'
_cell_volume   7241.84343615
_cell_formula_units_Z   1
loop_
 _symmetry_equiv_pos_site_id
 _symmetry_equiv_pos_as_xyz
  1  'x, y, z'
loop_
 _atom_site_type_symbol
 _atom_site_label
 _atom_site_symmetry_multiplicity
 _atom_site_fract_x
 _atom_site_fract_y
 _atom_site_fract_z
 _atom_site_occupancy
  In  In0  1  0.01500985  0.17382004  0.11552875  1
  In  In1  1  0.01226482  0.15553295  0.63558469  1
  In  In2  1  -0.01022462  0.50372387  0.12071879  1
  In  In3  1  0.00624247  0.49133962  0.63531219  1
  In  In4  1  0.01277026  0.84049571  0.10954596  1
  In  In5  1  0.02387744  0.81912662  0.64789189  1
  In  In6  1  0.32997639  0.16829714  0.12883365  1
  In  In7  1  0.32004814  0.17806555  0.63109780  1
  In  In8  1  0.33306821  0.48426066  0.12292921  1
  In  In9  1  0.32406907  0.49377503  0.62043419  1
  In  In10  1  0.32454834  0.84590522  0.12820061  1
  In  In11  1  0.34100359  0.84384689  0.62818073  1
  In  In12  1  0.66505227  0.15602136  0.12268448  1
  In  In13  1  0.67960313  0.16535582  0.63102700  1
  In  In14  1  0.67579384  0.51524838  0.10755025  1
  In  In15  1  0.65588399  0.51210196  0.63391462  1
  In  In16  1  0.67209885  0.83407413  0.12511859  1
  In  In17  1  0.64924593  0.82550218  0.63147794  1
  In  In18  1  0.18540106  -0.01405766  0.38747369  1
  In  In19  1  0.17261380  0.00494870  0.87447591  1
  In  In20  1  0.16653893  0.32992326  0.37671486  1
  In  In21  1  0.15700422  0.32247122  0.86713006  1
  In  In22  1  0.16817262  0.66670191  0.38536775  1
  In  In23  1  0.15969284  0.68830890  0.87292686  1
  In  In24  1  0.48054435  -0.01820712  0.35849620  1
  In  In25  1  0.48758279  -0.00610028  0.86814510  1
  In  In26  1  0.49485968  0.34973419  0.38071713  1
  In  In27  1  0.50953223  0.33697863  0.86568022  1
  In  In28  1  0.49134253  0.67252614  0.38671618  1
  In  In29  1  0.50067963  0.65120620  0.87681434  1
  In  In30  1  0.83374976  0.00971252  0.36693554  1
  In  In31  1  0.84909295  -0.01565691  0.88855301  1
  In  In32  1  0.83324152  0.32165590  0.36942552  1
  In  In33  1  0.83493440  0.33542919  0.87937301  1
  In  In34  1  0.83409074  0.66839607  0.37428776  1
  In  In35  1  0.83623131  0.66760188  0.87735509  1
  In  In36  1  0.00176084  0.17633390  0.37280126  1
  In  In37  1  0.00298250  0.16662340  0.87857496  1
  In  In38  1  0.01531377  0.50062642  0.37728072  1
  In  In39  1  -0.00724873  0.49420690  0.87009620  1
  In  In40  1  0.01190260  0.84592215  0.37460018  1
  In  In41  1  0.00296904  0.83466242  0.86772541  1
  In  In42  1  0.32183109  0.15506465  0.37048531  1
  In  In43  1  0.31744367  0.15513924  0.86768790  1
  In  In44  1  0.33783653  0.49437612  0.37941706  1
  In  In45  1  0.34529238  0.49897964  0.87335760  1
  In  In46  1  0.32782016  0.83938893  0.37850907  1
  In  In47  1  0.31726269  0.83966585  0.87572953  1
  In  In48  1  0.67558512  0.15832088  0.37379130  1
  In  In49  1  0.66655639  0.17879166  0.87604889  1
  In  In50  1  0.65556815  0.49134571  0.37762334  1
  In  In51  1  0.67226017  0.50249167  0.87684283  1
  In  In52  1  0.65026138  0.82714097  0.37059459  1
  In  In53  1  0.67905863  0.83014864  0.87704857  1
  In  In54  1  0.17237662  -0.00085749  0.11871415  1
  In  In55  1  0.16866553  -0.00001932  0.62656253  1
  In  In56  1  0.17565196  0.32242078  0.13096677  1
  In  In57  1  0.16490336  0.33513282  0.62664951  1
  In  In58  1  0.16025041  0.67759939  0.11694905  1
  In  In59  1  0.16819900  0.66248264  0.62429159  1
  In  In60  1  0.49219406  0.00161473  0.13742592  1
  In  In61  1  0.49087560  -0.02370907  0.62622978  1
  In  In62  1  0.49206164  0.33834115  0.12613650  1
  In  In63  1  0.48766449  0.34379823  0.63244079  1
  In  In64  1  0.51644423  0.66796803  0.11907600  1
  In  In65  1  0.50153642  0.67557577  0.62660915  1
  In  In66  1  0.82710713  -0.00807348  0.11098287  1
  In  In67  1  0.84242771  0.00813178  0.62726366  1
  In  In68  1  0.84592192  0.34441931  0.11433190  1
  In  In69  1  0.83575754  0.33098904  0.63922049  1
  In  In70  1  0.84721870  0.68319463  0.08886650  1
  In  In71  1  0.83440540  0.66772942  0.63804540  1
  In  In72  1  0.33447138  0.66564697  0.25422079  1
  In  In73  1  0.83414729  0.50064551  0.50076686  1
  In  In74  1  0.65894556  0.33006149  0.24869170  1
  In  In75  1  0.83869241  0.83466614  0.50192212  1
  In  In76  1  0.49989601  0.16465790  0.50140064  1
  In  In77  1  0.16506659  0.50115265  -0.00856542  1
  In  In78  1  0.66970482  -0.00001918  0.75116068  1
  In  In79  1  0.00021837  0.66777613  0.24462536  1
  In  In80  1  0.49651988  0.16989095  0.00399466  1
  In  In81  1  0.49594808  0.83311208  -0.00392916  1
  In  In82  1  0.83911293  0.16812264  0.49824732  1
  In  In83  1  0.33499989  0.67089102  0.75300299  1
  In  In84  1  0.66616900  0.66522459  0.23782414  1
  In  In85  1  0.00477875  0.00734648  0.23851537  1
  Cu  Cu86  1  0.83456269  0.17006133  0.76103437  1
  Cu  Cu87  1  0.16560185  0.16830403  0.75027686  1
  Cu  Cu88  1  0.33294377  0.66989939  -0.00576735  1
  Cu  Cu89  1  0.50320153  0.49611817  0.75112047  1
  Cu  Cu90  1  0.00335594  0.00200333  -0.00556275  1
  Cu  Cu91  1  0.83605943  0.49601385  0.23939829  1
  Cu  Cu92  1  0.66043303  -0.00985420  0.49536259  1
  Cu  Cu93  1  0.00862297  0.66852292  0.50880817  1
  Cu  Cu94  1  0.32716864  0.33376639  0.50222579  1
  Cu  Cu95  1  0.16409020  0.48682408  0.25062933  1
  Cu  Cu96  1  0.01362155  -0.00247738  0.50681161  1
  Cu  Cu97  1  0.65890224  0.34219958  0.50873388  1
  Cu  Cu98  1  0.83113896  0.49926836  0.75782305  1
  Cu  Cu99  1  0.49709828  0.49993158  0.25054238  1
  Cu  Cu100  1  0.83275339  0.83658886  0.23708793  1
  Cu  Cu101  1  0.00692109  0.33352185  0.50360212  1
  Cu  Cu102  1  0.16878907  0.50002819  0.74913909  1
  Cu  Cu103  1  0.00710784  0.33053026  -0.00343101  1
  Cu  Cu104  1  0.33700035  0.32686562  -0.00074742  1
  Cu  Cu105  1  0.83447980  0.16847751  0.24371661  1
  Cu  Cu106  1  0.33441815  0.66637331  0.50603186  1
  Cu  Cu107  1  0.33398233  0.00020872  0.50129071  1
  Cu  Cu108  1  0.83556816  0.83382185  0.75676802  1
  Cu  Cu109  1  0.49713818  0.16513427  0.74996719  1
  Cu  Cu110  1  0.16506247  0.16534491  0.25050892  1
  Cu  Cu111  1  0.65655228  0.66747615  0.50627069  1
  Cu  Cu112  1  0.66823079  0.34057284  -0.00749083  1
  Cu  Cu113  1  0.49573937  0.16951263  0.24895752  1
  Cu  Cu114  1  0.66278145  0.00342433  -0.00287202  1
  Se  Se115  1  0.08863743  0.08108831  0.05020939  1
  Se  Se116  1  0.09033084  0.08985733  0.55581956  1
  Se  Se117  1  0.08615179  0.41071394  0.06031558  1
  Se  Se118  1  0.08402255  0.42186078  0.55668441  1
  Se  Se119  1  0.06099806  0.72884878  0.04763448  1
  Se  Se120  1  0.08795625  0.75625313  0.55992475  1
  Se  Se121  1  0.40921372  0.07455753  0.05933193  1
  Se  Se122  1  0.41079322  0.07939414  0.56510242  1
  Se  Se123  1  0.41873835  0.41516487  0.04862897  1
  Se  Se124  1  0.41464296  0.41555166  0.55291685  1
  Se  Se125  1  0.40819224  0.74552339  0.06238644  1
  Se  Se126  1  0.41525165  0.75321172  0.55819487  1
  Se  Se127  1  0.74836834  0.08712697  0.04783689  1
  Se  Se128  1  0.74308289  0.07225259  0.55252004  1
  Se  Se129  1  0.75477439  0.41941965  0.04772185  1
  Se  Se130  1  0.74861554  0.41388556  0.56640262  1
  Se  Se131  1  0.72399014  0.74135828  0.05073639  1
  Se  Se132  1  0.74717187  0.74342846  0.56067330  1
  Se  Se133  1  0.25241422  0.24786724  0.05423154  1
  Se  Se134  1  0.24338197  0.25079908  0.55412470  1
  Se  Se135  1  0.25640845  0.58671674  0.05804573  1
  Se  Se136  1  0.24680217  0.58135649  0.55238100  1
  Se  Se137  1  0.23349178  0.89761718  0.05224634  1
  Se  Se138  1  0.25233136  0.91702146  0.55733647  1
  Se  Se139  1  0.59229412  0.26252677  0.05940828  1
  Se  Se140  1  0.58815810  0.25164710  0.56605877  1
  Se  Se141  1  0.57054429  0.57521706  0.04604971  1
  Se  Se142  1  0.57491759  0.58187393  0.55754841  1
  Se  Se143  1  0.58130211  0.92701912  0.05961667  1
  Se  Se144  1  0.58309657  0.91012715  0.55474550  1
  Se  Se145  1  0.92080301  0.24922207  0.05036850  1
  Se  Se146  1  0.92377076  0.25456752  0.56370082  1
  Se  Se147  1  0.92015821  0.57468053  0.04149470  1
  Se  Se148  1  0.92130576  0.58999045  0.56289288  1
  Se  Se149  1  0.91845041  0.91583572  0.04585428  1
  Se  Se150  1  0.92884163  0.91884033  0.56421895  1
  Se  Se151  1  0.08368912  0.24663963  0.44775847  1
  Se  Se152  1  0.09218172  0.24565818  0.94801505  1
  Se  Se153  1  0.08486320  0.58164352  0.45224690  1
  Se  Se154  1  0.07587017  0.59152277  0.93453956  1
  Se  Se155  1  0.09159566  0.90976562  0.45297537  1
  Se  Se156  1  0.08424328  0.91874068  0.93892493  1
  Se  Se157  1  0.40865781  0.25334732  0.44092821  1
  Se  Se158  1  0.41504614  0.25182381  0.93330586  1
  Se  Se159  1  0.41442730  0.58071695  0.44985979  1
  Se  Se160  1  0.41528640  0.57931832  0.95010065  1
  Se  Se161  1  0.41800410  0.91825900  0.44618252  1
  Se  Se162  1  0.40206468  0.92841458  0.94671881  1
  Se  Se163  1  0.73704680  0.26135314  0.44677617  1
  Se  Se164  1  0.75173501  0.24961934  0.94853309  1
  Se  Se165  1  0.73803269  0.59263236  0.44222826  1
  Se  Se166  1  0.75945417  0.57833598  0.94513940  1
  Se  Se167  1  0.75057151  0.91947764  0.43596881  1
  Se  Se168  1  0.74784475  0.91466485  0.95132089  1
  Se  Se169  1  0.24964700  0.08745097  0.45267597  1
  Se  Se170  1  0.24594211  0.08999232  0.94854816  1
  Se  Se171  1  0.24639863  0.41705254  0.44516142  1
  Se  Se172  1  0.25642305  0.40597902  0.93697536  1
  Se  Se173  1  0.25443025  0.75027834  0.44878970  1
  Se  Se174  1  0.24526097  0.75415433  0.94909455  1
  Se  Se175  1  0.58363774  0.07458817  0.43682087  1
  Se  Se176  1  0.58029875  0.07812641  0.93641483  1
  Se  Se177  1  0.57608084  0.42393508  0.45538220  1
  Se  Se178  1  0.57983816  0.41870722  0.94117700  1
  Se  Se179  1  0.58000818  0.75527761  0.45112857  1
  Se  Se180  1  0.58792141  0.74218198  0.94128051  1
  Se  Se181  1  0.93021407  0.07093203  0.44277591  1
  Se  Se182  1  0.91525634  0.08906386  0.94912490  1
  Se  Se183  1  0.91999930  0.40477329  0.44089729  1
  Se  Se184  1  0.92184141  0.41584887  0.94817151  1
  Se  Se185  1  0.93067667  0.74236242  0.44127896  1
  Se  Se186  1  0.90753947  0.76970585  0.93738644  1
  Se  Se187  1  0.24855054  0.24948019  0.30485409  1
  Se  Se188  1  0.25277019  0.25340467  0.79966341  1
  Se  Se189  1  0.23960999  0.57329161  0.31007101  1
  Se  Se190  1  0.24292775  0.58058447  0.81391843  1
  Se  Se191  1  0.25071904  0.91824651  0.30482259  1
  Se  Se192  1  0.25269127  0.92446393  0.80144512  1
  Se  Se193  1  0.57275041  0.24393664  0.31622694  1
  Se  Se194  1  0.58626639  0.24624669  0.79842226  1
  Se  Se195  1  0.57661583  0.58306599  0.30928119  1
  Se  Se196  1  0.58558854  0.57981817  0.80397708  1
  Se  Se197  1  0.59823523  0.93009527  0.30513707  1
  Se  Se198  1  0.58153789  0.90673810  0.80879468  1
  Se  Se199  1  0.91788185  0.24847566  0.29832683  1
  Se  Se200  1  0.92078364  0.25382135  0.81073935  1
  Se  Se201  1  0.91085018  0.57394052  0.30722327  1
  Se  Se202  1  0.91766970  0.58652624  0.80387382  1
  Se  Se203  1  0.91388445  0.91136722  0.30151187  1
  Se  Se204  1  0.91726592  0.92486169  0.80194842  1
  Se  Se205  1  0.08940899  0.08203446  0.31265951  1
  Se  Se206  1  0.08375985  0.08678997  0.80659174  1
  Se  Se207  1  0.07840453  0.40914929  0.30586135  1
  Se  Se208  1  0.08330110  0.41749821  0.80265951  1
  Se  Se209  1  0.09079256  0.75228955  0.30864150  1
  Se  Se210  1  0.08780964  0.75966717  0.79481443  1
  Se  Se211  1  0.41033448  0.08414160  0.29930982  1
  Se  Se212  1  0.41249646  0.08214395  0.80061738  1
  Se  Se213  1  0.41426220  0.41600736  0.30264808  1
  Se  Se214  1  0.41499840  0.41356042  0.80007240  1
  Se  Se215  1  0.42519443  0.75819245  0.30950659  1
  Se  Se216  1  0.42156903  0.75516813  0.81873489  1
  Se  Se217  1  0.75045676  0.08522251  0.29552048  1
  Se  Se218  1  0.75683703  0.08238598  0.81801102  1
  Se  Se219  1  0.75442825  0.42485051  0.30555135  1
  Se  Se220  1  0.74866158  0.41214626  0.80810404  1
  Se  Se221  1  0.75869769  0.75548463  0.30221278  1
  Se  Se222  1  0.75082407  0.74700667  0.80376424  1
  Se  Se223  1  0.24459447  0.08209083  0.19349030  1
  Se  Se224  1  0.24991502  0.08342175  0.69767375  1
  Se  Se225  1  0.25509566  0.41096385  0.19870629  1
  Se  Se226  1  0.25125369  0.41536184  0.69673701  1
  Se  Se227  1  0.24034086  0.75020931  0.19466372  1
  Se  Se228  1  0.24601625  0.75774668  0.69200519  1
  Se  Se229  1  0.58224967  0.08794193  0.19788522  1
  Se  Se230  1  0.57562717  0.08390394  0.68719193  1
  Se  Se231  1  0.58520736  0.43135262  0.18729441  1
  Se  Se232  1  0.58709867  0.41141872  0.69743681  1
  Se  Se233  1  0.57077676  0.76527061  0.19486801  1
  Se  Se234  1  0.58700826  0.73674181  0.70380296  1
  Se  Se235  1  0.90962666  0.09025228  0.17889390  1
  Se  Se236  1  0.91313638  0.08854930  0.70211057  1
  Se  Se237  1  0.92455240  0.41243371  0.19397128  1
  Se  Se238  1  0.91734484  0.41714070  0.70418543  1
  Se  Se239  1  0.91215297  0.75497047  0.17961037  1
  Se  Se240  1  0.91969302  0.74785397  0.70505703  1
  Se  Se241  1  0.08118802  0.24866813  0.19749516  1
  Se  Se242  1  0.08205911  0.25511844  0.69839288  1
  Se  Se243  1  0.09391063  0.57365966  0.18859120  1
  Se  Se244  1  0.08604457  0.58540540  0.69719859  1
  Se  Se245  1  0.09161203  0.90524835  0.19132834  1
  Se  Se246  1  0.06344334  0.94468059  0.69348780  1
  Se  Se247  1  0.41526391  0.25365348  0.19519264  1
  Se  Se248  1  0.41386466  0.25069083  0.69782207  1
  Se  Se249  1  0.42211792  0.58033951  0.18682356  1
  Se  Se250  1  0.41798657  0.57535358  0.69120071  1
  Se  Se251  1  0.40954662  0.91586110  0.20058751  1
  Se  Se252  1  0.41755505  0.91347210  0.70738347  1
  Se  Se253  1  0.75395863  0.25145443  0.18491976  1
  Se  Se254  1  0.74898550  0.24856414  0.70510589  1
  Se  Se255  1  0.76802089  0.58629675  0.18104432  1
  Se  Se256  1  0.74949132  0.58217841  0.70134493  1
  Se  Se257  1  0.74889272  0.92496954  0.19143266  1
  Se  Se258  1  0.75834670  0.90821881  0.68786396  1
