# generated using pymatgen
data_In86Cu29Se144
_symmetry_space_group_name_H-M   'P 1'
_cell_length_a   17.58312869
_cell_length_b   17.58309102
_cell_length_c   23.44202539
_cell_angle_alpha   90.02001776
_cell_angle_beta   90.00668062
_cell_angle_gamma   90.00465877
_symmetry_Int_Tables_number   1
_chemical_formula_structural   In86Cu29Se144
_chemical_formula_sum   'In86 Cu29 Se144'
_cell_volume   7247.47089775
_cell_formula_units_Z   1
loop_
 _symmetry_equiv_pos_site_id
 _symmetry_equiv_pos_as_xyz
  1  'x, y, z'
loop_
 _atom_site_type_symbol
 _atom_site_label
 _atom_site_symmetry_multiplicity
 _atom_site_fract_x
 _atom_site_fract_y
 _atom_site_fract_z
 _atom_site_occupancy
  In  In0  1  -0.00847598  0.18061152  0.14089379  1
  In  In1  1  -0.00953817  0.17487074  0.62251614  1
  In  In2  1  -0.00810282  0.49316446  0.11747488  1
  In  In3  1  0.00162186  0.50406380  0.61882786  1
  In  In4  1  0.00596857  0.83083244  0.12730395  1
  In  In5  1  -0.00422437  0.81991136  0.62519465  1
  In  In6  1  0.34571266  0.17460644  0.12279255  1
  In  In7  1  0.34032591  0.15038050  0.62863042  1
  In  In8  1  0.32420333  0.49119723  0.12471543  1
  In  In9  1  0.33212099  0.50305800  0.61900830  1
  In  In10  1  0.33458351  0.82670787  0.12311861  1
  In  In11  1  0.34582032  0.83855939  0.61761932  1
  In  In12  1  0.68652287  0.19888488  0.09887391  1
  In  In13  1  0.66905749  0.17327955  0.62379891  1
  In  In14  1  0.64539925  0.47017362  0.09991354  1
  In  In15  1  0.67081150  0.49744410  0.62855793  1
  In  In16  1  0.66278343  0.84375876  0.11596714  1
  In  In17  1  0.65257622  0.84319964  0.63532464  1
  In  In18  1  0.15413552  0.00488120  0.38040068  1
  In  In19  1  0.16963804  -0.01644412  0.86500043  1
  In  In20  1  0.17669900  0.33958746  0.35599768  1
  In  In21  1  0.17579953  0.34537341  0.88063145  1
  In  In22  1  0.16948569  0.66219877  0.38260110  1
  In  In23  1  0.14767284  0.65825804  0.87130799  1
  In  In24  1  0.49970442  0.00323414  0.39038041  1
  In  In25  1  0.49951221  -0.00159540  0.86688460  1
  In  In26  1  0.50162608  0.33667274  0.37670693  1
  In  In27  1  0.53295970  0.30854513  0.90383418  1
  In  In28  1  0.49767484  0.66232820  0.38512149  1
  In  In29  1  0.51124408  0.65617949  0.87855113  1
  In  In30  1  0.84361641  0.00484985  0.37805148  1
  In  In31  1  0.82327508  0.01670926  0.87543314  1
  In  In32  1  0.83323075  0.33270028  0.37384878  1
  In  In33  1  0.81878720  0.33313206  0.88453935  1
  In  In34  1  0.82108460  0.66000275  0.37907607  1
  In  In35  1  0.82965043  0.65985514  0.86486583  1
  In  In36  1  0.00022193  0.16386685  0.36551906  1
  In  In37  1  -0.01755307  0.16719638  0.88290042  1
  In  In38  1  0.00867751  0.48614699  0.37513180  1
  In  In39  1  -0.01484299  0.51017916  0.89161801  1
  In  In40  1  -0.00159757  0.85112427  0.37973487  1
  In  In41  1  0.00924909  0.82140404  0.86762919  1
  In  In42  1  0.34103887  0.17846284  0.37233470  1
  In  In43  1  0.34866257  0.16719577  0.87293768  1
  In  In44  1  0.33142476  0.49360264  0.37545379  1
  In  In45  1  0.34083622  0.49697310  0.88208302  1
  In  In46  1  0.33634270  0.82637098  0.38569404  1
  In  In47  1  0.32811602  0.84672455  0.86636310  1
  In  In48  1  0.65289633  0.17766274  0.38829913  1
  In  In49  1  0.67203821  0.16277258  0.87077919  1
  In  In50  1  0.67684952  0.48909790  0.38336605  1
  In  In51  1  0.66877559  0.49485895  0.87617679  1
  In  In52  1  0.66234789  0.83114025  0.38580502  1
  In  In53  1  0.65688944  0.82314970  0.86223701  1
  In  In54  1  0.15752063  -0.00859315  0.12672559  1
  In  In55  1  0.18107233  -0.00251867  0.62795513  1
  In  In56  1  0.14933857  0.35043840  0.15343841  1
  In  In57  1  0.15595110  0.33608746  0.61876487  1
  In  In58  1  0.16654311  0.66673626  0.12148840  1
  In  In59  1  0.15933142  0.66197354  0.61838712  1
  In  In60  1  0.50356197  0.01252857  0.11464504  1
  In  In61  1  0.50915314  -0.00018476  0.62063999  1
  In  In62  1  0.49684931  0.33159226  0.12644178  1
  In  In63  1  0.51084685  0.34713746  0.61945120  1
  In  In64  1  0.49798128  0.66745792  0.11596657  1
  In  In65  1  0.50372666  0.66870738  0.62531827  1
  In  In66  1  0.82766894  0.01386549  0.12452114  1
  In  In67  1  0.81531323  0.01367725  0.62800689  1
  In  In68  1  0.83433170  0.33830762  0.12528847  1
  In  In69  1  0.81671656  0.31893877  0.61438676  1
  In  In70  1  0.83517357  0.63543971  0.11734331  1
  In  In71  1  0.84293935  0.66037661  0.63378203  1
  In  In72  1  0.33348532  0.65940106  0.25378153  1
  In  In73  1  0.66412327  0.01300762  0.25177279  1
  In  In74  1  0.17478877  0.16822842  0.00718009  1
  In  In75  1  0.34205155  0.33519016  0.75469697  1
  In  In76  1  -0.00974467  0.33904087  0.75932836  1
  In  In77  1  0.66846033  0.66157928  0.24876902  1
  In  In78  1  0.33620897  0.66804658  0.74323656  1
  In  In79  1  0.82950115  0.82944801  -0.01168376  1
  In  In80  1  0.32842967  0.00852010  0.25415386  1
  In  In81  1  -0.00461433  0.66364516  0.24577148  1
  In  In82  1  0.17034182  0.17340021  0.49144702  1
  In  In83  1  -0.00542218  -0.00332024  0.74581442  1
  In  In84  1  0.82950198  0.83783768  0.51021138  1
  In  In85  1  0.17014689  0.82860739  -0.00394925  1
  Cu  Cu86  1  0.00307461  0.32806310  0.00999879  1
  Cu  Cu87  1  0.15810044  0.83822405  0.25576269  1
  Cu  Cu88  1  0.51382028  0.49108500  0.75556488  1
  Cu  Cu89  1  -0.00874835  0.00207701  0.00135827  1
  Cu  Cu90  1  0.66627965  0.33864316  0.50043830  1
  Cu  Cu91  1  0.34072045  0.00247130  -0.00819851  1
  Cu  Cu92  1  0.50568869  0.49047232  0.25014990  1
  Cu  Cu93  1  0.66323641  0.66289789  0.50790726  1
  Cu  Cu94  1  0.50941978  0.17819595  0.24868482  1
  Cu  Cu95  1  0.83091938  0.48882826  0.24937383  1
  Cu  Cu96  1  0.16166099  0.16168195  0.75124651  1
  Cu  Cu97  1  0.64938076  0.00265229  -0.00611712  1
  Cu  Cu98  1  0.16405495  0.50496702  0.74529518  1
  Cu  Cu99  1  0.00369779  0.00494914  0.50156276  1
  Cu  Cu100  1  0.49931623  0.83486829  0.74516566  1
  Cu  Cu101  1  -0.00429631  0.34078354  0.49581520  1
  Cu  Cu102  1  0.34090204  0.67142274  -0.00251907  1
  Cu  Cu103  1  0.67404249  0.66453759  -0.00926593  1
  Cu  Cu104  1  -0.00427510  0.66562232  0.49982522  1
  Cu  Cu105  1  0.50703545  0.16648850  0.75165360  1
  Cu  Cu106  1  0.83630875  0.49575828  0.75151755  1
  Cu  Cu107  1  0.83980779  0.83845906  0.25110831  1
  Cu  Cu108  1  0.32562161  0.66054592  0.50220669  1
  Cu  Cu109  1  0.50016852  0.84168428  0.24730722  1
  Cu  Cu110  1  0.34083408  -0.00542723  0.50470982  1
  Cu  Cu111  1  0.83069012  0.17373533  0.24739516  1
  Cu  Cu112  1  0.33273450  0.34322721  0.00622347  1
  Cu  Cu113  1  0.33510926  0.33310727  0.49576900  1
  Cu  Cu114  1  0.83304175  0.83235233  0.74785795  1
  Se  Se115  1  0.07347977  0.08083175  0.06063117  1
  Se  Se116  1  0.08620138  0.08571687  0.56182639  1
  Se  Se117  1  0.09033004  0.40838566  0.06165224  1
  Se  Se118  1  0.08337683  0.42071441  0.54805938  1
  Se  Se119  1  0.07221604  0.74173243  0.05178928  1
  Se  Se120  1  0.07929658  0.75083891  0.55031078  1
  Se  Se121  1  0.41506326  0.09066676  0.04735926  1
  Se  Se122  1  0.42234981  0.08452807  0.55234207  1
  Se  Se123  1  0.42064105  0.42396953  0.05802401  1
  Se  Se124  1  0.41389571  0.41722044  0.55335990  1
  Se  Se125  1  0.42035600  0.75896139  0.04997076  1
  Se  Se126  1  0.41536727  0.73987721  0.55363952  1
  Se  Se127  1  0.73847912  0.07576786  0.05087396  1
  Se  Se128  1  0.75372513  0.09563786  0.55160003  1
  Se  Se129  1  0.77076346  0.43147851  0.05342091  1
  Se  Se130  1  0.75178989  0.42253061  0.55239622  1
  Se  Se131  1  0.74852310  0.74127554  0.05964867  1
  Se  Se132  1  0.74357827  0.74419571  0.56892175  1
  Se  Se133  1  0.24993645  0.26729888  0.06788597  1
  Se  Se134  1  0.26001979  0.25331743  0.56235244  1
  Se  Se135  1  0.26030003  0.59328409  0.05810203  1
  Se  Se136  1  0.24049432  0.57528087  0.55143848  1
  Se  Se137  1  0.25859167  0.92615028  0.05439194  1
  Se  Se138  1  0.24978221  0.91504951  0.55257439  1
  Se  Se139  1  0.56560525  0.24633049  0.05060977  1
  Se  Se140  1  0.58310158  0.25388535  0.55324008  1
  Se  Se141  1  0.58866770  0.59035859  0.05082730  1
  Se  Se142  1  0.58094398  0.57690110  0.56017032  1
  Se  Se143  1  0.57227768  0.91471497  0.04817231  1
  Se  Se144  1  0.58272832  0.90727185  0.55322074  1
  Se  Se145  1  0.91633152  0.24538854  0.05971750  1
  Se  Se146  1  0.91657928  0.25193078  0.54767545  1
  Se  Se147  1  0.93038596  0.58580507  0.04511055  1
  Se  Se148  1  0.91129223  0.58450238  0.55322175  1
  Se  Se149  1  0.91476017  0.91534859  0.05917654  1
  Se  Se150  1  0.92333021  0.93065500  0.56655389  1
  Se  Se151  1  0.07832268  0.26155218  0.43455563  1
  Se  Se152  1  0.08130532  0.25392028  0.94236440  1
  Se  Se153  1  0.07670914  0.58212192  0.44379354  1
  Se  Se154  1  0.09856861  0.56741584  0.94751348  1
  Se  Se155  1  0.08666473  0.91648516  0.45389079  1
  Se  Se156  1  0.07329199  0.92336629  0.94178068  1
  Se  Se157  1  0.42205477  0.24936308  0.44719037  1
  Se  Se158  1  0.40707006  0.25678376  0.94827426  1
  Se  Se159  1  0.40886844  0.57851466  0.44626699  1
  Se  Se160  1  0.42277426  0.58309780  0.94836224  1
  Se  Se161  1  0.42230072  0.90767455  0.45183164  1
  Se  Se162  1  0.41723177  0.91447709  0.93819992  1
  Se  Se163  1  0.75121186  0.25527936  0.44731616  1
  Se  Se164  1  0.74065653  0.24389223  0.94925872  1
  Se  Se165  1  0.74765047  0.58216617  0.45337747  1
  Se  Se166  1  0.75805483  0.58040711  0.94110681  1
  Se  Se167  1  0.74638492  0.92747165  0.44494757  1
  Se  Se168  1  0.73421881  0.92140767  0.93648253  1
  Se  Se169  1  0.26429369  0.07564208  0.44011921  1
  Se  Se170  1  0.25051322  0.07675107  0.93496448  1
  Se  Se171  1  0.24560743  0.40733189  0.44069128  1
  Se  Se172  1  0.24961767  0.42684690  0.95331865  1
  Se  Se173  1  0.24540549  0.74964618  0.45105659  1
  Se  Se174  1  0.25769595  0.74096644  0.93259018  1
  Se  Se175  1  0.59077226  0.07802060  0.45367763  1
  Se  Se176  1  0.57432436  0.08713362  0.93643918  1
  Se  Se177  1  0.57872415  0.42147866  0.44884187  1
  Se  Se178  1  0.58065045  0.43021772  0.95162874  1
  Se  Se179  1  0.58200285  0.74586282  0.45189466  1
  Se  Se180  1  0.58775290  0.75093050  0.94381127  1
  Se  Se181  1  0.92582499  0.08883011  0.44546940  1
  Se  Se182  1  0.90393183  0.08553009  0.95357641  1
  Se  Se183  1  0.91016142  0.42301606  0.44300324  1
  Se  Se184  1  0.92026836  0.40250378  0.94828304  1
  Se  Se185  1  0.91516584  0.74935979  0.44094374  1
  Se  Se186  1  0.92556220  0.73902979  0.93698754  1
  Se  Se187  1  0.24257538  0.22950351  0.30244506  1
  Se  Se188  1  0.24225027  0.24476199  0.81019456  1
  Se  Se189  1  0.23524008  0.57328622  0.30593160  1
  Se  Se190  1  0.25237327  0.57559610  0.80676769  1
  Se  Se191  1  0.24775446  0.90888119  0.31434441  1
  Se  Se192  1  0.25200386  0.91778024  0.79001343  1
  Se  Se193  1  0.58999493  0.25674421  0.30762285  1
  Se  Se194  1  0.58247130  0.25252633  0.80898578  1
  Se  Se195  1  0.57848381  0.57632435  0.31210918  1
  Se  Se196  1  0.59268212  0.58329797  0.80425147  1
  Se  Se197  1  0.57910428  0.91484935  0.31145166  1
  Se  Se198  1  0.58484155  0.91866790  0.79721438  1
  Se  Se199  1  0.91655878  0.25334325  0.30246849  1
  Se  Se200  1  0.89983910  0.24199158  0.80912188  1
  Se  Se201  1  0.90476084  0.57711469  0.30846046  1
  Se  Se202  1  0.92430553  0.57678094  0.80391261  1
  Se  Se203  1  0.91924477  0.92335022  0.30386862  1
  Se  Se204  1  0.90806611  0.91051046  0.81368452  1
  Se  Se205  1  0.08955510  0.08097811  0.30218532  1
  Se  Se206  1  0.07931671  0.08873677  0.81393985  1
  Se  Se207  1  0.07647706  0.41261995  0.29574333  1
  Se  Se208  1  0.08952385  0.42690392  0.81115490  1
  Se  Se209  1  0.08081146  0.75267726  0.31336451  1
  Se  Se210  1  0.10558791  0.76063255  0.80010960  1
  Se  Se211  1  0.43542937  0.08872824  0.30731446  1
  Se  Se212  1  0.41593467  0.08357999  0.79785203  1
  Se  Se213  1  0.41687216  0.41565679  0.30546707  1
  Se  Se214  1  0.43386524  0.41468127  0.81817758  1
  Se  Se215  1  0.42654895  0.75611615  0.30751158  1
  Se  Se216  1  0.42495957  0.75217359  0.80908232  1
  Se  Se217  1  0.75532403  0.09667214  0.31393498  1
  Se  Se218  1  0.74270939  0.07616287  0.79725594  1
  Se  Se219  1  0.74425212  0.41142564  0.30429662  1
  Se  Se220  1  0.75294589  0.41405177  0.80583280  1
  Se  Se221  1  0.75475042  0.76120047  0.30868506  1
  Se  Se222  1  0.74924102  0.74566886  0.79793834  1
  Se  Se223  1  0.24662132  0.08699682  0.18267654  1
  Se  Se224  1  0.25086933  0.08328072  0.70138427  1
  Se  Se225  1  0.25882562  0.41902432  0.20567459  1
  Se  Se226  1  0.24370156  0.41783309  0.69149917  1
  Se  Se227  1  0.24031918  0.75868581  0.19706238  1
  Se  Se228  1  0.24866404  0.75372009  0.68140686  1
  Se  Se229  1  0.58416766  0.09978897  0.18379079  1
  Se  Se230  1  0.58556904  0.08598197  0.69149215  1
  Se  Se231  1  0.58865142  0.41264819  0.19231544  1
  Se  Se232  1  0.59338829  0.40861551  0.69885328  1
  Se  Se233  1  0.57960495  0.75867707  0.18997751  1
  Se  Se234  1  0.58336882  0.74341497  0.70005855  1
  Se  Se235  1  0.91126493  0.08162167  0.19904328  1
  Se  Se236  1  0.90734864  0.09750667  0.69612592  1
  Se  Se237  1  0.92243591  0.41446511  0.19624484  1
  Se  Se238  1  0.91075696  0.41751886  0.68512850  1
  Se  Se239  1  0.90037716  0.75038872  0.18512752  1
  Se  Se240  1  0.92190127  0.74697357  0.70329533  1
  Se  Se241  1  0.09710430  0.23328904  0.20486045  1
  Se  Se242  1  0.08539192  0.24789775  0.69555393  1
  Se  Se243  1  0.08794621  0.57674533  0.18855120  1
  Se  Se244  1  0.07900031  0.58513457  0.69281274  1
  Se  Se245  1  0.07480629  0.91760589  0.20043125  1
  Se  Se246  1  0.08739623  0.90946773  0.68893774  1
  Se  Se247  1  0.41474747  0.25410910  0.20062082  1
  Se  Se248  1  0.42653490  0.24685283  0.68955896  1
  Se  Se249  1  0.42909940  0.57804237  0.19211808  1
  Se  Se250  1  0.42734395  0.56588098  0.69518232  1
  Se  Se251  1  0.41903887  0.92014861  0.18882799  1
  Se  Se252  1  0.42029900  0.92052263  0.69080675  1
  Se  Se253  1  0.74692956  0.25290938  0.19088766  1
  Se  Se254  1  0.74636949  0.25631292  0.69652040  1
  Se  Se255  1  0.74632587  0.56358325  0.18873970  1
  Se  Se256  1  0.75278562  0.58068396  0.69878325  1
  Se  Se257  1  0.75104959  0.91317041  0.19308202  1
  Se  Se258  1  0.75086892  0.91814945  0.69708846  1
