# generated using pymatgen
data_In86Cu29Se144
_symmetry_space_group_name_H-M   'P 1'
_cell_length_a   17.58438988
_cell_length_b   17.58673972
_cell_length_c   23.42987813
_cell_angle_alpha   90.03051482
_cell_angle_beta   90.03356312
_cell_angle_gamma   90.03661684
_symmetry_Int_Tables_number   1
_chemical_formula_structural   In86Cu29Se144
_chemical_formula_sum   'In86 Cu29 Se144'
_cell_volume   7245.73497881
_cell_formula_units_Z   1
loop_
 _symmetry_equiv_pos_site_id
 _symmetry_equiv_pos_as_xyz
  1  'x, y, z'
loop_
 _atom_site_type_symbol
 _atom_site_label
 _atom_site_symmetry_multiplicity
 _atom_site_fract_x
 _atom_site_fract_y
 _atom_site_fract_z
 _atom_site_occupancy
  In  In0  1  -0.01472028  0.15171929  0.08972562  1
  In  In1  1  -0.00709053  0.17707572  0.63644670  1
  In  In2  1  0.00770789  0.50259599  0.11545394  1
  In  In3  1  -0.01088762  0.49070931  0.61948403  1
  In  In4  1  -0.00425861  0.82954768  0.11889139  1
  In  In5  1  0.01348358  0.82806286  0.63113491  1
  In  In6  1  0.34017909  0.17061297  0.11953718  1
  In  In7  1  0.33152386  0.15281498  0.62806323  1
  In  In8  1  0.31654075  0.50117161  0.12716917  1
  In  In9  1  0.33996318  0.50663546  0.62434331  1
  In  In10  1  0.33461385  0.83144061  0.12017197  1
  In  In11  1  0.32270725  0.84303421  0.63402975  1
  In  In12  1  0.65534509  0.16682029  0.11274248  1
  In  In13  1  0.67594274  0.17567496  0.62187127  1
  In  In14  1  0.67970912  0.49116420  0.11879919  1
  In  In15  1  0.65919640  0.49049395  0.62107050  1
  In  In16  1  0.67613762  0.84142625  0.11770346  1
  In  In17  1  0.66578061  0.84653952  0.63140556  1
  In  In18  1  0.15525057  -0.00679703  0.37466099  1
  In  In19  1  0.16981441  -0.00218335  0.88225842  1
  In  In20  1  0.18123159  0.33318627  0.37157008  1
  In  In21  1  0.14835727  0.33870359  0.88708349  1
  In  In22  1  0.15630666  0.67204284  0.38093639  1
  In  In23  1  0.17172897  0.66401292  0.87689051  1
  In  In24  1  0.51594318  -0.00453384  0.37153101  1
  In  In25  1  0.49609048  0.00265198  0.87729132  1
  In  In26  1  0.49469533  0.33784428  0.38192951  1
  In  In27  1  0.49993990  0.31885456  0.87271160  1
  In  In28  1  0.49137412  0.66418339  0.37585637  1
  In  In29  1  0.50301614  0.67843321  0.87516476  1
  In  In30  1  0.83093886  0.01362093  0.37466695  1
  In  In31  1  0.84724053  -0.00505193  0.88524403  1
  In  In32  1  0.83432524  0.33180222  0.37950349  1
  In  In33  1  0.83639499  0.33188096  0.87930889  1
  In  In34  1  0.83413219  0.65211872  0.37155480  1
  In  In35  1  0.83515746  0.66527168  0.88400119  1
  In  In36  1  -0.00837547  0.15566964  0.37544983  1
  In  In37  1  -0.00389527  0.16104443  0.88446203  1
  In  In38  1  -0.00573247  0.50796020  0.37888326  1
  In  In39  1  0.00186292  0.49236949  0.88440536  1
  In  In40  1  0.01425473  0.82878361  0.37341673  1
  In  In41  1  -0.01206470  0.85733535  0.89212393  1
  In  In42  1  0.32791286  0.18202159  0.37259187  1
  In  In43  1  0.34489461  0.15777293  0.87804057  1
  In  In44  1  0.33906667  0.49513540  0.38238225  1
  In  In45  1  0.31625440  0.49912989  0.87181214  1
  In  In46  1  0.32690162  0.82254193  0.37264114  1
  In  In47  1  0.33326929  0.83404221  0.87665649  1
  In  In48  1  0.67107702  0.16217698  0.37671046  1
  In  In49  1  0.66395001  0.18195672  0.88530172  1
  In  In50  1  0.67146336  0.49284187  0.38243817  1
  In  In51  1  0.69448174  0.49206869  0.88452058  1
  In  In52  1  0.65836482  0.84619228  0.36690837  1
  In  In53  1  0.67187074  0.81853321  0.89249037  1
  In  In54  1  0.15196366  -0.01174584  0.10488318  1
  In  In55  1  0.17259782  -0.00369192  0.63525295  1
  In  In56  1  0.16710209  0.33803437  0.11506954  1
  In  In57  1  0.15067342  0.33168711  0.62879360  1
  In  In58  1  0.16211717  0.66054204  0.12221750  1
  In  In59  1  0.17350378  0.67391087  0.62154442  1
  In  In60  1  0.50666779  0.00525647  0.12262571  1
  In  In61  1  0.48654136  -0.00184627  0.62435216  1
  In  In62  1  0.50039411  0.32058405  0.12285021  1
  In  In63  1  0.51130887  0.33888558  0.62183272  1
  In  In64  1  0.49564908  0.67363018  0.12394584  1
  In  In65  1  0.50056131  0.65476260  0.62619974  1
  In  In66  1  0.82703712  -0.00956169  0.11258573  1
  In  In67  1  0.82790810  0.01663221  0.63443689  1
  In  In68  1  0.83613079  0.32401013  0.09260869  1
  In  In69  1  0.83355298  0.33033684  0.62848651  1
  In  In70  1  0.84401451  0.68315348  0.11445023  1
  In  In71  1  0.84583324  0.66087701  0.62902011  1
  In  In72  1  0.16287964  0.17188183  0.50144992  1
  In  In73  1  -0.00430441  -0.00494072  0.23637309  1
  In  In74  1  0.00572982  0.33110870  0.23393531  1
  In  In75  1  0.67083630  0.67151838  0.24490071  1
  In  In76  1  0.33072072  0.66618746  0.25629105  1
  In  In77  1  0.49264098  0.82788692  0.49038408  1
  In  In78  1  0.33141714  0.00524750  0.24555921  1
  In  In79  1  0.83726561  0.83099913  0.50850269  1
  In  In80  1  0.66877244  0.32984418  0.24128216  1
  In  In81  1  0.66880644  0.00237311  0.76118924  1
  In  In82  1  0.32589439  0.32412214  0.75213104  1
  In  In83  1  0.00607230  0.66968910  0.75254068  1
  In  In84  1  0.66740273  0.66273878  0.76275723  1
  In  In85  1  0.50199650  0.50252185  0.00152885  1
  Cu  Cu86  1  0.33009789  0.66806352  0.00046295  1
  Cu  Cu87  1  0.83415039  0.49093195  0.75081218  1
  Cu  Cu88  1  -0.00430411  0.33437330  0.50310194  1
  Cu  Cu89  1  0.33657118  0.33675025  0.50149263  1
  Cu  Cu90  1  0.66592523  0.00698866  0.50027676  1
  Cu  Cu91  1  0.49703432  0.49528023  0.25754428  1
  Cu  Cu92  1  0.33917239  -0.00068263  0.00044451  1
  Cu  Cu93  1  0.00626568  0.66596383  -0.00234855  1
  Cu  Cu94  1  0.00036445  0.00128492  0.50238849  1
  Cu  Cu95  1  0.00227750  0.66153650  0.50325820  1
  Cu  Cu96  1  0.66832452  0.32723735  0.50141481  1
  Cu  Cu97  1  0.15955177  0.16115957  0.75990248  1
  Cu  Cu98  1  0.50451020  0.16217510  0.75293271  1
  Cu  Cu99  1  0.33163660  0.33196550  -0.00584845  1
  Cu  Cu100  1  0.16607942  0.83861488  0.75749746  1
  Cu  Cu101  1  0.50044333  0.16775414  0.24445207  1
  Cu  Cu102  1  0.16354088  0.49613147  0.24548318  1
  Cu  Cu103  1  0.50066002  0.49829046  0.74690753  1
  Cu  Cu104  1  0.83929602  0.17153533  0.75741789  1
  Cu  Cu105  1  0.16589207  0.16706360  0.23757779  1
  Cu  Cu106  1  0.82917892  0.16668010  0.24541541  1
  Cu  Cu107  1  0.67262730  0.65950563  0.50167652  1
  Cu  Cu108  1  0.83764015  0.83747469  0.24125537  1
  Cu  Cu109  1  0.32673944  -0.00056547  0.50560933  1
  Cu  Cu110  1  0.84593106  0.49958032  0.24519711  1
  Cu  Cu111  1  0.33158059  0.66340034  0.50092777  1
  Cu  Cu112  1  0.15873384  0.50019170  0.75516198  1
  Cu  Cu113  1  0.66428980  0.00445438  -0.00441198  1
  Cu  Cu114  1  0.49570696  0.83185362  0.75403811  1
  Se  Se115  1  0.09028408  0.08187963  0.03510702  1
  Se  Se116  1  0.07875775  0.08206669  0.56511163  1
  Se  Se117  1  0.08240876  0.41627968  0.04659616  1
  Se  Se118  1  0.08362275  0.41571508  0.55311483  1
  Se  Se119  1  0.08644832  0.74936953  0.05366599  1
  Se  Se120  1  0.08308823  0.75078756  0.55325649  1
  Se  Se121  1  0.42241244  0.08498640  0.05317383  1
  Se  Se122  1  0.41465841  0.08398077  0.55158175  1
  Se  Se123  1  0.40688392  0.41318958  0.06005336  1
  Se  Se124  1  0.41954903  0.41833072  0.55783178  1
  Se  Se125  1  0.41736650  0.74981735  0.05035908  1
  Se  Se126  1  0.41011530  0.74765675  0.56241032  1
  Se  Se127  1  0.74838588  0.08596339  0.05066323  1
  Se  Se128  1  0.75298548  0.08447246  0.55441236  1
  Se  Se129  1  0.74545535  0.41486765  0.04081890  1
  Se  Se130  1  0.75047839  0.41128582  0.55713064  1
  Se  Se131  1  0.74964439  0.75319462  0.04978336  1
  Se  Se132  1  0.74026184  0.74286927  0.56682100  1
  Se  Se133  1  0.25206935  0.24912106  0.05209106  1
  Se  Se134  1  0.25637501  0.25770483  0.56372910  1
  Se  Se135  1  0.24730866  0.58150036  0.05155187  1
  Se  Se136  1  0.24913209  0.58072268  0.55600334  1
  Se  Se137  1  0.25539215  0.91255276  0.04938017  1
  Se  Se138  1  0.24366225  0.91631648  0.55728035  1
  Se  Se139  1  0.58709312  0.26336060  0.04729393  1
  Se  Se140  1  0.58184674  0.24530313  0.55353225  1
  Se  Se141  1  0.59144843  0.59056058  0.06331769  1
  Se  Se142  1  0.58279278  0.58135482  0.55329744  1
  Se  Se143  1  0.58446952  0.92026429  0.05246886  1
  Se  Se144  1  0.58391081  0.91984668  0.55331740  1
  Se  Se145  1  0.95177659  0.27731946  0.03616891  1
  Se  Se146  1  0.91738973  0.24797143  0.55746698  1
  Se  Se147  1  0.91838463  0.58619857  0.05170723  1
  Se  Se148  1  0.91217674  0.58097941  0.55159107  1
  Se  Se149  1  0.93311062  0.92917530  0.05299918  1
  Se  Se150  1  0.92240246  0.92489535  0.56818552  1
  Se  Se151  1  0.07345614  0.25798536  0.43589542  1
  Se  Se152  1  0.07661873  0.24860988  0.95398619  1
  Se  Se153  1  0.08576047  0.57869248  0.44895422  1
  Se  Se154  1  0.08839795  0.58111023  0.94531375  1
  Se  Se155  1  0.08019124  0.91540821  0.44959791  1
  Se  Se156  1  0.09408725  0.91381237  0.95435304  1
  Se  Se157  1  0.41378769  0.24830025  0.44766408  1
  Se  Se158  1  0.41948387  0.24799082  0.94784137  1
  Se  Se159  1  0.42012630  0.58281871  0.44995078  1
  Se  Se160  1  0.40726704  0.58570161  0.93855077  1
  Se  Se161  1  0.40446198  0.92683232  0.43613532  1
  Se  Se162  1  0.42031089  0.91397569  0.94573327  1
  Se  Se163  1  0.75235185  0.24639608  0.44513937  1
  Se  Se164  1  0.75793909  0.25095461  0.95219408  1
  Se  Se165  1  0.75631025  0.57860520  0.44737367  1
  Se  Se166  1  0.72137459  0.61274793  0.94218502  1
  Se  Se167  1  0.74621459  0.91946333  0.44430329  1
  Se  Se168  1  0.75082871  0.91790401  0.94906259  1
  Se  Se169  1  0.25005405  0.07908257  0.43932826  1
  Se  Se170  1  0.25680324  0.08430366  0.94766862  1
  Se  Se171  1  0.24851171  0.41514894  0.44839216  1
  Se  Se172  1  0.24664989  0.41778659  0.94654849  1
  Se  Se173  1  0.24982317  0.74905178  0.44776571  1
  Se  Se174  1  0.24860485  0.75179110  0.94593517  1
  Se  Se175  1  0.58045214  0.08478528  0.44458004  1
  Se  Se176  1  0.57961857  0.08750848  0.94377993  1
  Se  Se177  1  0.58523356  0.41376127  0.44911382  1
  Se  Se178  1  0.58419545  0.41289323  0.93708459  1
  Se  Se179  1  0.59746405  0.74151649  0.43865150  1
  Se  Se180  1  0.57323071  0.74871318  0.95481252  1
  Se  Se181  1  0.91364593  0.08307621  0.45126289  1
  Se  Se182  1  0.90751615  0.09009581  0.95647162  1
  Se  Se183  1  0.91602555  0.41753779  0.44518066  1
  Se  Se184  1  0.88437564  0.44819864  0.94032082  1
  Se  Se185  1  0.92089756  0.74282454  0.44168158  1
  Se  Se186  1  0.91895714  0.75030699  0.94949506  1
  Se  Se187  1  0.24588093  0.24810100  0.29479647  1
  Se  Se188  1  0.23933068  0.24407182  0.82025594  1
  Se  Se189  1  0.24150837  0.57215831  0.31273040  1
  Se  Se190  1  0.24676380  0.58628286  0.79911696  1
  Se  Se191  1  0.24208450  0.91144384  0.30558029  1
  Se  Se192  1  0.25344940  0.92122621  0.80792406  1
  Se  Se193  1  0.57935447  0.24852465  0.30797116  1
  Se  Se194  1  0.58831777  0.24787987  0.80159604  1
  Se  Se195  1  0.58374205  0.57724019  0.30986919  1
  Se  Se196  1  0.57675031  0.56915358  0.81677147  1
  Se  Se197  1  0.58559037  0.92326689  0.29289902  1
  Se  Se198  1  0.58251753  0.90258656  0.81540110  1
  Se  Se199  1  0.91335096  0.24560291  0.30287365  1
  Se  Se200  1  0.92405944  0.25130619  0.81203558  1
  Se  Se201  1  0.92403299  0.58511426  0.29942852  1
  Se  Se202  1  0.91094378  0.57980043  0.80782114  1
  Se  Se203  1  0.91240609  0.91434017  0.31102929  1
  Se  Se204  1  0.92151072  0.92221932  0.80750693  1
  Se  Se205  1  0.08654470  0.08932308  0.30087186  1
  Se  Se206  1  0.08007325  0.07810255  0.81529816  1
  Se  Se207  1  0.08336339  0.41645713  0.30773394  1
  Se  Se208  1  0.07815230  0.41572920  0.80782364  1
  Se  Se209  1  0.08617084  0.74583568  0.30207242  1
  Se  Se210  1  0.08441237  0.76112528  0.81793336  1
  Se  Se211  1  0.42099182  0.09213867  0.30969415  1
  Se  Se212  1  0.41785559  0.07900213  0.80102666  1
  Se  Se213  1  0.41232902  0.41217562  0.30767155  1
  Se  Se214  1  0.41815641  0.41854779  0.80847411  1
  Se  Se215  1  0.43105380  0.76232468  0.30381768  1
  Se  Se216  1  0.41185330  0.74688541  0.80489554  1
  Se  Se217  1  0.74778430  0.08451595  0.30017878  1
  Se  Se218  1  0.75783821  0.09304784  0.81928648  1
  Se  Se219  1  0.75942626  0.42164856  0.30316687  1
  Se  Se220  1  0.75042806  0.40885911  0.80410264  1
  Se  Se221  1  0.76143999  0.76053464  0.30942088  1
  Se  Se222  1  0.76024276  0.75919993  0.81114897  1
  Se  Se223  1  0.23902776  0.08095737  0.17802512  1
  Se  Se224  1  0.24849669  0.08579623  0.70393382  1
  Se  Se225  1  0.24544209  0.40927958  0.19545804  1
  Se  Se226  1  0.24223646  0.42150388  0.69283555  1
  Se  Se227  1  0.24604689  0.75191402  0.19122123  1
  Se  Se228  1  0.24397161  0.75273950  0.69971638  1
  Se  Se229  1  0.58796149  0.08912882  0.19277570  1
  Se  Se230  1  0.58267444  0.08278316  0.68895589  1
  Se  Se231  1  0.57589648  0.42645582  0.18918363  1
  Se  Se232  1  0.58710952  0.41371642  0.69928461  1
  Se  Se233  1  0.57984779  0.76201199  0.18974860  1
  Se  Se234  1  0.57967358  0.75450784  0.69406714  1
  Se  Se235  1  0.91125377  0.09331032  0.18075549  1
  Se  Se236  1  0.91928016  0.08458418  0.70433004  1
  Se  Se237  1  0.90649582  0.41351372  0.17780640  1
  Se  Se238  1  0.92087357  0.41149917  0.69731808  1
  Se  Se239  1  0.92094427  0.74999606  0.19489875  1
  Se  Se240  1  0.90903721  0.76013254  0.69731793  1
  Se  Se241  1  0.08088973  0.23260461  0.17249579  1
  Se  Se242  1  0.08388114  0.25037879  0.70562484  1
  Se  Se243  1  0.08063251  0.57969071  0.19360872  1
  Se  Se244  1  0.08556552  0.57705450  0.68670686  1
  Se  Se245  1  0.09480513  0.90556783  0.18956743  1
  Se  Se246  1  0.08200325  0.91866901  0.70162525  1
  Se  Se247  1  0.41387920  0.25161417  0.19636994  1
  Se  Se248  1  0.42406753  0.24314841  0.69083863  1
  Se  Se249  1  0.42106652  0.57577256  0.19392728  1
  Se  Se250  1  0.41583015  0.58527080  0.70045543  1
  Se  Se251  1  0.42206183  0.91355247  0.19004077  1
  Se  Se252  1  0.41615383  0.91809391  0.70004230  1
  Se  Se253  1  0.76189566  0.24875186  0.17823838  1
  Se  Se254  1  0.75277910  0.24700327  0.69952442  1
  Se  Se255  1  0.76184778  0.58003143  0.18770464  1
  Se  Se256  1  0.75337204  0.57629342  0.69390409  1
  Se  Se257  1  0.75210519  0.92171118  0.19322329  1
  Se  Se258  1  0.76096612  0.91151588  0.70119880  1
