# generated using pymatgen
data_In86Cu29Se144
_symmetry_space_group_name_H-M   'P 1'
_cell_length_a   17.58350786
_cell_length_b   17.58121530
_cell_length_c   23.44352366
_cell_angle_alpha   90.00283672
_cell_angle_beta   89.99940175
_cell_angle_gamma   90.00857876
_symmetry_Int_Tables_number   1
_chemical_formula_structural   In86Cu29Se144
_chemical_formula_sum   'In86 Cu29 Se144'
_cell_volume   7247.31762297
_cell_formula_units_Z   1
loop_
 _symmetry_equiv_pos_site_id
 _symmetry_equiv_pos_as_xyz
  1  'x, y, z'
loop_
 _atom_site_type_symbol
 _atom_site_label
 _atom_site_symmetry_multiplicity
 _atom_site_fract_x
 _atom_site_fract_y
 _atom_site_fract_z
 _atom_site_occupancy
  In  In0  1  -0.00806596  0.16045248  0.12333961  1
  In  In1  1  0.00062439  0.15188336  0.63913958  1
  In  In2  1  -0.00002889  0.50267419  0.11229212  1
  In  In3  1  0.00575750  0.49467216  0.63828982  1
  In  In4  1  0.01074371  0.85539426  0.10536179  1
  In  In5  1  -0.01323667  0.85021935  0.63521363  1
  In  In6  1  0.34598818  0.15195699  0.12979210  1
  In  In7  1  0.33320335  0.15803498  0.63224032  1
  In  In8  1  0.32018223  0.49531740  0.12350096  1
  In  In9  1  0.32169929  0.49465752  0.62930123  1
  In  In10  1  0.34961394  0.86366748  0.09919015  1
  In  In11  1  0.34682551  0.84233211  0.62158857  1
  In  In12  1  0.65175275  0.16519167  0.11894702  1
  In  In13  1  0.66265429  0.16971442  0.63115109  1
  In  In14  1  0.68181621  0.50287153  0.12198068  1
  In  In15  1  0.66058763  0.49102864  0.62669498  1
  In  In16  1  0.66840121  0.83978427  0.12808550  1
  In  In17  1  0.68257940  0.84351763  0.61392720  1
  In  In18  1  0.17777771  0.00608570  0.36928705  1
  In  In19  1  0.16887263  -0.00308913  0.86855103  1
  In  In20  1  0.16417882  0.30120721  0.38058727  1
  In  In21  1  0.17148726  0.33038907  0.86743251  1
  In  In22  1  0.16062795  0.66150994  0.37206734  1
  In  In23  1  0.15601663  0.67616472  0.88139778  1
  In  In24  1  0.49864628  0.00038390  0.37936732  1
  In  In25  1  0.49876193  0.00052469  0.87895691  1
  In  In26  1  0.48758657  0.33484304  0.37670515  1
  In  In27  1  0.48293591  0.31606227  0.86656014  1
  In  In28  1  0.52274948  0.67405023  0.36388000  1
  In  In29  1  0.50918768  0.67900920  0.87713600  1
  In  In30  1  0.81843161  -0.00905947  0.36754981  1
  In  In31  1  0.83038811  -0.00148437  0.86821415  1
  In  In32  1  0.83975653  0.33950020  0.37989884  1
  In  In33  1  0.84155837  0.33706950  0.86351991  1
  In  In34  1  0.82899656  0.68258194  0.38115306  1
  In  In35  1  0.84282052  0.66190925  0.88300003  1
  In  In36  1  0.02121254  0.16106870  0.38912057  1
  In  In37  1  0.00093559  0.15782660  0.85072709  1
  In  In38  1  -0.00835253  0.49751494  0.37799082  1
  In  In39  1  -0.00209793  0.50181583  0.87437021  1
  In  In40  1  -0.01338942  0.83634065  0.37941834  1
  In  In41  1  0.00528971  0.83628552  0.87649180  1
  In  In42  1  0.33391485  0.16508186  0.37818018  1
  In  In43  1  0.32982497  0.16759879  0.86959228  1
  In  In44  1  0.34589758  0.48815460  0.37205764  1
  In  In45  1  0.32533485  0.48129900  0.87626503  1
  In  In46  1  0.32980560  0.85527602  0.37531568  1
  In  In47  1  0.31989118  0.84925961  0.89239202  1
  In  In48  1  0.67402840  0.15227956  0.38057111  1
  In  In49  1  0.66553898  0.15141605  0.85808037  1
  In  In50  1  0.66012700  0.49752783  0.36940523  1
  In  In51  1  0.67616218  0.50674570  0.87699368  1
  In  In52  1  0.66374518  0.83327563  0.37630766  1
  In  In53  1  0.65782987  0.84732265  0.88464162  1
  In  In54  1  0.17066139  0.00171583  0.12145590  1
  In  In55  1  0.14747845  0.02175276  0.64475811  1
  In  In56  1  0.16455398  0.34207173  0.12087349  1
  In  In57  1  0.17316552  0.31023395  0.64604447  1
  In  In58  1  0.16259962  0.66304273  0.11673357  1
  In  In59  1  0.16340320  0.65715540  0.62930634  1
  In  In60  1  0.50144159  0.00524288  0.12361760  1
  In  In61  1  0.50087591  0.00088816  0.62808764  1
  In  In62  1  0.49410793  0.31238867  0.11940858  1
  In  In63  1  0.50949379  0.31901690  0.63073302  1
  In  In64  1  0.50344414  0.68706457  0.12664260  1
  In  In65  1  0.50699322  0.67572787  0.61827112  1
  In  In66  1  0.84422896  -0.00962499  0.12986192  1
  In  In67  1  0.84049772  -0.01518910  0.63530975  1
  In  In68  1  0.82783970  0.34464485  0.11616669  1
  In  In69  1  0.84604954  0.31206275  0.65263544  1
  In  In70  1  0.83160269  0.66887589  0.12196634  1
  In  In71  1  0.83165773  0.68980404  0.62507132  1
  In  In72  1  0.16697912  0.16437928  -0.00993744  1
  In  In73  1  0.16703470  0.84241727  0.50276295  1
  In  In74  1  0.83537179  0.49458926  0.50038636  1
  In  In75  1  0.84083609  0.15602939  0.51360400  1
  In  In76  1  0.66179661  0.32482528  0.24159156  1
  In  In77  1  0.00283818  0.32724794  0.25539597  1
  In  In78  1  0.33308787  0.67651444  0.23784572  1
  In  In79  1  0.49989491  0.49930333  0.50477264  1
  In  In80  1  0.66946215  0.66910711  0.74893025  1
  In  In81  1  0.83317546  0.16405040  -0.01869945  1
  In  In82  1  0.16795679  0.49284418  0.50837661  1
  In  In83  1  0.33548897  0.66948855  0.74807046  1
  In  In84  1  0.00117318  0.67524623  0.24260896  1
  In  In85  1  0.49950237  0.50284840  -0.00581676  1
  Cu  Cu86  1  0.16683010  0.83374936  0.75532109  1
  Cu  Cu87  1  0.66391228  0.33543092  -0.00546015  1
  Cu  Cu88  1  0.49481402  0.49366008  0.74982783  1
  Cu  Cu89  1  0.34381498  0.67621365  0.49382099  1
  Cu  Cu90  1  -0.00437958  0.33584584  -0.00934747  1
  Cu  Cu91  1  0.65865638  -0.00490507  0.49938865  1
  Cu  Cu92  1  0.32855377  0.32132059  0.50515968  1
  Cu  Cu93  1  0.49927381  0.84323153  0.24705228  1
  Cu  Cu94  1  0.50179816  0.49599258  0.24614940  1
  Cu  Cu95  1  0.17430595  0.16366619  0.25105149  1
  Cu  Cu96  1  0.32980969  0.66016193  0.00271453  1
  Cu  Cu97  1  0.83433165  0.16003307  0.24911088  1
  Cu  Cu98  1  0.83478733  0.82918671  0.75705653  1
  Cu  Cu99  1  0.83021818  0.83580632  0.25148092  1
  Cu  Cu100  1  0.32731661  0.32472524  -0.00448185  1
  Cu  Cu101  1  0.66978806  0.67527609  0.00061047  1
  Cu  Cu102  1  0.50151963  0.84790149  0.75444792  1
  Cu  Cu103  1  0.83436485  0.50443764  0.24546241  1
  Cu  Cu104  1  -0.00938016  0.66530993  -0.00487930  1
  Cu  Cu105  1  0.49698276  0.16159244  0.25284394  1
  Cu  Cu106  1  0.16787041  0.84131141  0.23978634  1
  Cu  Cu107  1  0.67206107  0.32739537  0.50907517  1
  Cu  Cu108  1  0.17458056  0.48980144  0.25065643  1
  Cu  Cu109  1  0.83474025  0.50389703  0.75472600  1
  Cu  Cu110  1  0.33277881  0.00744979  0.50326611  1
  Cu  Cu111  1  -0.00629431  0.67101169  0.50861119  1
  Cu  Cu112  1  0.66952818  0.00421998  -0.00011718  1
  Cu  Cu113  1  0.16365914  0.50057496  0.75587124  1
  Cu  Cu114  1  0.49733844  0.16070008  0.75019529  1
  Se  Se115  1  0.07389009  0.08016890  0.05227286  1
  Se  Se116  1  0.06671624  0.07098262  0.56121774  1
  Se  Se117  1  0.08051931  0.41365419  0.04762874  1
  Se  Se118  1  0.08651544  0.40499855  0.57198564  1
  Se  Se119  1  0.07506626  0.74340350  0.05165765  1
  Se  Se120  1  0.08027612  0.74916172  0.56516602  1
  Se  Se121  1  0.42341002  0.08759788  0.05166594  1
  Se  Se122  1  0.41884778  0.08561731  0.55849026  1
  Se  Se123  1  0.40958629  0.41000634  0.05359576  1
  Se  Se124  1  0.40802558  0.40835036  0.56243477  1
  Se  Se125  1  0.41409896  0.74571710  0.05171564  1
  Se  Se126  1  0.42304783  0.75716687  0.55090080  1
  Se  Se127  1  0.75208015  0.08614335  0.05758770  1
  Se  Se128  1  0.73995820  0.07025564  0.56478561  1
  Se  Se129  1  0.74758912  0.42078740  0.04376363  1
  Se  Se130  1  0.75489092  0.40461319  0.56701028  1
  Se  Se131  1  0.75000010  0.75725996  0.05719395  1
  Se  Se132  1  0.74285283  0.74213074  0.54875183  1
  Se  Se133  1  0.25184179  0.24737033  0.06156668  1
  Se  Se134  1  0.24744975  0.24333389  0.56374023  1
  Se  Se135  1  0.24488142  0.57501922  0.05074926  1
  Se  Se136  1  0.26360605  0.59581581  0.55448545  1
  Se  Se137  1  0.23010011  0.90959414  0.04648191  1
  Se  Se138  1  0.25069823  0.93180168  0.56646789  1
  Se  Se139  1  0.58190079  0.24972343  0.04446203  1
  Se  Se140  1  0.58262525  0.24298498  0.55335495  1
  Se  Se141  1  0.58715736  0.59067850  0.05894369  1
  Se  Se142  1  0.59881696  0.58979077  0.55465206  1
  Se  Se143  1  0.58846647  0.92207561  0.05685398  1
  Se  Se144  1  0.57737475  0.91368072  0.55654482  1
  Se  Se145  1  0.91783796  0.25629579  0.05248588  1
  Se  Se146  1  0.92471718  0.25410755  0.56804028  1
  Se  Se147  1  0.90848259  0.58251556  0.05139564  1
  Se  Se148  1  0.92111487  0.58315794  0.56681548  1
  Se  Se149  1  0.90823535  0.92361881  0.04518590  1
  Se  Se150  1  0.91655448  0.91997546  0.55516696  1
  Se  Se151  1  0.08183836  0.25113922  0.46178111  1
  Se  Se152  1  0.07026102  0.25069760  0.93190057  1
  Se  Se153  1  0.07399781  0.58936226  0.44883998  1
  Se  Se154  1  0.07963614  0.58237156  0.94605929  1
  Se  Se155  1  0.07994036  0.92558920  0.43757322  1
  Se  Se156  1  0.09862359  0.91203580  0.94200764  1
  Se  Se157  1  0.41780023  0.24816065  0.44869245  1
  Se  Se158  1  0.41297635  0.24180732  0.94602043  1
  Se  Se159  1  0.41848618  0.58927037  0.43575832  1
  Se  Se160  1  0.40663339  0.58951071  0.93298087  1
  Se  Se161  1  0.41338476  0.91997252  0.45103545  1
  Se  Se162  1  0.43363416  0.90314655  0.94759650  1
  Se  Se163  1  0.75381995  0.25212222  0.44597397  1
  Se  Se164  1  0.74022284  0.25741927  0.92904642  1
  Se  Se165  1  0.74441708  0.58080253  0.43905377  1
  Se  Se166  1  0.74967783  0.58725888  0.95027595  1
  Se  Se167  1  0.74688835  0.91656227  0.44658151  1
  Se  Se168  1  0.75550438  0.92316645  0.94616926  1
  Se  Se169  1  0.24682626  0.08571986  0.44752559  1
  Se  Se170  1  0.26281196  0.07114132  0.94224323  1
  Se  Se171  1  0.25663932  0.40731546  0.44144527  1
  Se  Se172  1  0.24024053  0.40945294  0.94844211  1
  Se  Se173  1  0.25113494  0.74586519  0.43752256  1
  Se  Se174  1  0.24839948  0.74578616  0.95017906  1
  Se  Se175  1  0.58098456  0.08568198  0.44893695  1
  Se  Se176  1  0.59191117  0.08665777  0.94049847  1
  Se  Se177  1  0.59264553  0.40573255  0.44513442  1
  Se  Se178  1  0.58056963  0.41044165  0.93126539  1
  Se  Se179  1  0.58340227  0.74723536  0.44492152  1
  Se  Se180  1  0.58093453  0.75714927  0.95279993  1
  Se  Se181  1  0.91289007  0.07628942  0.43561661  1
  Se  Se182  1  0.93368881  0.07637829  0.93275008  1
  Se  Se183  1  0.93736353  0.39993275  0.45289269  1
  Se  Se184  1  0.90884717  0.41910133  0.94131768  1
  Se  Se185  1  0.91324515  0.75449679  0.45387073  1
  Se  Se186  1  0.91519362  0.75937451  0.94592065  1
  Se  Se187  1  0.25481565  0.24915623  0.30438253  1
  Se  Se188  1  0.25282930  0.25093068  0.79926960  1
  Se  Se189  1  0.25172025  0.58013712  0.30489647  1
  Se  Se190  1  0.24755775  0.58289938  0.81255070  1
  Se  Se191  1  0.25208556  0.92067014  0.29624933  1
  Se  Se192  1  0.25864009  0.91187569  0.80402464  1
  Se  Se193  1  0.57979493  0.24356119  0.31272439  1
  Se  Se194  1  0.58034117  0.24713718  0.80152360  1
  Se  Se195  1  0.58842322  0.57866581  0.29484237  1
  Se  Se196  1  0.57367457  0.57753240  0.80722626  1
  Se  Se197  1  0.58092161  0.91866732  0.30847683  1
  Se  Se198  1  0.59007657  0.92662139  0.80659139  1
  Se  Se199  1  0.90903166  0.23949772  0.31363628  1
  Se  Se200  1  0.91447896  0.24894981  0.79445783  1
  Se  Se201  1  0.91208610  0.58481373  0.30793552  1
  Se  Se202  1  0.91784745  0.58993020  0.80514104  1
  Se  Se203  1  0.91688941  0.91708076  0.30350599  1
  Se  Se204  1  0.92070517  0.91553737  0.80475996  1
  Se  Se205  1  0.08498546  0.08834707  0.30565503  1
  Se  Se206  1  0.11194869  0.09364820  0.79555017  1
  Se  Se207  1  0.09299995  0.41944215  0.31617934  1
  Se  Se208  1  0.08058952  0.41672516  0.80705747  1
  Se  Se209  1  0.09226569  0.76309711  0.30619050  1
  Se  Se210  1  0.08152176  0.74874392  0.80360020  1
  Se  Se211  1  0.41433567  0.08052214  0.30881013  1
  Se  Se212  1  0.41674154  0.07962925  0.80722731  1
  Se  Se213  1  0.41911464  0.41065162  0.29604696  1
  Se  Se214  1  0.40907292  0.41268397  0.80170914  1
  Se  Se215  1  0.41760153  0.75928761  0.30799178  1
  Se  Se216  1  0.42136383  0.76008442  0.80933117  1
  Se  Se217  1  0.74322938  0.08215160  0.29926031  1
  Se  Se218  1  0.77110883  0.09227062  0.79366827  1
  Se  Se219  1  0.75695405  0.41602356  0.30155312  1
  Se  Se220  1  0.74636272  0.42249829  0.80417202  1
  Se  Se221  1  0.74912199  0.75100119  0.30483360  1
  Se  Se222  1  0.75023792  0.75383823  0.81807248  1
  Se  Se223  1  0.25153328  0.07859308  0.19476195  1
  Se  Se224  1  0.24607031  0.08932958  0.70756782  1
  Se  Se225  1  0.25400191  0.40550051  0.19636140  1
  Se  Se226  1  0.24786976  0.41667387  0.70284739  1
  Se  Se227  1  0.24418838  0.76267512  0.17673656  1
  Se  Se228  1  0.24498992  0.76001554  0.68760761  1
  Se  Se229  1  0.58386488  0.08584337  0.19656547  1
  Se  Se230  1  0.58545432  0.07978726  0.69832814  1
  Se  Se231  1  0.57754023  0.41868335  0.17918733  1
  Se  Se232  1  0.58197131  0.41320892  0.69854562  1
  Se  Se233  1  0.58594437  0.75660240  0.20048442  1
  Se  Se234  1  0.57731471  0.76132307  0.69449533  1
  Se  Se235  1  0.92219509  0.07964274  0.19877439  1
  Se  Se236  1  0.88867023  0.09358596  0.70090906  1
  Se  Se237  1  0.91714717  0.42114095  0.19070188  1
  Se  Se238  1  0.92029637  0.41722011  0.70739935  1
  Se  Se239  1  0.91407691  0.76658532  0.18496759  1
  Se  Se240  1  0.91932423  0.74911757  0.70124483  1
  Se  Se241  1  0.09034897  0.24090645  0.18960894  1
  Se  Se242  1  0.06642866  0.25050817  0.70581003  1
  Se  Se243  1  0.08922340  0.56935301  0.19268672  1
  Se  Se244  1  0.08204847  0.58741694  0.70428483  1
  Se  Se245  1  0.07965146  0.92279193  0.18955527  1
  Se  Se246  1  0.07908002  0.91781136  0.70522478  1
  Se  Se247  1  0.41618178  0.24740723  0.19886646  1
  Se  Se248  1  0.41618006  0.24852829  0.69789096  1
  Se  Se249  1  0.42360522  0.57684820  0.18379351  1
  Se  Se250  1  0.42680134  0.57842204  0.68612211  1
  Se  Se251  1  0.41423549  0.91869042  0.18940124  1
  Se  Se252  1  0.41293268  0.92314269  0.69924431  1
  Se  Se253  1  0.76149765  0.24126918  0.18419311  1
  Se  Se254  1  0.72205826  0.27110725  0.69909944  1
  Se  Se255  1  0.75016710  0.58876435  0.19567820  1
  Se  Se256  1  0.75869107  0.57884123  0.68739246  1
  Se  Se257  1  0.74918286  0.92339460  0.19851943  1
  Se  Se258  1  0.74720126  0.90670503  0.70073228  1
