# generated using pymatgen
data_In86Cu29Se144
_symmetry_space_group_name_H-M   'P 1'
_cell_length_a   17.57507675
_cell_length_b   17.57633552
_cell_length_c   23.44442241
_cell_angle_alpha   89.98744615
_cell_angle_beta   89.98163587
_cell_angle_gamma   90.00533552
_symmetry_Int_Tables_number   1
_chemical_formula_structural   In86Cu29Se144
_chemical_formula_sum   'In86 Cu29 Se144'
_cell_volume   7242.10917614
_cell_formula_units_Z   1
loop_
 _symmetry_equiv_pos_site_id
 _symmetry_equiv_pos_as_xyz
  1  'x, y, z'
loop_
 _atom_site_type_symbol
 _atom_site_label
 _atom_site_symmetry_multiplicity
 _atom_site_fract_x
 _atom_site_fract_y
 _atom_site_fract_z
 _atom_site_occupancy
  In  In0  1  -0.00380219  0.15274497  0.12541895  1
  In  In1  1  0.01008887  0.17558972  0.61629742  1
  In  In2  1  0.00894961  0.49966083  0.13130908  1
  In  In3  1  -0.00127025  0.49373282  0.62167087  1
  In  In4  1  -0.00185971  0.83666455  0.12861090  1
  In  In5  1  -0.00251338  0.84405337  0.62171761  1
  In  In6  1  0.33655921  0.17084781  0.11273511  1
  In  In7  1  0.33382865  0.16509306  0.63054825  1
  In  In8  1  0.34246367  0.49956581  0.12374811  1
  In  In9  1  0.31110025  0.49785411  0.62535293  1
  In  In10  1  0.31804813  0.83405178  0.12458439  1
  In  In11  1  0.35154418  0.82356027  0.62737816  1
  In  In12  1  0.65447008  0.16602274  0.12553064  1
  In  In13  1  0.66555835  0.16447723  0.62495963  1
  In  In14  1  0.65989750  0.50478718  0.12017749  1
  In  In15  1  0.67614016  0.49269058  0.63091809  1
  In  In16  1  0.68381093  0.83277361  0.12251514  1
  In  In17  1  0.66637739  0.83582329  0.62822102  1
  In  In18  1  0.16450250  0.01615655  0.37701072  1
  In  In19  1  0.18005890  -0.01107179  0.87858125  1
  In  In20  1  0.16854275  0.33088628  0.38608458  1
  In  In21  1  0.15474772  0.32688466  0.86103065  1
  In  In22  1  0.15635034  0.66610752  0.37212048  1
  In  In23  1  0.18045818  0.67502009  0.87840377  1
  In  In24  1  0.50940177  -0.00522156  0.38097341  1
  In  In25  1  0.51012499  0.01140148  0.86660755  1
  In  In26  1  0.48666052  0.32812279  0.38108743  1
  In  In27  1  0.50177620  0.33586552  0.87190219  1
  In  In28  1  0.50769104  0.68123454  0.37468114  1
  In  In29  1  0.49318867  0.64087056  0.87633612  1
  In  In30  1  0.82820997  0.00127855  0.37431586  1
  In  In31  1  0.82245564  -0.00234021  0.87302411  1
  In  In32  1  0.83271764  0.33518607  0.38334016  1
  In  In33  1  0.82945092  0.32824822  0.86198738  1
  In  In34  1  0.84525142  0.65868828  0.38360690  1
  In  In35  1  0.83509186  0.68126644  0.87695746  1
  In  In36  1  -0.00039222  0.16527927  0.37678014  1
  In  In37  1  -0.00354607  0.17701534  0.87045812  1
  In  In38  1  -0.01183701  0.51501552  0.38189588  1
  In  In39  1  0.00950860  0.48793678  0.86862208  1
  In  In40  1  -0.01205230  0.82547010  0.37301563  1
  In  In41  1  0.00485834  0.82971131  0.88439490  1
  In  In42  1  0.33190778  0.16834178  0.38933960  1
  In  In43  1  0.33439499  0.16525923  0.87090625  1
  In  In44  1  0.32010153  0.50420830  0.38191903  1
  In  In45  1  0.34611665  0.50556777  0.87162306  1
  In  In46  1  0.34624558  0.83273170  0.37721871  1
  In  In47  1  0.31804906  0.83208104  0.87212162  1
  In  In48  1  0.68280981  0.14844628  0.39104249  1
  In  In49  1  0.66393010  0.16591531  0.86858153  1
  In  In50  1  0.67736377  0.50923195  0.37945467  1
  In  In51  1  0.65058326  0.48690442  0.86220104  1
  In  In52  1  0.65992423  0.84520197  0.38102843  1
  In  In53  1  0.67295013  0.84057400  0.86960375  1
  In  In54  1  0.16048511  -0.00753165  0.11795064  1
  In  In55  1  0.16202709  0.00957125  0.62813695  1
  In  In56  1  0.17741142  0.33630381  0.11797748  1
  In  In57  1  0.16879164  0.33177170  0.63213775  1
  In  In58  1  0.15702988  0.67540672  0.13409945  1
  In  In59  1  0.18607316  0.65308267  0.62072090  1
  In  In60  1  0.49778553  0.01300616  0.12257577  1
  In  In61  1  0.50094960  0.00061017  0.62941988  1
  In  In62  1  0.50393894  0.32849199  0.10824673  1
  In  In63  1  0.50881774  0.32095680  0.63389920  1
  In  In64  1  0.50007447  0.65558700  0.12228303  1
  In  In65  1  0.49561739  0.68586694  0.62238701  1
  In  In66  1  0.84713286  -0.00395747  0.13817045  1
  In  In67  1  0.82327664  -0.01000336  0.61730776  1
  In  In68  1  0.82865088  0.33232744  0.12546140  1
  In  In69  1  0.83505378  0.33150118  0.62192676  1
  In  In70  1  0.83039999  0.67842624  0.12693407  1
  In  In71  1  0.82858676  0.65878612  0.61814119  1
  In  In72  1  0.49555326  0.83128894  -0.00361284  1
  In  In73  1  0.50469150  0.49834193  0.50436133  1
  In  In74  1  0.17410631  0.50471686  -0.00705217  1
  In  In75  1  0.16808961  0.83405439  0.50166578  1
  In  In76  1  0.82888500  0.16163755  -0.00618220  1
  In  In77  1  0.66745936  0.32660345  0.25654447  1
  In  In78  1  0.33663259  0.66533860  0.75059719  1
  In  In79  1  0.33365726  0.33299322  0.24463766  1
  In  In80  1  0.00181875  0.66240723  0.75302247  1
  In  In81  1  0.67316183  0.66979342  0.24831783  1
  In  In82  1  0.32888133  -0.00158449  0.24901815  1
  In  In83  1  -0.00181480  0.00327464  0.74347151  1
  In  In84  1  0.82557337  0.50245896  0.00263518  1
  In  In85  1  -0.00112869  0.33356267  0.25721404  1
  Cu  Cu86  1  0.16173725  0.51364167  0.25746111  1
  Cu  Cu87  1  0.33584102  0.00280595  0.50472790  1
  Cu  Cu88  1  0.66858328  0.33220442  0.50864301  1
  Cu  Cu89  1  0.15877081  0.83593025  0.24985594  1
  Cu  Cu90  1  0.66116227  0.66185473  -0.00239078  1
  Cu  Cu91  1  0.16274073  0.16626080  0.24933765  1
  Cu  Cu92  1  0.00333918  0.33176736  0.50161341  1
  Cu  Cu93  1  0.16929977  0.16442522  0.74840985  1
  Cu  Cu94  1  0.00288147  0.66297124  0.49912789  1
  Cu  Cu95  1  0.66129090  -0.00018551  0.50426008  1
  Cu  Cu96  1  0.50500770  0.83589577  0.75095250  1
  Cu  Cu97  1  0.49929517  0.16775636  0.74920282  1
  Cu  Cu98  1  0.50421281  0.15840332  0.25234263  1
  Cu  Cu99  1  0.49834426  0.50053099  0.24448346  1
  Cu  Cu100  1  0.67172692  -0.00265421  -0.00327362  1
  Cu  Cu101  1  0.33626788  0.00636611  -0.00390090  1
  Cu  Cu102  1  0.67059545  0.67477761  0.50129421  1
  Cu  Cu103  1  0.00334111  -0.00422420  0.00574104  1
  Cu  Cu104  1  0.00047514  0.32869470  -0.00873901  1
  Cu  Cu105  1  -0.00688008  0.00297452  0.49854630  1
  Cu  Cu106  1  0.83096300  0.49974374  0.74209910  1
  Cu  Cu107  1  0.83154066  0.17006003  0.74395086  1
  Cu  Cu108  1  0.50143052  0.83375290  0.25440968  1
  Cu  Cu109  1  0.33377197  0.32709365  -0.00825016  1
  Cu  Cu110  1  0.83375156  0.83549431  0.25371386  1
  Cu  Cu111  1  0.00218409  0.67442474  0.00425192  1
  Cu  Cu112  1  0.33256311  0.32812701  0.51079127  1
  Cu  Cu113  1  0.50179829  0.49895750  0.74637927  1
  Cu  Cu114  1  0.83037428  0.83341895  0.74760601  1
  Se  Se115  1  0.08470104  0.08712572  0.05267197  1
  Se  Se116  1  0.08339993  0.07955656  0.55094402  1
  Se  Se117  1  0.07652563  0.41328570  0.05183187  1
  Se  Se118  1  0.08776334  0.41138755  0.55760722  1
  Se  Se119  1  0.08459256  0.75638958  0.05870100  1
  Se  Se120  1  0.08044636  0.74073570  0.56334581  1
  Se  Se121  1  0.42296446  0.08862064  0.04660134  1
  Se  Se122  1  0.41857168  0.08489112  0.56008117  1
  Se  Se123  1  0.40982120  0.41233602  0.05058826  1
  Se  Se124  1  0.41606053  0.41067727  0.56695980  1
  Se  Se125  1  0.40908403  0.74568549  0.06072135  1
  Se  Se126  1  0.41280862  0.74919270  0.54532539  1
  Se  Se127  1  0.74914093  0.07440633  0.06249326  1
  Se  Se128  1  0.74834950  0.08464987  0.55313299  1
  Se  Se129  1  0.73579771  0.40408346  0.05519698  1
  Se  Se130  1  0.75374573  0.42045505  0.55383937  1
  Se  Se131  1  0.74826341  0.74340722  0.04869746  1
  Se  Se132  1  0.75273065  0.75701890  0.55722494  1
  Se  Se133  1  0.24672604  0.24909703  0.04651004  1
  Se  Se134  1  0.24646017  0.24454627  0.56135820  1
  Se  Se135  1  0.24860781  0.58935772  0.06529510  1
  Se  Se136  1  0.26280295  0.58416748  0.54397299  1
  Se  Se137  1  0.25438707  0.92199848  0.05006519  1
  Se  Se138  1  0.25685841  0.92096483  0.56503424  1
  Se  Se139  1  0.58592498  0.24025930  0.04713339  1
  Se  Se140  1  0.58150947  0.24757400  0.55492335  1
  Se  Se141  1  0.57655280  0.57760601  0.04726495  1
  Se  Se142  1  0.59267682  0.59159281  0.56338951  1
  Se  Se143  1  0.58848435  0.91941624  0.05819489  1
  Se  Se144  1  0.58016279  0.91502142  0.55877625  1
  Se  Se145  1  0.92062068  0.25411979  0.05578312  1
  Se  Se146  1  0.91535994  0.24812836  0.55076804  1
  Se  Se147  1  0.92471305  0.58767434  0.06073089  1
  Se  Se148  1  0.91867657  0.57975302  0.55330745  1
  Se  Se149  1  0.91394693  0.91832025  0.05828773  1
  Se  Se150  1  0.91331217  0.91398095  0.54871876  1
  Se  Se151  1  0.08334678  0.24412796  0.44785750  1
  Se  Se152  1  0.08676583  0.24748222  0.94100498  1
  Se  Se153  1  0.08873367  0.58044593  0.44779685  1
  Se  Se154  1  0.07279395  0.59240990  0.93827395  1
  Se  Se155  1  0.07692402  0.92147073  0.43952905  1
  Se  Se156  1  0.08746017  0.91728160  0.94806828  1
  Se  Se157  1  0.41832972  0.24720170  0.45740645  1
  Se  Se158  1  0.42040752  0.24699909  0.93912167  1
  Se  Se159  1  0.42219532  0.58705579  0.43892325  1
  Se  Se160  1  0.39791835  0.59294123  0.95082543  1
  Se  Se161  1  0.41673417  0.92019730  0.44806792  1
  Se  Se162  1  0.41482117  0.92596499  0.93423098  1
  Se  Se163  1  0.75155237  0.25130777  0.45149772  1
  Se  Se164  1  0.74356202  0.25955842  0.93912598  1
  Se  Se165  1  0.75369749  0.58523113  0.45356572  1
  Se  Se166  1  0.74226231  0.58565752  0.93385524  1
  Se  Se167  1  0.74877903  0.92054700  0.44900439  1
  Se  Se168  1  0.75450667  0.91098650  0.94725032  1
  Se  Se169  1  0.24690716  0.08336082  0.45379668  1
  Se  Se170  1  0.24940125  0.08718486  0.94327902  1
  Se  Se171  1  0.25461528  0.41201502  0.45266574  1
  Se  Se172  1  0.25354553  0.40780495  0.93161739  1
  Se  Se173  1  0.25392171  0.74597706  0.43903705  1
  Se  Se174  1  0.25144388  0.75561053  0.95146572  1
  Se  Se175  1  0.57658243  0.08599211  0.45259603  1
  Se  Se176  1  0.59102846  0.08201547  0.94336681  1
  Se  Se177  1  0.59304977  0.40824132  0.43994393  1
  Se  Se178  1  0.57325617  0.42674739  0.94242596  1
  Se  Se179  1  0.58332594  0.75589101  0.45036982  1
  Se  Se180  1  0.58588526  0.74375991  0.93444893  1
  Se  Se181  1  0.91149402  0.08575476  0.44375490  1
  Se  Se182  1  0.92650527  0.07209758  0.93814422  1
  Se  Se183  1  0.92058283  0.41680873  0.44804356  1
  Se  Se184  1  0.91538698  0.41168733  0.93905583  1
  Se  Se185  1  0.91703915  0.75101664  0.45255524  1
  Se  Se186  1  0.91423148  0.75485658  0.95235630  1
  Se  Se187  1  0.24671778  0.24352650  0.30888370  1
  Se  Se188  1  0.25201807  0.24890059  0.80116617  1
  Se  Se189  1  0.25349443  0.59011950  0.30744070  1
  Se  Se190  1  0.24051380  0.57590070  0.80712727  1
  Se  Se191  1  0.24090313  0.91127571  0.31348192  1
  Se  Se192  1  0.25233624  0.91851847  0.79922952  1
  Se  Se193  1  0.57465490  0.24108032  0.31671051  1
  Se  Se194  1  0.58384386  0.25238103  0.80143778  1
  Se  Se195  1  0.57955606  0.57634128  0.30675952  1
  Se  Se196  1  0.58218607  0.58783108  0.79756708  1
  Se  Se197  1  0.58430193  0.91995852  0.30316138  1
  Se  Se198  1  0.59005481  0.92159411  0.80109230  1
  Se  Se199  1  0.90303255  0.24352939  0.30916513  1
  Se  Se200  1  0.91906568  0.25162213  0.79499920  1
  Se  Se201  1  0.91372385  0.58598911  0.30375985  1
  Se  Se202  1  0.90622712  0.57395116  0.81163318  1
  Se  Se203  1  0.91693744  0.92000694  0.30664374  1
  Se  Se204  1  0.91545450  0.90878205  0.80841283  1
  Se  Se205  1  0.07976016  0.08488474  0.30265805  1
  Se  Se206  1  0.08732659  0.08510862  0.80984378  1
  Se  Se207  1  0.09076559  0.42283662  0.31610967  1
  Se  Se208  1  0.08227628  0.41661388  0.79196240  1
  Se  Se209  1  0.07683472  0.75091336  0.30363583  1
  Se  Se210  1  0.09151786  0.75734825  0.80843373  1
  Se  Se211  1  0.41487011  0.08813723  0.31270450  1
  Se  Se212  1  0.41531138  0.08172843  0.80005586  1
  Se  Se213  1  0.41931110  0.42415339  0.30853834  1
  Se  Se214  1  0.41776556  0.41780013  0.80081825  1
  Se  Se215  1  0.41699260  0.74852233  0.30220388  1
  Se  Se216  1  0.42676129  0.75449790  0.81363340  1
  Se  Se217  1  0.73991399  0.07961036  0.30630387  1
  Se  Se218  1  0.75377371  0.08611656  0.80185703  1
  Se  Se219  1  0.75803897  0.42509700  0.30760828  1
  Se  Se220  1  0.74798810  0.41616901  0.79755322  1
  Se  Se221  1  0.75457361  0.75583200  0.31610556  1
  Se  Se222  1  0.74986905  0.74857035  0.80220868  1
  Se  Se223  1  0.24673859  0.09304924  0.18652632  1
  Se  Se224  1  0.25200349  0.07787527  0.69906098  1
  Se  Se225  1  0.23816151  0.43100678  0.19483101  1
  Se  Se226  1  0.25508639  0.41049831  0.70129037  1
  Se  Se227  1  0.24804860  0.75383878  0.20112611  1
  Se  Se228  1  0.24450465  0.75494920  0.69131976  1
  Se  Se229  1  0.58544773  0.07630353  0.19812771  1
  Se  Se230  1  0.58517312  0.08378977  0.69753776  1
  Se  Se231  1  0.57652544  0.41391802  0.18984751  1
  Se  Se232  1  0.58782994  0.41387759  0.69731252  1
  Se  Se233  1  0.57899007  0.75685841  0.18755263  1
  Se  Se234  1  0.58402790  0.74943677  0.69705855  1
  Se  Se235  1  0.91725892  0.09138345  0.20351355  1
  Se  Se236  1  0.90906381  0.08974131  0.68156275  1
  Se  Se237  1  0.90867154  0.42160973  0.19303705  1
  Se  Se238  1  0.91626683  0.41534350  0.69310241  1
  Se  Se239  1  0.91511686  0.75207930  0.19795719  1
  Se  Se240  1  0.91407196  0.75407839  0.69031877  1
  Se  Se241  1  0.09046307  0.25304580  0.18847421  1
  Se  Se242  1  0.08097449  0.24565864  0.69743585  1
  Se  Se243  1  0.07524942  0.58979420  0.20210946  1
  Se  Se244  1  0.09125558  0.57804352  0.68960648  1
  Se  Se245  1  0.08140039  0.92394976  0.19594968  1
  Se  Se246  1  0.09253103  0.90589387  0.69470582  1
  Se  Se247  1  0.42810808  0.24128378  0.19009386  1
  Se  Se248  1  0.41244563  0.25193993  0.70027435  1
  Se  Se249  1  0.41380009  0.58638458  0.19653722  1
  Se  Se250  1  0.42256936  0.57736549  0.68395382  1
  Se  Se251  1  0.42273921  0.91067650  0.18909045  1
  Se  Se252  1  0.41769097  0.91514086  0.69856606  1
  Se  Se253  1  0.75546705  0.23830612  0.19302412  1
  Se  Se254  1  0.74740609  0.25342838  0.69145249  1
  Se  Se255  1  0.75683023  0.57242964  0.18935722  1
  Se  Se256  1  0.74869659  0.59019380  0.69621853  1
  Se  Se257  1  0.74957651  0.91585145  0.19843260  1
  Se  Se258  1  0.74852369  0.92139142  0.69790760  1
