# generated using pymatgen
data_In86Cu29Se144
_symmetry_space_group_name_H-M   'P 1'
_cell_length_a   17.58871579
_cell_length_b   17.58628366
_cell_length_c   23.45493239
_cell_angle_alpha   89.99773523
_cell_angle_beta   89.99386555
_cell_angle_gamma   89.98286028
_symmetry_Int_Tables_number   1
_chemical_formula_structural   In86Cu29Se144
_chemical_formula_sum   'In86 Cu29 Se144'
_cell_volume   7255.08271439
_cell_formula_units_Z   1
loop_
 _symmetry_equiv_pos_site_id
 _symmetry_equiv_pos_as_xyz
  1  'x, y, z'
loop_
 _atom_site_type_symbol
 _atom_site_label
 _atom_site_symmetry_multiplicity
 _atom_site_fract_x
 _atom_site_fract_y
 _atom_site_fract_z
 _atom_site_occupancy
  In  In0  1  0.00833762  0.16407391  0.12403278  1
  In  In1  1  -0.00012433  0.17062558  0.63829349  1
  In  In2  1  -0.00534711  0.49273545  0.11994846  1
  In  In3  1  -0.00868799  0.49087940  0.61892637  1
  In  In4  1  0.00356023  0.83447177  0.11510883  1
  In  In5  1  0.01839786  0.82987064  0.63430488  1
  In  In6  1  0.33994312  0.17520469  0.12170585  1
  In  In7  1  0.34498740  0.15810289  0.62454004  1
  In  In8  1  0.32431349  0.51617689  0.13627679  1
  In  In9  1  0.34452296  0.51132679  0.61742935  1
  In  In10  1  0.32520715  0.81799201  0.11907968  1
  In  In11  1  0.32949957  0.82233806  0.62565265  1
  In  In12  1  0.65794350  0.17752491  0.12085408  1
  In  In13  1  0.67010526  0.17705761  0.62277720  1
  In  In14  1  0.67492613  0.49794072  0.12577299  1
  In  In15  1  0.66909304  0.50027700  0.62659963  1
  In  In16  1  0.65221850  0.82154818  0.10905172  1
  In  In17  1  0.64830002  0.82514186  0.62772187  1
  In  In18  1  0.16354099  -0.01004410  0.37654138  1
  In  In19  1  0.16372457  0.00481328  0.88200272  1
  In  In20  1  0.17836140  0.34519373  0.36297324  1
  In  In21  1  0.15912661  0.34189334  0.88233785  1
  In  In22  1  0.17527051  0.66296131  0.37895012  1
  In  In23  1  0.17322951  0.66599942  0.87693885  1
  In  In24  1  0.49755781  -0.00329150  0.38289279  1
  In  In25  1  0.50976382  -0.00295488  0.88791294  1
  In  In26  1  0.48204015  0.35272479  0.39154990  1
  In  In27  1  0.50140712  0.32124326  0.87156945  1
  In  In28  1  0.49964649  0.66115199  0.37357440  1
  In  In29  1  0.50733605  0.68126095  0.85429109  1
  In  In30  1  0.83671494  0.00965026  0.37417741  1
  In  In31  1  0.83157353  -0.02129873  0.88002959  1
  In  In32  1  0.84446809  0.33489410  0.37241084  1
  In  In33  1  0.83881567  0.34407934  0.87181770  1
  In  In34  1  0.81287173  0.66376257  0.37287405  1
  In  In35  1  0.82630033  0.67495764  0.88248355  1
  In  In36  1  -0.00869127  0.18291031  0.37102370  1
  In  In37  1  0.00549590  0.17914276  0.87308367  1
  In  In38  1  0.01260282  0.49264402  0.38134212  1
  In  In39  1  0.00802628  0.49667968  0.87979018  1
  In  In40  1  0.00819115  0.84005117  0.37999609  1
  In  In41  1  -0.00076970  0.83467562  0.87807866  1
  In  In42  1  0.33051128  0.18206473  0.37118190  1
  In  In43  1  0.34056275  0.15790921  0.88490599  1
  In  In44  1  0.33265667  0.50053199  0.37206192  1
  In  In45  1  0.32089004  0.50595841  0.87539639  1
  In  In46  1  0.33969049  0.82320037  0.37813735  1
  In  In47  1  0.33895611  0.82619496  0.87681028  1
  In  In48  1  0.66338210  0.16536313  0.37800187  1
  In  In49  1  0.65221673  0.16389986  0.87454776  1
  In  In50  1  0.65008480  0.51032323  0.39085906  1
  In  In51  1  0.67356518  0.50964638  0.86808147  1
  In  In52  1  0.65963694  0.81098643  0.37127643  1
  In  In53  1  0.66791708  0.82901199  0.87889811  1
  In  In54  1  0.16083641  -0.00612330  0.11598685  1
  In  In55  1  0.17501131  -0.01744561  0.63552099  1
  In  In56  1  0.16590690  0.33512655  0.12332656  1
  In  In57  1  0.15442517  0.33619665  0.62733551  1
  In  In58  1  0.18031658  0.67585400  0.12018553  1
  In  In59  1  0.17764111  0.67548342  0.61844613  1
  In  In60  1  0.50430594  -0.00266514  0.11107864  1
  In  In61  1  0.49634638  -0.00761031  0.61728916  1
  In  In62  1  0.50108572  0.33078330  0.12790036  1
  In  In63  1  0.52862233  0.35525949  0.59972164  1
  In  In64  1  0.48700805  0.67106501  0.13450300  1
  In  In65  1  0.50081430  0.66845954  0.63096062  1
  In  In66  1  0.84051876  -0.00128379  0.12026885  1
  In  In67  1  0.84003489  0.00844746  0.63314977  1
  In  In68  1  0.82544891  0.34824457  0.12644822  1
  In  In69  1  0.82471486  0.34479300  0.63386290  1
  In  In70  1  0.82673529  0.65708646  0.11707832  1
  In  In71  1  0.83275561  0.64627976  0.62393778  1
  In  In72  1  0.66140244  0.34090098  0.25333141  1
  In  In73  1  0.82910253  0.16594165  0.00264895  1
  In  In74  1  0.00042537  0.66172131  0.75078711  1
  In  In75  1  0.67082898  0.00170874  0.25120540  1
  In  In76  1  0.33699374  -0.00440422  0.75327639  1
  In  In77  1  0.33084323  -0.00484608  0.24220387  1
  In  In78  1  0.83499595  0.83131121  0.49722767  1
  In  In79  1  0.83291612  0.17313546  0.49703280  1
  In  In80  1  0.49488456  0.50048230  0.00125757  1
  In  In81  1  0.17250620  0.16613737  0.50220783  1
  In  In82  1  0.67094482  -0.00366967  0.75711833  1
  In  In83  1  0.00395865  0.66603946  0.25169442  1
  In  In84  1  0.00282954  0.00196411  0.24084578  1
  In  In85  1  0.33647714  0.33199928  0.74816816  1
  Cu  Cu86  1  0.01130803  -0.00372042  0.50758869  1
  Cu  Cu87  1  0.65806971  0.66396394  0.50233992  1
  Cu  Cu88  1  0.50788550  0.16955972  0.74581235  1
  Cu  Cu89  1  0.83279262  0.83282444  0.24505135  1
  Cu  Cu90  1  0.16270682  0.49656933  0.24986523  1
  Cu  Cu91  1  0.83156641  0.49507247  0.74983075  1
  Cu  Cu92  1  0.50063665  0.49758413  0.74137375  1
  Cu  Cu93  1  0.83013588  0.82524982  0.75606591  1
  Cu  Cu94  1  0.33746715  0.66751090  0.00021318  1
  Cu  Cu95  1  0.16098300  0.17277355  0.24647377  1
  Cu  Cu96  1  0.00257898  0.66371690  0.50370279  1
  Cu  Cu97  1  0.33634519  -0.00681896  0.50207163  1
  Cu  Cu98  1  0.00293510  0.33477363  0.49979722  1
  Cu  Cu99  1  0.66415872  -0.00587298  0.49772563  1
  Cu  Cu100  1  0.16531495  0.17129731  0.75905712  1
  Cu  Cu101  1  0.16448410  0.50251785  0.75109283  1
  Cu  Cu102  1  0.32761224  0.33342900  0.00019894  1
  Cu  Cu103  1  0.00326823  0.66437010  -0.00149433  1
  Cu  Cu104  1  0.33074087  -0.00207694  0.00085399  1
  Cu  Cu105  1  0.49507507  0.17033330  0.25009736  1
  Cu  Cu106  1  0.33593782  0.66562883  0.49868696  1
  Cu  Cu107  1  0.33137374  0.33536033  0.49376945  1
  Cu  Cu108  1  0.83243724  0.50336278  0.24891617  1
  Cu  Cu109  1  0.66384598  0.33605825  0.00170541  1
  Cu  Cu110  1  0.66358066  0.66519912  -0.00422645  1
  Cu  Cu111  1  0.83955114  0.17007704  0.75386813  1
  Cu  Cu112  1  0.49984052  0.82419483  0.24674525  1
  Cu  Cu113  1  -0.00194750  -0.00251919  -0.00195058  1
  Cu  Cu114  1  0.00385979  0.33566523  -0.00120768  1
  Se  Se115  1  0.08070694  0.08275618  0.05020087  1
  Se  Se116  1  0.08419961  0.08196228  0.56751961  1
  Se  Se117  1  0.08689165  0.41980858  0.05218443  1
  Se  Se118  1  0.08730072  0.41889572  0.55131120  1
  Se  Se119  1  0.08746365  0.74751466  0.05177547  1
  Se  Se120  1  0.08216618  0.75231199  0.55363950  1
  Se  Se121  1  0.41307682  0.08397701  0.05336677  1
  Se  Se122  1  0.41988334  0.08169312  0.54925073  1
  Se  Se123  1  0.40531219  0.41381245  0.06301285  1
  Se  Se124  1  0.41417919  0.41836040  0.54848776  1
  Se  Se125  1  0.42352007  0.74922560  0.05303826  1
  Se  Se126  1  0.41761042  0.74618034  0.55731225  1
  Se  Se127  1  0.73714998  0.07674673  0.06016989  1
  Se  Se128  1  0.74862999  0.07201038  0.55592993  1
  Se  Se129  1  0.74997275  0.42133420  0.04893172  1
  Se  Se130  1  0.75114112  0.41658712  0.55791544  1
  Se  Se131  1  0.75173190  0.74699443  0.04851734  1
  Se  Se132  1  0.74595237  0.74390784  0.55984807  1
  Se  Se133  1  0.24693148  0.24817063  0.05465172  1
  Se  Se134  1  0.25937874  0.25854166  0.56325657  1
  Se  Se135  1  0.25405845  0.58259807  0.05249134  1
  Se  Se136  1  0.24948748  0.58255105  0.55099090  1
  Se  Se137  1  0.24994201  0.91152420  0.05333517  1
  Se  Se138  1  0.25212395  0.91435355  0.55726661  1
  Se  Se139  1  0.57529695  0.25452618  0.05014697  1
  Se  Se140  1  0.57662412  0.23344593  0.55116561  1
  Se  Se141  1  0.58613275  0.58839632  0.06102652  1
  Se  Se142  1  0.57969394  0.58249267  0.56103293  1
  Se  Se143  1  0.58509321  0.91676209  0.04327548  1
  Se  Se144  1  0.58341499  0.90976338  0.55136517  1
  Se  Se145  1  0.91955784  0.25924254  0.06037650  1
  Se  Se146  1  0.92397262  0.25558451  0.56196914  1
  Se  Se147  1  0.91810300  0.58109780  0.05115925  1
  Se  Se148  1  0.91508662  0.57803341  0.54849317  1
  Se  Se149  1  0.91358216  0.91359175  0.04926193  1
  Se  Se150  1  0.92186711  0.91937669  0.56239667  1
  Se  Se151  1  0.08545668  0.25636332  0.43961064  1
  Se  Se152  1  0.08681198  0.24800144  0.94997985  1
  Se  Se153  1  0.08747844  0.58426156  0.44712192  1
  Se  Se154  1  0.08924807  0.58346570  0.94523772  1
  Se  Se155  1  0.09153857  0.91202507  0.45382663  1
  Se  Se156  1  0.08425957  0.91398618  0.94773633  1
  Se  Se157  1  0.41420918  0.24368846  0.44845694  1
  Se  Se158  1  0.41623111  0.25498520  0.94699119  1
  Se  Se159  1  0.41549791  0.58095118  0.44333881  1
  Se  Se160  1  0.41644843  0.59233476  0.93547199  1
  Se  Se161  1  0.41836012  0.90898450  0.44804017  1
  Se  Se162  1  0.41387773  0.91603097  0.94587810  1
  Se  Se163  1  0.74228155  0.26360515  0.44059555  1
  Se  Se164  1  0.74426273  0.25689523  0.93911563  1
  Se  Se165  1  0.74997318  0.58478180  0.45278296  1
  Se  Se166  1  0.74955549  0.58004330  0.94689574  1
  Se  Se167  1  0.74460021  0.91964244  0.43386984  1
  Se  Se168  1  0.73252426  0.92436418  0.94807323  1
  Se  Se169  1  0.25973254  0.07480246  0.43888292  1
  Se  Se170  1  0.24791957  0.08548860  0.95109768  1
  Se  Se171  1  0.24644987  0.41907987  0.44292537  1
  Se  Se172  1  0.24896102  0.42133796  0.94786320  1
  Se  Se173  1  0.25010204  0.75136865  0.44898382  1
  Se  Se174  1  0.25126060  0.75068050  0.94773871  1
  Se  Se175  1  0.58369844  0.08178701  0.44641535  1
  Se  Se176  1  0.57523965  0.09691386  0.95160231  1
  Se  Se177  1  0.58336709  0.41314698  0.45591712  1
  Se  Se178  1  0.58603582  0.41483804  0.93770750  1
  Se  Se179  1  0.57696369  0.74763813  0.44772709  1
  Se  Se180  1  0.57714639  0.74292280  0.94062133  1
  Se  Se181  1  0.93396242  0.07835969  0.44585746  1
  Se  Se182  1  0.91884676  0.08042895  0.93841710  1
  Se  Se183  1  0.91816192  0.41653879  0.44629362  1
  Se  Se184  1  0.91793136  0.41829135  0.94714017  1
  Se  Se185  1  0.92327580  0.73866319  0.43677399  1
  Se  Se186  1  0.91896589  0.75027023  0.94717702  1
  Se  Se187  1  0.25148726  0.25277481  0.29539669  1
  Se  Se188  1  0.25216617  0.24661450  0.81642823  1
  Se  Se189  1  0.24504522  0.58108014  0.30329715  1
  Se  Se190  1  0.24899136  0.58685496  0.80039766  1
  Se  Se191  1  0.24719239  0.90740189  0.30739132  1
  Se  Se192  1  0.24345741  0.91338793  0.81307760  1
  Se  Se193  1  0.57326096  0.24799424  0.31245400  1
  Se  Se194  1  0.59035612  0.25317607  0.79868985  1
  Se  Se195  1  0.59933722  0.59275265  0.30924489  1
  Se  Se196  1  0.58314750  0.57944579  0.79777572  1
  Se  Se197  1  0.57553248  0.91009265  0.30663076  1
  Se  Se198  1  0.57266046  0.90926568  0.80896691  1
  Se  Se199  1  0.91138954  0.25156159  0.29693021  1
  Se  Se200  1  0.92038491  0.25796717  0.80475449  1
  Se  Se201  1  0.91310234  0.57871516  0.31321604  1
  Se  Se202  1  0.90856633  0.57708825  0.81298932  1
  Se  Se203  1  0.91103576  0.91099487  0.30653112  1
  Se  Se204  1  0.91467427  0.91055046  0.80459445  1
  Se  Se205  1  0.08865150  0.09055257  0.31025338  1
  Se  Se206  1  0.08333068  0.08485529  0.80966360  1
  Se  Se207  1  0.07599054  0.41358321  0.30037671  1
  Se  Se208  1  0.08455598  0.41739491  0.80461647  1
  Se  Se209  1  0.09165211  0.75814406  0.31006691  1
  Se  Se210  1  0.08792188  0.75405919  0.80806596  1
  Se  Se211  1  0.41828527  0.08359115  0.30792021  1
  Se  Se212  1  0.43105180  0.08912477  0.80826293  1
  Se  Se213  1  0.41514735  0.41243310  0.30691840  1
  Se  Se214  1  0.42273372  0.42505373  0.81023308  1
  Se  Se215  1  0.41692931  0.74615456  0.30370251  1
  Se  Se216  1  0.39741889  0.74136088  0.79793134  1
  Se  Se217  1  0.76101889  0.09938699  0.30465289  1
  Se  Se218  1  0.76130124  0.08953671  0.81562310  1
  Se  Se219  1  0.75197569  0.42851272  0.31401262  1
  Se  Se220  1  0.74541183  0.41303502  0.80248653  1
  Se  Se221  1  0.74855620  0.74902345  0.29638658  1
  Se  Se222  1  0.74394276  0.74467310  0.80631059  1
  Se  Se223  1  0.23803370  0.08839478  0.18675171  1
  Se  Se224  1  0.24614730  0.09458746  0.69658651  1
  Se  Se225  1  0.24779294  0.41578927  0.19490259  1
  Se  Se226  1  0.24748993  0.42468421  0.68913932  1
  Se  Se227  1  0.25818165  0.74319004  0.19861610  1
  Se  Se228  1  0.23506527  0.76072160  0.69632247  1
  Se  Se229  1  0.57441592  0.08859563  0.19154485  1
  Se  Se230  1  0.58320987  0.08022110  0.68853797  1
  Se  Se231  1  0.57273317  0.43125725  0.19311777  1
  Se  Se232  1  0.58450547  0.41091714  0.69236562  1
  Se  Se233  1  0.58944668  0.74865221  0.19259661  1
  Se  Se234  1  0.58515425  0.74376500  0.70357589  1
  Se  Se235  1  0.90545530  0.09486964  0.19194456  1
  Se  Se236  1  0.92212676  0.08162056  0.70566918  1
  Se  Se237  1  0.91499874  0.41931808  0.19670566  1
  Se  Se238  1  0.92209645  0.41566217  0.69925657  1
  Se  Se239  1  0.91469523  0.75255322  0.18671199  1
  Se  Se240  1  0.90785670  0.75051379  0.68872432  1
  Se  Se241  1  0.07793590  0.25525959  0.19318027  1
  Se  Se242  1  0.08489540  0.25541797  0.70366161  1
  Se  Se243  1  0.08853563  0.57887093  0.18620079  1
  Se  Se244  1  0.08687324  0.57741418  0.68430091  1
  Se  Se245  1  0.09326957  0.90279092  0.19275836  1
  Se  Se246  1  0.07350061  0.92909568  0.70268146  1
  Se  Se247  1  0.41346053  0.25465137  0.19756435  1
  Se  Se248  1  0.42983576  0.25038557  0.68569083  1
  Se  Se249  1  0.41980358  0.58074389  0.20379405  1
  Se  Se250  1  0.41261977  0.58419338  0.69777959  1
  Se  Se251  1  0.42701909  0.90938331  0.18495276  1
  Se  Se252  1  0.42551649  0.90686404  0.69253784  1
  Se  Se253  1  0.74969235  0.24822084  0.19147799  1
  Se  Se254  1  0.75319172  0.24578882  0.69762676  1
  Se  Se255  1  0.74969013  0.58589344  0.19576139  1
  Se  Se256  1  0.74882085  0.58218297  0.70008565  1
  Se  Se257  1  0.75151319  0.91119987  0.18538686  1
  Se  Se258  1  0.75549824  0.90643365  0.69009121  1
