# generated using pymatgen
data_In86Cu29Se144
_symmetry_space_group_name_H-M   'P 1'
_cell_length_a   17.56901974
_cell_length_b   17.57340013
_cell_length_c   23.42438458
_cell_angle_alpha   89.99413679
_cell_angle_beta   90.00620362
_cell_angle_gamma   90.00968272
_symmetry_Int_Tables_number   1
_chemical_formula_structural   In86Cu29Se144
_chemical_formula_sum   'In86 Cu29 Se144'
_cell_volume   7232.21797763
_cell_formula_units_Z   1
loop_
 _symmetry_equiv_pos_site_id
 _symmetry_equiv_pos_as_xyz
  1  'x, y, z'
loop_
 _atom_site_type_symbol
 _atom_site_label
 _atom_site_symmetry_multiplicity
 _atom_site_fract_x
 _atom_site_fract_y
 _atom_site_fract_z
 _atom_site_occupancy
  In  In0  1  0.00059373  0.16480762  0.11941917  1
  In  In1  1  -0.00703711  0.17790573  0.63242811  1
  In  In2  1  -0.00218124  0.49769565  0.11495832  1
  In  In3  1  -0.01383547  0.49896590  0.62574627  1
  In  In4  1  -0.00364532  0.84101539  0.13883009  1
  In  In5  1  -0.00813630  0.84512399  0.62238825  1
  In  In6  1  0.34320580  0.17848878  0.12181642  1
  In  In7  1  0.32775401  0.15960727  0.62583256  1
  In  In8  1  0.32003630  0.51270259  0.12944203  1
  In  In9  1  0.34723961  0.50378833  0.62134000  1
  In  In10  1  0.32841219  0.81678513  0.12906044  1
  In  In11  1  0.33321994  0.82365860  0.62769930  1
  In  In12  1  0.66789896  0.16767179  0.11770262  1
  In  In13  1  0.68835237  0.16717468  0.62716484  1
  In  In14  1  0.69666692  0.49729556  0.11740917  1
  In  In15  1  0.67064898  0.50226089  0.62740655  1
  In  In16  1  0.66975195  0.83330262  0.12554895  1
  In  In17  1  0.66856389  0.82355853  0.62029941  1
  In  In18  1  0.15697981  0.01656170  0.37133198  1
  In  In19  1  0.16659629  0.01196785  0.88074551  1
  In  In20  1  0.15496290  0.32238976  0.36348272  1
  In  In21  1  0.14314367  0.34813942  0.90427484  1
  In  In22  1  0.17064518  0.67016930  0.35874025  1
  In  In23  1  0.16404413  0.64288423  0.88100606  1
  In  In24  1  0.50960398  -0.00983478  0.36995277  1
  In  In25  1  0.50232804  -0.00147206  0.88850260  1
  In  In26  1  0.50654417  0.35261973  0.37140867  1
  In  In27  1  0.50046883  0.32023289  0.87775613  1
  In  In28  1  0.49633675  0.65694274  0.36628460  1
  In  In29  1  0.51151509  0.66972391  0.87333499  1
  In  In30  1  0.82527709  -0.00312112  0.36816229  1
  In  In31  1  0.83144317  -0.00257142  0.88076239  1
  In  In32  1  0.83754163  0.33111749  0.37598719  1
  In  In33  1  0.82719654  0.34577838  0.87767501  1
  In  In34  1  0.83183114  0.66549364  0.37054374  1
  In  In35  1  0.83192207  0.67015956  0.88740392  1
  In  In36  1  -0.04197210  0.14115238  0.33492886  1
  In  In37  1  -0.04349216  0.21650046  0.92908984  1
  In  In38  1  -0.00806997  0.49038162  0.36598500  1
  In  In39  1  0.00809868  0.49356039  0.89831664  1
  In  In40  1  -0.01648854  0.81175701  0.35200118  1
  In  In41  1  -0.01493687  0.81727415  0.88547629  1
  In  In42  1  0.31452705  0.16643830  0.36645899  1
  In  In43  1  0.32543123  0.17238058  0.89127160  1
  In  In44  1  0.34631977  0.50850832  0.36562878  1
  In  In45  1  0.32228622  0.49765334  0.87591358  1
  In  In46  1  0.34145780  0.82070806  0.37309936  1
  In  In47  1  0.34939821  0.83112096  0.88019058  1
  In  In48  1  0.68437404  0.16508430  0.37262410  1
  In  In49  1  0.65970713  0.17825178  0.88741256  1
  In  In50  1  0.65806376  0.50783480  0.37751304  1
  In  In51  1  0.67390626  0.50528156  0.87177203  1
  In  In52  1  0.68084432  0.84439427  0.36208574  1
  In  In53  1  0.67536920  0.81923024  0.88391075  1
  In  In54  1  0.14041286  -0.00298962  0.13707619  1
  In  In55  1  0.17135877  0.00602961  0.62597135  1
  In  In56  1  0.15863439  0.34162759  0.11577123  1
  In  In57  1  0.15980839  0.31974352  0.63068316  1
  In  In58  1  0.17003977  0.66620139  0.13485683  1
  In  In59  1  0.17198890  0.66835529  0.62647810  1
  In  In60  1  0.51672542  0.00947789  0.12172629  1
  In  In61  1  0.50666154  -0.01456868  0.62127469  1
  In  In62  1  0.50800016  0.32041418  0.12180652  1
  In  In63  1  0.49922549  0.35128252  0.62337370  1
  In  In64  1  0.49169094  0.67437146  0.12747635  1
  In  In65  1  0.50830969  0.66396745  0.62879140  1
  In  In66  1  0.83659346  0.00246747  0.12978215  1
  In  In67  1  0.82569538  0.00475576  0.60926909  1
  In  In68  1  0.84093983  0.33879137  0.10833015  1
  In  In69  1  0.83412771  0.33414580  0.62861207  1
  In  In70  1  0.83402532  0.66446690  0.12377742  1
  In  In71  1  0.82579984  0.65307551  0.61474736  1
  In  In72  1  0.33330855  -0.00418013  0.24822880  1
  In  In73  1  0.00381479  0.00571668  0.75261488  1
  In  In74  1  0.51377748  0.82528845  0.50406884  1
  In  In75  1  0.33167313  0.00503775  0.75755732  1
  In  In76  1  0.16549997  0.83498310  0.01126585  1
  In  In77  1  -0.00513481  0.65967618  0.75779798  1
  In  In78  1  0.33633241  0.34078670  0.75289910  1
  In  In79  1  0.15959651  0.50012439  0.49547767  1
  In  In80  1  0.15298580  0.17015354  0.50047917  1
  In  In81  1  0.66987190  -0.00052297  0.74830911  1
  In  In82  1  0.67818981  0.33020929  0.24179121  1
  In  In83  1  0.15607685  0.82708773  0.48122175  1
  In  In84  1  0.50988162  0.17682720  0.48589474  1
  In  In85  1  0.50155307  0.49955663  -0.00254130  1
  Cu  Cu86  1  -0.00914870  0.32867216  0.49605051  1
  Cu  Cu87  1  0.33977993  -0.00015148  0.01169410  1
  Cu  Cu88  1  0.67381613  -0.00707154  0.00451118  1
  Cu  Cu89  1  0.16370282  0.49350670  0.75840146  1
  Cu  Cu90  1  0.50651223  0.83216217  0.24756803  1
  Cu  Cu91  1  0.67145296  0.34151859  0.50150838  1
  Cu  Cu92  1  0.82919340  0.83034577  0.24507116  1
  Cu  Cu93  1  0.84070629  0.17897172  0.76138692  1
  Cu  Cu94  1  0.00003183  -0.00529356  0.00906478  1
  Cu  Cu95  1  0.15062839  0.18404462  0.76829333  1
  Cu  Cu96  1  -0.01553363  0.00282836  0.48963523  1
  Cu  Cu97  1  0.66365134  0.67008588  0.00353495  1
  Cu  Cu98  1  -0.00480800  0.67074411  0.49196384  1
  Cu  Cu99  1  0.49982124  0.49785286  0.24172195  1
  Cu  Cu100  1  0.16142731  0.49108341  0.24491012  1
  Cu  Cu101  1  0.50441925  0.16797557  0.24666883  1
  Cu  Cu102  1  0.83439607  0.49443942  0.75195194  1
  Cu  Cu103  1  0.50535719  0.82446044  0.75727477  1
  Cu  Cu104  1  0.17293709  0.82261036  0.75284832  1
  Cu  Cu105  1  0.50791135  0.50726084  0.74709166  1
  Cu  Cu106  1  0.83173014  0.82275459  0.75293430  1
  Cu  Cu107  1  0.67033858  0.66922172  0.49601452  1
  Cu  Cu108  1  0.32972221  0.66905983  0.00426872  1
  Cu  Cu109  1  0.33725483  -0.00674782  0.50549600  1
  Cu  Cu110  1  0.33135088  0.33884350  0.00566246  1
  Cu  Cu111  1  0.83802569  0.50275756  0.24360923  1
  Cu  Cu112  1  0.16568211  0.17981346  0.23806797  1
  Cu  Cu113  1  0.33220259  0.34376265  0.49113001  1
  Cu  Cu114  1  0.50539522  0.17018811  0.75373513  1
  Se  Se115  1  0.08969993  0.07922032  0.05426162  1
  Se  Se116  1  0.06659910  0.07191065  0.55958117  1
  Se  Se117  1  0.08501343  0.42479671  0.04259203  1
  Se  Se118  1  0.07559561  0.40362623  0.55816859  1
  Se  Se119  1  0.07479137  0.74689596  0.06845726  1
  Se  Se120  1  0.07492368  0.74509452  0.55793902  1
  Se  Se121  1  0.42451628  0.08864678  0.05756210  1
  Se  Se122  1  0.42048771  0.08119498  0.55643157  1
  Se  Se123  1  0.41281887  0.41875927  0.06503391  1
  Se  Se124  1  0.41743307  0.42020973  0.54680789  1
  Se  Se125  1  0.41514820  0.75397230  0.05222982  1
  Se  Se126  1  0.41248604  0.74007605  0.55612971  1
  Se  Se127  1  0.75534721  0.08025705  0.05530661  1
  Se  Se128  1  0.75161669  0.09620424  0.54518429  1
  Se  Se129  1  0.72324564  0.38532511  0.05040087  1
  Se  Se130  1  0.75504525  0.42001683  0.55893829  1
  Se  Se131  1  0.75093533  0.75046980  0.05544811  1
  Se  Se132  1  0.75587863  0.75096626  0.54935212  1
  Se  Se133  1  0.24957832  0.25162138  0.05561747  1
  Se  Se134  1  0.25763386  0.25886695  0.55416935  1
  Se  Se135  1  0.24225034  0.58912439  0.05449707  1
  Se  Se136  1  0.25429255  0.58689213  0.55473720  1
  Se  Se137  1  0.25369811  0.92662545  0.07245643  1
  Se  Se138  1  0.24749419  0.91194726  0.55609073  1
  Se  Se139  1  0.58846229  0.25129434  0.04726538  1
  Se  Se140  1  0.58845568  0.25822771  0.56115866  1
  Se  Se141  1  0.58673568  0.58557974  0.06361739  1
  Se  Se142  1  0.59104433  0.58841498  0.55657305  1
  Se  Se143  1  0.58388081  0.91268926  0.05463977  1
  Se  Se144  1  0.60638865  0.92811702  0.55065433  1
  Se  Se145  1  0.93185305  0.25507491  0.04736469  1
  Se  Se146  1  0.91248340  0.24732561  0.55648098  1
  Se  Se147  1  0.88476761  0.55692438  0.05682441  1
  Se  Se148  1  0.92177854  0.58172071  0.54862017  1
  Se  Se149  1  0.91713921  0.91258177  0.06211485  1
  Se  Se150  1  0.91026160  0.91466507  0.54740254  1
  Se  Se151  1  0.06469464  0.24713411  0.43339900  1
  Se  Se152  1  0.10491115  0.21896893  0.94296150  1
  Se  Se153  1  0.07717464  0.59319904  0.43166002  1
  Se  Se154  1  0.06294694  0.60851657  0.95400512  1
  Se  Se155  1  0.06671324  0.92493920  0.42951937  1
  Se  Se156  1  0.07691776  0.91711007  0.94153694  1
  Se  Se157  1  0.40477925  0.25687172  0.43091649  1
  Se  Se158  1  0.41611752  0.25436544  0.95377068  1
  Se  Se159  1  0.42159387  0.58110762  0.44235767  1
  Se  Se160  1  0.40839303  0.59209795  0.94026483  1
  Se  Se161  1  0.41650045  0.91734991  0.44346033  1
  Se  Se162  1  0.41705818  0.91568558  0.95478543  1
  Se  Se163  1  0.74785632  0.25630481  0.44538629  1
  Se  Se164  1  0.77760268  0.22920871  0.93988804  1
  Se  Se165  1  0.75216415  0.58305159  0.44265641  1
  Se  Se166  1  0.74352540  0.58332049  0.95032578  1
  Se  Se167  1  0.75060259  0.91475974  0.44182360  1
  Se  Se168  1  0.75503369  0.90911594  0.94850736  1
  Se  Se169  1  0.25470781  0.07673471  0.44829968  1
  Se  Se170  1  0.25335455  0.07626961  0.95588179  1
  Se  Se171  1  0.24494271  0.41241690  0.42986939  1
  Se  Se172  1  0.24983268  0.42589250  0.95457658  1
  Se  Se173  1  0.25856038  0.73251481  0.44150293  1
  Se  Se174  1  0.24885827  0.74824710  0.94059194  1
  Se  Se175  1  0.59571882  0.07341750  0.43838163  1
  Se  Se176  1  0.58975650  0.07986300  0.95238979  1
  Se  Se177  1  0.58304349  0.42092459  0.45008709  1
  Se  Se178  1  0.59049308  0.41039383  0.93795682  1
  Se  Se179  1  0.59305062  0.74610399  0.43072344  1
  Se  Se180  1  0.57751715  0.75173159  0.95118438  1
  Se  Se181  1  0.91059579  0.09015338  0.43250219  1
  Se  Se182  1  0.92188223  0.07179855  0.94765106  1
  Se  Se183  1  0.91452961  0.42076693  0.44528304  1
  Se  Se184  1  0.90203255  0.42527465  0.95354828  1
  Se  Se185  1  0.91355309  0.75442231  0.43884440  1
  Se  Se186  1  0.91292060  0.74464724  0.96173177  1
  Se  Se187  1  0.25220135  0.25677191  0.29376237  1
  Se  Se188  1  0.24754049  0.25830549  0.81844936  1
  Se  Se189  1  0.24754704  0.57328055  0.29847647  1
  Se  Se190  1  0.25014852  0.58228409  0.80266014  1
  Se  Se191  1  0.24822088  0.91570709  0.31778237  1
  Se  Se192  1  0.24334121  0.90940025  0.81541758  1
  Se  Se193  1  0.58282874  0.24919367  0.30925811  1
  Se  Se194  1  0.58990204  0.25214157  0.80532064  1
  Se  Se195  1  0.58367368  0.57887058  0.29759483  1
  Se  Se196  1  0.59066373  0.58817317  0.80306393  1
  Se  Se197  1  0.58961864  0.92160160  0.29410953  1
  Se  Se198  1  0.58217668  0.91287773  0.81389026  1
  Se  Se199  1  0.92010259  0.27198719  0.29674396  1
  Se  Se200  1  0.92269180  0.25250709  0.82252577  1
  Se  Se201  1  0.91871995  0.58571014  0.30101422  1
  Se  Se202  1  0.90999147  0.57065989  0.81939519  1
  Se  Se203  1  0.91222307  0.91779131  0.29713935  1
  Se  Se204  1  0.91403531  0.90578326  0.80755251  1
  Se  Se205  1  0.08696253  0.09159356  0.29299167  1
  Se  Se206  1  0.07308439  0.09691413  0.82213651  1
  Se  Se207  1  0.07540093  0.41025870  0.29707778  1
  Se  Se208  1  0.08145485  0.41921104  0.81814993  1
  Se  Se209  1  0.09246899  0.75603078  0.29165559  1
  Se  Se210  1  0.08742310  0.75278870  0.81498818  1
  Se  Se211  1  0.42354888  0.08993178  0.30958100  1
  Se  Se212  1  0.42328522  0.09431657  0.81630943  1
  Se  Se213  1  0.41782977  0.41491227  0.29654908  1
  Se  Se214  1  0.43059725  0.42886947  0.81262969  1
  Se  Se215  1  0.42021849  0.74852297  0.29805121  1
  Se  Se216  1  0.41560924  0.74403950  0.80613188  1
  Se  Se217  1  0.75873516  0.09198904  0.29723193  1
  Se  Se218  1  0.75455237  0.09008373  0.81119781  1
  Se  Se219  1  0.75344024  0.42708563  0.30740697  1
  Se  Se220  1  0.74373762  0.41383866  0.80069746  1
  Se  Se221  1  0.74795097  0.74386710  0.29836225  1
  Se  Se222  1  0.75173999  0.74119734  0.80854757  1
  Se  Se223  1  0.24853140  0.08904234  0.18675659  1
  Se  Se224  1  0.23130117  0.10136492  0.70561144  1
  Se  Se225  1  0.24792908  0.41223616  0.18993687  1
  Se  Se226  1  0.24269185  0.42385098  0.68809402  1
  Se  Se227  1  0.25258633  0.74645768  0.20530611  1
  Se  Se228  1  0.25610469  0.74097441  0.69971254  1
  Se  Se229  1  0.59225680  0.08935010  0.19576278  1
  Se  Se230  1  0.57529765  0.08905509  0.68788889  1
  Se  Se231  1  0.58583446  0.42252147  0.18347753  1
  Se  Se232  1  0.58606750  0.41783511  0.69622175  1
  Se  Se233  1  0.58645648  0.74724677  0.19334252  1
  Se  Se234  1  0.58998742  0.75132110  0.69661152  1
  Se  Se235  1  0.93293356  0.07710429  0.19325653  1
  Se  Se236  1  0.90258490  0.08688570  0.69468697  1
  Se  Se237  1  0.91277934  0.41648741  0.18661182  1
  Se  Se238  1  0.92098073  0.41310851  0.70010426  1
  Se  Se239  1  0.91475184  0.74379879  0.19703991  1
  Se  Se240  1  0.91435657  0.74962864  0.68893287  1
  Se  Se241  1  0.07807550  0.25726673  0.18596170  1
  Se  Se242  1  0.07112053  0.25870132  0.70579685  1
  Se  Se243  1  0.07932294  0.57449229  0.19046586  1
  Se  Se244  1  0.08869828  0.57475988  0.69297248  1
  Se  Se245  1  0.09680742  0.89729436  0.20958799  1
  Se  Se246  1  0.09632955  0.90787531  0.69381891  1
  Se  Se247  1  0.42164061  0.25414590  0.19771829  1
  Se  Se248  1  0.41994968  0.24381146  0.69042047  1
  Se  Se249  1  0.41389394  0.58602281  0.19524747  1
  Se  Se250  1  0.41759800  0.58548463  0.69637218  1
  Se  Se251  1  0.42622694  0.91271059  0.18611557  1
  Se  Se252  1  0.42407284  0.90940248  0.69814859  1
  Se  Se253  1  0.76817494  0.24324707  0.18284381  1
  Se  Se254  1  0.75329946  0.25242089  0.70216728  1
  Se  Se255  1  0.74756318  0.58558210  0.19672744  1
  Se  Se256  1  0.75725325  0.58313397  0.69719539  1
  Se  Se257  1  0.74788382  0.91936537  0.19551046  1
  Se  Se258  1  0.76247250  0.90960337  0.68891525  1
