# generated using pymatgen
data_In86Cu29Se144
_symmetry_space_group_name_H-M   'P 1'
_cell_length_a   17.57801886
_cell_length_b   17.57862845
_cell_length_c   23.43718999
_cell_angle_alpha   89.99818986
_cell_angle_beta   89.99864435
_cell_angle_gamma   89.98200289
_symmetry_Int_Tables_number   1
_chemical_formula_structural   In86Cu29Se144
_chemical_formula_sum   'In86 Cu29 Se144'
_cell_volume   7242.03187217
_cell_formula_units_Z   1
loop_
 _symmetry_equiv_pos_site_id
 _symmetry_equiv_pos_as_xyz
  1  'x, y, z'
loop_
 _atom_site_type_symbol
 _atom_site_label
 _atom_site_symmetry_multiplicity
 _atom_site_fract_x
 _atom_site_fract_y
 _atom_site_fract_z
 _atom_site_occupancy
  In  In0  1  0.01043862  0.17309651  0.12757304  1
  In  In1  1  0.00235132  0.17343294  0.63995479  1
  In  In2  1  -0.01102707  0.50011422  0.12545415  1
  In  In3  1  -0.00931201  0.49208189  0.62077810  1
  In  In4  1  -0.00413197  0.82413838  0.11453517  1
  In  In5  1  -0.00017015  0.83200675  0.62619561  1
  In  In6  1  0.33066614  0.15598997  0.12436069  1
  In  In7  1  0.34402404  0.17401568  0.62788664  1
  In  In8  1  0.34866493  0.49816911  0.12517176  1
  In  In9  1  0.33957830  0.50022117  0.62140781  1
  In  In10  1  0.33381500  0.83434432  0.12227744  1
  In  In11  1  0.32065322  0.83096341  0.62427612  1
  In  In12  1  0.66634952  0.18114303  0.12194605  1
  In  In13  1  0.67245390  0.16286579  0.63764675  1
  In  In14  1  0.66311043  0.49991824  0.12007309  1
  In  In15  1  0.66865699  0.49898445  0.62592829  1
  In  In16  1  0.66981394  0.83765422  0.11719909  1
  In  In17  1  0.67418071  0.83185116  0.63628691  1
  In  In18  1  0.16831696  -0.01505383  0.37770913  1
  In  In19  1  0.14820940  -0.00101125  0.86886958  1
  In  In20  1  0.16949577  0.35708778  0.37960612  1
  In  In21  1  0.16332767  0.31736808  0.85585355  1
  In  In22  1  0.17027367  0.66313219  0.38248817  1
  In  In23  1  0.18364172  0.66525553  0.87187078  1
  In  In24  1  0.49855354  0.01693550  0.36982655  1
  In  In25  1  0.50934923  -0.01106661  0.88399843  1
  In  In26  1  0.51095081  0.33240085  0.37744937  1
  In  In27  1  0.50337450  0.33560398  0.87476502  1
  In  In28  1  0.48358594  0.66994786  0.37186225  1
  In  In29  1  0.50167659  0.66360512  0.87440633  1
  In  In30  1  0.82560825  -0.01750360  0.37839578  1
  In  In31  1  0.81617141  -0.02678513  0.85372924  1
  In  In32  1  0.83529211  0.34836383  0.36589414  1
  In  In33  1  0.83863289  0.34222827  0.87181951  1
  In  In34  1  0.83283376  0.66326633  0.38186529  1
  In  In35  1  0.81661253  0.67795971  0.87798623  1
  In  In36  1  -0.01341723  0.17501557  0.37807423  1
  In  In37  1  -0.00023414  0.15623080  0.86430271  1
  In  In38  1  0.00026696  0.50197683  0.38042623  1
  In  In39  1  -0.00370907  0.48582737  0.87349933  1
  In  In40  1  -0.00098360  0.82893704  0.38290726  1
  In  In41  1  -0.01040933  0.83950340  0.87874297  1
  In  In42  1  0.35276552  0.16485356  0.36885457  1
  In  In43  1  0.33301338  0.18169507  0.87217546  1
  In  In44  1  0.32267422  0.50742032  0.38570088  1
  In  In45  1  0.34312264  0.50559409  0.86659242  1
  In  In46  1  0.32468836  0.82511849  0.36647079  1
  In  In47  1  0.34518402  0.82273842  0.88106098  1
  In  In48  1  0.65614612  0.17992059  0.37412790  1
  In  In49  1  0.65794922  0.15784700  0.87305924  1
  In  In50  1  0.67397378  0.49071005  0.38604938  1
  In  In51  1  0.66669002  0.50228871  0.87441164  1
  In  In52  1  0.67795155  0.83495819  0.37928429  1
  In  In53  1  0.66577937  0.82509387  0.87182065  1
  In  In54  1  0.17636961  0.00213236  0.12283491  1
  In  In55  1  0.16830860  -0.01732172  0.62178987  1
  In  In56  1  0.16381310  0.32593517  0.12957377  1
  In  In57  1  0.16168300  0.34097354  0.62832759  1
  In  In58  1  0.16664561  0.68225238  0.12235994  1
  In  In59  1  0.17179939  0.67327275  0.62275378  1
  In  In60  1  0.49573915  -0.00443844  0.11489384  1
  In  In61  1  0.50558741  0.00623392  0.62922281  1
  In  In62  1  0.50478615  0.34268780  0.11400963  1
  In  In63  1  0.49292102  0.34958432  0.63295930  1
  In  In64  1  0.49543248  0.65968008  0.12044840  1
  In  In65  1  0.51429447  0.65595702  0.63315154  1
  In  In66  1  0.83788750  -0.00903308  0.12355035  1
  In  In67  1  0.83551218  -0.00644845  0.63238927  1
  In  In68  1  0.81789822  0.34942952  0.13999611  1
  In  In69  1  0.82720570  0.33789129  0.63390400  1
  In  In70  1  0.83045737  0.66239757  0.11806789  1
  In  In71  1  0.83106509  0.66642665  0.62493359  1
  In  In72  1  0.33299299  0.00167966  0.74924225  1
  In  In73  1  0.83423078  0.16456564  -0.00211371  1
  In  In74  1  -0.00430250  0.66717163  0.74586438  1
  In  In75  1  0.16910905  0.16199096  -0.00407924  1
  In  In76  1  0.66421889  0.00451440  0.24759322  1
  In  In77  1  0.83274658  0.16518802  0.50889672  1
  In  In78  1  0.50392714  0.17100158  0.49751383  1
  In  In79  1  0.16926532  0.16784837  0.51056054  1
  In  In80  1  0.00090595  0.00297205  0.25468760  1
  In  In81  1  0.50245993  0.83123453  0.50019892  1
  In  In82  1  0.66464661  0.66213443  0.24644219  1
  In  In83  1  -0.00314727  0.66387162  0.25508976  1
  In  In84  1  0.17145359  0.49990865  -0.00936251  1
  In  In85  1  0.33557676  0.33551929  0.25072108  1
  Cu  Cu86  1  0.16661921  0.17121323  0.25224899  1
  Cu  Cu87  1  0.00300804  0.34154357  0.50072637  1
  Cu  Cu88  1  0.66597007  -0.00508017  -0.00798674  1
  Cu  Cu89  1  0.16653424  0.83178763  0.74805636  1
  Cu  Cu90  1  0.66565187  0.33926207  -0.00150665  1
  Cu  Cu91  1  0.50086675  0.82783834  0.75618056  1
  Cu  Cu92  1  -0.00269816  0.66718652  -0.00170759  1
  Cu  Cu93  1  0.33917200  0.33812599  -0.00716896  1
  Cu  Cu94  1  0.17209815  0.83925407  0.24624213  1
  Cu  Cu95  1  0.66924408  0.33452921  0.50641027  1
  Cu  Cu96  1  -0.00510558  0.33251867  -0.00062451  1
  Cu  Cu97  1  0.50433326  0.49846417  0.75069828  1
  Cu  Cu98  1  0.33382066  0.66594466  0.50072225  1
  Cu  Cu99  1  0.49412489  0.84063956  0.24568292  1
  Cu  Cu100  1  0.50019289  0.50122193  0.24710020  1
  Cu  Cu101  1  0.83018107  0.17445564  0.25291828  1
  Cu  Cu102  1  0.33337714  -0.00482771  -0.00019664  1
  Cu  Cu103  1  -0.00080879  0.66670765  0.50434634  1
  Cu  Cu104  1  0.33744289  0.66840876  -0.00124629  1
  Cu  Cu105  1  0.16675700  0.50875887  0.25871916  1
  Cu  Cu106  1  -0.00830855  -0.00982612  -0.00648840  1
  Cu  Cu107  1  0.83065714  0.50106026  0.74824850  1
  Cu  Cu108  1  0.33052194  -0.00521783  0.49444263  1
  Cu  Cu109  1  -0.00174023  -0.01008906  0.50459078  1
  Cu  Cu110  1  0.66736319  0.66202087  0.50780871  1
  Cu  Cu111  1  0.50340086  0.16971129  0.75368124  1
  Cu  Cu112  1  0.83355577  0.17155079  0.75535855  1
  Cu  Cu113  1  0.17285303  0.49711330  0.74779001  1
  Cu  Cu114  1  0.66356484  0.66714574  -0.00261660  1
  Se  Se115  1  0.07082335  0.07301222  0.05434780  1
  Se  Se116  1  0.07185984  0.07686035  0.56317760  1
  Se  Se117  1  0.08355219  0.41087443  0.05555274  1
  Se  Se118  1  0.08766857  0.42293417  0.55366332  1
  Se  Se119  1  0.08591053  0.75059556  0.04572828  1
  Se  Se120  1  0.08286173  0.75201404  0.55605058  1
  Se  Se121  1  0.41289743  0.08557963  0.04962272  1
  Se  Se122  1  0.40973098  0.07402776  0.55479443  1
  Se  Se123  1  0.41875494  0.42422113  0.04599751  1
  Se  Se124  1  0.42529268  0.42007020  0.55263281  1
  Se  Se125  1  0.41871798  0.75141406  0.05452735  1
  Se  Se126  1  0.41514195  0.74293975  0.56315426  1
  Se  Se127  1  0.74217796  0.07381659  0.05868599  1
  Se  Se128  1  0.74014031  0.07413363  0.56160177  1
  Se  Se129  1  0.75216662  0.41596243  0.05486112  1
  Se  Se130  1  0.75631119  0.41733655  0.55708966  1
  Se  Se131  1  0.74936231  0.74862906  0.05180272  1
  Se  Se132  1  0.74558607  0.75154840  0.55865624  1
  Se  Se133  1  0.25735470  0.25980960  0.05458325  1
  Se  Se134  1  0.26210037  0.26189662  0.56055802  1
  Se  Se135  1  0.25553321  0.58645958  0.05864331  1
  Se  Se136  1  0.25051881  0.58468156  0.55602761  1
  Se  Se137  1  0.24645437  0.91462186  0.05209670  1
  Se  Se138  1  0.24922299  0.91007658  0.54684305  1
  Se  Se139  1  0.58298964  0.25132040  0.04760458  1
  Se  Se140  1  0.59055223  0.25232952  0.56625604  1
  Se  Se141  1  0.58148493  0.58234850  0.05138161  1
  Se  Se142  1  0.58160372  0.57672342  0.55465879  1
  Se  Se143  1  0.58268572  0.91374763  0.04888957  1
  Se  Se144  1  0.58843551  0.92021695  0.56158218  1
  Se  Se145  1  0.91809551  0.25420621  0.06279387  1
  Se  Se146  1  0.92677943  0.25847452  0.56217015  1
  Se  Se147  1  0.91708330  0.58092392  0.05088170  1
  Se  Se148  1  0.91350020  0.58391875  0.55589659  1
  Se  Se149  1  0.90939579  0.90930985  0.04972698  1
  Se  Se150  1  0.91150044  0.91222008  0.55852834  1
  Se  Se151  1  0.08015660  0.25468621  0.44373634  1
  Se  Se152  1  0.07567128  0.25348698  0.93957811  1
  Se  Se153  1  0.08241724  0.58440104  0.44885403  1
  Se  Se154  1  0.07620275  0.59025982  0.93455795  1
  Se  Se155  1  0.08438077  0.91176562  0.44962887  1
  Se  Se156  1  0.08581036  0.91296870  0.94534288  1
  Se  Se157  1  0.40731155  0.26118118  0.44416765  1
  Se  Se158  1  0.42120086  0.24905642  0.94451399  1
  Se  Se159  1  0.41956609  0.58521428  0.44796196  1
  Se  Se160  1  0.41580107  0.58174296  0.94424382  1
  Se  Se161  1  0.41586243  0.92013135  0.43458524  1
  Se  Se162  1  0.41977628  0.91077689  0.95020780  1
  Se  Se163  1  0.74852011  0.25562145  0.44370104  1
  Se  Se164  1  0.74464862  0.25550346  0.93855900  1
  Se  Se165  1  0.75183242  0.58109404  0.45133321  1
  Se  Se166  1  0.74937158  0.58277147  0.94647635  1
  Se  Se167  1  0.75004094  0.91182408  0.45448057  1
  Se  Se168  1  0.75057325  0.91112574  0.94071469  1
  Se  Se169  1  0.25524349  0.08454202  0.43861336  1
  Se  Se170  1  0.25716818  0.07313230  0.93392042  1
  Se  Se171  1  0.25126637  0.41891986  0.45567287  1
  Se  Se172  1  0.25203209  0.40461783  0.92911007  1
  Se  Se173  1  0.25299946  0.75285743  0.44681253  1
  Se  Se174  1  0.24977081  0.74939833  0.94791021  1
  Se  Se175  1  0.59631110  0.07479983  0.44407564  1
  Se  Se176  1  0.58047358  0.08587295  0.95037002  1
  Se  Se177  1  0.58237235  0.41435563  0.45286720  1
  Se  Se178  1  0.58193237  0.42165197  0.94457679  1
  Se  Se179  1  0.59067021  0.73746191  0.43965894  1
  Se  Se180  1  0.57992543  0.75055488  0.94405098  1
  Se  Se181  1  0.92022113  0.07178805  0.44405508  1
  Se  Se182  1  0.91455547  0.07289151  0.93363877  1
  Se  Se183  1  0.91371335  0.41634470  0.44542791  1
  Se  Se184  1  0.91233467  0.41930424  0.95018911  1
  Se  Se185  1  0.91383835  0.74831448  0.44963667  1
  Se  Se186  1  0.91234974  0.74957421  0.94486011  1
  Se  Se187  1  0.24437503  0.25013549  0.31521658  1
  Se  Se188  1  0.25665045  0.24405748  0.79214756  1
  Se  Se189  1  0.25374416  0.58953850  0.30829520  1
  Se  Se190  1  0.25523592  0.58378696  0.79787343  1
  Se  Se191  1  0.25351289  0.92318003  0.30047526  1
  Se  Se192  1  0.24895974  0.90817351  0.81139968  1
  Se  Se193  1  0.56220036  0.23719993  0.30304063  1
  Se  Se194  1  0.58798460  0.25310247  0.80599301  1
  Se  Se195  1  0.57730593  0.57853176  0.31259051  1
  Se  Se196  1  0.58596778  0.58495595  0.80361553  1
  Se  Se197  1  0.57830812  0.90915001  0.31005752  1
  Se  Se198  1  0.58249059  0.91551453  0.80574597  1
  Se  Se199  1  0.91765216  0.25615869  0.30325161  1
  Se  Se200  1  0.92003416  0.25395330  0.80601769  1
  Se  Se201  1  0.90343498  0.57156395  0.30765602  1
  Se  Se202  1  0.90971901  0.57966818  0.81118514  1
  Se  Se203  1  0.91236643  0.90455266  0.30619459  1
  Se  Se204  1  0.93731527  0.92990731  0.80155814  1
  Se  Se205  1  0.08964997  0.09262509  0.31682817  1
  Se  Se206  1  0.09846034  0.09536756  0.79656161  1
  Se  Se207  1  0.08162160  0.42317367  0.30650926  1
  Se  Se208  1  0.08446419  0.41882075  0.80065335  1
  Se  Se209  1  0.09220598  0.75880213  0.30783124  1
  Se  Se210  1  0.08754979  0.75173956  0.81043673  1
  Se  Se211  1  0.41770223  0.08236253  0.29362699  1
  Se  Se212  1  0.42505518  0.08409695  0.81322449  1
  Se  Se213  1  0.42061494  0.42648169  0.31313334  1
  Se  Se214  1  0.41941352  0.41319764  0.80199046  1
  Se  Se215  1  0.41359911  0.75143579  0.29634781  1
  Se  Se216  1  0.41430441  0.74326505  0.80381948  1
  Se  Se217  1  0.75672441  0.08966158  0.31387036  1
  Se  Se218  1  0.74785791  0.08511880  0.80328580  1
  Se  Se219  1  0.72757104  0.40661290  0.30552092  1
  Se  Se220  1  0.74876558  0.41798983  0.80433360  1
  Se  Se221  1  0.75671384  0.75097768  0.30649972  1
  Se  Se222  1  0.75139862  0.75285962  0.79879509  1
  Se  Se223  1  0.24485246  0.08584123  0.19796967  1
  Se  Se224  1  0.24571930  0.08520497  0.68352993  1
  Se  Se225  1  0.24214420  0.42844379  0.19182011  1
  Se  Se226  1  0.25676972  0.41750640  0.69216275  1
  Se  Se227  1  0.25272650  0.75152795  0.19474707  1
  Se  Se228  1  0.25216185  0.74697637  0.69938069  1
  Se  Se229  1  0.57756301  0.08915749  0.18364141  1
  Se  Se230  1  0.58392635  0.08099302  0.70331563  1
  Se  Se231  1  0.58021156  0.41924167  0.19087363  1
  Se  Se232  1  0.59123732  0.41561775  0.69905033  1
  Se  Se233  1  0.57780529  0.75912623  0.18857885  1
  Se  Se234  1  0.58625068  0.74815609  0.70045850  1
  Se  Se235  1  0.90828978  0.09260094  0.19212755  1
  Se  Se236  1  0.91237982  0.08734668  0.69826054  1
  Se  Se237  1  0.93005163  0.40654397  0.19601638  1
  Se  Se238  1  0.91890068  0.41683512  0.69953551  1
  Se  Se239  1  0.91031799  0.75199661  0.19043627  1
  Se  Se240  1  0.90260624  0.76262624  0.69687016  1
  Se  Se241  1  0.08038863  0.25473232  0.20357328  1
  Se  Se242  1  0.09199764  0.25370885  0.70059790  1
  Se  Se243  1  0.09064593  0.58187362  0.18920681  1
  Se  Se244  1  0.08818663  0.57638434  0.68860758  1
  Se  Se245  1  0.08297313  0.91175854  0.18755993  1
  Se  Se246  1  0.08308451  0.91503422  0.69620216  1
  Se  Se247  1  0.41858863  0.25175046  0.18283474  1
  Se  Se248  1  0.42173243  0.25266971  0.69982191  1
  Se  Se249  1  0.41560709  0.58718999  0.19786733  1
  Se  Se250  1  0.41899943  0.58043569  0.69611148  1
  Se  Se251  1  0.41357652  0.92318872  0.19025004  1
  Se  Se252  1  0.42293886  0.90605683  0.69083668  1
  Se  Se253  1  0.74117798  0.25209462  0.20089489  1
  Se  Se254  1  0.74803600  0.25431432  0.70330362  1
  Se  Se255  1  0.75936603  0.57193513  0.19229487  1
  Se  Se256  1  0.74916408  0.58525968  0.69507846  1
  Se  Se257  1  0.75688884  0.90776465  0.19587413  1
  Se  Se258  1  0.73961931  0.93071295  0.70180761  1
