# generated using pymatgen
data_In86Cu29Se144
_symmetry_space_group_name_H-M   'P 1'
_cell_length_a   17.58263953
_cell_length_b   17.58464755
_cell_length_c   23.43607907
_cell_angle_alpha   90.02333104
_cell_angle_beta   90.02681449
_cell_angle_gamma   90.01703604
_symmetry_Int_Tables_number   1
_chemical_formula_structural   In86Cu29Se144
_chemical_formula_sum   'In86 Cu29 Se144'
_cell_volume   7246.07112438
_cell_formula_units_Z   1
loop_
 _symmetry_equiv_pos_site_id
 _symmetry_equiv_pos_as_xyz
  1  'x, y, z'
loop_
 _atom_site_type_symbol
 _atom_site_label
 _atom_site_symmetry_multiplicity
 _atom_site_fract_x
 _atom_site_fract_y
 _atom_site_fract_z
 _atom_site_occupancy
  In  In0  1  -0.00427959  0.18365576  0.14136460  1
  In  In1  1  0.00265385  0.16447264  0.62371940  1
  In  In2  1  -0.00057456  0.49612743  0.12724385  1
  In  In3  1  -0.00482737  0.50586216  0.62760705  1
  In  In4  1  -0.00191776  0.84525595  0.13836511  1
  In  In5  1  0.01070348  0.82682099  0.63262476  1
  In  In6  1  0.33775704  0.16259009  0.13209724  1
  In  In7  1  0.31719011  0.17205777  0.61704847  1
  In  In8  1  0.32633490  0.50958514  0.13752298  1
  In  In9  1  0.33960818  0.48857749  0.61783581  1
  In  In10  1  0.31302642  0.84155352  0.14107537  1
  In  In11  1  0.32682175  0.85251099  0.62461835  1
  In  In12  1  0.66864401  0.17067233  0.12646171  1
  In  In13  1  0.67454763  0.16074595  0.61705499  1
  In  In14  1  0.67603324  0.48760544  0.12849893  1
  In  In15  1  0.66319724  0.48845797  0.61155667  1
  In  In16  1  0.68821883  0.82924118  0.12634564  1
  In  In17  1  0.65680378  0.83558570  0.62214392  1
  In  In18  1  0.16190420  0.00532152  0.37095933  1
  In  In19  1  0.16272400  -0.00955860  0.86281279  1
  In  In20  1  0.15890975  0.31821618  0.36560139  1
  In  In21  1  0.16770471  0.34502920  0.88080790  1
  In  In22  1  0.16579961  0.67436892  0.36667824  1
  In  In23  1  0.14485549  0.66931437  0.87591130  1
  In  In24  1  0.49801824  -0.00175687  0.36713288  1
  In  In25  1  0.49655271  0.00938733  0.87717950  1
  In  In26  1  0.50828847  0.34177418  0.36855917  1
  In  In27  1  0.48782046  0.32416416  0.87795917  1
  In  In28  1  0.48483782  0.66239376  0.37291500  1
  In  In29  1  0.50501751  0.65938358  0.87353127  1
  In  In30  1  0.85189916  0.01895604  0.36395239  1
  In  In31  1  0.84239051  -0.00261096  0.88831835  1
  In  In32  1  0.83371893  0.33194342  0.37750917  1
  In  In33  1  0.83946687  0.32381328  0.88237116  1
  In  In34  1  0.83596957  0.64955353  0.36919733  1
  In  In35  1  0.85016863  0.65741584  0.88641865  1
  In  In36  1  0.00229017  0.16557944  0.37387336  1
  In  In37  1  -0.00408021  0.15885838  0.87512422  1
  In  In38  1  -0.01713310  0.48991026  0.35934739  1
  In  In39  1  -0.00179858  0.49719009  0.87634875  1
  In  In40  1  0.01541250  0.84612895  0.35990921  1
  In  In41  1  0.00107661  0.82786172  0.87084151  1
  In  In42  1  0.32241785  0.15568447  0.36056797  1
  In  In43  1  0.33924412  0.16602910  0.88032844  1
  In  In44  1  0.34206363  0.50338995  0.37242037  1
  In  In45  1  0.33211342  0.48574864  0.88024988  1
  In  In46  1  0.31053429  0.82502566  0.36192358  1
  In  In47  1  0.30703181  0.83986619  0.87462221  1
  In  In48  1  0.68932135  0.19454679  0.36233456  1
  In  In49  1  0.66585966  0.16320003  0.88498831  1
  In  In50  1  0.68849702  0.46812268  0.39787758  1
  In  In51  1  0.67321588  0.50816190  0.87390902  1
  In  In52  1  0.65567149  0.84128152  0.37083649  1
  In  In53  1  0.67170062  0.85012598  0.88079829  1
  In  In54  1  0.15315574  0.01478679  0.15640458  1
  In  In55  1  0.16349210  0.00270217  0.61986538  1
  In  In56  1  0.14574047  0.34495846  0.14399213  1
  In  In57  1  0.17113261  0.31462843  0.61823387  1
  In  In58  1  0.17309176  0.66003015  0.13640379  1
  In  In59  1  0.14792144  0.66297986  0.61870853  1
  In  In60  1  0.49187353  0.01578254  0.12938655  1
  In  In61  1  0.49677405  -0.00933993  0.62119228  1
  In  In62  1  0.51305162  0.32706081  0.13223944  1
  In  In63  1  0.49187890  0.34001900  0.61260195  1
  In  In64  1  0.49040481  0.65814374  0.12667382  1
  In  In65  1  0.50040927  0.65679636  0.62081230  1
  In  In66  1  0.83230205  0.00226454  0.12847670  1
  In  In67  1  0.84235015  0.01373425  0.62039352  1
  In  In68  1  0.83727488  0.33311807  0.12705576  1
  In  In69  1  0.84368336  0.34521132  0.61640174  1
  In  In70  1  0.84352520  0.66891028  0.12185553  1
  In  In71  1  0.85001634  0.66574745  0.62412545  1
  In  In72  1  0.66780927  0.33193572  0.73974162  1
  In  In73  1  0.16828158  0.16875982  0.01272831  1
  In  In74  1  0.67298667  0.00057580  0.74575468  1
  In  In75  1  0.50895320  0.49139135  0.00272456  1
  In  In76  1  0.67440231  0.66449987  0.75442851  1
  In  In77  1  0.65941116  0.66085719  0.24914202  1
  In  In78  1  0.32279895  0.66812499  0.74499351  1
  In  In79  1  0.49270374  0.83184822  0.49721680  1
  In  In80  1  0.16139575  0.49613956  0.48896122  1
  In  In81  1  0.50050297  0.83699378  0.00411195  1
  In  In82  1  0.50041105  0.17261355  0.48844844  1
  In  In83  1  0.16051803  0.83413371  0.00932902  1
  In  In84  1  0.32671858  0.33172618  0.74779510  1
  In  In85  1  0.83588276  0.83036497  0.49704093  1
  Cu  Cu86  1  0.32789033  0.00366154  0.00657590  1
  Cu  Cu87  1  -0.00220805  0.66847622  0.49343812  1
  Cu  Cu88  1  0.00166491  0.65963283  0.00399038  1
  Cu  Cu89  1  0.16384629  0.16279690  0.74501376  1
  Cu  Cu90  1  0.66978155  0.00399386  0.00682380  1
  Cu  Cu91  1  0.84351067  0.16661136  0.75273742  1
  Cu  Cu92  1  0.49958844  0.50052295  0.25313411  1
  Cu  Cu93  1  0.49698207  0.84059755  0.24622704  1
  Cu  Cu94  1  0.15960043  0.50228809  0.75164021  1
  Cu  Cu95  1  0.49355933  0.16557828  0.75154011  1
  Cu  Cu96  1  0.83733769  0.50004305  0.74859019  1
  Cu  Cu97  1  0.00594668  0.00453651  0.49367119  1
  Cu  Cu98  1  -0.00013620  0.33149428  0.49398226  1
  Cu  Cu99  1  0.67868108  0.01081444  0.48667166  1
  Cu  Cu100  1  0.67814697  0.66587752  0.00084307  1
  Cu  Cu101  1  0.67274051  0.32870068  0.00588142  1
  Cu  Cu102  1  0.66567722  0.65670833  0.49782074  1
  Cu  Cu103  1  0.48641932  0.83129641  0.74987666  1
  Cu  Cu104  1  -0.00321640  0.00240302  0.00756981  1
  Cu  Cu105  1  0.33440938  0.33368788  0.00837483  1
  Cu  Cu106  1  -0.00000353  0.33498452  0.00709307  1
  Cu  Cu107  1  0.50637518  0.16964648  0.25184096  1
  Cu  Cu108  1  0.83052590  0.16997126  0.24989919  1
  Cu  Cu109  1  0.33032876  0.66233573  0.00992883  1
  Cu  Cu110  1  0.32359209  0.00582132  0.49234470  1
  Cu  Cu111  1  0.82953935  0.83713063  0.25111687  1
  Cu  Cu112  1  0.83900611  0.83219773  0.75477571  1
  Cu  Cu113  1  0.16668494  0.50105784  0.25602187  1
  Cu  Cu114  1  0.32237871  0.66988549  0.49236380  1
  Se  Se115  1  0.07693695  0.07856762  0.07019656  1
  Se  Se116  1  0.08621772  0.08982679  0.54980046  1
  Se  Se117  1  0.08820051  0.41610450  0.05729102  1
  Se  Se118  1  0.07888910  0.41116000  0.55888430  1
  Se  Se119  1  0.07525779  0.74081948  0.06835778  1
  Se  Se120  1  0.07670395  0.75289699  0.54917106  1
  Se  Se121  1  0.41446671  0.09001193  0.05251514  1
  Se  Se122  1  0.41377185  0.07740401  0.55252777  1
  Se  Se123  1  0.41420745  0.41650131  0.06811999  1
  Se  Se124  1  0.40349646  0.40695324  0.54202155  1
  Se  Se125  1  0.40447501  0.75276815  0.06449903  1
  Se  Se126  1  0.40308279  0.74344311  0.56027987  1
  Se  Se127  1  0.75340341  0.08749546  0.05824279  1
  Se  Se128  1  0.75978931  0.08737966  0.54601153  1
  Se  Se129  1  0.75618483  0.41553924  0.05377519  1
  Se  Se130  1  0.75325749  0.41464154  0.54736688  1
  Se  Se131  1  0.76172446  0.75157363  0.05065433  1
  Se  Se132  1  0.74029266  0.74159991  0.55984895  1
  Se  Se133  1  0.25244616  0.26226499  0.07209769  1
  Se  Se134  1  0.26399763  0.26416914  0.54295178  1
  Se  Se135  1  0.24608975  0.57838269  0.05970400  1
  Se  Se136  1  0.25050663  0.58560523  0.55684377  1
  Se  Se137  1  0.24302946  0.93328923  0.06704694  1
  Se  Se138  1  0.24564603  0.91927102  0.54831607  1
  Se  Se139  1  0.58227412  0.24870938  0.05389339  1
  Se  Se140  1  0.59134885  0.25457218  0.55549583  1
  Se  Se141  1  0.59469774  0.59030010  0.06085952  1
  Se  Se142  1  0.57733778  0.57723266  0.54940398  1
  Se  Se143  1  0.59023780  0.92142701  0.06677352  1
  Se  Se144  1  0.59500270  0.93028467  0.54525130  1
  Se  Se145  1  0.92093555  0.24597888  0.05835811  1
  Se  Se146  1  0.92125759  0.25011382  0.55471860  1
  Se  Se147  1  0.91671745  0.57591029  0.05474749  1
  Se  Se148  1  0.92001685  0.58283735  0.54959268  1
  Se  Se149  1  0.91805323  0.91617490  0.06131229  1
  Se  Se150  1  0.92548132  0.92193944  0.55516790  1
  Se  Se151  1  0.08501176  0.24682896  0.44556803  1
  Se  Se152  1  0.08089541  0.25359053  0.94592308  1
  Se  Se153  1  0.07153516  0.58546923  0.43053186  1
  Se  Se154  1  0.08323684  0.57784686  0.94785789  1
  Se  Se155  1  0.08465252  0.91560822  0.44240926  1
  Se  Se156  1  0.07766788  0.92613315  0.94520714  1
  Se  Se157  1  0.40901464  0.25084811  0.42479324  1
  Se  Se158  1  0.41389076  0.24869635  0.95401043  1
  Se  Se159  1  0.41294528  0.58518550  0.45001400  1
  Se  Se160  1  0.41316830  0.58706764  0.94746597  1
  Se  Se161  1  0.40522700  0.91994557  0.43618762  1
  Se  Se162  1  0.40312334  0.92118668  0.94354925  1
  Se  Se163  1  0.75190427  0.25211817  0.44990483  1
  Se  Se164  1  0.75316426  0.24384378  0.94979100  1
  Se  Se165  1  0.75829214  0.58139766  0.44806352  1
  Se  Se166  1  0.75616000  0.57699594  0.94829507  1
  Se  Se167  1  0.75467151  0.92212289  0.43113397  1
  Se  Se168  1  0.75338877  0.91816402  0.95588790  1
  Se  Se169  1  0.24273576  0.09157158  0.44128653  1
  Se  Se170  1  0.24542506  0.07656680  0.94157324  1
  Se  Se171  1  0.24996504  0.40882575  0.42945021  1
  Se  Se172  1  0.25112006  0.41668702  0.95543722  1
  Se  Se173  1  0.23955396  0.75434520  0.44348644  1
  Se  Se174  1  0.25028743  0.74077331  0.94765069  1
  Se  Se175  1  0.59204863  0.08471517  0.42878707  1
  Se  Se176  1  0.58104013  0.07906712  0.95086776  1
  Se  Se177  1  0.56897017  0.42104085  0.44988623  1
  Se  Se178  1  0.59546631  0.40242100  0.93646910  1
  Se  Se179  1  0.58844563  0.74116063  0.44070465  1
  Se  Se180  1  0.59222903  0.74341015  0.94259717  1
  Se  Se181  1  0.91655315  0.08847286  0.44768289  1
  Se  Se182  1  0.91773138  0.09001976  0.95420590  1
  Se  Se183  1  0.91929411  0.41957151  0.44437576  1
  Se  Se184  1  0.91816150  0.41462229  0.94745996  1
  Se  Se185  1  0.92156394  0.74875382  0.43007554  1
  Se  Se186  1  0.92732972  0.75241001  0.94904866  1
  Se  Se187  1  0.23640258  0.23756053  0.29206535  1
  Se  Se188  1  0.24087137  0.24170808  0.81148432  1
  Se  Se189  1  0.25232738  0.58371431  0.30691674  1
  Se  Se190  1  0.24419920  0.57492867  0.81367409  1
  Se  Se191  1  0.25512780  0.93307251  0.30224736  1
  Se  Se192  1  0.25865074  0.92576196  0.79560992  1
  Se  Se193  1  0.58898230  0.26033315  0.29777321  1
  Se  Se194  1  0.57984050  0.24259525  0.80779343  1
  Se  Se195  1  0.58103778  0.57428139  0.31751074  1
  Se  Se196  1  0.57353303  0.56845459  0.80053726  1
  Se  Se197  1  0.58513154  0.92213914  0.29626462  1
  Se  Se198  1  0.57455402  0.91229666  0.80609572  1
  Se  Se199  1  0.91485610  0.24888175  0.30655839  1
  Se  Se200  1  0.92193372  0.25249118  0.80719115  1
  Se  Se201  1  0.91758528  0.58733210  0.29214165  1
  Se  Se202  1  0.91773708  0.58296801  0.80537237  1
  Se  Se203  1  0.91854644  0.92116673  0.29737171  1
  Se  Se204  1  0.91416003  0.91910845  0.81104395  1
  Se  Se205  1  0.06214041  0.06800344  0.30334220  1
  Se  Se206  1  0.08192307  0.08498909  0.80392364  1
  Se  Se207  1  0.08179218  0.41202166  0.30126975  1
  Se  Se208  1  0.08376248  0.41455619  0.80697260  1
  Se  Se209  1  0.07206097  0.73910985  0.29742931  1
  Se  Se210  1  0.10556722  0.77165246  0.80514981  1
  Se  Se211  1  0.42059811  0.08272328  0.29779811  1
  Se  Se212  1  0.41130658  0.08325826  0.80503265  1
  Se  Se213  1  0.41390417  0.41499335  0.30095553  1
  Se  Se214  1  0.42409704  0.42082917  0.80560127  1
  Se  Se215  1  0.42032179  0.75843422  0.30534904  1
  Se  Se216  1  0.41392301  0.75146086  0.81422240  1
  Se  Se217  1  0.74642205  0.08367257  0.30232514  1
  Se  Se218  1  0.75703846  0.08834818  0.81145621  1
  Se  Se219  1  0.75180009  0.41688472  0.30832178  1
  Se  Se220  1  0.75511926  0.41857294  0.80652506  1
  Se  Se221  1  0.74976957  0.75446407  0.30982360  1
  Se  Se222  1  0.75767346  0.75691203  0.81751888  1
  Se  Se223  1  0.26168681  0.08360763  0.20670782  1
  Se  Se224  1  0.25056688  0.08538633  0.69006693  1
  Se  Se225  1  0.25056573  0.41679051  0.20228429  1
  Se  Se226  1  0.23755397  0.42418584  0.68820615  1
  Se  Se227  1  0.26046922  0.73616435  0.20463298  1
  Se  Se228  1  0.23760998  0.75594785  0.68258904  1
  Se  Se229  1  0.58736717  0.08563668  0.19575842  1
  Se  Se230  1  0.57587143  0.09010824  0.68821488  1
  Se  Se231  1  0.58525074  0.42169875  0.19884488  1
  Se  Se232  1  0.57125771  0.42243572  0.68843519  1
  Se  Se233  1  0.57568832  0.75835474  0.18571437  1
  Se  Se234  1  0.57271339  0.75308331  0.69449488  1
  Se  Se235  1  0.91526662  0.08489341  0.19856282  1
  Se  Se236  1  0.92227393  0.08144882  0.69731122  1
  Se  Se237  1  0.94013378  0.39250109  0.19300824  1
  Se  Se238  1  0.91996989  0.41485480  0.69603770  1
  Se  Se239  1  0.91152137  0.75324001  0.19740525  1
  Se  Se240  1  0.91904884  0.74786494  0.69931522  1
  Se  Se241  1  0.10935824  0.22683974  0.20499359  1
  Se  Se242  1  0.08460145  0.25094888  0.69362440  1
  Se  Se243  1  0.08145180  0.57889048  0.19841262  1
  Se  Se244  1  0.07900648  0.58701162  0.69792785  1
  Se  Se245  1  0.11136350  0.88818512  0.20083551  1
  Se  Se246  1  0.07175945  0.93348757  0.68991354  1
  Se  Se247  1  0.42074865  0.25181737  0.19748610  1
  Se  Se248  1  0.42126430  0.24489799  0.68690559  1
  Se  Se249  1  0.41600635  0.58878256  0.20503583  1
  Se  Se250  1  0.41794239  0.57420240  0.69253300  1
  Se  Se251  1  0.41368717  0.92352218  0.19400330  1
  Se  Se252  1  0.41426137  0.92304827  0.69696679  1
  Se  Se253  1  0.74858695  0.25545362  0.19604898  1
  Se  Se254  1  0.76314562  0.23973241  0.68819159  1
  Se  Se255  1  0.75880914  0.57961336  0.19195972  1
  Se  Se256  1  0.75420681  0.57507676  0.68638073  1
  Se  Se257  1  0.74605143  0.92208311  0.19964715  1
  Se  Se258  1  0.76133340  0.90577165  0.68680772  1
