# generated using pymatgen
data_In86Cu29Se144
_symmetry_space_group_name_H-M   'P 1'
_cell_length_a   17.57999323
_cell_length_b   17.58461685
_cell_length_c   23.44172524
_cell_angle_alpha   90.00040978
_cell_angle_beta   90.00312014
_cell_angle_gamma   90.02373109
_symmetry_Int_Tables_number   1
_chemical_formula_structural   In86Cu29Se144
_chemical_formula_sum   'In86 Cu29 Se144'
_cell_volume   7246.71442170
_cell_formula_units_Z   1
loop_
 _symmetry_equiv_pos_site_id
 _symmetry_equiv_pos_as_xyz
  1  'x, y, z'
loop_
 _atom_site_type_symbol
 _atom_site_label
 _atom_site_symmetry_multiplicity
 _atom_site_fract_x
 _atom_site_fract_y
 _atom_site_fract_z
 _atom_site_occupancy
  In  In0  1  0.01441066  0.17584836  0.11349896  1
  In  In1  1  0.00925034  0.15508316  0.63575316  1
  In  In2  1  0.00405163  0.47895010  0.12604491  1
  In  In3  1  0.01434156  0.48355717  0.63238746  1
  In  In4  1  0.00074298  0.84149106  0.12601336  1
  In  In5  1  0.01199353  0.84732015  0.61964260  1
  In  In6  1  0.32654993  0.17851621  0.13147586  1
  In  In7  1  0.31547577  0.18233361  0.63251014  1
  In  In8  1  0.31733441  0.50174473  0.12068636  1
  In  In9  1  0.33432957  0.49724745  0.62393917  1
  In  In10  1  0.34806922  0.82680060  0.12276082  1
  In  In11  1  0.33298064  0.83104348  0.62591754  1
  In  In12  1  0.66182278  0.15190324  0.11449544  1
  In  In13  1  0.67379526  0.16084022  0.64641457  1
  In  In14  1  0.66869659  0.49963813  0.12172891  1
  In  In15  1  0.65961129  0.50710342  0.63647709  1
  In  In16  1  0.65583570  0.85867463  0.12264470  1
  In  In17  1  0.66400205  0.83235734  0.62217839  1
  In  In18  1  0.18499726  -0.01420622  0.38371679  1
  In  In19  1  0.17680888  0.01301754  0.86992908  1
  In  In20  1  0.16941951  0.33193280  0.37664037  1
  In  In21  1  0.16432964  0.33509320  0.86708372  1
  In  In22  1  0.17324235  0.66589131  0.38421679  1
  In  In23  1  0.16928598  0.65233458  0.87228917  1
  In  In24  1  0.49339707  -0.00663212  0.37300150  1
  In  In25  1  0.49260872  -0.01008266  0.86669493  1
  In  In26  1  0.49325819  0.34707058  0.38662152  1
  In  In27  1  0.50308398  0.33818286  0.86900772  1
  In  In28  1  0.49193734  0.66971391  0.38619683  1
  In  In29  1  0.50017604  0.67236266  0.86560110  1
  In  In30  1  0.82143404  0.00304770  0.37374141  1
  In  In31  1  0.83868082  0.01809030  0.85773747  1
  In  In32  1  0.83620106  0.31595481  0.37618027  1
  In  In33  1  0.81795185  0.30246478  0.85174359  1
  In  In34  1  0.84981249  0.66991398  0.38321595  1
  In  In35  1  0.82865738  0.67633878  0.87017815  1
  In  In36  1  0.00311296  0.17846549  0.37116594  1
  In  In37  1  0.00445918  0.17239766  0.86834873  1
  In  In38  1  0.01902723  0.48866955  0.38242875  1
  In  In39  1  0.02618228  0.48534004  0.87333397  1
  In  In40  1  0.00781036  0.82728405  0.38738092  1
  In  In41  1  -0.01434045  0.84053609  0.87016925  1
  In  In42  1  0.33036090  0.16152825  0.37709714  1
  In  In43  1  0.32548487  0.16045025  0.87128179  1
  In  In44  1  0.33421579  0.49369548  0.38603959  1
  In  In45  1  0.31728458  0.49358947  0.85752491  1
  In  In46  1  0.32963768  0.84441339  0.38474051  1
  In  In47  1  0.33963137  0.83912139  0.86697557  1
  In  In48  1  0.67759942  0.15963971  0.37532882  1
  In  In49  1  0.67344867  0.16713163  0.86744727  1
  In  In50  1  0.65667466  0.48503803  0.38491226  1
  In  In51  1  0.65943883  0.49735365  0.86931536  1
  In  In52  1  0.65594850  0.84299283  0.38317773  1
  In  In53  1  0.65886950  0.82931337  0.86686962  1
  In  In54  1  0.16141141  0.01336374  0.12705226  1
  In  In55  1  0.16887451  0.00126520  0.62689138  1
  In  In56  1  0.16429459  0.33105961  0.12320629  1
  In  In57  1  0.17845033  0.33259480  0.62039415  1
  In  In58  1  0.18794526  0.65393146  0.12106199  1
  In  In59  1  0.17545972  0.67447090  0.62316876  1
  In  In60  1  0.50890293  -0.00478934  0.12503993  1
  In  In61  1  0.50648607  -0.00831075  0.62898790  1
  In  In62  1  0.49662196  0.31892974  0.12763485  1
  In  In63  1  0.48542528  0.34619522  0.63371728  1
  In  In64  1  0.47968425  0.67816226  0.11610940  1
  In  In65  1  0.49923467  0.66440701  0.62300000  1
  In  In66  1  0.81583075  0.00543376  0.11951721  1
  In  In67  1  0.84122714  -0.00090579  0.63376415  1
  In  In68  1  0.84935715  0.33495443  0.11885630  1
  In  In69  1  0.84350057  0.31734621  0.64711160  1
  In  In70  1  0.83187039  0.67784923  0.12338184  1
  In  In71  1  0.81996743  0.66860553  0.62781886  1
  In  In72  1  0.00863271  0.66069972  0.26675007  1
  In  In73  1  0.50137533  0.16272633  -0.00455182  1
  In  In74  1  0.66629811  0.67095396  0.25671599  1
  In  In75  1  0.83646944  0.16216252  0.50451951  1
  In  In76  1  0.82717771  0.83838508  -0.00784871  1
  In  In77  1  0.00183240  0.00541391  0.24854998  1
  In  In78  1  0.84169417  0.49107801  -0.00801006  1
  In  In79  1  0.16834264  0.83427089  -0.00050887  1
  In  In80  1  0.49307597  0.49853515  -0.01520961  1
  In  In81  1  -0.00193835  0.66851418  0.75025733  1
  In  In82  1  0.66039186  0.31591694  0.25192435  1
  In  In83  1  0.82965259  0.50127081  0.51198806  1
  In  In84  1  0.49569205  0.17118401  0.50740394  1
  In  In85  1  0.33260676  0.66980287  0.25078925  1
  Cu  Cu86  1  0.00663201  0.32853292  -0.00616171  1
  Cu  Cu87  1  0.49396874  0.16326405  0.75097411  1
  Cu  Cu88  1  0.49922075  0.82790201  0.74310177  1
  Cu  Cu89  1  -0.00325052  0.67305443  0.50828079  1
  Cu  Cu90  1  0.49839648  0.50253519  0.74881876  1
  Cu  Cu91  1  0.65508570  0.66914403  -0.00707394  1
  Cu  Cu92  1  0.66177248  0.33584114  0.51773562  1
  Cu  Cu93  1  0.66526554  0.66756450  0.50552735  1
  Cu  Cu94  1  0.49413547  0.49459737  0.25463121  1
  Cu  Cu95  1  0.00240057  -0.00010775  0.50579435  1
  Cu  Cu96  1  0.83297699  0.48707936  0.24754212  1
  Cu  Cu97  1  0.82661467  0.83717253  0.74708649  1
  Cu  Cu98  1  -0.00310006  0.00908600  -0.00834736  1
  Cu  Cu99  1  0.32622445  0.33695911  -0.00235412  1
  Cu  Cu100  1  0.50545733  0.84349986  0.24867439  1
  Cu  Cu101  1  0.66457589  -0.00519363  0.50252961  1
  Cu  Cu102  1  0.16860445  0.16897575  0.74815684  1
  Cu  Cu103  1  0.16464445  0.84140970  0.74756773  1
  Cu  Cu104  1  0.16380420  0.48864732  0.24917220  1
  Cu  Cu105  1  0.83572919  0.50216848  0.75137006  1
  Cu  Cu106  1  0.49462318  0.16040185  0.25085980  1
  Cu  Cu107  1  0.33778306  0.66362433  0.50637123  1
  Cu  Cu108  1  0.16760184  0.17123524  0.25186651  1
  Cu  Cu109  1  0.00763675  0.65673559  0.00195711  1
  Cu  Cu110  1  0.83349285  0.83746210  0.25044479  1
  Cu  Cu111  1  0.33372298  0.00330744  -0.00320177  1
  Cu  Cu112  1  0.00674002  0.33255820  0.50281925  1
  Cu  Cu113  1  0.33379787  0.00031317  0.50635135  1
  Cu  Cu114  1  0.83236239  0.16331426  0.24571404  1
  Se  Se115  1  0.08750800  0.08236107  0.04669466  1
  Se  Se116  1  0.08472822  0.08465342  0.55686294  1
  Se  Se117  1  0.08615624  0.41435373  0.04939073  1
  Se  Se118  1  0.09013542  0.41854922  0.55211903  1
  Se  Se119  1  0.07936391  0.74198927  0.06321140  1
  Se  Se120  1  0.08775102  0.75443951  0.55531420  1
  Se  Se121  1  0.40958786  0.08327558  0.06211145  1
  Se  Se122  1  0.41029355  0.08056595  0.56868439  1
  Se  Se123  1  0.41370848  0.41001072  0.05789859  1
  Se  Se124  1  0.41726846  0.41629902  0.55325230  1
  Se  Se125  1  0.40779538  0.75244530  0.03964147  1
  Se  Se126  1  0.41916439  0.75217238  0.55569784  1
  Se  Se127  1  0.74770016  0.08253281  0.04286645  1
  Se  Se128  1  0.74031316  0.07810172  0.56246342  1
  Se  Se129  1  0.74576335  0.40836797  0.05517408  1
  Se  Se130  1  0.75156834  0.40738700  0.57541039  1
  Se  Se131  1  0.73604698  0.74916055  0.05590470  1
  Se  Se132  1  0.75210987  0.75201149  0.55242771  1
  Se  Se133  1  0.24941184  0.24987309  0.05345206  1
  Se  Se134  1  0.24623544  0.24219081  0.54792435  1
  Se  Se135  1  0.26064469  0.58632671  0.04212848  1
  Se  Se136  1  0.24935901  0.58311930  0.55583838  1
  Se  Se137  1  0.25468368  0.92535008  0.06181223  1
  Se  Se138  1  0.24858578  0.91514979  0.55749994  1
  Se  Se139  1  0.59050450  0.25911978  0.05368130  1
  Se  Se140  1  0.58782840  0.24857619  0.57463561  1
  Se  Se141  1  0.58067461  0.58743538  0.05636823  1
  Se  Se142  1  0.58658677  0.57900202  0.55651130  1
  Se  Se143  1  0.58296705  0.92681176  0.04424003  1
  Se  Se144  1  0.57781457  0.91211810  0.55181831  1
  Se  Se145  1  0.91952393  0.24844426  0.04682338  1
  Se  Se146  1  0.92424671  0.25474016  0.56253148  1
  Se  Se147  1  0.92006062  0.58452991  0.06259078  1
  Se  Se148  1  0.92556626  0.58766744  0.56994132  1
  Se  Se149  1  0.92188762  0.92578548  0.05375670  1
  Se  Se150  1  0.91292168  0.92113510  0.55643546  1
  Se  Se151  1  0.08432031  0.24767218  0.44623157  1
  Se  Se152  1  0.09149591  0.24757749  0.94002186  1
  Se  Se153  1  0.07541243  0.59261074  0.44763950  1
  Se  Se154  1  0.08963306  0.57628346  0.94717333  1
  Se  Se155  1  0.08711956  0.91808435  0.45071720  1
  Se  Se156  1  0.07639022  0.92172725  0.93679336  1
  Se  Se157  1  0.40382546  0.25924469  0.44806327  1
  Se  Se158  1  0.41081722  0.25827660  0.93915374  1
  Se  Se159  1  0.41925859  0.57806244  0.45193201  1
  Se  Se160  1  0.40488318  0.58575150  0.92656054  1
  Se  Se161  1  0.42101218  0.91996547  0.45236743  1
  Se  Se162  1  0.41305879  0.91786138  0.94439716  1
  Se  Se163  1  0.73773056  0.25812387  0.45204221  1
  Se  Se164  1  0.75631229  0.24332117  0.93992201  1
  Se  Se165  1  0.74390076  0.58722252  0.44160025  1
  Se  Se166  1  0.74518535  0.58978499  0.94141734  1
  Se  Se167  1  0.75266280  0.91783943  0.44741200  1
  Se  Se168  1  0.74944843  0.92441132  0.92510509  1
  Se  Se169  1  0.25208903  0.08275875  0.45118419  1
  Se  Se170  1  0.24817557  0.08813459  0.94948981  1
  Se  Se171  1  0.22301583  0.43803378  0.44296202  1
  Se  Se172  1  0.24843018  0.41791390  0.93845867  1
  Se  Se173  1  0.25738465  0.74863686  0.45028033  1
  Se  Se174  1  0.25241450  0.74889180  0.93435217  1
  Se  Se175  1  0.58796152  0.08152785  0.44425522  1
  Se  Se176  1  0.58474888  0.07500170  0.93189636  1
  Se  Se177  1  0.57850831  0.41646346  0.46218711  1
  Se  Se178  1  0.59657343  0.40448938  0.94479572  1
  Se  Se179  1  0.58289736  0.74956219  0.44917005  1
  Se  Se180  1  0.57565472  0.75421161  0.94051239  1
  Se  Se181  1  0.92553569  0.07661900  0.43868172  1
  Se  Se182  1  0.91605616  0.08950599  0.93586729  1
  Se  Se183  1  0.91495077  0.40884251  0.44593741  1
  Se  Se184  1  0.92531327  0.40237007  0.92976192  1
  Se  Se185  1  0.91377814  0.75787704  0.45657300  1
  Se  Se186  1  0.92651409  0.73915486  0.94460627  1
  Se  Se187  1  0.25260989  0.24975707  0.30783753  1
  Se  Se188  1  0.25339259  0.25066687  0.80193805  1
  Se  Se189  1  0.24306123  0.57508278  0.30759753  1
  Se  Se190  1  0.25097119  0.59431991  0.79317423  1
  Se  Se191  1  0.25851800  0.91503526  0.30508905  1
  Se  Se192  1  0.25028685  0.92132429  0.80246889  1
  Se  Se193  1  0.56905284  0.23892115  0.32024987  1
  Se  Se194  1  0.57843362  0.24641788  0.80420747  1
  Se  Se195  1  0.57642110  0.57418348  0.31333846  1
  Se  Se196  1  0.58489715  0.58542339  0.80120575  1
  Se  Se197  1  0.58947812  0.92350179  0.30437268  1
  Se  Se198  1  0.58010696  0.91343800  0.79692393  1
  Se  Se199  1  0.91451270  0.24737010  0.29865998  1
  Se  Se200  1  0.93558718  0.26083973  0.79533230  1
  Se  Se201  1  0.90988444  0.56532927  0.31394716  1
  Se  Se202  1  0.91556054  0.57704385  0.81592786  1
  Se  Se203  1  0.91708900  0.91177752  0.31298922  1
  Se  Se204  1  0.91584320  0.92037696  0.79514480  1
  Se  Se205  1  0.09401596  0.08563596  0.31331372  1
  Se  Se206  1  0.08476052  0.08286397  0.80055808  1
  Se  Se207  1  0.07930747  0.40675966  0.30310169  1
  Se  Se208  1  0.09794501  0.42310395  0.79164889  1
  Se  Se209  1  0.10018709  0.76076545  0.31189158  1
  Se  Se210  1  0.08780846  0.76033499  0.81157184  1
  Se  Se211  1  0.41242033  0.07986379  0.30713423  1
  Se  Se212  1  0.40963685  0.07936560  0.80312775  1
  Se  Se213  1  0.41104831  0.41519796  0.30964027  1
  Se  Se214  1  0.41716301  0.41495476  0.80015892  1
  Se  Se215  1  0.42726843  0.75863804  0.30883931  1
  Se  Se216  1  0.41208080  0.74903920  0.79691285  1
  Se  Se217  1  0.74758047  0.08165274  0.29761907  1
  Se  Se218  1  0.73922369  0.08058298  0.79183286  1
  Se  Se219  1  0.75005587  0.41350756  0.31150877  1
  Se  Se220  1  0.75101591  0.41965632  0.80507308  1
  Se  Se221  1  0.76027654  0.75674139  0.31604600  1
  Se  Se222  1  0.74622444  0.74859185  0.79782352  1
  Se  Se223  1  0.24868525  0.08651514  0.19750657  1
  Se  Se224  1  0.25231024  0.08081097  0.69803179  1
  Se  Se225  1  0.25049071  0.41259731  0.19294906  1
  Se  Se226  1  0.25540453  0.41262675  0.69357466  1
  Se  Se227  1  0.24262355  0.75851633  0.19014137  1
  Se  Se228  1  0.24756088  0.75470713  0.69889358  1
  Se  Se229  1  0.58275283  0.08708004  0.19443097  1
  Se  Se230  1  0.57855831  0.07715662  0.70237673  1
  Se  Se231  1  0.57859459  0.42041181  0.19346722  1
  Se  Se232  1  0.58350631  0.41378932  0.70068140  1
  Se  Se233  1  0.57722754  0.75332992  0.18831551  1
  Se  Se234  1  0.58571237  0.74542444  0.69169700  1
  Se  Se235  1  0.91463962  0.08959400  0.18237088  1
  Se  Se236  1  0.89598742  0.10727506  0.69527650  1
  Se  Se237  1  0.92079356  0.40614779  0.19967200  1
  Se  Se238  1  0.92240557  0.41819557  0.70305719  1
  Se  Se239  1  0.91780440  0.75306771  0.19827463  1
  Se  Se240  1  0.91364551  0.76018450  0.68721245  1
  Se  Se241  1  0.08291334  0.24872768  0.19488932  1
  Se  Se242  1  0.09014390  0.25358069  0.69163458  1
  Se  Se243  1  0.08898823  0.57791131  0.19130347  1
  Se  Se244  1  0.09216027  0.58399604  0.69238938  1
  Se  Se245  1  0.09460640  0.90906371  0.19563062  1
  Se  Se246  1  0.07904425  0.92561051  0.69857081  1
  Se  Se247  1  0.41512176  0.25193684  0.20355351  1
  Se  Se248  1  0.41307562  0.25034798  0.69892258  1
  Se  Se249  1  0.42256986  0.57698600  0.19008113  1
  Se  Se250  1  0.41668284  0.58363947  0.69294341  1
  Se  Se251  1  0.41780289  0.91852103  0.19238043  1
  Se  Se252  1  0.41440174  0.91506968  0.69507939  1
  Se  Se253  1  0.75400594  0.24461071  0.18300056  1
  Se  Se254  1  0.73689806  0.26319488  0.70876052  1
  Se  Se255  1  0.75878752  0.57776007  0.19452060  1
  Se  Se256  1  0.75007270  0.58665491  0.70268859  1
  Se  Se257  1  0.75119919  0.91795324  0.19509288  1
  Se  Se258  1  0.74397107  0.91794018  0.69218889  1
