# generated using pymatgen
data_In86Cu29Se144
_symmetry_space_group_name_H-M   'P 1'
_cell_length_a   17.57313169
_cell_length_b   17.57209926
_cell_length_c   23.43635657
_cell_angle_alpha   89.98914089
_cell_angle_beta   90.01299891
_cell_angle_gamma   89.99446808
_symmetry_Int_Tables_number   1
_chemical_formula_structural   In86Cu29Se144
_chemical_formula_sum   'In86 Cu29 Se144'
_cell_volume   7237.07189667
_cell_formula_units_Z   1
loop_
 _symmetry_equiv_pos_site_id
 _symmetry_equiv_pos_as_xyz
  1  'x, y, z'
loop_
 _atom_site_type_symbol
 _atom_site_label
 _atom_site_symmetry_multiplicity
 _atom_site_fract_x
 _atom_site_fract_y
 _atom_site_fract_z
 _atom_site_occupancy
  In  In0  1  -0.01735743  0.18737336  0.15167392  1
  In  In1  1  -0.00284675  0.17072600  0.62240574  1
  In  In2  1  -0.01825116  0.49432329  0.12038459  1
  In  In3  1  0.00277659  0.49658087  0.62307544  1
  In  In4  1  0.00904862  0.84321472  0.12696093  1
  In  In5  1  -0.00630577  0.82335534  0.61245645  1
  In  In6  1  0.33296266  0.15247021  0.12999340  1
  In  In7  1  0.32172197  0.15373172  0.61991220  1
  In  In8  1  0.34017334  0.47998569  0.12563973  1
  In  In9  1  0.33432786  0.51609890  0.62851004  1
  In  In10  1  0.34713048  0.84844204  0.12571900  1
  In  In11  1  0.33233193  0.83540974  0.61889038  1
  In  In12  1  0.66643826  0.17031945  0.12897420  1
  In  In13  1  0.66546004  0.16787142  0.61082520  1
  In  In14  1  0.66972591  0.49765064  0.12918807  1
  In  In15  1  0.67089187  0.49422061  0.61640307  1
  In  In16  1  0.66123689  0.83655612  0.13935811  1
  In  In17  1  0.67378337  0.83645296  0.60214991  1
  In  In18  1  0.16481732  0.00709287  0.37764186  1
  In  In19  1  0.16860370  -0.00979594  0.87222259  1
  In  In20  1  0.15588305  0.34116645  0.38370187  1
  In  In21  1  0.16339308  0.33759508  0.86816655  1
  In  In22  1  0.16398315  0.66847889  0.38657325  1
  In  In23  1  0.16775491  0.66589173  0.85722206  1
  In  In24  1  0.49688700  0.00667332  0.37002866  1
  In  In25  1  0.49916944  0.00960304  0.87597073  1
  In  In26  1  0.50183088  0.31224279  0.36862310  1
  In  In27  1  0.51255718  0.32649601  0.88531154  1
  In  In28  1  0.52402799  0.67081842  0.37858626  1
  In  In29  1  0.49699370  0.66938754  0.87313854  1
  In  In30  1  0.83842043  0.00040697  0.37376815  1
  In  In31  1  0.84059176  0.01103287  0.87664271  1
  In  In32  1  0.83281753  0.33122080  0.37366639  1
  In  In33  1  0.84985401  0.32580798  0.88874624  1
  In  In34  1  0.80856772  0.67519632  0.39531063  1
  In  In35  1  0.83226564  0.64561268  0.87259557  1
  In  In36  1  0.00165254  0.16408906  0.37518143  1
  In  In37  1  -0.01356800  0.17734985  0.87614438  1
  In  In38  1  -0.00300280  0.49355627  0.37900621  1
  In  In39  1  -0.01197574  0.48829638  0.86123301  1
  In  In40  1  -0.00670228  0.84230484  0.38454373  1
  In  In41  1  0.01205092  0.83996301  0.86613834  1
  In  In42  1  0.34239155  0.15669064  0.37985013  1
  In  In43  1  0.34326772  0.17024617  0.87156263  1
  In  In44  1  0.32499531  0.49134607  0.37839639  1
  In  In45  1  0.32837836  0.50490421  0.87057138  1
  In  In46  1  0.32377521  0.84697661  0.38642632  1
  In  In47  1  0.33058193  0.82895358  0.86042885  1
  In  In48  1  0.66511616  0.17020124  0.36673412  1
  In  In49  1  0.66945722  0.16583325  0.88406130  1
  In  In50  1  0.67883666  0.50669512  0.36764265  1
  In  In51  1  0.69068683  0.48894838  0.89252483  1
  In  In52  1  0.66333858  0.83450567  0.37864125  1
  In  In53  1  0.66444950  0.82814378  0.87678167  1
  In  In54  1  0.14975583  0.03722072  0.16003729  1
  In  In55  1  0.17946192  0.01227685  0.61681824  1
  In  In56  1  0.15037169  0.32048897  0.13070909  1
  In  In57  1  0.14427133  0.30783963  0.61618032  1
  In  In58  1  0.16153412  0.67190657  0.12656500  1
  In  In59  1  0.16844361  0.66600992  0.61918184  1
  In  In60  1  0.49073911  0.01630950  0.14678756  1
  In  In61  1  0.49401135  -0.00764699  0.61543991  1
  In  In62  1  0.51256462  0.34833812  0.12099305  1
  In  In63  1  0.51037511  0.32831896  0.61955418  1
  In  In64  1  0.51513993  0.66662209  0.12744693  1
  In  In65  1  0.48892387  0.66878877  0.62482704  1
  In  In66  1  0.81237741  0.01810506  0.14171115  1
  In  In67  1  0.83856759  0.00266552  0.61119687  1
  In  In68  1  0.83685638  0.33032593  0.12904536  1
  In  In69  1  0.83798667  0.33702124  0.61815511  1
  In  In70  1  0.82576787  0.65595956  0.12222441  1
  In  In71  1  0.84171352  0.67513796  0.61314936  1
  In  In72  1  0.17403823  0.83945152  -0.00040365  1
  In  In73  1  0.66882129  -0.00088190  0.75389299  1
  In  In74  1  0.50553351  0.83551609  -0.00201553  1
  In  In75  1  -0.01185575  0.66760038  0.25489562  1
  In  In76  1  0.83233768  0.83331632  0.00212674  1
  In  In77  1  0.16888653  0.49910718  -0.00259817  1
  In  In78  1  0.33366529  0.67554722  0.24964979  1
  In  In79  1  0.66440423  0.66573175  0.74923822  1
  In  In80  1  0.16515963  0.16777655  -0.00055175  1
  In  In81  1  0.66910370  0.33191351  0.74809132  1
  In  In82  1  0.32646210  0.33339320  0.74697786  1
  In  In83  1  0.49895569  0.49974344  0.49810316  1
  In  In84  1  0.00902947  0.00750087  0.73910878  1
  In  In85  1  0.33244382  0.32555268  0.25277786  1
  Cu  Cu86  1  0.50870857  0.50017174  0.25038411  1
  Cu  Cu87  1  0.00200196  -0.00196703  0.49754305  1
  Cu  Cu88  1  0.83196041  0.82835293  0.26037120  1
  Cu  Cu89  1  0.49181022  0.83094812  0.73985742  1
  Cu  Cu90  1  0.33862293  0.65749292  -0.00523774  1
  Cu  Cu91  1  0.67210418  0.33434085  0.00887508  1
  Cu  Cu92  1  -0.01115030  0.01390189  0.00844106  1
  Cu  Cu93  1  0.32806428  0.33136770  0.49822395  1
  Cu  Cu94  1  0.66374369  0.32845723  0.49027901  1
  Cu  Cu95  1  0.84387628  0.50127441  0.74326861  1
  Cu  Cu96  1  0.49899856  0.50381050  0.75795578  1
  Cu  Cu97  1  0.34595429  0.32354038  0.00199249  1
  Cu  Cu98  1  0.33574517  -0.00046870  0.00855801  1
  Cu  Cu99  1  0.66525959  0.00608545  0.00915275  1
  Cu  Cu100  1  0.83755232  0.83248093  0.73938619  1
  Cu  Cu101  1  0.16512564  0.50201691  0.74161570  1
  Cu  Cu102  1  0.16533760  0.84562038  0.26052995  1
  Cu  Cu103  1  0.15515299  0.49824526  0.25829307  1
  Cu  Cu104  1  0.16922829  0.82975244  0.74037312  1
  Cu  Cu105  1  0.49443107  0.15621226  0.74588488  1
  Cu  Cu106  1  0.66811351  0.00616360  0.48753278  1
  Cu  Cu107  1  0.83220864  0.49708998  0.25020506  1
  Cu  Cu108  1  -0.00588828  0.32939156  0.49842936  1
  Cu  Cu109  1  0.00368216  0.65208128  0.50051666  1
  Cu  Cu110  1  0.83438487  0.16712110  0.25618535  1
  Cu  Cu111  1  0.49900316  0.83472920  0.25776344  1
  Cu  Cu112  1  0.33756739  0.00156748  0.49802545  1
  Cu  Cu113  1  -0.00531488  0.66310792  -0.01102911  1
  Cu  Cu114  1  0.33604140  0.67317690  0.50034483  1
  Se  Se115  1  0.07871050  0.08511056  0.06648666  1
  Se  Se116  1  0.07801557  0.08254657  0.55544901  1
  Se  Se117  1  0.07861236  0.41083250  0.05724668  1
  Se  Se118  1  0.08098188  0.41056982  0.55220905  1
  Se  Se119  1  0.07322028  0.74425444  0.05054995  1
  Se  Se120  1  0.08481964  0.74444506  0.54762401  1
  Se  Se121  1  0.42268887  0.08037468  0.05987670  1
  Se  Se122  1  0.41881952  0.08818440  0.55185953  1
  Se  Se123  1  0.42329859  0.41930327  0.04771451  1
  Se  Se124  1  0.40802100  0.41124543  0.56116890  1
  Se  Se125  1  0.40986246  0.74506048  0.05736928  1
  Se  Se126  1  0.42198438  0.75540825  0.55095458  1
  Se  Se127  1  0.75296886  0.09000058  0.05654489  1
  Se  Se128  1  0.75161860  0.08508406  0.54575232  1
  Se  Se129  1  0.75619205  0.41703316  0.06105490  1
  Se  Se130  1  0.74559986  0.40839628  0.54798935  1
  Se  Se131  1  0.73698601  0.75112999  0.06226834  1
  Se  Se132  1  0.75188304  0.74335538  0.54273280  1
  Se  Se133  1  0.25813873  0.25502583  0.06287974  1
  Se  Se134  1  0.24803469  0.24568803  0.55221859  1
  Se  Se135  1  0.25793959  0.58807760  0.06222263  1
  Se  Se136  1  0.25525868  0.58381445  0.55054557  1
  Se  Se137  1  0.24681252  0.93093984  0.06912077  1
  Se  Se138  1  0.25071090  0.91839628  0.54929393  1
  Se  Se139  1  0.58480914  0.25036118  0.05715050  1
  Se  Se140  1  0.57772075  0.24719631  0.54342496  1
  Se  Se141  1  0.57630845  0.57047438  0.06135382  1
  Se  Se142  1  0.58607335  0.59130066  0.55868967  1
  Se  Se143  1  0.58294117  0.92456038  0.06620415  1
  Se  Se144  1  0.58527047  0.92421053  0.54426075  1
  Se  Se145  1  0.92981425  0.25292445  0.06385249  1
  Se  Se146  1  0.91081150  0.24413616  0.55028113  1
  Se  Se147  1  0.91482482  0.58687190  0.04978684  1
  Se  Se148  1  0.91529856  0.57397932  0.55315817  1
  Se  Se149  1  0.91392458  0.92683757  0.06622867  1
  Se  Se150  1  0.91437632  0.91150204  0.54536549  1
  Se  Se151  1  0.08111466  0.24639866  0.44843476  1
  Se  Se152  1  0.07832444  0.26329822  0.94308224  1
  Se  Se153  1  0.08833414  0.57056055  0.44658799  1
  Se  Se154  1  0.08310734  0.58759484  0.93193939  1
  Se  Se155  1  0.09032888  0.91542116  0.44765268  1
  Se  Se156  1  0.06973055  0.93058872  0.94842280  1
  Se  Se157  1  0.41601014  0.25213557  0.44664200  1
  Se  Se158  1  0.42480527  0.23878622  0.94738121  1
  Se  Se159  1  0.41080485  0.59220140  0.43550483  1
  Se  Se160  1  0.41986837  0.57713512  0.93951312  1
  Se  Se161  1  0.42455643  0.92051619  0.44544917  1
  Se  Se162  1  0.40439642  0.91779164  0.93987215  1
  Se  Se163  1  0.75006843  0.24532358  0.44066497  1
  Se  Se164  1  0.75069711  0.25198335  0.94966007  1
  Se  Se165  1  0.74615174  0.56737391  0.45347612  1
  Se  Se166  1  0.74751756  0.59775008  0.95285826  1
  Se  Se167  1  0.75421414  0.91782080  0.44242356  1
  Se  Se168  1  0.74048623  0.92848994  0.94180289  1
  Se  Se169  1  0.25018867  0.08576570  0.44875087  1
  Se  Se170  1  0.25731568  0.07445798  0.94177597  1
  Se  Se171  1  0.24409154  0.42034632  0.45264744  1
  Se  Se172  1  0.26240552  0.40240374  0.94168084  1
  Se  Se173  1  0.24668558  0.75468513  0.45131462  1
  Se  Se174  1  0.25490122  0.74031398  0.93710882  1
  Se  Se175  1  0.58182672  0.08983561  0.43836039  1
  Se  Se176  1  0.58178323  0.08264939  0.94887292  1
  Se  Se177  1  0.58294019  0.41248550  0.43281199  1
  Se  Se178  1  0.58912985  0.41587463  0.95132694  1
  Se  Se179  1  0.59022964  0.75136220  0.45402760  1
  Se  Se180  1  0.59427340  0.73530583  0.94684350  1
  Se  Se181  1  0.91802940  0.08236095  0.44550091  1
  Se  Se182  1  0.91013466  0.09512319  0.95041112  1
  Se  Se183  1  0.91024107  0.41471976  0.44718206  1
  Se  Se184  1  0.91273996  0.43387454  0.94541717  1
  Se  Se185  1  0.92478726  0.73831546  0.44480963  1
  Se  Se186  1  0.92181941  0.75286289  0.93208515  1
  Se  Se187  1  0.24584488  0.24939256  0.32114057  1
  Se  Se188  1  0.24085334  0.23771591  0.80612820  1
  Se  Se189  1  0.24196722  0.58103593  0.30813252  1
  Se  Se190  1  0.25450857  0.58085361  0.79375579  1
  Se  Se191  1  0.25438329  0.92540070  0.30903823  1
  Se  Se192  1  0.24724456  0.91616671  0.79684731  1
  Se  Se193  1  0.58468699  0.24822428  0.29313179  1
  Se  Se194  1  0.57697424  0.23643078  0.80541920  1
  Se  Se195  1  0.58911260  0.58720907  0.30178141  1
  Se  Se196  1  0.58950802  0.57183172  0.81692661  1
  Se  Se197  1  0.58481810  0.91778538  0.30749692  1
  Se  Se198  1  0.57085345  0.90473718  0.80716680  1
  Se  Se199  1  0.92053415  0.25110996  0.30613864  1
  Se  Se200  1  0.91186870  0.25824599  0.80369337  1
  Se  Se201  1  0.90117977  0.58068473  0.31662733  1
  Se  Se202  1  0.92225677  0.59004557  0.79624742  1
  Se  Se203  1  0.92033676  0.91333959  0.30474409  1
  Se  Se204  1  0.91107629  0.91788963  0.80212479  1
  Se  Se205  1  0.07527325  0.07458492  0.30588778  1
  Se  Se206  1  0.08401276  0.08813643  0.81635163  1
  Se  Se207  1  0.07386714  0.41069837  0.30599995  1
  Se  Se208  1  0.08540960  0.41703240  0.79669019  1
  Se  Se209  1  0.08711217  0.75373927  0.31185653  1
  Se  Se210  1  0.08109591  0.75194650  0.79459089  1
  Se  Se211  1  0.42155838  0.09421991  0.29976298  1
  Se  Se212  1  0.41203002  0.07615453  0.80169367  1
  Se  Se213  1  0.42357352  0.42380552  0.30971242  1
  Se  Se214  1  0.42591335  0.41133117  0.81209761  1
  Se  Se215  1  0.41863077  0.75517367  0.31906880  1
  Se  Se216  1  0.41775410  0.74398074  0.79802757  1
  Se  Se217  1  0.75186276  0.07983511  0.30556709  1
  Se  Se218  1  0.75764868  0.09639689  0.80621334  1
  Se  Se219  1  0.74879126  0.41083576  0.30183759  1
  Se  Se220  1  0.75776835  0.42561444  0.80372394  1
  Se  Se221  1  0.74631303  0.74591016  0.31014656  1
  Se  Se222  1  0.76001961  0.75783944  0.80676796  1
  Se  Se223  1  0.26733461  0.08435527  0.21379463  1
  Se  Se224  1  0.24651879  0.08437562  0.69812233  1
  Se  Se225  1  0.23578990  0.42030066  0.19446400  1
  Se  Se226  1  0.24214133  0.41883878  0.68071550  1
  Se  Se227  1  0.23980866  0.76841315  0.19224069  1
  Se  Se228  1  0.25482146  0.74725600  0.68816657  1
  Se  Se229  1  0.60968518  0.06569525  0.19603064  1
  Se  Se230  1  0.58177069  0.08401977  0.68641720  1
  Se  Se231  1  0.59136022  0.41278269  0.20132325  1
  Se  Se232  1  0.57498704  0.42791842  0.69186241  1
  Se  Se233  1  0.57991247  0.74799679  0.20512153  1
  Se  Se234  1  0.58602565  0.76119513  0.68393832  1
  Se  Se235  1  0.91780273  0.07679453  0.20626688  1
  Se  Se236  1  0.90177742  0.08779641  0.69077707  1
  Se  Se237  1  0.92020338  0.41568337  0.20048964  1
  Se  Se238  1  0.92054420  0.41064142  0.69211205  1
  Se  Se239  1  0.90745900  0.75877669  0.18655261  1
  Se  Se240  1  0.92052263  0.74616509  0.69078319  1
  Se  Se241  1  0.10441428  0.22713790  0.20657774  1
  Se  Se242  1  0.07942501  0.23917541  0.69885188  1
  Se  Se243  1  0.08155664  0.57982248  0.19229955  1
  Se  Se244  1  0.08248173  0.58644681  0.68905565  1
  Se  Se245  1  0.07754171  0.92166343  0.20426817  1
  Se  Se246  1  0.08827072  0.90917051  0.67921488  1
  Se  Se247  1  0.42336452  0.25318218  0.18397250  1
  Se  Se248  1  0.42235310  0.24610297  0.68806751  1
  Se  Se249  1  0.41842328  0.57426111  0.19310437  1
  Se  Se250  1  0.42027978  0.58706502  0.70163579  1
  Se  Se251  1  0.41241628  0.91904803  0.20811244  1
  Se  Se252  1  0.41241844  0.92052989  0.69067828  1
  Se  Se253  1  0.75353643  0.24901335  0.19843250  1
  Se  Se254  1  0.75241803  0.24231231  0.68532612  1
  Se  Se255  1  0.74940847  0.58501844  0.19972381  1
  Se  Se256  1  0.75597177  0.57863386  0.68654597  1
  Se  Se257  1  0.75009152  0.91374940  0.20542298  1
  Se  Se258  1  0.75289244  0.91237828  0.68446529  1
