# generated using pymatgen
data_In86Cu29Se144
_symmetry_space_group_name_H-M   'P 1'
_cell_length_a   17.58516516
_cell_length_b   17.58285085
_cell_length_c   23.44234881
_cell_angle_alpha   89.97478361
_cell_angle_beta   89.99255208
_cell_angle_gamma   89.99880872
_symmetry_Int_Tables_number   1
_chemical_formula_structural   In86Cu29Se144
_chemical_formula_sum   'In86 Cu29 Se144'
_cell_volume   7248.31103856
_cell_formula_units_Z   1
loop_
 _symmetry_equiv_pos_site_id
 _symmetry_equiv_pos_as_xyz
  1  'x, y, z'
loop_
 _atom_site_type_symbol
 _atom_site_label
 _atom_site_symmetry_multiplicity
 _atom_site_fract_x
 _atom_site_fract_y
 _atom_site_fract_z
 _atom_site_occupancy
  In  In0  1  0.02308732  0.15190523  0.14847285  1
  In  In1  1  -0.00048475  0.16313252  0.61351013  1
  In  In2  1  0.00707059  0.49414517  0.14566286  1
  In  In3  1  -0.00167041  0.50933230  0.61917160  1
  In  In4  1  -0.00155183  0.83563323  0.11968462  1
  In  In5  1  0.00783803  0.84882354  0.62421404  1
  In  In6  1  0.32509644  0.17016141  0.12077691  1
  In  In7  1  0.32165563  0.16363839  0.61965926  1
  In  In8  1  0.32613543  0.48029142  0.11016223  1
  In  In9  1  0.34189945  0.48365110  0.62371968  1
  In  In10  1  0.33209198  0.85077379  0.12271737  1
  In  In11  1  0.33718494  0.84064040  0.63039819  1
  In  In12  1  0.65663975  0.17735921  0.13260237  1
  In  In13  1  0.66810235  0.17072248  0.62792961  1
  In  In14  1  0.66656880  0.50530787  0.13242155  1
  In  In15  1  0.66177651  0.48564814  0.61040092  1
  In  In16  1  0.67765571  0.82717099  0.12773260  1
  In  In17  1  0.68001956  0.84021767  0.62496109  1
  In  In18  1  0.16813142  0.01438316  0.35918129  1
  In  In19  1  0.16828143  -0.00089190  0.87659436  1
  In  In20  1  0.14031800  0.29937357  0.34316255  1
  In  In21  1  0.18352148  0.31886069  0.90607867  1
  In  In22  1  0.15142634  0.66804484  0.36844264  1
  In  In23  1  0.16628740  0.66329747  0.89172333  1
  In  In24  1  0.50182691  0.00192031  0.36593112  1
  In  In25  1  0.50491664  0.01217277  0.87446100  1
  In  In26  1  0.51258250  0.34434333  0.36280382  1
  In  In27  1  0.50246613  0.31775811  0.89316741  1
  In  In28  1  0.49930659  0.64242119  0.37187217  1
  In  In29  1  0.49400298  0.66667733  0.88228381  1
  In  In30  1  0.84301128  0.01061696  0.36815900  1
  In  In31  1  0.82302703  -0.00300160  0.87361799  1
  In  In32  1  0.82282122  0.33094615  0.38271755  1
  In  In33  1  0.82993068  0.33506446  0.86877475  1
  In  In34  1  0.80791103  0.62887993  0.33894411  1
  In  In35  1  0.84548607  0.66452279  0.87987998  1
  In  In36  1  -0.00414899  0.16066551  0.37395952  1
  In  In37  1  0.01115095  0.17000817  0.87748890  1
  In  In38  1  -0.04552856  0.47057717  0.33121476  1
  In  In39  1  -0.00151625  0.50134583  0.88220155  1
  In  In40  1  -0.00541458  0.83311769  0.36638325  1
  In  In41  1  -0.00213613  0.83604651  0.88552538  1
  In  In42  1  0.32289122  0.16022341  0.36180408  1
  In  In43  1  0.34183000  0.16125472  0.88706946  1
  In  In44  1  0.34537800  0.48862178  0.37444443  1
  In  In45  1  0.34371049  0.48419222  0.89908646  1
  In  In46  1  0.31925624  0.83352509  0.36927040  1
  In  In47  1  0.31919551  0.84056039  0.88268242  1
  In  In48  1  0.68067940  0.18136536  0.36632021  1
  In  In49  1  0.66288753  0.15836111  0.87172579  1
  In  In50  1  0.66031698  0.49196253  0.37138366  1
  In  In51  1  0.67192301  0.48237380  0.87373444  1
  In  In52  1  0.67464966  0.83250330  0.36669000  1
  In  In53  1  0.65881310  0.84884871  0.88135847  1
  In  In54  1  0.16897161  0.00380951  0.11894264  1
  In  In55  1  0.14592673  0.01073061  0.64475897  1
  In  In56  1  0.16829499  0.32971119  0.12982260  1
  In  In57  1  0.18156166  0.32848266  0.61999599  1
  In  In58  1  0.15814976  0.66516560  0.12135296  1
  In  In59  1  0.15895650  0.67353231  0.62605596  1
  In  In60  1  0.48525617  0.01403640  0.13076792  1
  In  In61  1  0.49963900  0.01127427  0.63232753  1
  In  In62  1  0.49698591  0.33215313  0.12065818  1
  In  In63  1  0.50082705  0.34583561  0.61706929  1
  In  In64  1  0.52465265  0.65536658  0.12380293  1
  In  In65  1  0.51458804  0.65839586  0.62332488  1
  In  In66  1  0.84284588  -0.00743393  0.12918735  1
  In  In67  1  0.82181880  0.02794177  0.64853036  1
  In  In68  1  0.83528347  0.34039594  0.14435755  1
  In  In69  1  0.81867645  0.31486712  0.59986382  1
  In  In70  1  0.82099257  0.67482000  0.13339594  1
  In  In71  1  0.83961892  0.66008198  0.61855266  1
  In  In72  1  -0.00234196  0.67581407  0.75835975  1
  In  In73  1  0.16532427  0.83580477  0.49962329  1
  In  In74  1  0.83257250  0.50393812  0.00828293  1
  In  In75  1  -0.00080726  0.33384486  0.75102252  1
  In  In76  1  0.16616790  0.49088217  0.48906341  1
  In  In77  1  0.32832770  0.67113673  0.75660039  1
  In  In78  1  0.83826186  0.17073229  0.01205720  1
  In  In79  1  0.50601363  0.82921728  0.00814263  1
  In  In80  1  0.49853519  0.82533864  0.50372395  1
  In  In81  1  0.33950736  0.32789592  0.75458839  1
  In  In82  1  0.66635346  0.67600574  0.75075717  1
  In  In83  1  0.83901565  0.83119529  0.50034312  1
  In  In84  1  0.50477323  0.17181557  0.49038781  1
  In  In85  1  0.34242217  0.66711279  0.24553688  1
  Cu  Cu86  1  0.83551801  0.84109720  0.75496612  1
  Cu  Cu87  1  0.33051929  0.00426465  0.00162654  1
  Cu  Cu88  1  0.00201651  0.00373758  0.49887901  1
  Cu  Cu89  1  0.83638826  0.83655295  0.24651416  1
  Cu  Cu90  1  0.50411984  0.17268005  0.75362661  1
  Cu  Cu91  1  -0.01242426  0.65972564  0.48752272  1
  Cu  Cu92  1  0.16784856  0.84733328  0.24203248  1
  Cu  Cu93  1  0.49665427  0.16509372  0.24714374  1
  Cu  Cu94  1  0.50470277  0.49593864  0.74941157  1
  Cu  Cu95  1  0.32913309  0.32641231  0.49105234  1
  Cu  Cu96  1  0.32779427  0.00063832  0.49076617  1
  Cu  Cu97  1  0.00535812  0.33170587  0.48426077  1
  Cu  Cu98  1  0.66248958  0.65348932  0.49002276  1
  Cu  Cu99  1  0.66480384  0.00394281  0.00125232  1
  Cu  Cu100  1  -0.00207522  0.33513662  0.01663301  1
  Cu  Cu101  1  0.67459461  0.00553039  0.50321285  1
  Cu  Cu102  1  0.32933947  0.65126571  0.50097212  1
  Cu  Cu103  1  0.00211204  0.00469403  0.00349325  1
  Cu  Cu104  1  -0.00134264  0.66686816  0.00798001  1
  Cu  Cu105  1  0.16794837  0.16405237  0.75294885  1
  Cu  Cu106  1  0.50404802  0.83259904  0.24393981  1
  Cu  Cu107  1  0.66532262  0.32946529  0.00304052  1
  Cu  Cu108  1  0.33603099  0.66486344  0.00568227  1
  Cu  Cu109  1  0.82801061  0.16646415  0.25334709  1
  Cu  Cu110  1  0.82327087  0.48939920  0.74239059  1
  Cu  Cu111  1  0.16451826  0.50001231  0.76497253  1
  Cu  Cu112  1  0.49600642  0.85171014  0.75278639  1
  Cu  Cu113  1  0.50087031  0.49302453  0.24367427  1
  Cu  Cu114  1  0.17833275  0.50191729  0.24378687  1
  Se  Se115  1  0.08013110  0.09247879  0.05658922  1
  Se  Se116  1  0.09382763  0.07739564  0.55447799  1
  Se  Se117  1  0.07979159  0.42078443  0.06715665  1
  Se  Se118  1  0.07697508  0.40507741  0.55828536  1
  Se  Se119  1  0.08638314  0.75514809  0.05151508  1
  Se  Se120  1  0.06461963  0.74165091  0.55110286  1
  Se  Se121  1  0.41542772  0.08916934  0.05158138  1
  Se  Se122  1  0.41363723  0.07742194  0.55109362  1
  Se  Se123  1  0.43757398  0.43094484  0.05042710  1
  Se  Se124  1  0.41156281  0.41218838  0.54346571  1
  Se  Se125  1  0.41398476  0.74183982  0.06925311  1
  Se  Se126  1  0.40481663  0.73382934  0.56352920  1
  Se  Se127  1  0.74315516  0.08032213  0.06658497  1
  Se  Se128  1  0.75339879  0.08614461  0.56049905  1
  Se  Se129  1  0.74840053  0.40401880  0.06301780  1
  Se  Se130  1  0.77635449  0.43968177  0.55272075  1
  Se  Se131  1  0.74821919  0.74499725  0.05374339  1
  Se  Se132  1  0.73728805  0.73674995  0.55313620  1
  Se  Se133  1  0.24948573  0.26019302  0.05263084  1
  Se  Se134  1  0.24724267  0.24328880  0.54455653  1
  Se  Se135  1  0.24846620  0.58480237  0.05713939  1
  Se  Se136  1  0.24685873  0.57932709  0.56489934  1
  Se  Se137  1  0.24663872  0.91574292  0.04764487  1
  Se  Se138  1  0.25613286  0.92338279  0.55876564  1
  Se  Se139  1  0.57978803  0.24421074  0.05201985  1
  Se  Se140  1  0.59057275  0.25924719  0.55375139  1
  Se  Se141  1  0.60046597  0.57870508  0.05081138  1
  Se  Se142  1  0.57762973  0.57529296  0.54657195  1
  Se  Se143  1  0.58621437  0.92744465  0.06673588  1
  Se  Se144  1  0.58869053  0.92459078  0.55826875  1
  Se  Se145  1  0.92395714  0.25380248  0.07861699  1
  Se  Se146  1  0.92570574  0.24856331  0.54238047  1
  Se  Se147  1  0.92432268  0.58493544  0.07120878  1
  Se  Se148  1  0.91072127  0.57616647  0.54502951  1
  Se  Se149  1  0.91426179  0.91884527  0.04978360  1
  Se  Se150  1  0.91659247  0.92997445  0.56059477  1
  Se  Se151  1  0.08922143  0.24347267  0.43792923  1
  Se  Se152  1  0.07409974  0.24911394  0.95795531  1
  Se  Se153  1  0.07242090  0.57857612  0.43429179  1
  Se  Se154  1  0.07730166  0.57916243  0.95447648  1
  Se  Se155  1  0.07829329  0.92352825  0.43607247  1
  Se  Se156  1  0.08467905  0.92055219  0.94928339  1
  Se  Se157  1  0.41204435  0.25277373  0.42786698  1
  Se  Se158  1  0.38177797  0.27820953  0.94761115  1
  Se  Se159  1  0.41687445  0.57421637  0.44806723  1
  Se  Se160  1  0.42361603  0.58319492  0.95557414  1
  Se  Se161  1  0.41048038  0.91488167  0.43949586  1
  Se  Se162  1  0.41926618  0.92207159  0.94539206  1
  Se  Se163  1  0.74387156  0.24631464  0.45187234  1
  Se  Se164  1  0.74993156  0.25291111  0.94349424  1
  Se  Se165  1  0.75128894  0.58013215  0.43423497  1
  Se  Se166  1  0.74599682  0.58384516  0.93825671  1
  Se  Se167  1  0.74787334  0.92248360  0.44109262  1
  Se  Se168  1  0.74941873  0.91939380  0.95120777  1
  Se  Se169  1  0.24575294  0.08411385  0.43843450  1
  Se  Se170  1  0.24497939  0.08574695  0.94834026  1
  Se  Se171  1  0.24743655  0.39900468  0.42713786  1
  Se  Se172  1  0.22466332  0.44274556  0.95337514  1
  Se  Se173  1  0.25343742  0.73514001  0.44254871  1
  Se  Se174  1  0.25271504  0.75038583  0.95425997  1
  Se  Se175  1  0.59460647  0.07607428  0.43675694  1
  Se  Se176  1  0.58255689  0.08963652  0.94969632  1
  Se  Se177  1  0.57535802  0.41833575  0.44399158  1
  Se  Se178  1  0.58625272  0.41594222  0.94863635  1
  Se  Se179  1  0.58573327  0.74318389  0.43526940  1
  Se  Se180  1  0.59531690  0.74125821  0.94492051  1
  Se  Se181  1  0.91316467  0.08379491  0.44850011  1
  Se  Se182  1  0.91825953  0.08319849  0.94328970  1
  Se  Se183  1  0.92531517  0.41857362  0.43374172  1
  Se  Se184  1  0.91787112  0.40422602  0.94830351  1
  Se  Se185  1  0.90934100  0.74227156  0.42962144  1
  Se  Se186  1  0.91644461  0.74796125  0.95235423  1
  Se  Se187  1  0.25608649  0.24912181  0.28882216  1
  Se  Se188  1  0.24251359  0.24722941  0.81499444  1
  Se  Se189  1  0.25321750  0.58210402  0.31063716  1
  Se  Se190  1  0.25162053  0.57534647  0.82133873  1
  Se  Se191  1  0.25403505  0.92299831  0.29818779  1
  Se  Se192  1  0.25803315  0.92456734  0.80736098  1
  Se  Se193  1  0.58364735  0.24731058  0.29848061  1
  Se  Se194  1  0.58064363  0.25552881  0.81188852  1
  Se  Se195  1  0.58318402  0.57775211  0.29657285  1
  Se  Se196  1  0.57884841  0.58067779  0.81040910  1
  Se  Se197  1  0.58485259  0.91354776  0.30283031  1
  Se  Se198  1  0.58700888  0.92703488  0.80529731  1
  Se  Se199  1  0.90682155  0.24732233  0.31231144  1
  Se  Se200  1  0.91112171  0.23847831  0.80789965  1
  Se  Se201  1  0.94742311  0.61461966  0.30981644  1
  Se  Se202  1  0.90612669  0.56717182  0.80387882  1
  Se  Se203  1  0.91827770  0.92194743  0.29901576  1
  Se  Se204  1  0.91919364  0.91651846  0.81244615  1
  Se  Se205  1  0.07231848  0.08543691  0.29661269  1
  Se  Se206  1  0.08391806  0.08286204  0.80685104  1
  Se  Se207  1  0.09564943  0.43181964  0.30843372  1
  Se  Se208  1  0.08894469  0.41257461  0.82059355  1
  Se  Se209  1  0.08982982  0.76266075  0.29841140  1
  Se  Se210  1  0.09462948  0.75409580  0.81800551  1
  Se  Se211  1  0.41421800  0.07798772  0.29883554  1
  Se  Se212  1  0.41733128  0.09331723  0.80709863  1
  Se  Se213  1  0.41402275  0.41186542  0.29551003  1
  Se  Se214  1  0.42524067  0.42138466  0.81411573  1
  Se  Se215  1  0.42815468  0.75561342  0.31240220  1
  Se  Se216  1  0.42446476  0.76311009  0.81212493  1
  Se  Se217  1  0.74357168  0.07750292  0.30257421  1
  Se  Se218  1  0.75477683  0.08913002  0.80509160  1
  Se  Se219  1  0.75409133  0.41657841  0.30758824  1
  Se  Se220  1  0.74251401  0.40539664  0.79597890  1
  Se  Se221  1  0.74883882  0.75047651  0.29387805  1
  Se  Se222  1  0.75818768  0.75757765  0.81509687  1
  Se  Se223  1  0.25298903  0.07943952  0.18989680  1
  Se  Se224  1  0.25438814  0.08481488  0.69781101  1
  Se  Se225  1  0.25874783  0.41406249  0.19514449  1
  Se  Se226  1  0.24308368  0.42365282  0.69888567  1
  Se  Se227  1  0.24863696  0.75701221  0.18915476  1
  Se  Se228  1  0.23870288  0.76018520  0.69546587  1
  Se  Se229  1  0.58395389  0.08044545  0.19732134  1
  Se  Se230  1  0.58651113  0.08911409  0.69867754  1
  Se  Se231  1  0.58535284  0.40955622  0.19145089  1
  Se  Se232  1  0.58471856  0.41695220  0.69127034  1
  Se  Se233  1  0.58809059  0.74732341  0.19551520  1
  Se  Se234  1  0.57259657  0.76775800  0.69070904  1
  Se  Se235  1  0.91149265  0.08432017  0.19998797  1
  Se  Se236  1  0.94507406  0.07678415  0.69283595  1
  Se  Se237  1  0.91025491  0.42874235  0.21391352  1
  Se  Se238  1  0.91532275  0.42069991  0.68518592  1
  Se  Se239  1  0.91920329  0.75360159  0.19220706  1
  Se  Se240  1  0.90794371  0.75829134  0.68968920  1
  Se  Se241  1  0.07064767  0.27039498  0.20162658  1
  Se  Se242  1  0.09523638  0.24799433  0.68993163  1
  Se  Se243  1  0.09107163  0.59119150  0.20241400  1
  Se  Se244  1  0.08815100  0.57786767  0.69920256  1
  Se  Se245  1  0.08099961  0.92224089  0.18692091  1
  Se  Se246  1  0.09015848  0.90121608  0.70387561  1
  Se  Se247  1  0.41699016  0.24674237  0.18962775  1
  Se  Se248  1  0.42472053  0.24400976  0.68447474  1
  Se  Se249  1  0.42157534  0.57435173  0.18236898  1
  Se  Se250  1  0.42097077  0.57900942  0.69379597  1
  Se  Se251  1  0.41587590  0.91685551  0.19849378  1
  Se  Se252  1  0.41157845  0.92978137  0.69776591  1
  Se  Se253  1  0.74575443  0.25189176  0.20171467  1
  Se  Se254  1  0.75905278  0.25510836  0.68843532  1
  Se  Se255  1  0.76091580  0.57422442  0.20029986  1
  Se  Se256  1  0.74911366  0.58206647  0.68822938  1
  Se  Se257  1  0.74849455  0.91973930  0.19603681  1
  Se  Se258  1  0.74725868  0.92009015  0.70179817  1
