# generated using pymatgen
data_In86Cu29Se144
_symmetry_space_group_name_H-M   'P 1'
_cell_length_a   17.58230204
_cell_length_b   17.58491241
_cell_length_c   23.44913879
_cell_angle_alpha   89.97254193
_cell_angle_beta   90.01495477
_cell_angle_gamma   90.03778621
_symmetry_Int_Tables_number   1
_chemical_formula_structural   In86Cu29Se144
_chemical_formula_sum   'In86 Cu29 Se144'
_cell_volume   7250.07808257
_cell_formula_units_Z   1
loop_
 _symmetry_equiv_pos_site_id
 _symmetry_equiv_pos_as_xyz
  1  'x, y, z'
loop_
 _atom_site_type_symbol
 _atom_site_label
 _atom_site_symmetry_multiplicity
 _atom_site_fract_x
 _atom_site_fract_y
 _atom_site_fract_z
 _atom_site_occupancy
  In  In0  1  0.00256941  0.16483391  0.13280217  1
  In  In1  1  -0.00367430  0.18341554  0.63397881  1
  In  In2  1  -0.00731564  0.50765798  0.13525579  1
  In  In3  1  -0.01979640  0.51298415  0.64017962  1
  In  In4  1  -0.01028767  0.83804404  0.13238720  1
  In  In5  1  -0.01200629  0.81602232  0.60908115  1
  In  In6  1  0.34050172  0.17659132  0.12777698  1
  In  In7  1  0.32821475  0.15237164  0.62865186  1
  In  In8  1  0.34451330  0.49203916  0.13025642  1
  In  In9  1  0.34923473  0.50021052  0.62456347  1
  In  In10  1  0.33003431  0.81807598  0.12487513  1
  In  In11  1  0.32756726  0.83761411  0.62791029  1
  In  In12  1  0.66723414  0.16579593  0.12348010  1
  In  In13  1  0.67111067  0.17240196  0.62954571  1
  In  In14  1  0.68059023  0.51377652  0.11535264  1
  In  In15  1  0.66667315  0.50023877  0.61752443  1
  In  In16  1  0.65606275  0.82387075  0.11432898  1
  In  In17  1  0.68605336  0.82486714  0.62094428  1
  In  In18  1  0.14663485  0.00082119  0.37708519  1
  In  In19  1  0.16720079  -0.01450337  0.87245140  1
  In  In20  1  0.16677568  0.33586774  0.36967246  1
  In  In21  1  0.16123554  0.34517076  0.87370301  1
  In  In22  1  0.16560823  0.66965275  0.37614121  1
  In  In23  1  0.16492079  0.66547728  0.86703873  1
  In  In24  1  0.51216989  0.00027659  0.37821462  1
  In  In25  1  0.50429449  -0.00082454  0.86757620  1
  In  In26  1  0.49440616  0.34505243  0.38187404  1
  In  In27  1  0.51070593  0.33022985  0.87656667  1
  In  In28  1  0.49373367  0.65828065  0.36919925  1
  In  In29  1  0.49596199  0.67743749  0.87832354  1
  In  In30  1  0.84721156  -0.00942633  0.38526178  1
  In  In31  1  0.82359143  0.00368780  0.87197949  1
  In  In32  1  0.83578254  0.33077618  0.38238049  1
  In  In33  1  0.83998101  0.34900278  0.85901735  1
  In  In34  1  0.83398881  0.66381395  0.37626129  1
  In  In35  1  0.84147690  0.65669111  0.87784972  1
  In  In36  1  -0.00477337  0.16187038  0.37408430  1
  In  In37  1  -0.01652143  0.17149029  0.86978045  1
  In  In38  1  -0.00502253  0.50104571  0.37439860  1
  In  In39  1  -0.01327705  0.49735772  0.86410447  1
  In  In40  1  -0.00784147  0.83096220  0.37742243  1
  In  In41  1  0.00172311  0.81881979  0.87722796  1
  In  In42  1  0.32835377  0.18293385  0.37766711  1
  In  In43  1  0.34786008  0.16566268  0.87214544  1
  In  In44  1  0.33560065  0.50390989  0.37030180  1
  In  In45  1  0.32938267  0.51088229  0.87672028  1
  In  In46  1  0.33353838  0.81465418  0.37289215  1
  In  In47  1  0.34082209  0.84166767  0.86538277  1
  In  In48  1  0.66669436  0.16457401  0.38938524  1
  In  In49  1  0.68516850  0.17799772  0.85075738  1
  In  In50  1  0.66238202  0.51427860  0.39178265  1
  In  In51  1  0.67521585  0.49227517  0.87619256  1
  In  In52  1  0.68371699  0.82474826  0.38127708  1
  In  In53  1  0.66248124  0.83866755  0.87548338  1
  In  In54  1  0.15727242  -0.01282953  0.12439981  1
  In  In55  1  0.17707022  -0.00293304  0.62922141  1
  In  In56  1  0.16525068  0.33527184  0.13210020  1
  In  In57  1  0.15242702  0.32753571  0.62987699  1
  In  In58  1  0.16841603  0.66369699  0.13650523  1
  In  In59  1  0.15514936  0.67500101  0.62574699  1
  In  In60  1  0.51498402  -0.00336013  0.12229076  1
  In  In61  1  0.49209592  0.00853529  0.62953729  1
  In  In62  1  0.48230132  0.34724591  0.12723069  1
  In  In63  1  0.51491696  0.34333161  0.61913322  1
  In  In64  1  0.50149032  0.66216822  0.12335329  1
  In  In65  1  0.50439122  0.64918602  0.62451495  1
  In  In66  1  0.85079525  -0.01124874  0.12710623  1
  In  In67  1  0.82950661  -0.00560598  0.62446613  1
  In  In68  1  0.83084530  0.34792362  0.12605850  1
  In  In69  1  0.83364064  0.33320214  0.62881697  1
  In  In70  1  0.83297888  0.66789985  0.12763502  1
  In  In71  1  0.83140538  0.66552153  0.61157588  1
  In  In72  1  0.16393608  0.16223402  0.50820759  1
  In  In73  1  0.83020707  0.16693915  -0.00695120  1
  In  In74  1  0.66838836  0.33769847  0.25102775  1
  In  In75  1  0.16446406  0.82705513  -0.00127408  1
  In  In76  1  0.50786982  0.16390263  -0.00580846  1
  In  In77  1  0.67249301  0.66356983  0.74419117  1
  In  In78  1  0.32871255  0.00107375  0.24499203  1
  In  In79  1  0.16746569  0.50097795  -0.00031354  1
  In  In80  1  0.33023526  0.33051840  0.74878204  1
  In  In81  1  0.67310228  -0.00502069  0.25542542  1
  In  In82  1  0.00314421  0.00157248  0.74723566  1
  In  In83  1  0.50142920  0.83201428  0.49799380  1
  In  In84  1  0.16065202  0.50536428  0.49404252  1
  In  In85  1  0.16576440  0.16693075  0.00688362  1
  Cu  Cu86  1  0.34433740  0.33251175  0.50295117  1
  Cu  Cu87  1  0.84170760  0.16588104  0.25685785  1
  Cu  Cu88  1  -0.00807073  0.33792629  -0.00299710  1
  Cu  Cu89  1  0.66392289  0.34117643  -0.00195723  1
  Cu  Cu90  1  -0.00503680  0.33434108  0.50361536  1
  Cu  Cu91  1  0.66985537  -0.00444856  -0.00658618  1
  Cu  Cu92  1  0.83525391  0.82794328  0.25474709  1
  Cu  Cu93  1  0.50260998  0.82022060  0.24567557  1
  Cu  Cu94  1  0.34242120  0.66690622  0.00026816  1
  Cu  Cu95  1  0.16681439  0.83015762  0.74663890  1
  Cu  Cu96  1  0.66200883  0.01001215  0.50801092  1
  Cu  Cu97  1  0.66784382  0.66694699  -0.00298449  1
  Cu  Cu98  1  -0.00535836  -0.00323703  0.50179240  1
  Cu  Cu99  1  0.16360427  0.50300632  0.25442794  1
  Cu  Cu100  1  0.16279281  0.50305704  0.75118160  1
  Cu  Cu101  1  0.34113409  -0.00301217  -0.00865860  1
  Cu  Cu102  1  0.33204911  -0.00174866  0.50510735  1
  Cu  Cu103  1  0.83734798  0.83001681  0.74423374  1
  Cu  Cu104  1  0.49960647  0.50399558  0.74944248  1
  Cu  Cu105  1  0.50103807  0.16418998  0.74690146  1
  Cu  Cu106  1  0.50268602  0.50396371  0.25219319  1
  Cu  Cu107  1  0.49912630  0.83450270  0.74928110  1
  Cu  Cu108  1  0.33395547  0.66323537  0.49602719  1
  Cu  Cu109  1  0.16050233  0.83394673  0.25347994  1
  Cu  Cu110  1  0.83463916  0.50281574  0.25202463  1
  Cu  Cu111  1  0.49467291  0.17452983  0.25592049  1
  Cu  Cu112  1  -0.00755197  0.66178823  0.00364595  1
  Cu  Cu113  1  0.16234877  0.17279932  0.25356797  1
  Cu  Cu114  1  0.67309503  0.32966341  0.50455115  1
  Se  Se115  1  0.07072033  0.07263185  0.05672428  1
  Se  Se116  1  0.07162580  0.07449607  0.56695661  1
  Se  Se117  1  0.07404806  0.41298267  0.05976298  1
  Se  Se118  1  0.07753885  0.41612391  0.55968271  1
  Se  Se119  1  0.07843366  0.73876026  0.06259297  1
  Se  Se120  1  0.09175420  0.75365072  0.54668115  1
  Se  Se121  1  0.41279996  0.07732812  0.05835955  1
  Se  Se122  1  0.41381654  0.08537588  0.55356243  1
  Se  Se123  1  0.41757595  0.42499987  0.04901980  1
  Se  Se124  1  0.42544539  0.42189388  0.55116981  1
  Se  Se125  1  0.42161231  0.75273558  0.05464495  1
  Se  Se126  1  0.41234927  0.74284413  0.55977331  1
  Se  Se127  1  0.74623272  0.07279189  0.05892374  1
  Se  Se128  1  0.75166339  0.08687827  0.55949704  1
  Se  Se129  1  0.75437898  0.41927237  0.04920876  1
  Se  Se130  1  0.75587914  0.41544320  0.55550786  1
  Se  Se131  1  0.75231472  0.74717553  0.05372301  1
  Se  Se132  1  0.75018627  0.74840264  0.54224307  1
  Se  Se133  1  0.25821114  0.26256277  0.05805283  1
  Se  Se134  1  0.25726572  0.25896047  0.56199648  1
  Se  Se135  1  0.25601350  0.59222615  0.06017075  1
  Se  Se136  1  0.25508243  0.58519992  0.55992167  1
  Se  Se137  1  0.25985684  0.92201710  0.05556904  1
  Se  Se138  1  0.24685595  0.91425023  0.55345321  1
  Se  Se139  1  0.58756633  0.26053864  0.06060944  1
  Se  Se140  1  0.58517270  0.24637309  0.55474322  1
  Se  Se141  1  0.58313036  0.58356804  0.05070379  1
  Se  Se142  1  0.58656776  0.58538957  0.54922766  1
  Se  Se143  1  0.58174985  0.91618474  0.04599703  1
  Se  Se144  1  0.58592969  0.92007912  0.56382138  1
  Se  Se145  1  0.91879151  0.25356132  0.05985854  1
  Se  Se146  1  0.91484224  0.24790934  0.55618869  1
  Se  Se147  1  0.91234264  0.57788770  0.05875736  1
  Se  Se148  1  0.91951721  0.57530558  0.55267096  1
  Se  Se149  1  0.91816599  0.90773637  0.05216630  1
  Se  Se150  1  0.90712699  0.91367070  0.55158184  1
  Se  Se151  1  0.08115623  0.25613925  0.44471871  1
  Se  Se152  1  0.07449499  0.25540002  0.94194472  1
  Se  Se153  1  0.06609004  0.59920771  0.44467017  1
  Se  Se154  1  0.07503460  0.58788349  0.93980805  1
  Se  Se155  1  0.07768109  0.91385658  0.44822486  1
  Se  Se156  1  0.07290170  0.92127723  0.94497563  1
  Se  Se157  1  0.42198796  0.24701705  0.44731899  1
  Se  Se158  1  0.41103910  0.25870349  0.94629769  1
  Se  Se159  1  0.41703137  0.57924707  0.44436366  1
  Se  Se160  1  0.42065290  0.58295076  0.94452684  1
  Se  Se161  1  0.40726614  0.92122836  0.43782338  1
  Se  Se162  1  0.42432911  0.91566710  0.93887914  1
  Se  Se163  1  0.75636509  0.24578173  0.45191203  1
  Se  Se164  1  0.74300290  0.26098032  0.93618133  1
  Se  Se165  1  0.77484698  0.56710984  0.44878456  1
  Se  Se166  1  0.75041012  0.58160170  0.94483304  1
  Se  Se167  1  0.73824578  0.93076557  0.44548444  1
  Se  Se168  1  0.75601082  0.91257019  0.94325105  1
  Se  Se169  1  0.25269964  0.07716241  0.44038988  1
  Se  Se170  1  0.25484788  0.07898873  0.93983547  1
  Se  Se171  1  0.25795208  0.40884526  0.44375640  1
  Se  Se172  1  0.25949630  0.40838900  0.94377583  1
  Se  Se173  1  0.24886989  0.74929487  0.44830957  1
  Se  Se174  1  0.25895138  0.74333411  0.93803791  1
  Se  Se175  1  0.57370030  0.08687274  0.45400181  1
  Se  Se176  1  0.60232103  0.08505038  0.93135300  1
  Se  Se177  1  0.58862261  0.41229741  0.45002891  1
  Se  Se178  1  0.57968792  0.42278757  0.94517951  1
  Se  Se179  1  0.58660028  0.73921057  0.43933652  1
  Se  Se180  1  0.58494357  0.75357506  0.94599661  1
  Se  Se181  1  0.91709028  0.08877619  0.45065733  1
  Se  Se182  1  0.92427108  0.07273615  0.94210683  1
  Se  Se183  1  0.91809648  0.41905515  0.44731310  1
  Se  Se184  1  0.91193658  0.41933414  0.94045880  1
  Se  Se185  1  0.88886570  0.77068904  0.44241440  1
  Se  Se186  1  0.91410050  0.74765606  0.94856503  1
  Se  Se187  1  0.25179057  0.25492240  0.30078170  1
  Se  Se188  1  0.24420168  0.24477352  0.81417844  1
  Se  Se189  1  0.24762157  0.58677605  0.30695036  1
  Se  Se190  1  0.25163828  0.58388194  0.80082193  1
  Se  Se191  1  0.24457377  0.91488856  0.31214682  1
  Se  Se192  1  0.24956556  0.91661748  0.79763251  1
  Se  Se193  1  0.58277284  0.24659211  0.31425888  1
  Se  Se194  1  0.57948385  0.25394493  0.79830077  1
  Se  Se195  1  0.58989203  0.57979412  0.30756904  1
  Se  Se196  1  0.58016896  0.58369051  0.81035424  1
  Se  Se197  1  0.57820468  0.90059353  0.30931267  1
  Se  Se198  1  0.58728338  0.91606256  0.79921581  1
  Se  Se199  1  0.91901496  0.25516264  0.30859987  1
  Se  Se200  1  0.90402961  0.24478791  0.79831663  1
  Se  Se201  1  0.91911152  0.58710183  0.30346448  1
  Se  Se202  1  0.92131913  0.59475383  0.79866170  1
  Se  Se203  1  0.91627059  0.91854838  0.30410757  1
  Se  Se204  1  0.91525022  0.90817198  0.80843789  1
  Se  Se205  1  0.07986682  0.08487186  0.30218562  1
  Se  Se206  1  0.08779539  0.08774728  0.81493942  1
  Se  Se207  1  0.07999191  0.41849100  0.30604568  1
  Se  Se208  1  0.07939261  0.41638428  0.80063110  1
  Se  Se209  1  0.07942673  0.75125623  0.30886466  1
  Se  Se210  1  0.08128660  0.74928248  0.80043024  1
  Se  Se211  1  0.41866694  0.08563221  0.31161170  1
  Se  Se212  1  0.41771841  0.08091002  0.79978288  1
  Se  Se213  1  0.41898943  0.41735450  0.30343031  1
  Se  Se214  1  0.42027757  0.42122385  0.80955642  1
  Se  Se215  1  0.41415527  0.74266948  0.29855155  1
  Se  Se216  1  0.41674587  0.74813057  0.80055466  1
  Se  Se217  1  0.75722345  0.08898671  0.31552310  1
  Se  Se218  1  0.75098616  0.07360324  0.79363277  1
  Se  Se219  1  0.75384886  0.42462581  0.31407262  1
  Se  Se220  1  0.73885005  0.41537777  0.79629674  1
  Se  Se221  1  0.74895361  0.74439224  0.30339665  1
  Se  Se222  1  0.75635637  0.75382511  0.80870934  1
  Se  Se223  1  0.23669836  0.09365122  0.18627129  1
  Se  Se224  1  0.24200484  0.08649045  0.70132275  1
  Se  Se225  1  0.24697822  0.42312146  0.19648885  1
  Se  Se226  1  0.24297877  0.42553430  0.68814062  1
  Se  Se227  1  0.24875426  0.75319963  0.20220835  1
  Se  Se228  1  0.25020424  0.74601087  0.69369870  1
  Se  Se229  1  0.57727198  0.09255723  0.19852175  1
  Se  Se230  1  0.58637419  0.08234544  0.69456089  1
  Se  Se231  1  0.58301766  0.42764509  0.18795502  1
  Se  Se232  1  0.58433029  0.42622022  0.69397693  1
  Se  Se233  1  0.58967231  0.74283986  0.19221144  1
  Se  Se234  1  0.57832000  0.75589174  0.68668284  1
  Se  Se235  1  0.91638811  0.08102552  0.19803922  1
  Se  Se236  1  0.90678716  0.08964744  0.69323171  1
  Se  Se237  1  0.91559989  0.41414972  0.20101124  1
  Se  Se238  1  0.94247370  0.39038143  0.69220818  1
  Se  Se239  1  0.91832375  0.74519753  0.19947305  1
  Se  Se240  1  0.91166400  0.74448866  0.68712044  1
  Se  Se241  1  0.07839876  0.25533127  0.19890476  1
  Se  Se242  1  0.10382797  0.22848026  0.70066771  1
  Se  Se243  1  0.07924716  0.58680045  0.20267745  1
  Se  Se244  1  0.08192559  0.58812866  0.69741000  1
  Se  Se245  1  0.07844952  0.91805872  0.20053939  1
  Se  Se246  1  0.08117809  0.90371026  0.68503636  1
  Se  Se247  1  0.41525724  0.25764459  0.20076059  1
  Se  Se248  1  0.42336419  0.24787736  0.68563362  1
  Se  Se249  1  0.41775773  0.58525740  0.19659617  1
  Se  Se250  1  0.41411480  0.58752251  0.69989399  1
  Se  Se251  1  0.42654008  0.91097806  0.18978513  1
  Se  Se252  1  0.41408486  0.91783134  0.69548682  1
  Se  Se253  1  0.75951326  0.24022043  0.19347493  1
  Se  Se254  1  0.73580537  0.26898690  0.69761318  1
  Se  Se255  1  0.74963143  0.58359153  0.19732601  1
  Se  Se256  1  0.76267901  0.57326073  0.68832018  1
  Se  Se257  1  0.75359598  0.90498501  0.19025310  1
  Se  Se258  1  0.74927560  0.91256997  0.69626974  1
