# generated using pymatgen
data_In86Cu29Se144
_symmetry_space_group_name_H-M   'P 1'
_cell_length_a   17.57346955
_cell_length_b   17.57651532
_cell_length_c   23.43595233
_cell_angle_alpha   89.98020185
_cell_angle_beta   89.97490623
_cell_angle_gamma   90.00282304
_symmetry_Int_Tables_number   1
_chemical_formula_structural   In86Cu29Se144
_chemical_formula_sum   'In86 Cu29 Se144'
_cell_volume   7238.90418154
_cell_formula_units_Z   1
loop_
 _symmetry_equiv_pos_site_id
 _symmetry_equiv_pos_as_xyz
  1  'x, y, z'
loop_
 _atom_site_type_symbol
 _atom_site_label
 _atom_site_symmetry_multiplicity
 _atom_site_fract_x
 _atom_site_fract_y
 _atom_site_fract_z
 _atom_site_occupancy
  In  In0  1  -0.00644323  0.18341258  0.12248504  1
  In  In1  1  -0.02778410  0.18963746  0.64176284  1
  In  In2  1  -0.02778903  0.45543493  0.08562179  1
  In  In3  1  -0.00983274  0.47866955  0.63201889  1
  In  In4  1  -0.01062376  0.84739171  0.11822185  1
  In  In5  1  0.01073923  0.83853005  0.63232020  1
  In  In6  1  0.34279741  0.17081612  0.14100186  1
  In  In7  1  0.34545562  0.16255681  0.62339920  1
  In  In8  1  0.32463496  0.49108226  0.11368810  1
  In  In9  1  0.35339552  0.48323323  0.64206043  1
  In  In10  1  0.35339732  0.82468664  0.12272817  1
  In  In11  1  0.33905075  0.82190602  0.62981983  1
  In  In12  1  0.66726667  0.16001297  0.13179237  1
  In  In13  1  0.65922090  0.16771389  0.61840185  1
  In  In14  1  0.67193955  0.49712817  0.11835326  1
  In  In15  1  0.66690721  0.51104436  0.63794927  1
  In  In16  1  0.65968726  0.83775590  0.12314985  1
  In  In17  1  0.66123161  0.83345488  0.62477458  1
  In  In18  1  0.17649031  -0.00893563  0.37651168  1
  In  In19  1  0.16205822  0.01820009  0.87407352  1
  In  In20  1  0.16551934  0.32661867  0.36900732  1
  In  In21  1  0.17151136  0.34041117  0.87077526  1
  In  In22  1  0.16908433  0.66645351  0.37492071  1
  In  In23  1  0.16460555  0.64361397  0.87506459  1
  In  In24  1  0.50295208  0.00274900  0.37322161  1
  In  In25  1  0.50619427  -0.01138506  0.88015782  1
  In  In26  1  0.50340282  0.33907976  0.37314747  1
  In  In27  1  0.50796079  0.36554782  0.87034485  1
  In  In28  1  0.51187252  0.65381815  0.38386311  1
  In  In29  1  0.51063936  0.66222914  0.86870685  1
  In  In30  1  0.83264451  0.01979094  0.37681448  1
  In  In31  1  0.82511484  -0.00257637  0.86839028  1
  In  In32  1  0.82716164  0.32654164  0.36582199  1
  In  In33  1  0.83650436  0.32291192  0.89610097  1
  In  In34  1  0.82030846  0.67727233  0.37171538  1
  In  In35  1  0.82385927  0.67249149  0.88016358  1
  In  In36  1  -0.01297395  0.17365352  0.38017641  1
  In  In37  1  -0.01350691  0.16798273  0.86657209  1
  In  In38  1  -0.00015850  0.48889715  0.36824799  1
  In  In39  1  -0.00021728  0.48572364  0.88988399  1
  In  In40  1  0.00043913  0.84408959  0.37591484  1
  In  In41  1  -0.02027826  0.83247699  0.87516127  1
  In  In42  1  0.36279814  0.18810564  0.35122670  1
  In  In43  1  0.32441227  0.17218164  0.87351895  1
  In  In44  1  0.34696775  0.50549436  0.37505996  1
  In  In45  1  0.33885564  0.49602110  0.86760703  1
  In  In46  1  0.34229727  0.85180316  0.36898766  1
  In  In47  1  0.36050622  0.83129228  0.87888273  1
  In  In48  1  0.66537950  0.17020289  0.36961804  1
  In  In49  1  0.70340012  0.17554727  0.86742823  1
  In  In50  1  0.65939022  0.48616735  0.36056428  1
  In  In51  1  0.65807959  0.50238368  0.88764714  1
  In  In52  1  0.65448187  0.82304514  0.36714712  1
  In  In53  1  0.66522181  0.83321976  0.87306681  1
  In  In54  1  0.16478298  0.01390129  0.12454890  1
  In  In55  1  0.16382743  -0.00912036  0.62927646  1
  In  In56  1  0.16563725  0.33358971  0.12762040  1
  In  In57  1  0.15970400  0.33312361  0.62726468  1
  In  In58  1  0.17496305  0.64851787  0.12093412  1
  In  In59  1  0.17720929  0.68148338  0.63344738  1
  In  In60  1  0.51200325  -0.00125585  0.13840643  1
  In  In61  1  0.51455637  0.00619921  0.61586000  1
  In  In62  1  0.49490631  0.33500184  0.13184551  1
  In  In63  1  0.50030463  0.32689339  0.62132358  1
  In  In64  1  0.51090130  0.67065991  0.11748996  1
  In  In65  1  0.50078865  0.66356602  0.62623410  1
  In  In66  1  0.82074404  -0.01097953  0.11441741  1
  In  In67  1  0.81020591  0.02435181  0.64413818  1
  In  In68  1  0.83054288  0.32819257  0.11860898  1
  In  In69  1  0.83623603  0.33316336  0.63438489  1
  In  In70  1  0.81416705  0.66038202  0.11598326  1
  In  In71  1  0.81396747  0.64514799  0.63903592  1
  In  In72  1  0.83568634  0.83886276  0.50372896  1
  In  In73  1  -0.00231573  0.00893485  0.25616252  1
  In  In74  1  -0.00041526  0.66373072  0.75332503  1
  In  In75  1  0.82482236  0.49017365  0.50460079  1
  In  In76  1  0.66953717  0.34037927  0.75785744  1
  In  In77  1  0.17878604  0.83460176  0.50083004  1
  In  In78  1  0.16379717  0.17454530  0.00137220  1
  In  In79  1  0.16493246  0.82693956  -0.00520027  1
  In  In80  1  0.17302850  0.49812533  0.51368009  1
  In  In81  1  0.50578275  0.16780556  0.00244095  1
  In  In82  1  -0.00602035  0.65301254  0.23307019  1
  In  In83  1  0.17055890  0.16468510  0.49563580  1
  In  In84  1  0.33831699  0.66351407  0.24982357  1
  In  In85  1  0.33475092  0.00206127  0.75042146  1
  Cu  Cu86  1  0.81529087  0.83387183  0.24344169  1
  Cu  Cu87  1  0.34943766  0.66766001  0.50577389  1
  Cu  Cu88  1  0.66739263  0.00246012  -0.00139982  1
  Cu  Cu89  1  0.16290363  0.82808736  0.25078792  1
  Cu  Cu90  1  0.66339134  0.66131939  0.50184615  1
  Cu  Cu91  1  -0.00655523  0.01291347  0.51238957  1
  Cu  Cu92  1  0.16973139  0.83767884  0.76029743  1
  Cu  Cu93  1  0.83255310  0.83584209  0.75179768  1
  Cu  Cu94  1  0.16523956  0.50023425  0.75414821  1
  Cu  Cu95  1  0.17109876  0.16635038  0.24817097  1
  Cu  Cu96  1  0.16476035  0.48358755  0.24343422  1
  Cu  Cu97  1  -0.00311057  0.65673811  0.50316748  1
  Cu  Cu98  1  0.34345476  0.65754158  -0.00718189  1
  Cu  Cu99  1  0.34907233  0.00403355  0.49415825  1
  Cu  Cu100  1  -0.00156159  0.66838703  -0.00461799  1
  Cu  Cu101  1  0.34028755  0.33745230  0.49773154  1
  Cu  Cu102  1  0.67135093  0.00289086  0.49663002  1
  Cu  Cu103  1  0.33721068  -0.00742289  0.00964585  1
  Cu  Cu104  1  0.83519851  0.49555836  0.23562290  1
  Cu  Cu105  1  -0.01659755  0.00265034  -0.00946154  1
  Cu  Cu106  1  0.65855553  0.67331806  -0.00116478  1
  Cu  Cu107  1  0.66228753  0.32939459  0.49305181  1
  Cu  Cu108  1  0.33831227  0.33583455  -0.00404058  1
  Cu  Cu109  1  0.50377574  0.17146405  0.74998928  1
  Cu  Cu110  1  0.83620669  0.16902011  0.24790371  1
  Cu  Cu111  1  0.50261290  0.50010247  0.24586555  1
  Cu  Cu112  1  0.50292651  0.83614557  0.24804823  1
  Cu  Cu113  1  0.50780775  0.82876402  0.74999127  1
  Cu  Cu114  1  0.15813557  0.17503766  0.75179635  1
  Se  Se115  1  0.06730285  0.07666216  0.05293526  1
  Se  Se116  1  0.08463943  0.08639524  0.56674183  1
  Se  Se117  1  0.10333304  0.41243278  0.04839254  1
  Se  Se118  1  0.06815267  0.40442439  0.55308905  1
  Se  Se119  1  0.07789168  0.74453485  0.06308466  1
  Se  Se120  1  0.07921843  0.74344191  0.55665203  1
  Se  Se121  1  0.41362313  0.08029736  0.06512781  1
  Se  Se122  1  0.42651116  0.08911144  0.55037747  1
  Se  Se123  1  0.42197815  0.41379787  0.05371062  1
  Se  Se124  1  0.41899594  0.41896099  0.55580515  1
  Se  Se125  1  0.42136051  0.74491699  0.04645408  1
  Se  Se126  1  0.42696030  0.75775753  0.55614963  1
  Se  Se127  1  0.74645474  0.08778957  0.05377273  1
  Se  Se128  1  0.75052541  0.08479998  0.55413975  1
  Se  Se129  1  0.77373949  0.43522610  0.05142237  1
  Se  Se130  1  0.73132426  0.40528045  0.56564149  1
  Se  Se131  1  0.74276081  0.75785671  0.05195909  1
  Se  Se132  1  0.75182656  0.73618620  0.55928365  1
  Se  Se133  1  0.26671708  0.25069700  0.05978175  1
  Se  Se134  1  0.25819560  0.25889910  0.55805254  1
  Se  Se135  1  0.25187234  0.58003597  0.04272000  1
  Se  Se136  1  0.26144697  0.59554800  0.56600065  1
  Se  Se137  1  0.24857240  0.91506250  0.06362789  1
  Se  Se138  1  0.26845895  0.92814755  0.55991010  1
  Se  Se139  1  0.59099979  0.25809129  0.06362417  1
  Se  Se140  1  0.57726671  0.24708113  0.54741255  1
  Se  Se141  1  0.58365271  0.57901211  0.05036050  1
  Se  Se142  1  0.58618704  0.57780752  0.55966480  1
  Se  Se143  1  0.58020400  0.92705194  0.05591894  1
  Se  Se144  1  0.59119988  0.91540865  0.54875997  1
  Se  Se145  1  0.91498443  0.24986453  0.04655883  1
  Se  Se146  1  0.90723802  0.25543502  0.55732256  1
  Se  Se147  1  0.92960875  0.59605855  0.06644374  1
  Se  Se148  1  0.91600050  0.58385654  0.56489792  1
  Se  Se149  1  0.90606180  0.91291895  0.04253096  1
  Se  Se150  1  0.91961045  0.92393146  0.56986836  1
  Se  Se151  1  0.07617926  0.26098020  0.44576591  1
  Se  Se152  1  0.07742941  0.25483274  0.93474393  1
  Se  Se153  1  0.08057443  0.58197943  0.44289168  1
  Se  Se154  1  0.08286681  0.57897597  0.95186187  1
  Se  Se155  1  0.07567906  0.93089585  0.45215934  1
  Se  Se156  1  0.07708477  0.92531003  0.93869639  1
  Se  Se157  1  0.41832477  0.25310447  0.44113276  1
  Se  Se158  1  0.41689552  0.25398529  0.93690669  1
  Se  Se159  1  0.42381990  0.57676023  0.45270897  1
  Se  Se160  1  0.42404913  0.57764400  0.93616948  1
  Se  Se161  1  0.42754994  0.91234298  0.44588732  1
  Se  Se162  1  0.42435088  0.91589681  0.95531917  1
  Se  Se163  1  0.75052152  0.25011941  0.44125507  1
  Se  Se164  1  0.73647876  0.24948742  0.95742462  1
  Se  Se165  1  0.74292170  0.58357195  0.43850284  1
  Se  Se166  1  0.74638940  0.58921277  0.95106534  1
  Se  Se167  1  0.74773827  0.91828595  0.43510660  1
  Se  Se168  1  0.74699282  0.91721245  0.94262366  1
  Se  Se169  1  0.26470658  0.08125850  0.43615701  1
  Se  Se170  1  0.26017506  0.07543589  0.94965594  1
  Se  Se171  1  0.25359822  0.41445325  0.43993514  1
  Se  Se172  1  0.25499660  0.41784969  0.94180920  1
  Se  Se173  1  0.26782449  0.74306510  0.44033110  1
  Se  Se174  1  0.25966638  0.74173096  0.93557687  1
  Se  Se175  1  0.58773490  0.08459696  0.44153009  1
  Se  Se176  1  0.59405607  0.08512673  0.93551750  1
  Se  Se177  1  0.58519908  0.42265673  0.44364916  1
  Se  Se178  1  0.58424495  0.41079858  0.95586137  1
  Se  Se179  1  0.58543111  0.75035318  0.44880839  1
  Se  Se180  1  0.57729876  0.75438138  0.94161218  1
  Se  Se181  1  0.91269052  0.09053446  0.45333260  1
  Se  Se182  1  0.90497103  0.08667053  0.93678692  1
  Se  Se183  1  0.91629610  0.40909532  0.43983856  1
  Se  Se184  1  0.90252454  0.42685882  0.96192078  1
  Se  Se185  1  0.92531834  0.74278601  0.44175620  1
  Se  Se186  1  0.91039046  0.75253465  0.95059121  1
  Se  Se187  1  0.25299045  0.25621427  0.29690435  1
  Se  Se188  1  0.24956502  0.25308489  0.80096992  1
  Se  Se189  1  0.23876096  0.57147110  0.30378573  1
  Se  Se190  1  0.25347953  0.58409240  0.80023406  1
  Se  Se191  1  0.24737380  0.91512561  0.29826720  1
  Se  Se192  1  0.25164466  0.91644852  0.82082444  1
  Se  Se193  1  0.58335296  0.25610048  0.30430562  1
  Se  Se194  1  0.57919608  0.24610495  0.81659115  1
  Se  Se195  1  0.58200113  0.58597696  0.30082004  1
  Se  Se196  1  0.59094539  0.57307528  0.80407348  1
  Se  Se197  1  0.58556327  0.92032891  0.30170858  1
  Se  Se198  1  0.58433014  0.91846828  0.80270207  1
  Se  Se199  1  0.92259381  0.25077819  0.29962622  1
  Se  Se200  1  0.90331876  0.26175769  0.80901127  1
  Se  Se201  1  0.90478886  0.57723975  0.30675763  1
  Se  Se202  1  0.91758972  0.58056876  0.82105867  1
  Se  Se203  1  0.90118900  0.90965549  0.30626344  1
  Se  Se204  1  0.91845764  0.91998918  0.80020652  1
  Se  Se205  1  0.09341974  0.09369186  0.31698359  1
  Se  Se206  1  0.07769876  0.08615934  0.80113596  1
  Se  Se207  1  0.07905335  0.40599827  0.29975402  1
  Se  Se208  1  0.07826008  0.42163481  0.80791567  1
  Se  Se209  1  0.07799996  0.74926656  0.30670433  1
  Se  Se210  1  0.08830566  0.75435036  0.81736526  1
  Se  Se211  1  0.39406855  0.05775752  0.30967607  1
  Se  Se212  1  0.42434772  0.08924501  0.81253454  1
  Se  Se213  1  0.41745826  0.42191821  0.30247351  1
  Se  Se214  1  0.40609210  0.40107429  0.79814136  1
  Se  Se215  1  0.42700130  0.75172439  0.31115011  1
  Se  Se216  1  0.42173252  0.74761347  0.80168869  1
  Se  Se217  1  0.75145665  0.08610064  0.30028468  1
  Se  Se218  1  0.74154628  0.07357118  0.79594989  1
  Se  Se219  1  0.75429697  0.41478017  0.29519192  1
  Se  Se220  1  0.75641730  0.41788144  0.82648641  1
  Se  Se221  1  0.73863911  0.74375496  0.29581507  1
  Se  Se222  1  0.75021891  0.75107428  0.80389178  1
  Se  Se223  1  0.25164953  0.07929676  0.19734053  1
  Se  Se224  1  0.24111218  0.09397255  0.69241181  1
  Se  Se225  1  0.25979617  0.41017537  0.19307335  1
  Se  Se226  1  0.24244289  0.41584083  0.69514457  1
  Se  Se227  1  0.24378419  0.75179720  0.18865183  1
  Se  Se228  1  0.25472876  0.75793174  0.70754022  1
  Se  Se229  1  0.56787269  0.10289546  0.20233098  1
  Se  Se230  1  0.58149165  0.08735957  0.69363433  1
  Se  Se231  1  0.58796072  0.42021056  0.19156067  1
  Se  Se232  1  0.57276301  0.41900475  0.69448980  1
  Se  Se233  1  0.58234201  0.75000361  0.19385988  1
  Se  Se234  1  0.58873467  0.74472706  0.69477981  1
  Se  Se235  1  0.91061715  0.08406693  0.18532033  1
  Se  Se236  1  0.93409548  0.06607950  0.69234902  1
  Se  Se237  1  0.92113032  0.41274060  0.18524613  1
  Se  Se238  1  0.89173567  0.43394101  0.70364963  1
  Se  Se239  1  0.90658966  0.75883403  0.18667987  1
  Se  Se240  1  0.90886086  0.75149716  0.68928629  1
  Se  Se241  1  0.08526147  0.24617842  0.19479102  1
  Se  Se242  1  0.07488005  0.26124511  0.70058127  1
  Se  Se243  1  0.08559537  0.56008247  0.18122964  1
  Se  Se244  1  0.08801087  0.57738280  0.68681057  1
  Se  Se245  1  0.08450894  0.91376087  0.19307169  1
  Se  Se246  1  0.08696442  0.91795121  0.70644047  1
  Se  Se247  1  0.43532694  0.24160667  0.20666269  1
  Se  Se248  1  0.41753643  0.24865166  0.69505742  1
  Se  Se249  1  0.42085203  0.57734946  0.18321258  1
  Se  Se250  1  0.40230164  0.60054434  0.69461616  1
  Se  Se251  1  0.41392163  0.91467460  0.19617024  1
  Se  Se252  1  0.42800764  0.91591174  0.69104265  1
  Se  Se253  1  0.75262793  0.25075203  0.19359482  1
  Se  Se254  1  0.74665112  0.24200572  0.69470006  1
  Se  Se255  1  0.74578089  0.58320189  0.19434785  1
  Se  Se256  1  0.74257388  0.57684295  0.71936569  1
  Se  Se257  1  0.73899403  0.92529885  0.19346007  1
  Se  Se258  1  0.74540161  0.91184850  0.69570107  1
