# generated using pymatgen
data_In86Cu29Se144
_symmetry_space_group_name_H-M   'P 1'
_cell_length_a   17.59039207
_cell_length_b   17.58716272
_cell_length_c   23.45254259
_cell_angle_alpha   89.99558631
_cell_angle_beta   90.00345778
_cell_angle_gamma   89.98878186
_symmetry_Int_Tables_number   1
_chemical_formula_structural   In86Cu29Se144
_chemical_formula_sum   'In86 Cu29 Se144'
_cell_volume   7255.39771931
_cell_formula_units_Z   1
loop_
 _symmetry_equiv_pos_site_id
 _symmetry_equiv_pos_as_xyz
  1  'x, y, z'
loop_
 _atom_site_type_symbol
 _atom_site_label
 _atom_site_symmetry_multiplicity
 _atom_site_fract_x
 _atom_site_fract_y
 _atom_site_fract_z
 _atom_site_occupancy
  In  In0  1  -0.02083217  0.15481091  0.12628243  1
  In  In1  1  -0.01839172  0.14650677  0.61522171  1
  In  In2  1  -0.00445760  0.51827488  0.12539964  1
  In  In3  1  0.00756685  0.49705513  0.62429497  1
  In  In4  1  -0.00229176  0.84912105  0.13023515  1
  In  In5  1  0.00635838  0.84031545  0.61816994  1
  In  In6  1  0.32761777  0.15635159  0.11981787  1
  In  In7  1  0.33697614  0.16429240  0.62389954  1
  In  In8  1  0.34575229  0.49006757  0.12516367  1
  In  In9  1  0.33134385  0.48844689  0.62032465  1
  In  In10  1  0.34949021  0.84497753  0.12100059  1
  In  In11  1  0.33880142  0.84271160  0.61960034  1
  In  In12  1  0.67390329  0.17240983  0.12020082  1
  In  In13  1  0.67911617  0.17286851  0.61742032  1
  In  In14  1  0.67140763  0.48970661  0.13233054  1
  In  In15  1  0.66003894  0.50473892  0.63055435  1
  In  In16  1  0.65930835  0.83056927  0.12336893  1
  In  In17  1  0.66126815  0.83651321  0.61330235  1
  In  In18  1  0.16620520  0.00075085  0.37697129  1
  In  In19  1  0.16940006  0.00581177  0.86010412  1
  In  In20  1  0.16752509  0.33103073  0.38943422  1
  In  In21  1  0.17059078  0.31863622  0.86831631  1
  In  In22  1  0.15264824  0.67663037  0.40190005  1
  In  In23  1  0.16690139  0.66573107  0.86872907  1
  In  In24  1  0.49898684  0.01363448  0.38942343  1
  In  In25  1  0.49061291  0.00795357  0.88546861  1
  In  In26  1  0.50779134  0.32625322  0.38264867  1
  In  In27  1  0.48907682  0.31325906  0.86454660  1
  In  In28  1  0.50732362  0.66087748  0.37951638  1
  In  In29  1  0.51621646  0.66504478  0.87210455  1
  In  In30  1  0.83403375  -0.00648188  0.38307091  1
  In  In31  1  0.83766388  -0.00564225  0.87648130  1
  In  In32  1  0.81923317  0.32905250  0.37209474  1
  In  In33  1  0.82632966  0.33702626  0.87877225  1
  In  In34  1  0.82811415  0.68041833  0.37750662  1
  In  In35  1  0.81005224  0.68273381  0.88085376  1
  In  In36  1  0.00575265  0.16229042  0.37935327  1
  In  In37  1  -0.00005796  0.15367354  0.87142031  1
  In  In38  1  0.00322925  0.51364900  0.38509716  1
  In  In39  1  -0.01308818  0.48607221  0.87147464  1
  In  In40  1  -0.01407470  0.84462404  0.38964976  1
  In  In41  1  -0.02381788  0.84773618  0.86978106  1
  In  In42  1  0.33924008  0.15730562  0.38020025  1
  In  In43  1  0.33795297  0.16414874  0.86794419  1
  In  In44  1  0.33169274  0.50606636  0.38719421  1
  In  In45  1  0.34853009  0.48693542  0.87306867  1
  In  In46  1  0.32576307  0.84166968  0.38060211  1
  In  In47  1  0.33564330  0.84500056  0.87151278  1
  In  In48  1  0.65977001  0.16419898  0.38688189  1
  In  In49  1  0.65703597  0.17114571  0.87716744  1
  In  In50  1  0.65896995  0.48946606  0.36840262  1
  In  In51  1  0.67159905  0.50789237  0.86780417  1
  In  In52  1  0.67770453  0.83460829  0.38499468  1
  In  In53  1  0.67230198  0.83146587  0.87620142  1
  In  In54  1  0.16757669  -0.00197262  0.13511550  1
  In  In55  1  0.16824649  0.00144740  0.62154133  1
  In  In56  1  0.17109703  0.32960766  0.12965679  1
  In  In57  1  0.17753425  0.33534791  0.61942727  1
  In  In58  1  0.16715219  0.66701747  0.12765354  1
  In  In59  1  0.16246799  0.67112112  0.60771424  1
  In  In60  1  0.49591673  0.00189649  0.11616516  1
  In  In61  1  0.49711083  -0.01241555  0.61501204  1
  In  In62  1  0.51025656  0.33649669  0.12134896  1
  In  In63  1  0.50253551  0.32995665  0.62569105  1
  In  In64  1  0.50086450  0.68347620  0.12785030  1
  In  In65  1  0.51483855  0.67433566  0.61929946  1
  In  In66  1  0.84174074  0.00820279  0.11928151  1
  In  In67  1  0.83094287  0.01103660  0.61829395  1
  In  In68  1  0.80953749  0.31759685  0.11244715  1
  In  In69  1  0.82897416  0.30978915  0.63019485  1
  In  In70  1  0.82163470  0.65927232  0.12019595  1
  In  In71  1  0.82033355  0.67338035  0.62890385  1
  In  In72  1  0.66800280  0.00046353  0.25628085  1
  In  In73  1  0.83741771  0.49932267  0.50457232  1
  In  In74  1  0.66670018  0.00016774  0.74756743  1
  In  In75  1  -0.00227404  0.66786479  0.74227281  1
  In  In76  1  0.00451040  0.32830357  0.74506444  1
  In  In77  1  0.16276822  0.83568550  0.00802754  1
  In  In78  1  0.16660883  0.16675427  -0.00676391  1
  In  In79  1  -0.00680164  0.67770429  0.26404231  1
  In  In80  1  0.34115033  0.67075172  0.73244295  1
  In  In81  1  0.33068369  0.67705447  0.24988148  1
  In  In82  1  0.34241218  0.32775679  0.25385252  1
  In  In83  1  0.50711257  0.49768240  -0.00093540  1
  In  In84  1  0.15777889  0.49745539  -0.01259183  1
  In  In85  1  -0.00600375  0.33453389  0.25010391  1
  Cu  Cu86  1  0.66518435  0.33634490  0.50114392  1
  Cu  Cu87  1  0.17121660  0.50500920  0.26465976  1
  Cu  Cu88  1  0.00347428  0.00154654  0.50089754  1
  Cu  Cu89  1  0.16525171  0.15867195  0.25346326  1
  Cu  Cu90  1  0.34477109  0.66895049  0.50501988  1
  Cu  Cu91  1  0.66843541  0.66461884  0.50037130  1
  Cu  Cu92  1  -0.00064202  -0.00271093  -0.00227680  1
  Cu  Cu93  1  0.34304164  0.32732614  0.50074747  1
  Cu  Cu94  1  0.66195648  0.33341580  -0.00454606  1
  Cu  Cu95  1  0.32868218  0.66710250  0.00449444  1
  Cu  Cu96  1  0.50801264  0.50122887  0.25549765  1
  Cu  Cu97  1  0.16168823  0.84288326  0.74573450  1
  Cu  Cu98  1  0.66811353  0.66990011  -0.00027549  1
  Cu  Cu99  1  0.50127533  0.16022553  0.74682239  1
  Cu  Cu100  1  0.50643749  0.16626605  0.25571126  1
  Cu  Cu101  1  0.50574946  0.48901391  0.74956519  1
  Cu  Cu102  1  0.18439550  0.49702383  0.74651528  1
  Cu  Cu103  1  0.50486587  0.83539147  0.74429401  1
  Cu  Cu104  1  0.66689357  -0.00313020  -0.00072380  1
  Cu  Cu105  1  0.83060922  0.50178329  0.74912169  1
  Cu  Cu106  1  -0.01943487  0.67081761  -0.00380843  1
  Cu  Cu107  1  -0.01041169  0.34081772  0.00395876  1
  Cu  Cu108  1  -0.00056207  0.32803462  0.50540851  1
  Cu  Cu109  1  0.83126349  0.83767220  0.25544052  1
  Cu  Cu110  1  0.17049337  0.16573795  0.74025400  1
  Cu  Cu111  1  0.32656423  0.00086741  0.50046225  1
  Cu  Cu112  1  0.50165501  0.84125574  0.24883007  1
  Cu  Cu113  1  0.82557450  0.49608724  0.24659903  1
  Cu  Cu114  1  0.16655781  0.84835982  0.25865438  1
  Se  Se115  1  0.08086297  0.07674751  0.05849256  1
  Se  Se116  1  0.08761897  0.08700933  0.55231136  1
  Se  Se117  1  0.07791485  0.41426241  0.06275572  1
  Se  Se118  1  0.08381164  0.41344947  0.55472048  1
  Se  Se119  1  0.06785825  0.73885838  0.06032548  1
  Se  Se120  1  0.07391255  0.75056815  0.54602159  1
  Se  Se121  1  0.41904310  0.09219597  0.05048555  1
  Se  Se122  1  0.41487578  0.08008197  0.55281814  1
  Se  Se123  1  0.40947701  0.40203687  0.04956712  1
  Se  Se124  1  0.42317335  0.41413623  0.55350127  1
  Se  Se125  1  0.41657010  0.75063128  0.05232281  1
  Se  Se126  1  0.42443785  0.75593539  0.55638309  1
  Se  Se127  1  0.74974160  0.08189654  0.05272332  1
  Se  Se128  1  0.73732450  0.07554286  0.54599854  1
  Se  Se129  1  0.74209978  0.42030990  0.04988330  1
  Se  Se130  1  0.74793047  0.40988340  0.56481390  1
  Se  Se131  1  0.74912430  0.75392469  0.05484507  1
  Se  Se132  1  0.75209613  0.75029597  0.55015412  1
  Se  Se133  1  0.25487707  0.25996493  0.05423791  1
  Se  Se134  1  0.25523139  0.24671105  0.55236858  1
  Se  Se135  1  0.25291499  0.57924767  0.05964384  1
  Se  Se136  1  0.25874853  0.58457132  0.55513474  1
  Se  Se137  1  0.25659388  0.93057657  0.05730806  1
  Se  Se138  1  0.24541326  0.91298679  0.55173969  1
  Se  Se139  1  0.58341464  0.24919787  0.05182621  1
  Se  Se140  1  0.58421315  0.24966414  0.55386203  1
  Se  Se141  1  0.58768543  0.59105421  0.06336644  1
  Se  Se142  1  0.58631927  0.57933006  0.55220178  1
  Se  Se143  1  0.58187623  0.91515292  0.05335904  1
  Se  Se144  1  0.58618678  0.92028988  0.54227236  1
  Se  Se145  1  0.91568548  0.24791236  0.05501274  1
  Se  Se146  1  0.90960673  0.24584563  0.55172039  1
  Se  Se147  1  0.90777246  0.58060195  0.05043075  1
  Se  Se148  1  0.92142994  0.59165209  0.56567402  1
  Se  Se149  1  0.91688688  0.91383524  0.05196821  1
  Se  Se150  1  0.91621139  0.92196360  0.55393975  1
  Se  Se151  1  0.08339614  0.24466054  0.45230408  1
  Se  Se152  1  0.06902629  0.26167994  0.94138833  1
  Se  Se153  1  0.09535316  0.56630670  0.45945129  1
  Se  Se154  1  0.06444853  0.59504306  0.93466062  1
  Se  Se155  1  0.08749239  0.91724621  0.44843726  1
  Se  Se156  1  0.08205427  0.92087968  0.93580917  1
  Se  Se157  1  0.42235003  0.24207049  0.44659934  1
  Se  Se158  1  0.41157213  0.24570994  0.94162417  1
  Se  Se159  1  0.42396474  0.58306195  0.45076924  1
  Se  Se160  1  0.41115949  0.59075777  0.94149786  1
  Se  Se161  1  0.41408531  0.91979392  0.44801207  1
  Se  Se162  1  0.41906894  0.90712755  0.94685749  1
  Se  Se163  1  0.74920490  0.25210460  0.44926367  1
  Se  Se164  1  0.74780842  0.24848829  0.94582903  1
  Se  Se165  1  0.74579333  0.58102616  0.43937871  1
  Se  Se166  1  0.74633151  0.58115658  0.94645694  1
  Se  Se167  1  0.75492113  0.91499741  0.45579688  1
  Se  Se168  1  0.75165235  0.91602618  0.94572186  1
  Se  Se169  1  0.24518730  0.08683918  0.44704297  1
  Se  Se170  1  0.25442754  0.07198171  0.93823596  1
  Se  Se171  1  0.25586017  0.41374537  0.45206421  1
  Se  Se172  1  0.25501611  0.40525702  0.93926682  1
  Se  Se173  1  0.25800544  0.75188739  0.45323799  1
  Se  Se174  1  0.25005956  0.74477032  0.94184307  1
  Se  Se175  1  0.59902263  0.07007265  0.46022831  1
  Se  Se176  1  0.58466829  0.08382596  0.94887996  1
  Se  Se177  1  0.58303004  0.42058808  0.44812112  1
  Se  Se178  1  0.58388659  0.40884349  0.93016239  1
  Se  Se179  1  0.58627914  0.74896788  0.44643074  1
  Se  Se180  1  0.58378092  0.75084726  0.94538950  1
  Se  Se181  1  0.91860372  0.08281552  0.44714029  1
  Se  Se182  1  0.91695486  0.08377514  0.94611504  1
  Se  Se183  1  0.92175682  0.40661284  0.43998336  1
  Se  Se184  1  0.90680853  0.42257709  0.94976163  1
  Se  Se185  1  0.93547498  0.72597200  0.44223951  1
  Se  Se186  1  0.90698401  0.75993618  0.94202104  1
  Se  Se187  1  0.24244447  0.24589635  0.31114726  1
  Se  Se188  1  0.25318593  0.24500960  0.79736931  1
  Se  Se189  1  0.24458334  0.59427252  0.31982827  1
  Se  Se190  1  0.26012744  0.58126167  0.80573241  1
  Se  Se191  1  0.25803828  0.92712302  0.30592630  1
  Se  Se192  1  0.25423817  0.91698500  0.79735111  1
  Se  Se193  1  0.58804054  0.24773712  0.31049417  1
  Se  Se194  1  0.58514589  0.24590670  0.79711046  1
  Se  Se195  1  0.58943055  0.58981648  0.30389082  1
  Se  Se196  1  0.58411492  0.58216562  0.79683311  1
  Se  Se197  1  0.57707328  0.91458231  0.31812451  1
  Se  Se198  1  0.57569492  0.91482558  0.81193706  1
  Se  Se199  1  0.91111143  0.24161285  0.30986174  1
  Se  Se200  1  0.91441935  0.24872418  0.81038425  1
  Se  Se201  1  0.90363810  0.57300935  0.31077276  1
  Se  Se202  1  0.91024590  0.58293315  0.80814600  1
  Se  Se203  1  0.91651952  0.91697137  0.30862875  1
  Se  Se204  1  0.92122492  0.93763895  0.79493281  1
  Se  Se205  1  0.08006016  0.07913653  0.30615432  1
  Se  Se206  1  0.08288005  0.08736165  0.79463322  1
  Se  Se207  1  0.08680457  0.42009174  0.31524800  1
  Se  Se208  1  0.09497750  0.42440485  0.80589274  1
  Se  Se209  1  0.09275876  0.76165277  0.31817990  1
  Se  Se210  1  0.08489806  0.76052672  0.80739312  1
  Se  Se211  1  0.42346422  0.08255898  0.30805311  1
  Se  Se212  1  0.41998835  0.07652639  0.80217735  1
  Se  Se213  1  0.42167640  0.42573917  0.31463850  1
  Se  Se214  1  0.41562331  0.40776231  0.79636563  1
  Se  Se215  1  0.42328196  0.75971996  0.31188634  1
  Se  Se216  1  0.42395745  0.75206370  0.80462081  1
  Se  Se217  1  0.75556892  0.08942714  0.31625519  1
  Se  Se218  1  0.75063797  0.08760640  0.81317979  1
  Se  Se219  1  0.74453155  0.41042587  0.29914133  1
  Se  Se220  1  0.75082161  0.41571800  0.80331585  1
  Se  Se221  1  0.74535745  0.75431085  0.30480089  1
  Se  Se222  1  0.74523097  0.75322568  0.79958944  1
  Se  Se223  1  0.25440416  0.08359114  0.19876690  1
  Se  Se224  1  0.25449928  0.07873315  0.69224482  1
  Se  Se225  1  0.24650165  0.42680816  0.19947184  1
  Se  Se226  1  0.25983608  0.40613545  0.69618644  1
  Se  Se227  1  0.24033998  0.77017927  0.19022291  1
  Se  Se228  1  0.23678127  0.75735030  0.68530288  1
  Se  Se229  1  0.58173750  0.08703552  0.19067723  1
  Se  Se230  1  0.57763933  0.08361883  0.68234938  1
  Se  Se231  1  0.58170722  0.41217182  0.19948139  1
  Se  Se232  1  0.59050703  0.40755008  0.69611407  1
  Se  Se233  1  0.58513308  0.75313292  0.20148728  1
  Se  Se234  1  0.59067603  0.75509196  0.69239786  1
  Se  Se235  1  0.91560955  0.07199177  0.20173715  1
  Se  Se236  1  0.90922671  0.08264302  0.69635728  1
  Se  Se237  1  0.91119307  0.42416085  0.18582386  1
  Se  Se238  1  0.90890891  0.42131677  0.68899572  1
  Se  Se239  1  0.90875793  0.75494406  0.19158416  1
  Se  Se240  1  0.91061211  0.76407734  0.68963956  1
  Se  Se241  1  0.08615004  0.23897469  0.19196426  1
  Se  Se242  1  0.08657916  0.24114561  0.67914778  1
  Se  Se243  1  0.08880071  0.58368725  0.20373755  1
  Se  Se244  1  0.10082008  0.57832287  0.69144155  1
  Se  Se245  1  0.07748104  0.92382006  0.20383676  1
  Se  Se246  1  0.07949615  0.92382821  0.69152303  1
  Se  Se247  1  0.42643512  0.24060778  0.18934318  1
  Se  Se248  1  0.41857850  0.24649233  0.69444762  1
  Se  Se249  1  0.42378828  0.57832999  0.19566220  1
  Se  Se250  1  0.43205739  0.57184191  0.68444087  1
  Se  Se251  1  0.42077567  0.92573142  0.19577816  1
  Se  Se252  1  0.41830743  0.91769080  0.69438359  1
  Se  Se253  1  0.75294309  0.24483906  0.19615719  1
  Se  Se254  1  0.74763611  0.23717888  0.70210311  1
  Se  Se255  1  0.74467366  0.58653615  0.19726833  1
  Se  Se256  1  0.74643854  0.58591492  0.69794363  1
  Se  Se257  1  0.75354391  0.91376211  0.18983131  1
  Se  Se258  1  0.75276271  0.91224277  0.68501247  1
