# generated using pymatgen
data_In86Cu29Se144
_symmetry_space_group_name_H-M   'P 1'
_cell_length_a   17.65964797
_cell_length_b   17.65752753
_cell_length_c   23.51654805
_cell_angle_alpha   89.97270671
_cell_angle_beta   90.01726045
_cell_angle_gamma   89.98443672
_symmetry_Int_Tables_number   1
_chemical_formula_structural   In86Cu29Se144
_chemical_formula_sum   'In86 Cu29 Se144'
_cell_volume   7333.06310083
_cell_formula_units_Z   1
loop_
 _symmetry_equiv_pos_site_id
 _symmetry_equiv_pos_as_xyz
  1  'x, y, z'
loop_
 _atom_site_type_symbol
 _atom_site_label
 _atom_site_symmetry_multiplicity
 _atom_site_fract_x
 _atom_site_fract_y
 _atom_site_fract_z
 _atom_site_occupancy
  In  In0  1  -0.00612128  0.16332772  0.11153091  1
  In  In1  1  0.01138842  0.15646592  0.63621479  1
  In  In2  1  0.01004976  0.49976824  0.12734909  1
  In  In3  1  0.00810555  0.49691033  0.62718860  1
  In  In4  1  0.01020202  0.82156229  0.12753576  1
  In  In5  1  0.00735294  0.82576928  0.63281484  1
  In  In6  1  0.33223112  0.17070896  0.12617996  1
  In  In7  1  0.32508404  0.16519153  0.62983367  1
  In  In8  1  0.32203785  0.48921011  0.12334947  1
  In  In9  1  0.32945715  0.49635249  0.61319818  1
  In  In10  1  0.33120870  0.83532068  0.11738872  1
  In  In11  1  0.34092332  0.83855165  0.62170225  1
  In  In12  1  0.62104977  0.10956706  0.05505179  1
  In  In13  1  0.65854744  0.16376608  0.63368175  1
  In  In14  1  0.66098912  0.51155098  0.12668461  1
  In  In15  1  0.67564013  0.50828118  0.61635177  1
  In  In16  1  0.65874553  0.83379977  0.11887242  1
  In  In17  1  0.65926870  0.83406799  0.63321139  1
  In  In18  1  0.17412488  -0.00794739  0.38134889  1
  In  In19  1  0.16372228  0.00095072  0.87770469  1
  In  In20  1  0.17222474  0.32291109  0.38240486  1
  In  In21  1  0.16468123  0.33475748  0.87620497  1
  In  In22  1  0.15644545  0.67701791  0.38183895  1
  In  In23  1  0.16528109  0.67663734  0.87538685  1
  In  In24  1  0.48727356  0.00586952  0.37335043  1
  In  In25  1  0.49759614  -0.00001245  0.88100993  1
  In  In26  1  0.49643229  0.34519130  0.37419694  1
  In  In27  1  0.49774166  0.33140929  0.88260608  1
  In  In28  1  0.50674327  0.66755881  0.38438140  1
  In  In29  1  0.50064399  0.66950719  0.87962577  1
  In  In30  1  0.83676354  0.00455171  0.37673197  1
  In  In31  1  0.83497178  0.00556589  0.86863609  1
  In  In32  1  0.84144305  0.33976650  0.38030935  1
  In  In33  1  0.83765796  0.32879987  0.86765510  1
  In  In34  1  0.83404479  0.66067414  0.37671963  1
  In  In35  1  0.83705552  0.66659950  0.85738663  1
  In  In36  1  0.00639548  0.18001249  0.37720672  1
  In  In37  1  0.00182608  0.16664800  0.87233529  1
  In  In38  1  -0.00931430  0.50543562  0.38743219  1
  In  In39  1  0.01262851  0.51428806  0.85637824  1
  In  In40  1  0.01146798  0.84093232  0.37558473  1
  In  In41  1  0.00128048  0.83639955  0.86420309  1
  In  In42  1  0.32630129  0.15623795  0.36247441  1
  In  In43  1  0.34487596  0.13893839  0.89654647  1
  In  In44  1  0.34124052  0.49578858  0.37862216  1
  In  In45  1  0.33213772  0.49950465  0.88301838  1
  In  In46  1  0.32920439  0.84169912  0.37942906  1
  In  In47  1  0.32457644  0.86033021  0.89743092  1
  In  In48  1  0.67043075  0.16471415  0.37278549  1
  In  In49  1  0.67419748  0.16855700  0.87887092  1
  In  In50  1  0.66739207  0.49825940  0.39278629  1
  In  In51  1  0.65781742  0.49965266  0.86793872  1
  In  In52  1  0.66537926  0.82661501  0.37924981  1
  In  In53  1  0.66188744  0.83055013  0.87545365  1
  In  In54  1  0.18732587  0.01723607  0.10010827  1
  In  In55  1  0.17212888  -0.00267124  0.62859253  1
  In  In56  1  0.16601740  0.33952437  0.12468729  1
  In  In57  1  0.16066830  0.32066753  0.61565514  1
  In  In58  1  0.16158460  0.65937158  0.11949907  1
  In  In59  1  0.16088348  0.65869214  0.61838402  1
  In  In60  1  0.47130658  -0.01885151  0.10099466  1
  In  In61  1  0.51077767  -0.01052217  0.64035128  1
  In  In62  1  0.48870184  0.32056082  0.11513990  1
  In  In63  1  0.49178462  0.33308707  0.62300286  1
  In  In64  1  0.49975211  0.66354997  0.11632393  1
  In  In65  1  0.50534230  0.67366063  0.62299265  1
  In  In66  1  0.81619733  0.00153208  0.11245383  1
  In  In67  1  0.83112578  -0.00008113  0.63623944  1
  In  In68  1  0.83339623  0.31820279  0.12579343  1
  In  In69  1  0.84298076  0.35548340  0.62340272  1
  In  In70  1  0.85373662  0.67822780  0.12660159  1
  In  In71  1  0.84839458  0.64034403  0.64700576  1
  In  In72  1  0.67033401  0.66329697  0.25970522  1
  In  In73  1  0.83293641  0.83101698  0.51311551  1
  In  In74  1  0.33856041  0.67452791  0.75033314  1
  In  In75  1  0.83585296  0.83488402  -0.00520952  1
  In  In76  1  0.66800433  0.32672883  0.24946729  1
  In  In77  1  0.33446802  0.66592481  0.25449233  1
  In  In78  1  0.65039133  -0.00222814  0.22707370  1
  In  In79  1  0.33135474  0.32236717  0.75428077  1
  In  In80  1  0.49707194  0.16715658  0.50696132  1
  In  In81  1  0.00593000  -0.00820295  0.24686447  1
  In  In82  1  0.83051561  0.48951221  -0.00887747  1
  In  In83  1  0.00325368  0.33513461  0.25674132  1
  In  In84  1  0.66835634  0.33197971  0.75293327  1
  In  In85  1  0.83637888  0.17760897  0.50448549  1
  Cu  Cu86  1  0.00646905  0.33528148  -0.00448441  1
  Cu  Cu87  1  0.83899114  0.17065469  0.75113497  1
  Cu  Cu88  1  0.83975300  0.50339061  0.25781250  1
  Cu  Cu89  1  0.16952230  0.49851592  0.74502423  1
  Cu  Cu90  1  0.33679236  0.66560928  0.00098248  1
  Cu  Cu91  1  0.49465944  0.49143316  0.25083310  1
  Cu  Cu92  1  0.66544775  0.67033904  0.50674861  1
  Cu  Cu93  1  0.32382892  0.33574929  0.00312286  1
  Cu  Cu94  1  0.33358446  0.67034153  0.49813721  1
  Cu  Cu95  1  0.16798712  0.83465743  0.75352855  1
  Cu  Cu96  1  -0.00341945  -0.00390272  -0.01067442  1
  Cu  Cu97  1  0.66023101  -0.00444497  0.50978068  1
  Cu  Cu98  1  0.16262841  0.50465945  0.24910924  1
  Cu  Cu99  1  0.66418593  0.66257527  -0.00366758  1
  Cu  Cu100  1  0.49603072  0.16188060  0.23843880  1
  Cu  Cu101  1  0.66457546  0.33942212  -0.00584128  1
  Cu  Cu102  1  0.82656637  0.15970720  0.24179045  1
  Cu  Cu103  1  0.33375813  0.33101555  0.49806335  1
  Cu  Cu104  1  0.17081306  0.16039267  0.75520764  1
  Cu  Cu105  1  -0.00112602  0.66859439  0.50821861  1
  Cu  Cu106  1  0.00424200  0.65733192  -0.00578492  1
  Cu  Cu107  1  0.16635964  0.16211590  0.24523684  1
  Cu  Cu108  1  0.17246042  0.83972824  0.25175212  1
  Cu  Cu109  1  0.33299822  -0.00009766  0.50045304  1
  Cu  Cu110  1  0.50134887  0.50376170  0.74938931  1
  Cu  Cu111  1  0.49373861  0.84171758  0.75777373  1
  Cu  Cu112  1  0.82283911  0.83703403  0.75068927  1
  Cu  Cu113  1  0.49830852  0.83755573  0.24510602  1
  Cu  Cu114  1  0.01283499  0.00581386  0.50667302  1
  Se  Se115  1  0.07655342  0.08136012  0.04479659  1
  Se  Se116  1  0.09426254  0.08787968  0.56013022  1
  Se  Se117  1  0.08211269  0.41894397  0.05427765  1
  Se  Se118  1  0.10626609  0.43329123  0.56014865  1
  Se  Se119  1  0.08122939  0.74378194  0.05033423  1
  Se  Se120  1  0.08430800  0.75500859  0.55505211  1
  Se  Se121  1  0.41954046  0.10051069  0.05299073  1
  Se  Se122  1  0.41332554  0.07259680  0.56524182  1
  Se  Se123  1  0.41275622  0.41773286  0.05409020  1
  Se  Se124  1  0.41821125  0.41401774  0.54944300  1
  Se  Se125  1  0.41908473  0.75109018  0.05299248  1
  Se  Se126  1  0.41711269  0.74975544  0.55424343  1
  Se  Se127  1  0.76846662  0.11059098  0.05248974  1
  Se  Se128  1  0.74544676  0.07968769  0.56066172  1
  Se  Se129  1  0.74291845  0.41275516  0.06240095  1
  Se  Se130  1  0.74908050  0.41442944  0.55304921  1
  Se  Se131  1  0.74750960  0.73914739  0.05753910  1
  Se  Se132  1  0.74754839  0.73983618  0.57205943  1
  Se  Se133  1  0.24426316  0.25173283  0.05866818  1
  Se  Se134  1  0.25650608  0.24448266  0.55278195  1
  Se  Se135  1  0.25271028  0.58259908  0.05496541  1
  Se  Se136  1  0.25005165  0.58578363  0.54908742  1
  Se  Se137  1  0.23742368  0.89990478  0.04804041  1
  Se  Se138  1  0.25091025  0.91630310  0.55518712  1
  Se  Se139  1  0.59224754  0.25674284  0.05453028  1
  Se  Se140  1  0.59367940  0.25667617  0.55960042  1
  Se  Se141  1  0.58193771  0.57858445  0.04936420  1
  Se  Se142  1  0.57864344  0.58371597  0.55411943  1
  Se  Se143  1  0.60105121  0.93791931  0.05645863  1
  Se  Se144  1  0.57755183  0.91229555  0.56004743  1
  Se  Se145  1  0.91747147  0.25775252  0.04805750  1
  Se  Se146  1  0.92890171  0.25220470  0.56933111  1
  Se  Se147  1  0.91947100  0.58246736  0.05379197  1
  Se  Se148  1  0.91923803  0.58267357  0.56103646  1
  Se  Se149  1  0.92516909  0.91996557  0.05965626  1
  Se  Se150  1  0.92566426  0.92814495  0.56366911  1
  Se  Se151  1  0.07593127  0.25871250  0.45049084  1
  Se  Se152  1  0.08478465  0.24735925  0.94331615  1
  Se  Se153  1  0.08048642  0.58870797  0.44960699  1
  Se  Se154  1  0.08815906  0.57973250  0.93799528  1
  Se  Se155  1  0.08620124  0.91714116  0.45080076  1
  Se  Se156  1  0.07845751  0.90871307  0.94047735  1
  Se  Se157  1  0.41124542  0.24738440  0.43671257  1
  Se  Se158  1  0.40767009  0.25507852  0.94823836  1
  Se  Se159  1  0.41708565  0.58562066  0.44593144  1
  Se  Se160  1  0.41869935  0.58323372  0.94631012  1
  Se  Se161  1  0.41947467  0.91955132  0.44611029  1
  Se  Se162  1  0.42861388  0.92104904  0.95934010  1
  Se  Se163  1  0.74039553  0.25815536  0.44109979  1
  Se  Se164  1  0.75258793  0.26153355  0.94191817  1
  Se  Se165  1  0.75099109  0.59130362  0.45072683  1
  Se  Se166  1  0.74823554  0.59051996  0.93532459  1
  Se  Se167  1  0.74681345  0.92385748  0.44707867  1
  Se  Se168  1  0.74519671  0.92598510  0.94052977  1
  Se  Se169  1  0.25478482  0.08443448  0.44345852  1
  Se  Se170  1  0.23973890  0.07557663  0.95495263  1
  Se  Se171  1  0.25295499  0.41568339  0.44443980  1
  Se  Se172  1  0.24404477  0.41861870  0.94681783  1
  Se  Se173  1  0.25021160  0.75417604  0.44506981  1
  Se  Se174  1  0.25425574  0.74690239  0.94579208  1
  Se  Se175  1  0.58978300  0.07697393  0.44352188  1
  Se  Se176  1  0.58321957  0.09204731  0.94431650  1
  Se  Se177  1  0.57989676  0.40984473  0.44808511  1
  Se  Se178  1  0.58166660  0.42295889  0.94293288  1
  Se  Se179  1  0.58447561  0.75494760  0.45268309  1
  Se  Se180  1  0.58275290  0.75278410  0.94935042  1
  Se  Se181  1  0.92716399  0.07977846  0.44636463  1
  Se  Se182  1  0.91550860  0.08403683  0.94031591  1
  Se  Se183  1  0.92133056  0.41024486  0.45282733  1
  Se  Se184  1  0.93132122  0.41565223  0.93174157  1
  Se  Se185  1  0.92213922  0.75055322  0.44458741  1
  Se  Se186  1  0.92123854  0.73856681  0.93682359  1
  Se  Se187  1  0.24270253  0.24860006  0.30211023  1
  Se  Se188  1  0.25087328  0.23415367  0.81966175  1
  Se  Se189  1  0.24167082  0.58021803  0.31395735  1
  Se  Se190  1  0.24951677  0.57806744  0.80651184  1
  Se  Se191  1  0.25507762  0.92230489  0.30449204  1
  Se  Se192  1  0.24892213  0.91467108  0.81124711  1
  Se  Se193  1  0.57074741  0.23735907  0.30723640  1
  Se  Se194  1  0.57602334  0.24523724  0.81145087  1
  Se  Se195  1  0.57617100  0.56934200  0.31172898  1
  Se  Se196  1  0.57734098  0.59001326  0.80431419  1
  Se  Se197  1  0.58049332  0.91335121  0.30734412  1
  Se  Se198  1  0.58151914  0.91948974  0.81059067  1
  Se  Se199  1  0.90241334  0.23957852  0.30522924  1
  Se  Se200  1  0.92567767  0.25338219  0.80015701  1
  Se  Se201  1  0.92315000  0.58613479  0.30846923  1
  Se  Se202  1  0.91492096  0.58068230  0.79203131  1
  Se  Se203  1  0.90867871  0.91141747  0.30898553  1
  Se  Se204  1  0.91181913  0.91755103  0.80106940  1
  Se  Se205  1  0.08661915  0.08813425  0.30997786  1
  Se  Se206  1  0.08199761  0.07874264  0.80492293  1
  Se  Se207  1  0.08932868  0.42582647  0.31580688  1
  Se  Se208  1  0.09039420  0.41305434  0.79994611  1
  Se  Se209  1  0.08776363  0.75816484  0.30401811  1
  Se  Se210  1  0.08305874  0.74663036  0.79987389  1
  Se  Se211  1  0.41562591  0.07876667  0.29501268  1
  Se  Se212  1  0.41304608  0.07938066  0.81188543  1
  Se  Se213  1  0.40781298  0.41191151  0.30148378  1
  Se  Se214  1  0.42108497  0.42301263  0.80806263  1
  Se  Se215  1  0.42800802  0.75612950  0.31092061  1
  Se  Se216  1  0.41232243  0.76446482  0.81924152  1
  Se  Se217  1  0.74785439  0.07755618  0.30107048  1
  Se  Se218  1  0.75073112  0.09213416  0.80340757  1
  Se  Se219  1  0.75219058  0.42479492  0.31122857  1
  Se  Se220  1  0.75969406  0.42843157  0.80464984  1
  Se  Se221  1  0.76132916  0.76150941  0.30899676  1
  Se  Se222  1  0.74192843  0.75151888  0.80286715  1
  Se  Se223  1  0.24703270  0.08066901  0.18951765  1
  Se  Se224  1  0.25357905  0.07862914  0.70067684  1
  Se  Se225  1  0.24368092  0.41682511  0.19964954  1
  Se  Se226  1  0.25118967  0.41564738  0.68966692  1
  Se  Se227  1  0.24634480  0.75178903  0.19132716  1
  Se  Se228  1  0.24368590  0.75511543  0.68853877  1
  Se  Se229  1  0.56903808  0.09162101  0.17012867  1
  Se  Se230  1  0.58411655  0.08343903  0.70363871  1
  Se  Se231  1  0.57822395  0.41819611  0.18933477  1
  Se  Se232  1  0.57744960  0.41932904  0.69043313  1
  Se  Se233  1  0.57904877  0.75001127  0.19300069  1
  Se  Se234  1  0.57075142  0.75508334  0.70120428  1
  Se  Se235  1  0.91263144  0.08098782  0.18720650  1
  Se  Se236  1  0.91864116  0.08069163  0.70095812  1
  Se  Se237  1  0.90930355  0.41972386  0.19288663  1
  Se  Se238  1  0.92173458  0.42354389  0.69868063  1
  Se  Se239  1  0.92228167  0.75696556  0.20072946  1
  Se  Se240  1  0.90867871  0.75724654  0.69699462  1
  Se  Se241  1  0.07934890  0.24042149  0.18966855  1
  Se  Se242  1  0.09519347  0.24756105  0.69864906  1
  Se  Se243  1  0.08077376  0.58883288  0.19716117  1
  Se  Se244  1  0.08690284  0.58709437  0.69662695  1
  Se  Se245  1  0.10188938  0.91759821  0.18290672  1
  Se  Se246  1  0.08550900  0.91694081  0.69728814  1
  Se  Se247  1  0.41294956  0.25569749  0.19629276  1
  Se  Se248  1  0.42731693  0.23828835  0.69502486  1
  Se  Se249  1  0.42170553  0.57778737  0.19080571  1
  Se  Se250  1  0.41645809  0.57609378  0.68792590  1
  Se  Se251  1  0.41367322  0.91400773  0.18932221  1
  Se  Se252  1  0.40883130  0.91736740  0.70012009  1
  Se  Se253  1  0.74092978  0.23281804  0.18390394  1
  Se  Se254  1  0.76102673  0.24920470  0.68806020  1
  Se  Se255  1  0.76287568  0.58121088  0.19275853  1
  Se  Se256  1  0.72999877  0.58856273  0.69793345  1
  Se  Se257  1  0.75670750  0.90535756  0.18756122  1
  Se  Se258  1  0.73985781  0.92170578  0.69949955  1
