# generated using pymatgen
data_In86Cu29Se144
_symmetry_space_group_name_H-M   'P 1'
_cell_length_a   17.57584528
_cell_length_b   17.57528443
_cell_length_c   23.43191742
_cell_angle_alpha   89.97512273
_cell_angle_beta   89.99098418
_cell_angle_gamma   90.03343070
_symmetry_Int_Tables_number   1
_chemical_formula_structural   In86Cu29Se144
_chemical_formula_sum   'In86 Cu29 Se144'
_cell_volume   7238.12853107
_cell_formula_units_Z   1
loop_
 _symmetry_equiv_pos_site_id
 _symmetry_equiv_pos_as_xyz
  1  'x, y, z'
loop_
 _atom_site_type_symbol
 _atom_site_label
 _atom_site_symmetry_multiplicity
 _atom_site_fract_x
 _atom_site_fract_y
 _atom_site_fract_z
 _atom_site_occupancy
  In  In0  1  0.00682228  0.16742848  0.12455969  1
  In  In1  1  -0.01119852  0.18192308  0.63457084  1
  In  In2  1  0.00324801  0.49543666  0.14557952  1
  In  In3  1  -0.00547608  0.50413441  0.61897467  1
  In  In4  1  -0.00339050  0.82449923  0.11358875  1
  In  In5  1  0.00861458  0.82332210  0.63748141  1
  In  In6  1  0.33051348  0.17135283  0.11730024  1
  In  In7  1  0.33736732  0.18681210  0.62436035  1
  In  In8  1  0.32236721  0.50353904  0.14204667  1
  In  In9  1  0.33179250  0.49601519  0.62140072  1
  In  In10  1  0.33182560  0.83033842  0.11416224  1
  In  In11  1  0.33229546  0.81804569  0.62688488  1
  In  In12  1  0.65289109  0.18072090  0.11585052  1
  In  In13  1  0.67760515  0.16176846  0.63145511  1
  In  In14  1  0.68210561  0.50676530  0.12823007  1
  In  In15  1  0.66076290  0.49336583  0.62149513  1
  In  In16  1  0.65879607  0.82262192  0.11643376  1
  In  In17  1  0.66323170  0.84378321  0.62958411  1
  In  In18  1  0.15539210  0.00717889  0.37450947  1
  In  In19  1  0.15820236  0.00720998  0.88231448  1
  In  In20  1  0.18283444  0.35978081  0.34879562  1
  In  In21  1  0.16028742  0.33218677  0.86759052  1
  In  In22  1  0.13754290  0.62955210  0.34319098  1
  In  In23  1  0.17615752  0.66766865  0.86567313  1
  In  In24  1  0.48852939  -0.00822317  0.37420189  1
  In  In25  1  0.51502198  -0.01041259  0.87661546  1
  In  In26  1  0.49929729  0.34562527  0.37730682  1
  In  In27  1  0.49586809  0.32995465  0.87213775  1
  In  In28  1  0.49815875  0.66254117  0.37668820  1
  In  In29  1  0.49520545  0.68831217  0.86962419  1
  In  In30  1  0.84531011  0.00638174  0.38076534  1
  In  In31  1  0.81981267  -0.00704021  0.86907814  1
  In  In32  1  0.83942989  0.32976425  0.39017502  1
  In  In33  1  0.83366199  0.33625833  0.86329382  1
  In  In34  1  0.82208054  0.64692567  0.36091501  1
  In  In35  1  0.84947627  0.66370782  0.87286483  1
  In  In36  1  -0.00432845  0.17311716  0.37993976  1
  In  In37  1  0.01004363  0.17388263  0.87126539  1
  In  In38  1  -0.00070492  0.49493996  0.38053576  1
  In  In39  1  0.00416151  0.49798730  0.85587342  1
  In  In40  1  0.01295036  0.82521592  0.37651473  1
  In  In41  1  -0.00304399  0.83180549  0.87924191  1
  In  In42  1  0.31768406  0.18388480  0.37139904  1
  In  In43  1  0.32865681  0.17291556  0.88254236  1
  In  In44  1  0.33297795  0.50583617  0.37282358  1
  In  In45  1  0.32140777  0.50229670  0.85713471  1
  In  In46  1  0.34157260  0.82254468  0.38027071  1
  In  In47  1  0.34301674  0.82492764  0.87910204  1
  In  In48  1  0.66814656  0.18232520  0.37903991  1
  In  In49  1  0.66103069  0.16640923  0.87157587  1
  In  In50  1  0.65412353  0.50436842  0.38707077  1
  In  In51  1  0.67437871  0.49104467  0.86627633  1
  In  In52  1  0.67350837  0.81089956  0.37649520  1
  In  In53  1  0.65532221  0.84423942  0.88050570  1
  In  In54  1  0.17057869  0.00240127  0.11200043  1
  In  In55  1  0.16304411  -0.00842443  0.63491287  1
  In  In56  1  0.17295922  0.32560021  0.14186550  1
  In  In57  1  0.13665159  0.37478662  0.65716905  1
  In  In58  1  0.16092928  0.66943646  0.13363725  1
  In  In59  1  0.18024158  0.63744745  0.64862878  1
  In  In60  1  0.49445909  -0.00117244  0.11406962  1
  In  In61  1  0.51320397  -0.00151066  0.62813529  1
  In  In62  1  0.49750249  0.32324008  0.11841018  1
  In  In63  1  0.48616477  0.34911307  0.63404921  1
  In  In64  1  0.49207110  0.67168977  0.12778384  1
  In  In65  1  0.49439709  0.66069301  0.61824635  1
  In  In66  1  0.84860378  -0.00345359  0.11959387  1
  In  In67  1  0.82657454  0.00879609  0.63399973  1
  In  In68  1  0.84410774  0.34471854  0.12611141  1
  In  In69  1  0.83910783  0.33545280  0.62332707  1
  In  In70  1  0.83093837  0.66399207  0.13193600  1
  In  In71  1  0.84648506  0.66204267  0.62587175  1
  In  In72  1  0.66789138  0.66570662  0.74664623  1
  In  In73  1  0.33795104  -0.00224812  0.75651670  1
  In  In74  1  0.16542372  0.17267354  0.50147255  1
  In  In75  1  0.66565315  -0.00488893  0.23913610  1
  In  In76  1  0.49638777  0.50163712  -0.00476717  1
  In  In77  1  0.82875937  0.16298439  -0.01224097  1
  In  In78  1  0.83553981  0.82808824  0.50484244  1
  In  In79  1  0.33010810  -0.00293303  0.23838650  1
  In  In80  1  0.17160781  0.81928144  0.50233242  1
  In  In81  1  0.50964558  0.16475581  0.50517360  1
  In  In82  1  0.66723799  0.34063942  0.24884423  1
  In  In83  1  0.00625609  -0.00182889  0.25602943  1
  In  In84  1  0.16403399  0.50141210  0.00461798  1
  In  In85  1  0.83496651  0.50165321  0.00190542  1
  Cu  Cu86  1  0.50057394  0.50234244  0.25504249  1
  Cu  Cu87  1  0.17638246  0.83841067  0.24378264  1
  Cu  Cu88  1  0.84012132  0.82119339  0.24524370  1
  Cu  Cu89  1  0.66844584  -0.00122723  -0.00276881  1
  Cu  Cu90  1  0.33046068  0.65638755  0.49986171  1
  Cu  Cu91  1  0.00274798  0.65966763  0.49649448  1
  Cu  Cu92  1  0.32922923  0.33513980  0.00203237  1
  Cu  Cu93  1  0.00410268  0.33513564  -0.00353642  1
  Cu  Cu94  1  0.33605967  0.67155033  -0.00386410  1
  Cu  Cu95  1  0.00444419  -0.00490650  -0.00258659  1
  Cu  Cu96  1  0.51075970  0.82126959  0.25030592  1
  Cu  Cu97  1  0.32939034  0.34246857  0.49768211  1
  Cu  Cu98  1  0.00643498  0.66535903  0.00013990  1
  Cu  Cu99  1  0.66853580  -0.00232912  0.50607095  1
  Cu  Cu100  1  0.48516009  0.17201586  0.24458111  1
  Cu  Cu101  1  0.66783456  0.67169050  0.00035048  1
  Cu  Cu102  1  0.00684014  0.33905937  0.50685011  1
  Cu  Cu103  1  0.83160865  0.83448618  0.75340479  1
  Cu  Cu104  1  0.50746412  0.16858589  0.75069050  1
  Cu  Cu105  1  0.67109569  0.33244167  0.50668023  1
  Cu  Cu106  1  0.33995639  -0.00519469  0.49860829  1
  Cu  Cu107  1  0.82627449  0.16808110  0.25575796  1
  Cu  Cu108  1  0.49744075  0.50269734  0.74429846  1
  Cu  Cu109  1  0.15588734  0.83416570  0.75763703  1
  Cu  Cu110  1  -0.00471174  0.00430570  0.50937503  1
  Cu  Cu111  1  0.66352971  0.66155290  0.49999894  1
  Cu  Cu112  1  0.33377729  0.00198856  -0.00640438  1
  Cu  Cu113  1  0.83955021  0.16873399  0.75243487  1
  Cu  Cu114  1  0.17519233  0.16581195  0.75705274  1
  Se  Se115  1  0.07980269  0.08625685  0.05040699  1
  Se  Se116  1  0.08079168  0.08160603  0.56648854  1
  Se  Se117  1  0.07445522  0.41280654  0.06465023  1
  Se  Se118  1  0.09250581  0.42355757  0.55753367  1
  Se  Se119  1  0.09359826  0.74627254  0.05277404  1
  Se  Se120  1  0.07873079  0.73600496  0.56225471  1
  Se  Se121  1  0.41382247  0.08717972  0.04990548  1
  Se  Se122  1  0.41100006  0.07816787  0.56250978  1
  Se  Se123  1  0.40295041  0.42191390  0.06189126  1
  Se  Se124  1  0.42003350  0.41899382  0.55011343  1
  Se  Se125  1  0.42373911  0.75100506  0.04914758  1
  Se  Se126  1  0.41096311  0.74667633  0.55014919  1
  Se  Se127  1  0.74433671  0.07885173  0.06108879  1
  Se  Se128  1  0.75279150  0.08273678  0.55491528  1
  Se  Se129  1  0.74132568  0.40636747  0.05580728  1
  Se  Se130  1  0.75487216  0.41937989  0.55530212  1
  Se  Se131  1  0.75762413  0.74525619  0.05641431  1
  Se  Se132  1  0.74037528  0.74149778  0.56415572  1
  Se  Se133  1  0.24001573  0.25820236  0.05639587  1
  Se  Se134  1  0.24859962  0.26765641  0.55991613  1
  Se  Se135  1  0.25983184  0.59120939  0.05969547  1
  Se  Se136  1  0.24322856  0.58163171  0.55772864  1
  Se  Se137  1  0.25144768  0.91575664  0.04668341  1
  Se  Se138  1  0.25514728  0.92190601  0.55998748  1
  Se  Se139  1  0.57525301  0.25342538  0.04218257  1
  Se  Se140  1  0.58720046  0.25785686  0.56944795  1
  Se  Se141  1  0.59007018  0.58646906  0.05879532  1
  Se  Se142  1  0.57993349  0.57753312  0.55254297  1
  Se  Se143  1  0.58362807  0.91585190  0.05131240  1
  Se  Se144  1  0.58146773  0.91351899  0.55243291  1
  Se  Se145  1  0.91746165  0.25365825  0.05231714  1
  Se  Se146  1  0.92022760  0.24993873  0.55167628  1
  Se  Se147  1  0.93076212  0.58338137  0.06312587  1
  Se  Se148  1  0.91058728  0.58241597  0.54620839  1
  Se  Se149  1  0.91661217  0.91213057  0.04613117  1
  Se  Se150  1  0.92276575  0.91665032  0.56791719  1
  Se  Se151  1  0.08418086  0.26517137  0.43928427  1
  Se  Se152  1  0.08912914  0.25235371  0.94519430  1
  Se  Se153  1  0.09175216  0.58179245  0.44239735  1
  Se  Se154  1  0.07768142  0.58319116  0.93594870  1
  Se  Se155  1  0.07772439  0.92379146  0.45054835  1
  Se  Se156  1  0.08782909  0.90923979  0.94718454  1
  Se  Se157  1  0.41107939  0.25147326  0.44538868  1
  Se  Se158  1  0.41582599  0.25615323  0.94844970  1
  Se  Se159  1  0.41959422  0.57713908  0.44721758  1
  Se  Se160  1  0.40593307  0.58719272  0.93253206  1
  Se  Se161  1  0.42165295  0.90800173  0.44953352  1
  Se  Se162  1  0.41960614  0.91791714  0.94351418  1
  Se  Se163  1  0.75139178  0.24441196  0.45570772  1
  Se  Se164  1  0.74382675  0.26350721  0.93731346  1
  Se  Se165  1  0.75284157  0.58415460  0.44677752  1
  Se  Se166  1  0.74288700  0.58947470  0.93915168  1
  Se  Se167  1  0.74720547  0.91926741  0.44072137  1
  Se  Se168  1  0.75263595  0.91304167  0.94787745  1
  Se  Se169  1  0.25869817  0.07658591  0.44175793  1
  Se  Se170  1  0.24561866  0.08818657  0.94889566  1
  Se  Se171  1  0.24657955  0.41858295  0.43793992  1
  Se  Se172  1  0.25406079  0.41722247  0.93968021  1
  Se  Se173  1  0.24960105  0.73122794  0.43581209  1
  Se  Se174  1  0.24667733  0.74812397  0.94264606  1
  Se  Se175  1  0.59123363  0.07278226  0.43748879  1
  Se  Se176  1  0.58561834  0.08379393  0.94511824  1
  Se  Se177  1  0.58139821  0.41046618  0.45437839  1
  Se  Se178  1  0.59064011  0.41337883  0.94002452  1
  Se  Se179  1  0.58180210  0.74714092  0.44725551  1
  Se  Se180  1  0.58016550  0.75101134  0.94748811  1
  Se  Se181  1  0.91836558  0.08897953  0.45292623  1
  Se  Se182  1  0.92477831  0.07403493  0.93452091  1
  Se  Se183  1  0.91721812  0.42007628  0.45578282  1
  Se  Se184  1  0.92534989  0.41547214  0.93708312  1
  Se  Se185  1  0.92033238  0.74183510  0.43883654  1
  Se  Se186  1  0.91663515  0.74555177  0.94996403  1
  Se  Se187  1  0.24393741  0.24836170  0.29244265  1
  Se  Se188  1  0.25715762  0.25268591  0.80655392  1
  Se  Se189  1  0.26889829  0.60007326  0.30188217  1
  Se  Se190  1  0.23830251  0.58110150  0.78900874  1
  Se  Se191  1  0.24621827  0.91588684  0.31269765  1
  Se  Se192  1  0.24238616  0.91282369  0.81515670  1
  Se  Se193  1  0.57210620  0.24493803  0.30516393  1
  Se  Se194  1  0.58753593  0.25728821  0.80264506  1
  Se  Se195  1  0.58649577  0.58290479  0.30777459  1
  Se  Se196  1  0.57369612  0.58025217  0.81053312  1
  Se  Se197  1  0.58341663  0.90909989  0.30896774  1
  Se  Se198  1  0.58499425  0.91296050  0.79923301  1
  Se  Se199  1  0.90704030  0.24905507  0.31128362  1
  Se  Se200  1  0.92507102  0.25325259  0.80259918  1
  Se  Se201  1  0.94498318  0.60257233  0.31300123  1
  Se  Se202  1  0.90133234  0.56944425  0.79961766  1
  Se  Se203  1  0.90983590  0.90420152  0.31058992  1
  Se  Se204  1  0.91620902  0.91567427  0.80795064  1
  Se  Se205  1  0.09140401  0.10346878  0.30403630  1
  Se  Se206  1  0.08617169  0.08246341  0.80362406  1
  Se  Se207  1  0.05385665  0.39703817  0.30696241  1
  Se  Se208  1  0.10015028  0.42421475  0.79400819  1
  Se  Se209  1  0.09011870  0.75841001  0.29867106  1
  Se  Se210  1  0.07511463  0.74606561  0.80851863  1
  Se  Se211  1  0.41349695  0.08889690  0.30751828  1
  Se  Se212  1  0.42670406  0.09114732  0.81453306  1
  Se  Se213  1  0.41630532  0.41651513  0.30465150  1
  Se  Se214  1  0.41925497  0.41864572  0.80298063  1
  Se  Se215  1  0.42005580  0.74835764  0.30484561  1
  Se  Se216  1  0.40194324  0.74540169  0.79762609  1
  Se  Se217  1  0.74752552  0.08298664  0.31108616  1
  Se  Se218  1  0.74937416  0.08843982  0.80347766  1
  Se  Se219  1  0.74754062  0.41580954  0.32286507  1
  Se  Se220  1  0.75877415  0.42283291  0.79412286  1
  Se  Se221  1  0.74924889  0.74436116  0.29670717  1
  Se  Se222  1  0.75134083  0.75349069  0.81414928  1
  Se  Se223  1  0.23711197  0.09201671  0.18849147  1
  Se  Se224  1  0.25320263  0.09008511  0.69073623  1
  Se  Se225  1  0.24175907  0.42003691  0.20799646  1
  Se  Se226  1  0.27440052  0.39486595  0.69026245  1
  Se  Se227  1  0.25806777  0.75387811  0.19101870  1
  Se  Se228  1  0.23777751  0.75741586  0.69775123  1
  Se  Se229  1  0.57039194  0.09274620  0.18865494  1
  Se  Se230  1  0.58828258  0.08253874  0.69851321  1
  Se  Se231  1  0.57402061  0.42559619  0.18602539  1
  Se  Se232  1  0.58588088  0.41713930  0.69898547  1
  Se  Se233  1  0.59208178  0.74041392  0.19386160  1
  Se  Se234  1  0.57305625  0.75277781  0.69014425  1
  Se  Se235  1  0.90890091  0.08771770  0.19740646  1
  Se  Se236  1  0.92087941  0.08201742  0.69961580  1
  Se  Se237  1  0.88944006  0.43824761  0.20184861  1
  Se  Se238  1  0.94403208  0.39707151  0.68674657  1
  Se  Se239  1  0.92875651  0.74487156  0.19177324  1
  Se  Se240  1  0.91198280  0.74881227  0.70077629  1
  Se  Se241  1  0.05312237  0.27127458  0.19214906  1
  Se  Se242  1  0.09336824  0.24356090  0.69736015  1
  Se  Se243  1  0.09980344  0.57396613  0.20333742  1
  Se  Se244  1  0.05010323  0.60534534  0.69009617  1
  Se  Se245  1  0.08948336  0.91489685  0.18562770  1
  Se  Se246  1  0.07530098  0.92089057  0.70535081  1
  Se  Se247  1  0.40716849  0.25623212  0.19012355  1
  Se  Se248  1  0.41961628  0.25071289  0.70170713  1
  Se  Se249  1  0.41862063  0.58591255  0.19929663  1
  Se  Se250  1  0.41321693  0.58362691  0.69094822  1
  Se  Se251  1  0.43050980  0.90476940  0.19055400  1
  Se  Se252  1  0.42066514  0.91019317  0.69049254  1
  Se  Se253  1  0.75324677  0.24314882  0.18802961  1
  Se  Se254  1  0.75822887  0.25149925  0.69507669  1
  Se  Se255  1  0.76252657  0.57323668  0.20356695  1
  Se  Se256  1  0.75621840  0.57447431  0.68876523  1
  Se  Se257  1  0.76301047  0.90605083  0.18570572  1
  Se  Se258  1  0.74817304  0.91816764  0.70020476  1
