# generated using pymatgen
data_In86Cu29Se144
_symmetry_space_group_name_H-M   'P 1'
_cell_length_a   17.57741036
_cell_length_b   17.57432998
_cell_length_c   23.43319216
_cell_angle_alpha   89.97046657
_cell_angle_beta   90.02595680
_cell_angle_gamma   89.97772434
_symmetry_Int_Tables_number   1
_chemical_formula_structural   In86Cu29Se144
_chemical_formula_sum   'In86 Cu29 Se144'
_cell_volume   7238.77348745
_cell_formula_units_Z   1
loop_
 _symmetry_equiv_pos_site_id
 _symmetry_equiv_pos_as_xyz
  1  'x, y, z'
loop_
 _atom_site_type_symbol
 _atom_site_label
 _atom_site_symmetry_multiplicity
 _atom_site_fract_x
 _atom_site_fract_y
 _atom_site_fract_z
 _atom_site_occupancy
  In  In0  1  0.01172276  0.16571511  0.13142955  1
  In  In1  1  0.00181160  0.16680722  0.61458638  1
  In  In2  1  -0.00549663  0.51139771  0.12792620  1
  In  In3  1  -0.00062151  0.49406570  0.63772539  1
  In  In4  1  -0.00281944  0.81597183  0.10597722  1
  In  In5  1  -0.00631901  0.83742683  0.63505842  1
  In  In6  1  0.33499003  0.14422114  0.13046347  1
  In  In7  1  0.33442353  0.16117410  0.62620560  1
  In  In8  1  0.34911572  0.50657678  0.12799267  1
  In  In9  1  0.33082128  0.48950005  0.62726253  1
  In  In10  1  0.33578372  0.83537712  0.11622567  1
  In  In11  1  0.35067896  0.83559154  0.62539335  1
  In  In12  1  0.65104457  0.16734243  0.12422138  1
  In  In13  1  0.65681187  0.15542526  0.61888094  1
  In  In14  1  0.68094494  0.49659010  0.11985393  1
  In  In15  1  0.67217887  0.51575788  0.62964821  1
  In  In16  1  0.66984972  0.83372446  0.11979486  1
  In  In17  1  0.66412959  0.84027905  0.63463918  1
  In  In18  1  0.17436703  0.00069304  0.37880172  1
  In  In19  1  0.16094199  -0.00605741  0.86568575  1
  In  In20  1  0.15040917  0.33141832  0.38187343  1
  In  In21  1  0.16299479  0.33380858  0.86587891  1
  In  In22  1  0.17140881  0.67480109  0.36456035  1
  In  In23  1  0.15536296  0.68617438  0.88923570  1
  In  In24  1  0.49871895  0.00164829  0.37436102  1
  In  In25  1  0.50156153  -0.00112987  0.87539299  1
  In  In26  1  0.50685874  0.33121046  0.38706581  1
  In  In27  1  0.48814017  0.33613018  0.86964459  1
  In  In28  1  0.48901052  0.68119838  0.38280778  1
  In  In29  1  0.50945852  0.67405540  0.88175891  1
  In  In30  1  0.82876030  0.01208274  0.37373589  1
  In  In31  1  0.82255926  -0.01350998  0.86534062  1
  In  In32  1  0.83629415  0.32820919  0.37831987  1
  In  In33  1  0.84493735  0.33375720  0.86794871  1
  In  In34  1  0.84070550  0.65983106  0.37117465  1
  In  In35  1  0.83480850  0.67136454  0.88359911  1
  In  In36  1  -0.01684926  0.18091964  0.39954373  1
  In  In37  1  0.00108412  0.16820500  0.86260430  1
  In  In38  1  0.00164542  0.50472748  0.36885388  1
  In  In39  1  -0.01371388  0.49825090  0.87000423  1
  In  In40  1  0.00924038  0.83077169  0.37156782  1
  In  In41  1  -0.00350780  0.82968666  0.87583924  1
  In  In42  1  0.34489998  0.15785622  0.38642242  1
  In  In43  1  0.33879208  0.17114821  0.86626954  1
  In  In44  1  0.33278246  0.51423604  0.37403933  1
  In  In45  1  0.33828820  0.49622519  0.86924829  1
  In  In46  1  0.35088320  0.85252099  0.35738108  1
  In  In47  1  0.32394999  0.84070663  0.88681751  1
  In  In48  1  0.67288389  0.15519276  0.38005219  1
  In  In49  1  0.66603667  0.14663382  0.86812768  1
  In  In50  1  0.66977797  0.49030879  0.37982007  1
  In  In51  1  0.67698587  0.52723750  0.87007537  1
  In  In52  1  0.64665000  0.83441296  0.36970964  1
  In  In53  1  0.66393854  0.83283935  0.88319235  1
  In  In54  1  0.18391049  -0.00832291  0.12840754  1
  In  In55  1  0.15463119  0.01551617  0.63230758  1
  In  In56  1  0.16135518  0.31698976  0.13085975  1
  In  In57  1  0.16840491  0.32960275  0.62656849  1
  In  In58  1  0.16669476  0.67573587  0.12008719  1
  In  In59  1  0.16016183  0.65909555  0.63047243  1
  In  In60  1  0.49646332  -0.00213705  0.12512746  1
  In  In61  1  0.50229989  -0.00340276  0.62748095  1
  In  In62  1  0.51670937  0.33400220  0.12293562  1
  In  In63  1  0.48847912  0.32266891  0.61922349  1
  In  In64  1  0.48695263  0.67954941  0.12776396  1
  In  In65  1  0.50982102  0.67830389  0.62140016  1
  In  In66  1  0.83411238  -0.01865384  0.12168714  1
  In  In67  1  0.83224265  0.00597595  0.62629266  1
  In  In68  1  0.83931132  0.34571945  0.12067584  1
  In  In69  1  0.86104226  0.32728666  0.62609264  1
  In  In70  1  0.84635228  0.68459971  0.09623827  1
  In  In71  1  0.83386203  0.65397452  0.64801854  1
  In  In72  1  0.66425235  0.66961030  0.24056552  1
  In  In73  1  0.83261009  0.16202038  -0.01096198  1
  In  In74  1  0.67306901  0.32888703  0.25503433  1
  In  In75  1  0.66585732  0.33371513  0.74087130  1
  In  In76  1  0.83319189  0.49532583  0.50720874  1
  In  In77  1  0.82685300  0.83731527  0.51093051  1
  In  In78  1  0.50783975  0.50642172  -0.00531669  1
  In  In79  1  0.00251566  -0.00240443  0.25200735  1
  In  In80  1  0.33041682  0.33419777  0.25258461  1
  In  In81  1  0.17277465  0.83811359  0.49564375  1
  In  In82  1  0.16545930  0.50230258  0.00434344  1
  In  In83  1  0.16779256  0.49622675  0.50704240  1
  In  In84  1  0.32659260  0.66799470  0.75752225  1
  In  In85  1  0.17013335  0.15799093  0.00568390  1
  Cu  Cu86  1  0.15953133  0.16993992  0.25936141  1
  Cu  Cu87  1  0.15584103  0.49984428  0.75206281  1
  Cu  Cu88  1  0.85011334  0.50635826  0.24310882  1
  Cu  Cu89  1  0.83336372  0.82602677  0.23992604  1
  Cu  Cu90  1  0.16833320  0.16764836  0.74362805  1
  Cu  Cu91  1  0.50450823  0.83827955  0.75318178  1
  Cu  Cu92  1  0.66138298  0.66966899  0.50569013  1
  Cu  Cu93  1  0.16335677  0.82625617  0.24344183  1
  Cu  Cu94  1  0.16825812  0.83726124  0.75702123  1
  Cu  Cu95  1  0.66410078  0.33225872  0.50499909  1
  Cu  Cu96  1  0.66441568  0.33343189  -0.00517220  1
  Cu  Cu97  1  0.33800227  -0.00093914  0.50244251  1
  Cu  Cu98  1  0.49996639  0.15979431  0.74511558  1
  Cu  Cu99  1  0.00345214  -0.01261026  -0.00803349  1
  Cu  Cu100  1  0.50291277  0.50985700  0.25579042  1
  Cu  Cu101  1  -0.00198835  0.33262906  -0.00459449  1
  Cu  Cu102  1  0.34002544  0.32637134  -0.00583008  1
  Cu  Cu103  1  0.65753120  -0.00656447  0.50120216  1
  Cu  Cu104  1  0.49435890  0.50096509  0.75055329  1
  Cu  Cu105  1  0.33934010  0.00023410  0.00043466  1
  Cu  Cu106  1  0.16367078  0.50310245  0.24939419  1
  Cu  Cu107  1  0.49346716  0.15809718  0.25028529  1
  Cu  Cu108  1  0.84081940  0.16416065  0.74439977  1
  Cu  Cu109  1  0.34420507  0.66933215  0.49614807  1
  Cu  Cu110  1  0.83545711  0.83229331  0.75690969  1
  Cu  Cu111  1  0.33536010  0.33187622  0.50433579  1
  Cu  Cu112  1  0.83281948  0.16708396  0.25590029  1
  Cu  Cu113  1  0.00148494  0.66711135  0.50105019  1
  Cu  Cu114  1  0.66220231  0.00069919  -0.00084069  1
  Se  Se115  1  0.07477209  0.06605636  0.06016028  1
  Se  Se116  1  0.09311180  0.08700467  0.54956430  1
  Se  Se117  1  0.07940302  0.40319325  0.06114593  1
  Se  Se118  1  0.06969787  0.40984445  0.55963047  1
  Se  Se119  1  0.08948842  0.74263120  0.04099559  1
  Se  Se120  1  0.08090814  0.74928349  0.55962484  1
  Se  Se121  1  0.42020992  0.08732839  0.05229971  1
  Se  Se122  1  0.42153608  0.08122802  0.55772270  1
  Se  Se123  1  0.41674945  0.40948681  0.05525444  1
  Se  Se124  1  0.41652320  0.42094715  0.55381538  1
  Se  Se125  1  0.42043129  0.75343054  0.04811989  1
  Se  Se126  1  0.42309945  0.75474692  0.55076328  1
  Se  Se127  1  0.74663483  0.08049130  0.05900256  1
  Se  Se128  1  0.74530280  0.07547626  0.55205841  1
  Se  Se129  1  0.75237670  0.41214646  0.04631047  1
  Se  Se130  1  0.74357807  0.40698271  0.56821964  1
  Se  Se131  1  0.73037136  0.74105008  0.04607779  1
  Se  Se132  1  0.74804117  0.73710949  0.56954182  1
  Se  Se133  1  0.26259083  0.25286682  0.06150148  1
  Se  Se134  1  0.25290980  0.24964169  0.55838887  1
  Se  Se135  1  0.26478032  0.58685396  0.05810915  1
  Se  Se136  1  0.26048865  0.59562456  0.55860902  1
  Se  Se137  1  0.24744485  0.91770716  0.04671145  1
  Se  Se138  1  0.25593841  0.92234454  0.56416582  1
  Se  Se139  1  0.58261068  0.24975834  0.04735612  1
  Se  Se140  1  0.57894998  0.24576618  0.55297300  1
  Se  Se141  1  0.58469186  0.58790939  0.06770843  1
  Se  Se142  1  0.58174640  0.58032224  0.55629869  1
  Se  Se143  1  0.58205154  0.91898795  0.05595195  1
  Se  Se144  1  0.58107759  0.90801767  0.55784745  1
  Se  Se145  1  0.92413375  0.24488778  0.05642029  1
  Se  Se146  1  0.90768462  0.24062338  0.54703546  1
  Se  Se147  1  0.90645925  0.56567365  0.05099783  1
  Se  Se148  1  0.92184234  0.59138790  0.56382103  1
  Se  Se149  1  0.91451175  0.91146645  0.04636334  1
  Se  Se150  1  0.92849520  0.92547872  0.55766128  1
  Se  Se151  1  0.09035498  0.24508655  0.45700804  1
  Se  Se152  1  0.08167849  0.24920996  0.94175001  1
  Se  Se153  1  0.08574093  0.59148119  0.44151782  1
  Se  Se154  1  0.07139055  0.58290702  0.94283603  1
  Se  Se155  1  0.07196906  0.92586269  0.44366430  1
  Se  Se156  1  0.09232840  0.90988321  0.94045166  1
  Se  Se157  1  0.42108999  0.24879656  0.45240777  1
  Se  Se158  1  0.42251072  0.24462838  0.94152827  1
  Se  Se159  1  0.42321577  0.57788481  0.44690079  1
  Se  Se160  1  0.40661880  0.58892183  0.94015359  1
  Se  Se161  1  0.41577777  0.91609069  0.44383338  1
  Se  Se162  1  0.42250995  0.91653319  0.94736140  1
  Se  Se163  1  0.74337228  0.25475780  0.44353589  1
  Se  Se164  1  0.74140275  0.25371125  0.93093641  1
  Se  Se165  1  0.74620940  0.59266793  0.44583077  1
  Se  Se166  1  0.74638882  0.59098226  0.95234419  1
  Se  Se167  1  0.74090089  0.91675035  0.43940865  1
  Se  Se168  1  0.75125106  0.92089152  0.94807301  1
  Se  Se169  1  0.25132800  0.08176773  0.45141774  1
  Se  Se170  1  0.25669402  0.07807329  0.93766380  1
  Se  Se171  1  0.25802508  0.41179109  0.44038996  1
  Se  Se172  1  0.25440913  0.40807455  0.94141361  1
  Se  Se173  1  0.26225842  0.74823871  0.43609858  1
  Se  Se174  1  0.26261609  0.73830957  0.95081913  1
  Se  Se175  1  0.57981513  0.08235985  0.44667064  1
  Se  Se176  1  0.58195997  0.08611963  0.94596639  1
  Se  Se177  1  0.58493585  0.42146512  0.45333124  1
  Se  Se178  1  0.59141080  0.41545045  0.93033387  1
  Se  Se179  1  0.58342430  0.75380006  0.44931854  1
  Se  Se180  1  0.58222842  0.75350837  0.95532086  1
  Se  Se181  1  0.90582266  0.07804634  0.45103859  1
  Se  Se182  1  0.92677023  0.07280919  0.93316031  1
  Se  Se183  1  0.92690408  0.41592967  0.44321892  1
  Se  Se184  1  0.91259137  0.41432376  0.94543381  1
  Se  Se185  1  0.91917210  0.74841073  0.44430936  1
  Se  Se186  1  0.91376283  0.76010242  0.95068425  1
  Se  Se187  1  0.24696993  0.24570919  0.31737099  1
  Se  Se188  1  0.24894283  0.25114881  0.80087717  1
  Se  Se189  1  0.25151296  0.58508421  0.29928670  1
  Se  Se190  1  0.23311137  0.57887669  0.81574991  1
  Se  Se191  1  0.23668376  0.91291652  0.30288525  1
  Se  Se192  1  0.25928753  0.91709576  0.80463912  1
  Se  Se193  1  0.57487474  0.24112440  0.30894249  1
  Se  Se194  1  0.57885436  0.24456630  0.80522805  1
  Se  Se195  1  0.58736815  0.58409135  0.31577928  1
  Se  Se196  1  0.57218943  0.58606204  0.80527892  1
  Se  Se197  1  0.57709744  0.92204087  0.30102534  1
  Se  Se198  1  0.58988663  0.91831839  0.80846551  1
  Se  Se199  1  0.91815611  0.24500942  0.31051591  1
  Se  Se200  1  0.92040301  0.25328676  0.79477759  1
  Se  Se201  1  0.92783293  0.59305382  0.29818828  1
  Se  Se202  1  0.90825749  0.58977074  0.80786657  1
  Se  Se203  1  0.90575896  0.90695061  0.30796164  1
  Se  Se204  1  0.92429793  0.91867321  0.80319581  1
  Se  Se205  1  0.07868355  0.08938389  0.31869304  1
  Se  Se206  1  0.08547007  0.08375331  0.79819518  1
  Se  Se207  1  0.08640396  0.41793385  0.30522535  1
  Se  Se208  1  0.07232915  0.41359885  0.80300954  1
  Se  Se209  1  0.07698619  0.74640849  0.29710833  1
  Se  Se210  1  0.08426482  0.75037061  0.80531370  1
  Se  Se211  1  0.40759552  0.08057860  0.30520087  1
  Se  Se212  1  0.41856951  0.07927842  0.80327559  1
  Se  Se213  1  0.42795431  0.41926862  0.31158159  1
  Se  Se214  1  0.40889436  0.41251220  0.79499443  1
  Se  Se215  1  0.41163560  0.74186079  0.30206744  1
  Se  Se216  1  0.42033400  0.75877449  0.81240852  1
  Se  Se217  1  0.74369865  0.08157412  0.29925699  1
  Se  Se218  1  0.75462899  0.08101303  0.79548139  1
  Se  Se219  1  0.76772561  0.42889813  0.30527528  1
  Se  Se220  1  0.74811929  0.41956588  0.80848656  1
  Se  Se221  1  0.75510006  0.75402152  0.30940398  1
  Se  Se222  1  0.75003512  0.75462806  0.81301799  1
  Se  Se223  1  0.23944884  0.08706976  0.20273674  1
  Se  Se224  1  0.25501038  0.07921909  0.69852108  1
  Se  Se225  1  0.24359758  0.42335562  0.18752557  1
  Se  Se226  1  0.24176902  0.42016583  0.69759421  1
  Se  Se227  1  0.25366008  0.75248336  0.18894063  1
  Se  Se228  1  0.24418639  0.75912240  0.68998735  1
  Se  Se229  1  0.58120235  0.08107863  0.19568007  1
  Se  Se230  1  0.58861949  0.07694495  0.69759631  1
  Se  Se231  1  0.58465188  0.42808708  0.19725670  1
  Se  Se232  1  0.57021952  0.42348183  0.68536335  1
  Se  Se233  1  0.57157193  0.76809004  0.19463310  1
  Se  Se234  1  0.58401231  0.74996650  0.70062354  1
  Se  Se235  1  0.90795360  0.08568439  0.18996064  1
  Se  Se236  1  0.92571948  0.08331506  0.69001584  1
  Se  Se237  1  0.92621644  0.41137315  0.19490536  1
  Se  Se238  1  0.89363149  0.43212461  0.69743726  1
  Se  Se239  1  0.91511553  0.74638719  0.18342691  1
  Se  Se240  1  0.91942715  0.74877531  0.70367217  1
  Se  Se241  1  0.07574247  0.25248229  0.20700015  1
  Se  Se242  1  0.08017620  0.24758862  0.69086714  1
  Se  Se243  1  0.08858750  0.58799043  0.19027988  1
  Se  Se244  1  0.07503214  0.58861051  0.70226833  1
  Se  Se245  1  0.08086181  0.90681056  0.18389609  1
  Se  Se246  1  0.08593506  0.91689132  0.69787989  1
  Se  Se247  1  0.42403870  0.24900299  0.18977392  1
  Se  Se248  1  0.41541104  0.24720094  0.69673817  1
  Se  Se249  1  0.41908000  0.58986911  0.20182176  1
  Se  Se250  1  0.41632564  0.58590724  0.68992664  1
  Se  Se251  1  0.38731847  0.93949924  0.18541962  1
  Se  Se252  1  0.41816603  0.91878997  0.70062784  1
  Se  Se253  1  0.75898947  0.24434006  0.18662455  1
  Se  Se254  1  0.75599405  0.24070345  0.68377049  1
  Se  Se255  1  0.76374380  0.58371454  0.18697683  1
  Se  Se256  1  0.73426198  0.58870014  0.71143082  1
  Se  Se257  1  0.74758375  0.91368736  0.19485894  1
  Se  Se258  1  0.75876752  0.91636838  0.69682130  1
