# generated using pymatgen
data_In86Cu29Se144
_symmetry_space_group_name_H-M   'P 1'
_cell_length_a   17.58879121
_cell_length_b   17.58789923
_cell_length_c   23.44911140
_cell_angle_alpha   89.98985759
_cell_angle_beta   90.00212999
_cell_angle_gamma   89.97835438
_symmetry_Int_Tables_number   1
_chemical_formula_structural   In86Cu29Se144
_chemical_formula_sum   'In86 Cu29 Se144'
_cell_volume   7253.97933487
_cell_formula_units_Z   1
loop_
 _symmetry_equiv_pos_site_id
 _symmetry_equiv_pos_as_xyz
  1  'x, y, z'
loop_
 _atom_site_type_symbol
 _atom_site_label
 _atom_site_symmetry_multiplicity
 _atom_site_fract_x
 _atom_site_fract_y
 _atom_site_fract_z
 _atom_site_occupancy
  In  In0  1  -0.00440276  0.15139652  0.12548330  1
  In  In1  1  0.00432719  0.16933554  0.61422161  1
  In  In2  1  0.01596342  0.49743044  0.12656212  1
  In  In3  1  0.01146689  0.50571074  0.62503098  1
  In  In4  1  0.00210825  0.83221508  0.12330520  1
  In  In5  1  -0.01444073  0.83139646  0.63352706  1
  In  In6  1  0.32998006  0.16651116  0.12371346  1
  In  In7  1  0.33044711  0.17143851  0.62515439  1
  In  In8  1  0.33436969  0.50131474  0.12757157  1
  In  In9  1  0.33304021  0.49646201  0.61540056  1
  In  In10  1  0.31853196  0.84887927  0.13221902  1
  In  In11  1  0.34257218  0.83522425  0.62619796  1
  In  In12  1  0.67733774  0.18405856  0.10719779  1
  In  In13  1  0.67193029  0.15791223  0.63842140  1
  In  In14  1  0.65004420  0.48822540  0.11453131  1
  In  In15  1  0.65110803  0.50547190  0.63978816  1
  In  In16  1  0.67382359  0.82541054  0.11367794  1
  In  In17  1  0.66479766  0.83999561  0.64202044  1
  In  In18  1  0.17621961  0.02324065  0.35452108  1
  In  In19  1  0.17071998  -0.00091074  0.88133510  1
  In  In20  1  0.17963482  0.32078491  0.37492053  1
  In  In21  1  0.17109459  0.33337390  0.89004353  1
  In  In22  1  0.16132182  0.66236192  0.36858797  1
  In  In23  1  0.16650344  0.67278796  0.88446384  1
  In  In24  1  0.49220748  0.01328622  0.37419339  1
  In  In25  1  0.51514020  0.02725576  0.85812757  1
  In  In26  1  0.50113545  0.33877127  0.37037039  1
  In  In27  1  0.51672925  0.33130927  0.88723467  1
  In  In28  1  0.48363362  0.66353357  0.37281194  1
  In  In29  1  0.50485397  0.65294899  0.87525846  1
  In  In30  1  0.84942036  0.00513356  0.37090308  1
  In  In31  1  0.82690665  0.00891315  0.88534767  1
  In  In32  1  0.81816320  0.33225144  0.37127042  1
  In  In33  1  0.80938725  0.32876150  0.88249471  1
  In  In34  1  0.84049167  0.66288940  0.37120615  1
  In  In35  1  0.83751916  0.67403865  0.86510494  1
  In  In36  1  0.00535807  0.16484573  0.37332568  1
  In  In37  1  0.00228796  0.16413936  0.88785863  1
  In  In38  1  0.00157388  0.51665051  0.36808855  1
  In  In39  1  0.00159929  0.50978603  0.87848794  1
  In  In40  1  0.00632397  0.84072915  0.36407664  1
  In  In41  1  0.00539899  0.82639854  0.88147403  1
  In  In42  1  0.31564032  0.16161643  0.35427795  1
  In  In43  1  0.34243650  0.16386279  0.88396020  1
  In  In44  1  0.33239337  0.49552322  0.37300846  1
  In  In45  1  0.34210495  0.49465959  0.88698010  1
  In  In46  1  0.33252805  0.83503057  0.36693458  1
  In  In47  1  0.31955361  0.84393958  0.88155789  1
  In  In48  1  0.66132936  0.18083417  0.37797116  1
  In  In49  1  0.66813972  0.17160147  0.88239176  1
  In  In50  1  0.66661226  0.48419789  0.37464263  1
  In  In51  1  0.64717499  0.48979707  0.85663133  1
  In  In52  1  0.67393697  0.83649528  0.37966713  1
  In  In53  1  0.67907797  0.84456980  0.86399633  1
  In  In54  1  0.17031397  -0.00044818  0.12263886  1
  In  In55  1  0.16885023  0.00947025  0.62066919  1
  In  In56  1  0.17262599  0.33924461  0.12287525  1
  In  In57  1  0.16974233  0.33651468  0.61304140  1
  In  In58  1  0.16751382  0.66676576  0.12568922  1
  In  In59  1  0.17205468  0.65284214  0.62611737  1
  In  In60  1  0.48047705  0.00978834  0.12766909  1
  In  In61  1  0.49541643  0.00712020  0.63917933  1
  In  In62  1  0.49981983  0.32933002  0.12353160  1
  In  In63  1  0.49664787  0.33938529  0.63167233  1
  In  In64  1  0.49997896  0.65252262  0.12143844  1
  In  In65  1  0.50575663  0.66095945  0.62829704  1
  In  In66  1  0.84560009  0.01131411  0.11859966  1
  In  In67  1  0.82751924  0.00493224  0.63023365  1
  In  In68  1  0.82978011  0.31023490  0.12924306  1
  In  In69  1  0.82990240  0.31904376  0.62371556  1
  In  In70  1  0.83454785  0.67799187  0.11908536  1
  In  In71  1  0.83159214  0.67709943  0.64236037  1
  In  In72  1  0.83104327  0.49627183  -0.00644884  1
  In  In73  1  0.83818955  0.49534051  0.50077067  1
  In  In74  1  0.83301354  0.83427409  0.51289635  1
  In  In75  1  0.49944237  0.83297981  0.49706415  1
  In  In76  1  -0.00545079  0.33740158  0.74961780  1
  In  In77  1  -0.00418285  -0.00336045  0.75595445  1
  In  In78  1  0.66716107  0.65978053  0.23980886  1
  In  In79  1  0.66141892  0.00215573  0.24874641  1
  In  In80  1  0.49396576  0.83689225  -0.00273646  1
  In  In81  1  0.34410083  0.33061867  0.75431119  1
  In  In82  1  0.33649508  0.66608366  0.74904743  1
  In  In83  1  0.00518752  0.32730757  0.24647528  1
  In  In84  1  0.16379616  0.83444010  0.49989563  1
  In  In85  1  0.49502227  0.17161999  0.50498740  1
  Cu  Cu86  1  0.00150962  0.66708478  0.49729759  1
  Cu  Cu87  1  0.00672412  0.01246321  0.49415218  1
  Cu  Cu88  1  0.49358459  0.83598156  0.75548859  1
  Cu  Cu89  1  0.33292587  0.33078208  0.49509965  1
  Cu  Cu90  1  0.82963576  0.16742950  0.75746610  1
  Cu  Cu91  1  0.83229855  0.50089109  0.75538984  1
  Cu  Cu92  1  0.67243364  0.66651752  -0.00878247  1
  Cu  Cu93  1  0.49721290  0.17352418  0.24703687  1
  Cu  Cu94  1  0.65995575  -0.00087461  -0.00589797  1
  Cu  Cu95  1  0.33589396  0.34084318  0.00787661  1
  Cu  Cu96  1  0.49720779  0.49563708  0.24628834  1
  Cu  Cu97  1  0.66136654  0.65520493  0.50728102  1
  Cu  Cu98  1  0.33074896  0.00599948  0.00039958  1
  Cu  Cu99  1  0.49376275  0.83087222  0.24959013  1
  Cu  Cu100  1  0.17162376  0.16820326  0.74690196  1
  Cu  Cu101  1  0.16185620  0.82943303  0.24540637  1
  Cu  Cu102  1  0.00294834  -0.00938500  0.00215875  1
  Cu  Cu103  1  0.67075663  0.00517491  0.51285362  1
  Cu  Cu104  1  0.66505521  0.33465448  0.50071893  1
  Cu  Cu105  1  0.16203375  0.83380582  0.75942701  1
  Cu  Cu106  1  0.33329299  0.66626335  0.00473127  1
  Cu  Cu107  1  0.00446072  0.33426077  0.49471175  1
  Cu  Cu108  1  0.83723907  0.83388897  0.24283869  1
  Cu  Cu109  1  0.00090952  0.32873061  0.00849189  1
  Cu  Cu110  1  0.83290571  0.49891558  0.24899767  1
  Cu  Cu111  1  0.00522840  0.66573498  -0.00042966  1
  Cu  Cu112  1  0.17186968  0.50245684  0.24821204  1
  Cu  Cu113  1  0.16988664  0.50172798  0.75162613  1
  Cu  Cu114  1  0.33108255  0.65263796  0.49549925  1
  Se  Se115  1  0.08321338  0.07900835  0.05371772  1
  Se  Se116  1  0.09342215  0.09119637  0.54806839  1
  Se  Se117  1  0.08680045  0.41753047  0.05155620  1
  Se  Se118  1  0.08037648  0.42072145  0.55102306  1
  Se  Se119  1  0.08644320  0.74934400  0.05470209  1
  Se  Se120  1  0.07522850  0.74630177  0.56334971  1
  Se  Se121  1  0.41610168  0.09041158  0.04955814  1
  Se  Se122  1  0.41013351  0.07243011  0.55931545  1
  Se  Se123  1  0.42186330  0.42416182  0.05817519  1
  Se  Se124  1  0.41740023  0.40762331  0.55313701  1
  Se  Se125  1  0.41051342  0.75064344  0.06481826  1
  Se  Se126  1  0.40923019  0.73605693  0.55545571  1
  Se  Se127  1  0.74596776  0.07602470  0.05193310  1
  Se  Se128  1  0.75514956  0.09218467  0.55932660  1
  Se  Se129  1  0.75026334  0.40497627  0.05810221  1
  Se  Se130  1  0.74323684  0.41587960  0.56297420  1
  Se  Se131  1  0.75664444  0.75012775  0.04190052  1
  Se  Se132  1  0.73627719  0.74149964  0.56504483  1
  Se  Se133  1  0.25051533  0.25257891  0.05370441  1
  Se  Se134  1  0.25162921  0.24700869  0.55032964  1
  Se  Se135  1  0.24986104  0.58206989  0.05749730  1
  Se  Se136  1  0.24301976  0.57524503  0.54928823  1
  Se  Se137  1  0.24970215  0.91588733  0.04899546  1
  Se  Se138  1  0.25978619  0.92059161  0.55653630  1
  Se  Se139  1  0.56790057  0.24206897  0.04962618  1
  Se  Se140  1  0.59145755  0.25295497  0.56503128  1
  Se  Se141  1  0.58792990  0.58781286  0.04694898  1
  Se  Se142  1  0.57698706  0.57261933  0.55672523  1
  Se  Se143  1  0.58266814  0.92524013  0.06212531  1
  Se  Se144  1  0.58607438  0.92057891  0.56357339  1
  Se  Se145  1  0.91796826  0.24256055  0.05716452  1
  Se  Se146  1  0.91946794  0.25496344  0.55005387  1
  Se  Se147  1  0.92315727  0.58263062  0.05764112  1
  Se  Se148  1  0.91669184  0.59590861  0.56145044  1
  Se  Se149  1  0.91419584  0.91155209  0.05459556  1
  Se  Se150  1  0.93057990  0.93282191  0.55911507  1
  Se  Se151  1  0.08601038  0.24890075  0.44217026  1
  Se  Se152  1  0.08681813  0.24712286  0.95388986  1
  Se  Se153  1  0.08400354  0.58426991  0.44493362  1
  Se  Se154  1  0.08931330  0.57959456  0.94992775  1
  Se  Se155  1  0.08216404  0.92632850  0.43674445  1
  Se  Se156  1  0.08853092  0.91203980  0.94684441  1
  Se  Se157  1  0.41027750  0.24919138  0.43396021  1
  Se  Se158  1  0.41437763  0.26037239  0.94790916  1
  Se  Se159  1  0.42018844  0.57326073  0.44506748  1
  Se  Se160  1  0.42055737  0.58678693  0.95169991  1
  Se  Se161  1  0.40755997  0.92456681  0.44155825  1
  Se  Se162  1  0.41613217  0.93461510  0.93613382  1
  Se  Se163  1  0.75026231  0.25184800  0.44966838  1
  Se  Se164  1  0.75874651  0.23592757  0.95641466  1
  Se  Se165  1  0.74548809  0.58791539  0.44081483  1
  Se  Se166  1  0.74603288  0.58306146  0.92956296  1
  Se  Se167  1  0.74958670  0.92800362  0.44817364  1
  Se  Se168  1  0.74668934  0.91355458  0.94770257  1
  Se  Se169  1  0.25316070  0.08515426  0.43543421  1
  Se  Se170  1  0.24523795  0.09066835  0.94847377  1
  Se  Se171  1  0.24815550  0.41522817  0.44354120  1
  Se  Se172  1  0.24953584  0.42351192  0.95455155  1
  Se  Se173  1  0.25581633  0.74329028  0.44051240  1
  Se  Se174  1  0.25251071  0.75261248  0.95228936  1
  Se  Se175  1  0.58979498  0.07770408  0.44710375  1
  Se  Se176  1  0.57662694  0.08697791  0.94705602  1
  Se  Se177  1  0.58040367  0.41481341  0.44715472  1
  Se  Se178  1  0.59289186  0.42888870  0.94707760  1
  Se  Se179  1  0.59183570  0.73787402  0.44043168  1
  Se  Se180  1  0.58777166  0.75141754  0.93703206  1
  Se  Se181  1  0.91502138  0.09102758  0.44543985  1
  Se  Se182  1  0.91925207  0.07994418  0.95340528  1
  Se  Se183  1  0.92428975  0.41238467  0.43262379  1
  Se  Se184  1  0.92579966  0.40246308  0.93813130  1
  Se  Se185  1  0.92119668  0.75237484  0.44162402  1
  Se  Se186  1  0.91671966  0.74188983  0.94490584  1
  Se  Se187  1  0.24588221  0.25725314  0.29016698  1
  Se  Se188  1  0.24314839  0.24919616  0.81165959  1
  Se  Se189  1  0.25394464  0.58469036  0.30472473  1
  Se  Se190  1  0.25107099  0.57737579  0.81409339  1
  Se  Se191  1  0.24433586  0.91279528  0.30048352  1
  Se  Se192  1  0.24644211  0.92171097  0.80452966  1
  Se  Se193  1  0.58267785  0.25270174  0.30236242  1
  Se  Se194  1  0.57969616  0.24529588  0.81228083  1
  Se  Se195  1  0.57950331  0.57700334  0.30733275  1
  Se  Se196  1  0.58060395  0.59107510  0.79449672  1
  Se  Se197  1  0.57401645  0.90726455  0.31268737  1
  Se  Se198  1  0.58317890  0.92015957  0.80103251  1
  Se  Se199  1  0.90836075  0.24723233  0.30729369  1
  Se  Se200  1  0.91398849  0.24641656  0.81558214  1
  Se  Se201  1  0.91564849  0.58818493  0.29493480  1
  Se  Se202  1  0.92200405  0.58116508  0.80350951  1
  Se  Se203  1  0.91650119  0.91824864  0.29780705  1
  Se  Se204  1  0.90944220  0.91230435  0.81906827  1
  Se  Se205  1  0.06409785  0.07648994  0.29696911  1
  Se  Se206  1  0.08792851  0.09310394  0.80842420  1
  Se  Se207  1  0.08871317  0.42244388  0.30837154  1
  Se  Se208  1  0.09202876  0.41836385  0.81122079  1
  Se  Se209  1  0.07919894  0.74567639  0.30032669  1
  Se  Se210  1  0.08445398  0.74452078  0.80887773  1
  Se  Se211  1  0.41695663  0.08322331  0.29673478  1
  Se  Se212  1  0.39871972  0.07963320  0.80435027  1
  Se  Se213  1  0.41313956  0.41412306  0.30115674  1
  Se  Se214  1  0.42864143  0.42319510  0.81340933  1
  Se  Se215  1  0.41066155  0.74556417  0.30024477  1
  Se  Se216  1  0.41563024  0.75668526  0.81696778  1
  Se  Se217  1  0.74770347  0.08793091  0.31337474  1
  Se  Se218  1  0.74776198  0.08383253  0.81072022  1
  Se  Se219  1  0.74613331  0.41601459  0.29738796  1
  Se  Se220  1  0.75101101  0.41146302  0.80250962  1
  Se  Se221  1  0.75390672  0.75584980  0.30360748  1
  Se  Se222  1  0.73762590  0.73979977  0.80131048  1
  Se  Se223  1  0.26431359  0.06857536  0.19052689  1
  Se  Se224  1  0.25138186  0.08398404  0.69362691  1
  Se  Se225  1  0.25254858  0.41650142  0.19643374  1
  Se  Se226  1  0.24669413  0.41833745  0.69220367  1
  Se  Se227  1  0.25115731  0.74806820  0.19585146  1
  Se  Se228  1  0.24119371  0.75834577  0.69235157  1
  Se  Se229  1  0.57826797  0.09340466  0.18653098  1
  Se  Se230  1  0.59333005  0.07080856  0.70353751  1
  Se  Se231  1  0.58300537  0.41337421  0.19483884  1
  Se  Se232  1  0.58916476  0.40212020  0.70173450  1
  Se  Se233  1  0.57656664  0.75863097  0.18746396  1
  Se  Se234  1  0.57271678  0.75247990  0.69854815  1
  Se  Se235  1  0.90864056  0.08519541  0.20003716  1
  Se  Se236  1  0.91788608  0.09847901  0.69474214  1
  Se  Se237  1  0.91156288  0.41860082  0.18673393  1
  Se  Se238  1  0.90719079  0.42658475  0.68599230  1
  Se  Se239  1  0.91900938  0.74627137  0.19313053  1
  Se  Se240  1  0.92314905  0.74835925  0.70892169  1
  Se  Se241  1  0.09277607  0.23949557  0.18593270  1
  Se  Se242  1  0.09020006  0.25024469  0.68978479  1
  Se  Se243  1  0.08465762  0.58523082  0.19811927  1
  Se  Se244  1  0.08502574  0.58571543  0.70054905  1
  Se  Se245  1  0.08380437  0.91660517  0.19111741  1
  Se  Se246  1  0.08997055  0.91372480  0.69120385  1
  Se  Se247  1  0.41144855  0.25316553  0.19295426  1
  Se  Se248  1  0.42903232  0.23374581  0.69664397  1
  Se  Se249  1  0.41739013  0.58602325  0.19764920  1
  Se  Se250  1  0.41954305  0.56772339  0.69241126  1
  Se  Se251  1  0.41359274  0.91966747  0.19959486  1
  Se  Se252  1  0.40990726  0.91750226  0.70118268  1
  Se  Se253  1  0.73746221  0.24324464  0.19705541  1
  Se  Se254  1  0.75062159  0.25241169  0.70189748  1
  Se  Se255  1  0.75588186  0.57098768  0.17909185  1
  Se  Se256  1  0.74849645  0.58292679  0.70016608  1
  Se  Se257  1  0.75071974  0.91158478  0.18678098  1
  Se  Se258  1  0.77233651  0.90518187  0.69729395  1
