# generated using pymatgen
data_In86Cu29Se144
_symmetry_space_group_name_H-M   'P 1'
_cell_length_a   17.61191680
_cell_length_b   17.61336503
_cell_length_c   23.46589362
_cell_angle_alpha   89.99033439
_cell_angle_beta   90.02816937
_cell_angle_gamma   90.00408330
_symmetry_Int_Tables_number   1
_chemical_formula_structural   In86Cu29Se144
_chemical_formula_sum   'In86 Cu29 Se144'
_cell_volume   7279.23933476
_cell_formula_units_Z   1
loop_
 _symmetry_equiv_pos_site_id
 _symmetry_equiv_pos_as_xyz
  1  'x, y, z'
loop_
 _atom_site_type_symbol
 _atom_site_label
 _atom_site_symmetry_multiplicity
 _atom_site_fract_x
 _atom_site_fract_y
 _atom_site_fract_z
 _atom_site_occupancy
  In  In0  1  0.00680090  0.15229931  0.11683919  1
  In  In1  1  -0.00856036  0.16775261  0.62223844  1
  In  In2  1  0.00968614  0.50838121  0.12017215  1
  In  In3  1  0.00906357  0.50005866  0.62337083  1
  In  In4  1  -0.01548630  0.83585283  0.11844163  1
  In  In5  1  0.00041060  0.83309574  0.62860660  1
  In  In6  1  0.33341507  0.16043219  0.13087399  1
  In  In7  1  0.32880812  0.16029678  0.62314407  1
  In  In8  1  0.32932620  0.50813715  0.13925382  1
  In  In9  1  0.33659951  0.50616550  0.60798467  1
  In  In10  1  0.33896549  0.81762142  0.13399607  1
  In  In11  1  0.34113492  0.84522035  0.62049981  1
  In  In12  1  0.64882931  0.17206764  0.14279592  1
  In  In13  1  0.66791672  0.15407251  0.61595115  1
  In  In14  1  0.66609608  0.49269146  0.13753123  1
  In  In15  1  0.67495193  0.51680990  0.61953726  1
  In  In16  1  0.66797999  0.83547849  0.12816864  1
  In  In17  1  0.66049708  0.82166190  0.61921611  1
  In  In18  1  0.17545530  -0.00222418  0.37299941  1
  In  In19  1  0.17447082  0.00343612  0.86957046  1
  In  In20  1  0.19723950  0.34519292  0.36189324  1
  In  In21  1  0.16468965  0.33139372  0.88698379  1
  In  In22  1  0.17029666  0.67269081  0.38009601  1
  In  In23  1  0.15385730  0.67267113  0.87686715  1
  In  In24  1  0.49651590  0.01984716  0.34933566  1
  In  In25  1  0.49676196  0.00062891  0.88852761  1
  In  In26  1  0.51791447  0.35240376  0.35426552  1
  In  In27  1  0.48860308  0.32891044  0.88287861  1
  In  In28  1  0.48312726  0.64430447  0.35494342  1
  In  In29  1  0.51727982  0.66777007  0.87824990  1
  In  In30  1  0.82443910  0.00264971  0.38931203  1
  In  In31  1  0.83099401  -0.01414881  0.87502215  1
  In  In32  1  0.81122800  0.32979446  0.37585186  1
  In  In33  1  0.84475982  0.33481776  0.88182602  1
  In  In34  1  0.84309363  0.68146277  0.36895027  1
  In  In35  1  0.83360597  0.66924345  0.87709296  1
  In  In36  1  0.00201882  0.15583881  0.37682805  1
  In  In37  1  0.01437045  0.16940133  0.87420796  1
  In  In38  1  -0.00064026  0.52022028  0.37499235  1
  In  In39  1  -0.00777700  0.50654843  0.88462303  1
  In  In40  1  0.01141267  0.83285770  0.38227654  1
  In  In41  1  -0.00583726  0.82135363  0.86550583  1
  In  In42  1  0.37173152  0.21294732  0.31252805  1
  In  In43  1  0.33950301  0.15644173  0.88909381  1
  In  In44  1  0.33539762  0.50408382  0.38019808  1
  In  In45  1  0.33289611  0.48974843  0.88323038  1
  In  In46  1  0.32975631  0.82757065  0.37067683  1
  In  In47  1  0.32758778  0.84650836  0.88067860  1
  In  In48  1  0.66844121  0.16914577  0.36857841  1
  In  In49  1  0.66377840  0.15438047  0.88280269  1
  In  In50  1  0.65271740  0.49672568  0.36321535  1
  In  In51  1  0.66539076  0.51853990  0.87874372  1
  In  In52  1  0.67254175  0.84013366  0.37073793  1
  In  In53  1  0.67815814  0.82977702  0.88724150  1
  In  In54  1  0.16981391  0.01695527  0.12693990  1
  In  In55  1  0.17483211  -0.00888127  0.62915094  1
  In  In56  1  0.17296376  0.33444788  0.12632562  1
  In  In57  1  0.16202907  0.34214659  0.61671661  1
  In  In58  1  0.17266880  0.65464520  0.13195830  1
  In  In59  1  0.15932049  0.65539417  0.62129988  1
  In  In60  1  0.50010344  -0.00157448  0.13155092  1
  In  In61  1  0.49682127  -0.01009272  0.62455144  1
  In  In62  1  0.50394453  0.32823561  0.14003428  1
  In  In63  1  0.48656085  0.33337148  0.61981085  1
  In  In64  1  0.49468515  0.67024772  0.13742840  1
  In  In65  1  0.50957482  0.67441105  0.61981433  1
  In  In66  1  0.83454420  -0.01341571  0.12141257  1
  In  In67  1  0.84265189  0.00842410  0.61587750  1
  In  In68  1  0.81247023  0.33225799  0.12986541  1
  In  In69  1  0.84010324  0.33446959  0.61532422  1
  In  In70  1  0.83454502  0.67004032  0.12644897  1
  In  In71  1  0.82557141  0.67536957  0.62812388  1
  In  In72  1  0.50063775  0.83070517  0.49080117  1
  In  In73  1  0.66741877  0.33677074  0.74799174  1
  In  In74  1  0.16601522  0.83583273  -0.00182244  1
  In  In75  1  -0.00158839  -0.00919619  0.24367406  1
  In  In76  1  0.17192708  0.16646643  0.48836899  1
  In  In77  1  0.50046308  0.49872227  0.01739997  1
  In  In78  1  -0.00258563  0.33363018  0.24211984  1
  In  In79  1  0.32931483  0.33414698  0.75376226  1
  In  In80  1  0.50659628  0.17705066  0.48012368  1
  In  In81  1  0.32979761  0.67073467  0.75121651  1
  In  In82  1  0.82967137  0.16744379  0.00188184  1
  In  In83  1  0.00373914  0.33365885  0.74260369  1
  In  In84  1  0.66745530  -0.00986407  0.74697322  1
  In  In85  1  0.82939736  0.50100825  0.49357099  1
  Cu  Cu86  1  0.83251846  0.82752508  0.75025793  1
  Cu  Cu87  1  0.33462630  -0.00009810  0.00752852  1
  Cu  Cu88  1  0.67571774  0.67372716  0.00417052  1
  Cu  Cu89  1  0.00153999  0.33678476  0.00458465  1
  Cu  Cu90  1  0.00140417  0.33333703  0.49516626  1
  Cu  Cu91  1  0.33889432  0.66193411  0.01176808  1
  Cu  Cu92  1  0.49843501  0.83584353  0.75022656  1
  Cu  Cu93  1  0.66023567  0.00387883  0.00888101  1
  Cu  Cu94  1  0.65825954  0.33750128  0.01206485  1
  Cu  Cu95  1  0.49573990  0.15868642  0.76180666  1
  Cu  Cu96  1  0.00186333  0.67200708  0.50052493  1
  Cu  Cu97  1  -0.00136247  0.66805829  -0.00099894  1
  Cu  Cu98  1  0.82989529  0.51124221  0.75440859  1
  Cu  Cu99  1  0.83622646  0.16114558  0.74215599  1
  Cu  Cu100  1  0.33878251  0.00257891  0.49357138  1
  Cu  Cu101  1  0.50580238  0.83231870  0.25223502  1
  Cu  Cu102  1  0.82907739  0.16627481  0.25369905  1
  Cu  Cu103  1  0.00400543  -0.00253207  0.50119446  1
  Cu  Cu104  1  0.34087995  0.33792545  0.48740230  1
  Cu  Cu105  1  0.16239081  0.82328222  0.25137477  1
  Cu  Cu106  1  0.83155289  0.50750400  0.25377624  1
  Cu  Cu107  1  0.16157729  0.50835059  0.25352865  1
  Cu  Cu108  1  0.32803514  0.32520304  0.00777651  1
  Cu  Cu109  1  0.50749566  0.50896426  0.74668334  1
  Cu  Cu110  1  0.16290891  0.50086755  0.74961788  1
  Cu  Cu111  1  0.66083971  0.66421828  0.49259768  1
  Cu  Cu112  1  0.16507920  0.83505776  0.74968708  1
  Cu  Cu113  1  0.83340965  0.83455361  0.24959595  1
  Cu  Cu114  1  0.17424250  0.15656764  0.75118751  1
  Se  Se115  1  0.07737585  0.06331208  0.04925579  1
  Se  Se116  1  0.08607932  0.08288531  0.55883399  1
  Se  Se117  1  0.08873951  0.41637568  0.05715833  1
  Se  Se118  1  0.08110215  0.42115308  0.54662823  1
  Se  Se119  1  0.08280527  0.74266949  0.06099347  1
  Se  Se120  1  0.08376239  0.75176421  0.55873169  1
  Se  Se121  1  0.41857604  0.08226476  0.06072398  1
  Se  Se122  1  0.42034397  0.08384889  0.55314348  1
  Se  Se123  1  0.40706135  0.40594198  0.06930638  1
  Se  Se124  1  0.42156408  0.41841758  0.54525613  1
  Se  Se125  1  0.42301968  0.74771702  0.05863616  1
  Se  Se126  1  0.40877069  0.74444299  0.55388358  1
  Se  Se127  1  0.74009401  0.08640471  0.06804740  1
  Se  Se128  1  0.75140975  0.07920939  0.54812541  1
  Se  Se129  1  0.74508691  0.42219523  0.05791697  1
  Se  Se130  1  0.73977271  0.41046396  0.55432363  1
  Se  Se131  1  0.75675541  0.75921960  0.05765719  1
  Se  Se132  1  0.74506196  0.74318753  0.54971511  1
  Se  Se133  1  0.24668279  0.23982602  0.06093477  1
  Se  Se134  1  0.26209223  0.26069137  0.55401254  1
  Se  Se135  1  0.25292762  0.57723420  0.05866824  1
  Se  Se136  1  0.24431130  0.58453332  0.54946904  1
  Se  Se137  1  0.25580841  0.91520803  0.06582497  1
  Se  Se138  1  0.25661444  0.92436772  0.55104982  1
  Se  Se139  1  0.57952291  0.25140182  0.06362284  1
  Se  Se140  1  0.58568888  0.25492870  0.55858344  1
  Se  Se141  1  0.59473797  0.59411055  0.06542587  1
  Se  Se142  1  0.58109009  0.58343278  0.55033685  1
  Se  Se143  1  0.58074829  0.91558167  0.05990591  1
  Se  Se144  1  0.58948454  0.92338539  0.55322409  1
  Se  Se145  1  0.91858398  0.25807667  0.06485003  1
  Se  Se146  1  0.91924698  0.24980851  0.54758729  1
  Se  Se147  1  0.91719477  0.58673108  0.05607249  1
  Se  Se148  1  0.91855407  0.58780066  0.55797327  1
  Se  Se149  1  0.92644712  0.93077302  0.04779773  1
  Se  Se150  1  0.92181802  0.91418084  0.55504560  1
  Se  Se151  1  0.08381692  0.26126246  0.43128000  1
  Se  Se152  1  0.08095081  0.24760414  0.95329580  1
  Se  Se153  1  0.08431841  0.58741276  0.44863721  1
  Se  Se154  1  0.08601889  0.58398453  0.94875310  1
  Se  Se155  1  0.09209228  0.92324178  0.44629104  1
  Se  Se156  1  0.07947397  0.91563019  0.93065892  1
  Se  Se157  1  0.40371337  0.25087985  0.42359571  1
  Se  Se158  1  0.41724983  0.24660376  0.95555561  1
  Se  Se159  1  0.42552117  0.58444109  0.44452524  1
  Se  Se160  1  0.41793402  0.58596346  0.94482017  1
  Se  Se161  1  0.42054365  0.92826805  0.43017412  1
  Se  Se162  1  0.41494196  0.91268416  0.95418582  1
  Se  Se163  1  0.74383334  0.24257174  0.44642152  1
  Se  Se164  1  0.73672823  0.26210199  0.94391535  1
  Se  Se165  1  0.74468126  0.58982760  0.43028055  1
  Se  Se166  1  0.75363842  0.58603104  0.94974742  1
  Se  Se167  1  0.75958018  0.89750683  0.44858618  1
  Se  Se168  1  0.74755424  0.92590143  0.95382040  1
  Se  Se169  1  0.26886170  0.08696122  0.43096930  1
  Se  Se170  1  0.24682527  0.07585300  0.95060820  1
  Se  Se171  1  0.24564601  0.42131527  0.44776959  1
  Se  Se172  1  0.25060118  0.41344798  0.95332728  1
  Se  Se173  1  0.24394790  0.76533557  0.44664983  1
  Se  Se174  1  0.26016959  0.73776011  0.94477735  1
  Se  Se175  1  0.58605657  0.06950591  0.43313092  1
  Se  Se176  1  0.57779767  0.08813224  0.95585775  1
  Se  Se177  1  0.58794869  0.41147592  0.43852222  1
  Se  Se178  1  0.58493296  0.41594074  0.94320806  1
  Se  Se179  1  0.58308859  0.74010023  0.42783839  1
  Se  Se180  1  0.58524543  0.75225641  0.95241993  1
  Se  Se181  1  0.92075094  0.08307962  0.44997630  1
  Se  Se182  1  0.91569142  0.08527204  0.93476858  1
  Se  Se183  1  0.92052686  0.41127381  0.43279668  1
  Se  Se184  1  0.91484285  0.41931683  0.95406406  1
  Se  Se185  1  0.91826162  0.75401317  0.44743196  1
  Se  Se186  1  0.91746832  0.75294535  0.94527905  1
  Se  Se187  1  0.22571033  0.23224158  0.29933924  1
  Se  Se188  1  0.24450541  0.24186651  0.81467772  1
  Se  Se189  1  0.24788327  0.58424645  0.31097094  1
  Se  Se190  1  0.24602090  0.57419086  0.81275059  1
  Se  Se191  1  0.24545194  0.90900157  0.30121979  1
  Se  Se192  1  0.25288076  0.91512486  0.80149423  1
  Se  Se193  1  0.55947349  0.22622486  0.30665895  1
  Se  Se194  1  0.57889358  0.24506549  0.81254044  1
  Se  Se195  1  0.58330594  0.58208152  0.28999219  1
  Se  Se196  1  0.58918416  0.59007499  0.80083539  1
  Se  Se197  1  0.58608379  0.92018439  0.30213851  1
  Se  Se198  1  0.57930477  0.91066993  0.81518295  1
  Se  Se199  1  0.91340886  0.24580755  0.31054595  1
  Se  Se200  1  0.91086554  0.24537644  0.80413560  1
  Se  Se201  1  0.91902174  0.59125733  0.30014220  1
  Se  Se202  1  0.91923254  0.58560264  0.80888746  1
  Se  Se203  1  0.91304901  0.91280121  0.31385664  1
  Se  Se204  1  0.91372846  0.91482376  0.80148624  1
  Se  Se205  1  0.08688007  0.08267877  0.30255916  1
  Se  Se206  1  0.08257658  0.08138549  0.80247741  1
  Se  Se207  1  0.08144185  0.42226127  0.30996465  1
  Se  Se208  1  0.08709079  0.41838039  0.81160960  1
  Se  Se209  1  0.07923021  0.74594316  0.30825037  1
  Se  Se210  1  0.08391154  0.74479513  0.79727970  1
  Se  Se211  1  0.38018051  0.06563208  0.29328162  1
  Se  Se212  1  0.41437186  0.07615636  0.81438560  1
  Se  Se213  1  0.39021620  0.39808955  0.31193445  1
  Se  Se214  1  0.42892431  0.42743154  0.80663940  1
  Se  Se215  1  0.41425161  0.75118273  0.29950653  1
  Se  Se216  1  0.42214255  0.75528284  0.81408639  1
  Se  Se217  1  0.75496567  0.07751548  0.30873631  1
  Se  Se218  1  0.75336883  0.08887055  0.80569788  1
  Se  Se219  1  0.74981688  0.41823297  0.30121451  1
  Se  Se220  1  0.75721524  0.42233906  0.81304784  1
  Se  Se221  1  0.74861837  0.75062706  0.30111092  1
  Se  Se222  1  0.74751144  0.75194020  0.80881047  1
  Se  Se223  1  0.26344698  0.06731526  0.20162968  1
  Se  Se224  1  0.25867890  0.07739498  0.69623879  1
  Se  Se225  1  0.24132804  0.42048649  0.20070142  1
  Se  Se226  1  0.24644190  0.42591214  0.68904525  1
  Se  Se227  1  0.25069862  0.73969715  0.20115882  1
  Se  Se228  1  0.24600648  0.75821164  0.68614075  1
  Se  Se229  1  0.58150844  0.07411466  0.20547770  1
  Se  Se230  1  0.57533284  0.08864619  0.69380373  1
  Se  Se231  1  0.57770352  0.41847843  0.20534964  1
  Se  Se232  1  0.57756760  0.42262328  0.68533362  1
  Se  Se233  1  0.58946723  0.75042191  0.19816535  1
  Se  Se234  1  0.58112049  0.75226176  0.69718696  1
  Se  Se235  1  0.90728206  0.09066167  0.18965118  1
  Se  Se236  1  0.92261589  0.07870078  0.69390613  1
  Se  Se237  1  0.90623317  0.42738992  0.18720979  1
  Se  Se238  1  0.90462508  0.42810243  0.69176899  1
  Se  Se239  1  0.91878475  0.75401416  0.19573581  1
  Se  Se240  1  0.91752564  0.74637283  0.69618860  1
  Se  Se241  1  0.08589354  0.23737862  0.18868718  1
  Se  Se242  1  0.09964561  0.24026300  0.68833385  1
  Se  Se243  1  0.07541130  0.58750379  0.19971974  1
  Se  Se244  1  0.07864493  0.58343324  0.69819794  1
  Se  Se245  1  0.09272727  0.90431226  0.18387562  1
  Se  Se246  1  0.08243194  0.91969624  0.69676798  1
  Se  Se247  1  0.40498547  0.25309308  0.19942553  1
  Se  Se248  1  0.42182768  0.24013725  0.69692969  1
  Se  Se249  1  0.42820625  0.57329197  0.20317994  1
  Se  Se250  1  0.41901016  0.58172478  0.68845590  1
  Se  Se251  1  0.41815709  0.90914305  0.19725986  1
  Se  Se252  1  0.41481443  0.91986729  0.69944491  1
  Se  Se253  1  0.74278258  0.25240324  0.20569364  1
  Se  Se254  1  0.75579842  0.24459737  0.68658767  1
  Se  Se255  1  0.75042012  0.58757231  0.19538013  1
  Se  Se256  1  0.74600893  0.58963270  0.69819399  1
  Se  Se257  1  0.75184932  0.92015545  0.19743945  1
  Se  Se258  1  0.75702326  0.90605325  0.68440585  1
