# generated using pymatgen
data_In86Cu29Se144
_symmetry_space_group_name_H-M   'P 1'
_cell_length_a   17.59207584
_cell_length_b   17.59054193
_cell_length_c   23.44179798
_cell_angle_alpha   90.00577659
_cell_angle_beta   89.98170777
_cell_angle_gamma   89.98582420
_symmetry_Int_Tables_number   1
_chemical_formula_structural   In86Cu29Se144
_chemical_formula_sum   'In86 Cu29 Se144'
_cell_volume   7254.16098638
_cell_formula_units_Z   1
loop_
 _symmetry_equiv_pos_site_id
 _symmetry_equiv_pos_as_xyz
  1  'x, y, z'
loop_
 _atom_site_type_symbol
 _atom_site_label
 _atom_site_symmetry_multiplicity
 _atom_site_fract_x
 _atom_site_fract_y
 _atom_site_fract_z
 _atom_site_occupancy
  In  In0  1  -0.01291556  0.16195291  0.11298466  1
  In  In1  1  0.00453080  0.17725053  0.62315573  1
  In  In2  1  0.01135261  0.49366577  0.12318904  1
  In  In3  1  0.01523150  0.49356613  0.64261792  1
  In  In4  1  0.01393324  0.83456166  0.11606711  1
  In  In5  1  0.00197513  0.81187441  0.63365697  1
  In  In6  1  0.35193071  0.18376352  0.10427570  1
  In  In7  1  0.33936167  0.16691498  0.63756856  1
  In  In8  1  0.32385917  0.48540391  0.11770169  1
  In  In9  1  0.33877485  0.48736640  0.63197647  1
  In  In10  1  0.32642520  0.84217748  0.11736309  1
  In  In11  1  0.35850109  0.80945131  0.66759768  1
  In  In12  1  0.66250286  0.16618445  0.12365155  1
  In  In13  1  0.67224311  0.16017418  0.62668324  1
  In  In14  1  0.65447844  0.50749665  0.12557210  1
  In  In15  1  0.65945793  0.49772015  0.62521598  1
  In  In16  1  0.67113884  0.83260596  0.12673372  1
  In  In17  1  0.67173657  0.82886247  0.64990914  1
  In  In18  1  0.16510511  0.01806335  0.36785532  1
  In  In19  1  0.17635896  -0.00794552  0.88286339  1
  In  In20  1  0.17619565  0.34024411  0.37081449  1
  In  In21  1  0.16674095  0.33781375  0.87077873  1
  In  In22  1  0.15685544  0.66304452  0.38268411  1
  In  In23  1  0.17063631  0.66351423  0.86832644  1
  In  In24  1  0.50210538  -0.00633548  0.37314428  1
  In  In25  1  0.50560242  0.00527766  0.87186379  1
  In  In26  1  0.51345607  0.34688832  0.36545979  1
  In  In27  1  0.50075464  0.33355355  0.87885490  1
  In  In28  1  0.49547685  0.64858780  0.38072511  1
  In  In29  1  0.49169293  0.66253919  0.86201764  1
  In  In30  1  0.83831789  0.00849342  0.37182450  1
  In  In31  1  0.82972717  0.01391930  0.87688667  1
  In  In32  1  0.80897747  0.33370357  0.38250815  1
  In  In33  1  0.83058623  0.33069675  0.87257042  1
  In  In34  1  0.83686948  0.68097727  0.37779794  1
  In  In35  1  0.82929040  0.67515605  0.85799624  1
  In  In36  1  0.00159391  0.15912777  0.36892950  1
  In  In37  1  -0.00770496  0.17719909  0.88300248  1
  In  In38  1  0.00367296  0.50812223  0.38009208  1
  In  In39  1  0.02376425  0.51422139  0.85454290  1
  In  In40  1  -0.00973033  0.83618241  0.37728027  1
  In  In41  1  0.01857110  0.82810363  0.86722489  1
  In  In42  1  0.32197675  0.17071308  0.37214617  1
  In  In43  1  0.33391435  0.16956806  0.87807738  1
  In  In44  1  0.33817050  0.49589327  0.38408015  1
  In  In45  1  0.33217114  0.50114767  0.87013971  1
  In  In46  1  0.33331524  0.84052757  0.38187700  1
  In  In47  1  0.31444840  0.81302432  0.84626902  1
  In  In48  1  0.67670405  0.18160173  0.36381046  1
  In  In49  1  0.66495369  0.16859124  0.87767458  1
  In  In50  1  0.65077852  0.49031009  0.36729528  1
  In  In51  1  0.65954633  0.49073876  0.86968381  1
  In  In52  1  0.66869473  0.83592449  0.36808865  1
  In  In53  1  0.65766421  0.83383127  0.85425945  1
  In  In54  1  0.16101400  -0.00244995  0.11565028  1
  In  In55  1  0.17382841  -0.00083187  0.63187639  1
  In  In56  1  0.18303653  0.34272713  0.11562012  1
  In  In57  1  0.16198210  0.34462557  0.64298814  1
  In  In58  1  0.16863915  0.66426355  0.11404813  1
  In  In59  1  0.20845150  0.62270535  0.68246076  1
  In  In60  1  0.50372725  0.01104796  0.12150007  1
  In  In61  1  0.50410510  -0.00909785  0.64391328  1
  In  In62  1  0.49637930  0.33206331  0.12397541  1
  In  In63  1  0.49305320  0.33606802  0.63083990  1
  In  In64  1  0.51108715  0.66550358  0.12159521  1
  In  In65  1  0.51297375  0.65273372  0.63153556  1
  In  In66  1  0.81956769  0.01161411  0.13010492  1
  In  In67  1  0.82485764  -0.00479456  0.62644168  1
  In  In68  1  0.83429625  0.32257500  0.12225061  1
  In  In69  1  0.83774389  0.32444596  0.62450001  1
  In  In70  1  0.82595342  0.65790241  0.12162723  1
  In  In71  1  0.83697020  0.66560974  0.64070731  1
  In  In72  1  0.84075805  0.49382662  -0.00589231  1
  In  In73  1  0.33386081  0.66375232  0.25566502  1
  In  In74  1  0.50337862  0.17200849  0.49449430  1
  In  In75  1  0.83576303  0.83076919  0.51494669  1
  In  In76  1  0.83657636  0.83786147  -0.01166270  1
  In  In77  1  0.50894562  0.82287653  0.52204741  1
  In  In78  1  0.16549842  0.83177208  0.51178520  1
  In  In79  1  0.82945235  0.50206960  0.50323227  1
  In  In80  1  0.33385489  0.00812448  0.24387904  1
  In  In81  1  0.16923852  0.17552749  0.49696589  1
  In  In82  1  0.48956617  0.83369431  -0.01382260  1
  In  In83  1  -0.00554816  0.66984654  0.23972542  1
  In  In84  1  -0.00397235  -0.00112806  0.75746238  1
  In  In85  1  -0.00167324  0.33109258  0.24683371  1
  Cu  Cu86  1  0.00979539  0.34027868  -0.00436881  1
  Cu  Cu87  1  0.32796005  0.33790547  0.50590200  1
  Cu  Cu88  1  0.67680992  0.00304522  0.50418035  1
  Cu  Cu89  1  0.16678966  0.16765587  0.75783796  1
  Cu  Cu90  1  0.82591163  0.48818816  0.74697742  1
  Cu  Cu91  1  0.83431484  0.84112922  0.25140641  1
  Cu  Cu92  1  0.50472216  0.49470962  0.75302120  1
  Cu  Cu93  1  0.66404179  0.66118324  0.50255341  1
  Cu  Cu94  1  0.82811235  0.16664076  0.24675285  1
  Cu  Cu95  1  0.34026339  -0.00374114  0.51392545  1
  Cu  Cu96  1  0.32829707  -0.00297016  -0.00765120  1
  Cu  Cu97  1  0.66452496  0.33184913  -0.00141944  1
  Cu  Cu98  1  0.32135872  0.65297707  0.51559047  1
  Cu  Cu99  1  0.01305781  0.65288448  0.51205827  1
  Cu  Cu100  1  0.33577936  0.33787283  -0.00745140  1
  Cu  Cu101  1  0.00204829  0.33903677  0.50714986  1
  Cu  Cu102  1  0.50396976  0.17376171  0.75498061  1
  Cu  Cu103  1  0.01272312  0.66105254  -0.00897375  1
  Cu  Cu104  1  -0.00087091  -0.00004759  -0.00510644  1
  Cu  Cu105  1  0.49674381  0.49785793  0.24859897  1
  Cu  Cu106  1  0.50743216  0.83074098  0.24861272  1
  Cu  Cu107  1  0.00252003  0.00029844  0.49562669  1
  Cu  Cu108  1  0.82189500  0.50445861  0.24938960  1
  Cu  Cu109  1  0.16044628  0.83796224  0.24350149  1
  Cu  Cu110  1  0.66204315  0.00408077  -0.00114321  1
  Cu  Cu111  1  0.16535793  0.16946082  0.23897995  1
  Cu  Cu112  1  0.82929947  0.16800738  0.75181015  1
  Cu  Cu113  1  0.66527574  0.66135576  -0.00830861  1
  Cu  Cu114  1  0.33211926  0.66539068  -0.01123240  1
  Se  Se115  1  0.08092971  0.08499539  0.04852156  1
  Se  Se116  1  0.08483247  0.07752775  0.55666168  1
  Se  Se117  1  0.09200018  0.42361218  0.04918700  1
  Se  Se118  1  0.08549456  0.41618670  0.56329147  1
  Se  Se119  1  0.08938657  0.75045428  0.04595239  1
  Se  Se120  1  0.09419169  0.73037873  0.57137315  1
  Se  Se121  1  0.41595156  0.07393688  0.04692686  1
  Se  Se122  1  0.42332016  0.08180582  0.56517273  1
  Se  Se123  1  0.41950243  0.41734227  0.05092017  1
  Se  Se124  1  0.41926562  0.41622164  0.55484313  1
  Se  Se125  1  0.40877945  0.74234838  0.05555962  1
  Se  Se126  1  0.40260268  0.73963216  0.57037441  1
  Se  Se127  1  0.74740514  0.08559991  0.05163528  1
  Se  Se128  1  0.76098000  0.08682316  0.55383779  1
  Se  Se129  1  0.74535742  0.41480219  0.05853791  1
  Se  Se130  1  0.74340201  0.40677354  0.55806490  1
  Se  Se131  1  0.74507749  0.74386128  0.04879175  1
  Se  Se132  1  0.73790356  0.74024949  0.56701474  1
  Se  Se133  1  0.24917666  0.25175653  0.04332480  1
  Se  Se134  1  0.25346734  0.25530458  0.56714859  1
  Se  Se135  1  0.25578673  0.58315338  0.04997686  1
  Se  Se136  1  0.24275692  0.58056438  0.57836376  1
  Se  Se137  1  0.24353505  0.91392991  0.04544352  1
  Se  Se138  1  0.26354345  0.91180055  0.56951965  1
  Se  Se139  1  0.58135525  0.24977091  0.05418575  1
  Se  Se140  1  0.58638229  0.25446061  0.56288043  1
  Se  Se141  1  0.58131061  0.58200388  0.04636712  1
  Se  Se142  1  0.57905338  0.57666975  0.55071413  1
  Se  Se143  1  0.58477831  0.91291510  0.05327216  1
  Se  Se144  1  0.60149628  0.92401943  0.56881994  1
  Se  Se145  1  0.91952624  0.25982485  0.04570092  1
  Se  Se146  1  0.91912034  0.24734492  0.54985669  1
  Se  Se147  1  0.92965502  0.59050671  0.05558227  1
  Se  Se148  1  0.92059711  0.58321766  0.56792729  1
  Se  Se149  1  0.91608620  0.92358735  0.05832479  1
  Se  Se150  1  0.93445368  0.92199220  0.56434007  1
  Se  Se151  1  0.07450780  0.26135284  0.43722943  1
  Se  Se152  1  0.08998994  0.25255935  0.94431415  1
  Se  Se153  1  0.09151971  0.57188339  0.45494809  1
  Se  Se154  1  0.09453499  0.57620089  0.93996836  1
  Se  Se155  1  0.08699921  0.92280072  0.43868725  1
  Se  Se156  1  0.08090608  0.91226517  0.94496008  1
  Se  Se157  1  0.40179215  0.25697126  0.44178011  1
  Se  Se158  1  0.42063761  0.24817517  0.94826720  1
  Se  Se159  1  0.41091437  0.58289342  0.45629273  1
  Se  Se160  1  0.41883068  0.58439589  0.93798796  1
  Se  Se161  1  0.42215644  0.91590929  0.45477464  1
  Se  Se162  1  0.39965880  0.91816295  0.92551836  1
  Se  Se163  1  0.74234435  0.24177114  0.45023393  1
  Se  Se164  1  0.75175734  0.25171099  0.94619133  1
  Se  Se165  1  0.74642386  0.59144410  0.43763180  1
  Se  Se166  1  0.75227274  0.58617317  0.93455826  1
  Se  Se167  1  0.75188761  0.91575076  0.44464497  1
  Se  Se168  1  0.73348868  0.91989159  0.93570006  1
  Se  Se169  1  0.26132453  0.07066040  0.44808485  1
  Se  Se170  1  0.24663337  0.08926024  0.94739163  1
  Se  Se171  1  0.24374789  0.41837739  0.44967578  1
  Se  Se172  1  0.25068509  0.42040673  0.94075698  1
  Se  Se173  1  0.25859305  0.74028344  0.44735041  1
  Se  Se174  1  0.25226063  0.75114578  0.93527818  1
  Se  Se175  1  0.59089645  0.07201595  0.44205002  1
  Se  Se176  1  0.57859903  0.08717099  0.94705347  1
  Se  Se177  1  0.58084513  0.41881175  0.44632744  1
  Se  Se178  1  0.58338106  0.41948033  0.94817627  1
  Se  Se179  1  0.58800317  0.74666127  0.44190802  1
  Se  Se180  1  0.58833727  0.74503889  0.93351265  1
  Se  Se181  1  0.92116587  0.08519837  0.44390370  1
  Se  Se182  1  0.91227542  0.08651195  0.94954267  1
  Se  Se183  1  0.92048621  0.41092313  0.44095908  1
  Se  Se184  1  0.93375147  0.41721042  0.92980243  1
  Se  Se185  1  0.93341989  0.73960706  0.45513970  1
  Se  Se186  1  0.92411798  0.73827865  0.93619986  1
  Se  Se187  1  0.24353350  0.24898472  0.29923234  1
  Se  Se188  1  0.25365909  0.25113723  0.80645254  1
  Se  Se189  1  0.24152713  0.57874250  0.31521103  1
  Se  Se190  1  0.25854650  0.58733681  0.79854770  1
  Se  Se191  1  0.24346501  0.91320461  0.30648401  1
  Se  Se192  1  0.23812241  0.92048563  0.79923130  1
  Se  Se193  1  0.57255288  0.24371901  0.30321313  1
  Se  Se194  1  0.58803427  0.25659139  0.80818591  1
  Se  Se195  1  0.57801241  0.58675191  0.30178524  1
  Se  Se196  1  0.58818711  0.58386542  0.80117205  1
  Se  Se197  1  0.58582365  0.91940983  0.30103129  1
  Se  Se198  1  0.58612379  0.93336867  0.79611230  1
  Se  Se199  1  0.90485317  0.24895026  0.31051743  1
  Se  Se200  1  0.91661107  0.24860584  0.80394003  1
  Se  Se201  1  0.90894291  0.58005399  0.30704753  1
  Se  Se202  1  0.90485208  0.57134435  0.80357183  1
  Se  Se203  1  0.92026530  0.92020435  0.30480707  1
  Se  Se204  1  0.90765787  0.90905613  0.81804417  1
  Se  Se205  1  0.08235540  0.08666994  0.29287330  1
  Se  Se206  1  0.08498515  0.08808358  0.81778766  1
  Se  Se207  1  0.08406013  0.42661752  0.30566382  1
  Se  Se208  1  0.08437784  0.40863422  0.79441800  1
  Se  Se209  1  0.08528915  0.75613551  0.30761151  1
  Se  Se210  1  0.06848299  0.72400087  0.79933321  1
  Se  Se211  1  0.42102177  0.09070855  0.31052681  1
  Se  Se212  1  0.41897518  0.09077798  0.80762158  1
  Se  Se213  1  0.41126376  0.42036698  0.30590699  1
  Se  Se214  1  0.41978751  0.41463757  0.80748983  1
  Se  Se215  1  0.42423722  0.76046147  0.31378337  1
  Se  Se216  1  0.43543059  0.76663919  0.79573498  1
  Se  Se217  1  0.74874227  0.08072143  0.30270256  1
  Se  Se218  1  0.74575132  0.08574684  0.80454283  1
  Se  Se219  1  0.74660441  0.41573200  0.30329267  1
  Se  Se220  1  0.74398389  0.40740321  0.80261223  1
  Se  Se221  1  0.75559726  0.75192874  0.30339741  1
  Se  Se222  1  0.73462018  0.74176979  0.79172040  1
  Se  Se223  1  0.24772600  0.09174998  0.17846930  1
  Se  Se224  1  0.24700265  0.08755660  0.70058874  1
  Se  Se225  1  0.24627085  0.41978792  0.19605199  1
  Se  Se226  1  0.25271824  0.41940770  0.70720357  1
  Se  Se227  1  0.24532419  0.75546071  0.19055221  1
  Se  Se228  1  0.23219882  0.76408943  0.70930497  1
  Se  Se229  1  0.58937272  0.07614804  0.19357299  1
  Se  Se230  1  0.58474906  0.08942871  0.69938091  1
  Se  Se231  1  0.58052509  0.41693635  0.19299660  1
  Se  Se232  1  0.58582113  0.41175848  0.69717145  1
  Se  Se233  1  0.58766886  0.74753501  0.19348414  1
  Se  Se234  1  0.55125146  0.77040528  0.69262453  1
  Se  Se235  1  0.91583883  0.08778772  0.19348248  1
  Se  Se236  1  0.91369558  0.09080468  0.69072809  1
  Se  Se237  1  0.90643367  0.42787388  0.18955667  1
  Se  Se238  1  0.91521519  0.40977911  0.69490994  1
  Se  Se239  1  0.90494372  0.76315229  0.18195785  1
  Se  Se240  1  0.89920210  0.76756167  0.70359161  1
  Se  Se241  1  0.08367398  0.24823057  0.17893386  1
  Se  Se242  1  0.08264448  0.24539127  0.70064799  1
  Se  Se243  1  0.09474738  0.57995260  0.19266367  1
  Se  Se244  1  0.06360349  0.60533701  0.70531080  1
  Se  Se245  1  0.07872237  0.92157068  0.19123394  1
  Se  Se246  1  0.08374458  0.91138880  0.69421300  1
  Se  Se247  1  0.41012670  0.24869953  0.19035108  1
  Se  Se248  1  0.41561973  0.25559792  0.70455973  1
  Se  Se249  1  0.41927753  0.58097350  0.18802846  1
  Se  Se250  1  0.42201535  0.57776869  0.69776225  1
  Se  Se251  1  0.42307150  0.90759268  0.18898958  1
  Se  Se252  1  0.38821018  0.94540231  0.70059305  1
  Se  Se253  1  0.74755735  0.25134185  0.19297729  1
  Se  Se254  1  0.74911799  0.25028458  0.69456622  1
  Se  Se255  1  0.74208774  0.58861944  0.19463461  1
  Se  Se256  1  0.74532640  0.57629458  0.69502345  1
  Se  Se257  1  0.74700243  0.91833441  0.19649373  1
  Se  Se258  1  0.75900036  0.91924226  0.70470464  1
