# generated using pymatgen
data_In86Cu29Se144
_symmetry_space_group_name_H-M   'P 1'
_cell_length_a   17.58569426
_cell_length_b   17.58411933
_cell_length_c   23.44110579
_cell_angle_alpha   90.00992098
_cell_angle_beta   90.00095586
_cell_angle_gamma   90.00460964
_symmetry_Int_Tables_number   1
_chemical_formula_structural   In86Cu29Se144
_chemical_formula_sum   'In86 Cu29 Se144'
_cell_volume   7248.66830908
_cell_formula_units_Z   1
loop_
 _symmetry_equiv_pos_site_id
 _symmetry_equiv_pos_as_xyz
  1  'x, y, z'
loop_
 _atom_site_type_symbol
 _atom_site_label
 _atom_site_symmetry_multiplicity
 _atom_site_fract_x
 _atom_site_fract_y
 _atom_site_fract_z
 _atom_site_occupancy
  In  In0  1  0.00795115  0.15176283  0.12842052  1
  In  In1  1  -0.00450349  0.17173272  0.62985968  1
  In  In2  1  0.00622978  0.52026441  0.12344185  1
  In  In3  1  -0.00811793  0.49607377  0.62076213  1
  In  In4  1  0.00473439  0.83345307  0.12919937  1
  In  In5  1  0.02174577  0.83678757  0.60997832  1
  In  In6  1  0.32740309  0.15578236  0.10803435  1
  In  In7  1  0.34356431  0.15908850  0.64121221  1
  In  In8  1  0.34119873  0.49778446  0.12400395  1
  In  In9  1  0.34479032  0.49233596  0.63386571  1
  In  In10  1  0.32610812  0.84001986  0.12180877  1
  In  In11  1  0.33457273  0.83335091  0.62580462  1
  In  In12  1  0.66216083  0.17319360  0.12197520  1
  In  In13  1  0.66560236  0.15136947  0.60961272  1
  In  In14  1  0.65992168  0.49397356  0.12184954  1
  In  In15  1  0.67251200  0.50450144  0.61817574  1
  In  In16  1  0.66050265  0.84189418  0.12893355  1
  In  In17  1  0.66229500  0.84076842  0.61175908  1
  In  In18  1  0.15688141  -0.01300941  0.36504773  1
  In  In19  1  0.17144486  0.00155555  0.88210912  1
  In  In20  1  0.17010345  0.32764417  0.37725469  1
  In  In21  1  0.15602167  0.32072623  0.86600591  1
  In  In22  1  0.18235602  0.67870463  0.36719334  1
  In  In23  1  0.18193960  0.66540681  0.87417119  1
  In  In24  1  0.48547956  0.00913830  0.38141626  1
  In  In25  1  0.45487469  0.02687257  0.91294223  1
  In  In26  1  0.50560463  0.32326620  0.38346106  1
  In  In27  1  0.49902106  0.33904213  0.87226841  1
  In  In28  1  0.49137240  0.67827902  0.38061649  1
  In  In29  1  0.48413516  0.68293659  0.88602660  1
  In  In30  1  0.84815087  -0.01345879  0.39055132  1
  In  In31  1  0.84262169  0.00051920  0.86846548  1
  In  In32  1  0.83154905  0.33591989  0.38821528  1
  In  In33  1  0.84555647  0.33272144  0.87101964  1
  In  In34  1  0.84416144  0.66687792  0.38540534  1
  In  In35  1  0.82156803  0.66634707  0.87575549  1
  In  In36  1  0.01328364  0.15447418  0.37741627  1
  In  In37  1  0.00308318  0.16608743  0.87127428  1
  In  In38  1  -0.01688477  0.50745802  0.38231967  1
  In  In39  1  0.00253326  0.48435332  0.87612179  1
  In  In40  1  0.00517764  0.83090044  0.37890685  1
  In  In41  1  0.01484094  0.85256307  0.87626208  1
  In  In42  1  0.35041428  0.15282208  0.37726440  1
  In  In43  1  0.33031527  0.16587399  0.87086330  1
  In  In44  1  0.33134576  0.51457003  0.37674848  1
  In  In45  1  0.34260570  0.51274513  0.86870589  1
  In  In46  1  0.33079356  0.83571422  0.37473471  1
  In  In47  1  0.33109709  0.83632030  0.87765803  1
  In  In48  1  0.65797985  0.16212961  0.38388790  1
  In  In49  1  0.65202586  0.15601047  0.87100901  1
  In  In50  1  0.66735466  0.49556115  0.38237673  1
  In  In51  1  0.66246009  0.50445232  0.88012470  1
  In  In52  1  0.66460821  0.85070816  0.39309752  1
  In  In53  1  0.65674259  0.82600193  0.87132973  1
  In  In54  1  0.16762524  -0.00067101  0.11504696  1
  In  In55  1  0.17953513  -0.00924312  0.63286698  1
  In  In56  1  0.17748022  0.32562627  0.11705214  1
  In  In57  1  0.17036306  0.33176851  0.63627067  1
  In  In58  1  0.15746193  0.68295016  0.13277472  1
  In  In59  1  0.16855280  0.68584906  0.62176611  1
  In  In60  1  0.48829241  -0.00750383  0.11186659  1
  In  In61  1  0.49081136  -0.00401796  0.61866127  1
  In  In62  1  0.48851453  0.32735296  0.11148876  1
  In  In63  1  0.49537389  0.32527289  0.62244699  1
  In  In64  1  0.48940507  0.66144780  0.12507137  1
  In  In65  1  0.49884133  0.66648989  0.62043088  1
  In  In66  1  0.84246644  0.00296612  0.12973562  1
  In  In67  1  0.84624989  0.00992013  0.61520456  1
  In  In68  1  0.81943721  0.33508284  0.12578511  1
  In  In69  1  0.84441829  0.33506279  0.61508499  1
  In  In70  1  0.84715871  0.66862088  0.12860586  1
  In  In71  1  0.84438321  0.66686348  0.60656549  1
  In  In72  1  0.82964366  0.16989485  -0.00706935  1
  In  In73  1  0.00069394  0.33869696  0.25700124  1
  In  In74  1  0.65475466  -0.00353186  0.74258954  1
  In  In75  1  0.66404922  0.66823340  0.73887084  1
  In  In76  1  0.33414766  0.33042675  0.24206457  1
  In  In77  1  0.67008326  0.66876142  0.26613811  1
  In  In78  1  0.66390080  0.32845789  0.26239815  1
  In  In79  1  0.82997593  0.83017308  0.00495500  1
  In  In80  1  0.66561501  0.32736592  0.74715020  1
  In  In81  1  0.16585789  0.50543245  0.50664131  1
  In  In82  1  0.16762117  0.16902442  0.50135700  1
  In  In83  1  0.00298750  0.66387105  0.74010057  1
  In  In84  1  0.16719552  0.49855351  -0.00213696  1
  In  In85  1  0.66160548  0.00283810  0.25405210  1
  Cu  Cu86  1  0.49512109  0.49379141  0.24936841  1
  Cu  Cu87  1  0.17198524  0.83522768  0.75067372  1
  Cu  Cu88  1  0.84288769  0.84138022  0.74347184  1
  Cu  Cu89  1  0.84229444  0.49345568  0.74699136  1
  Cu  Cu90  1  0.66197011  0.33926805  -0.00243388  1
  Cu  Cu91  1  -0.00823078  0.66745256  0.00139750  1
  Cu  Cu92  1  0.49053806  0.83143795  0.25031563  1
  Cu  Cu93  1  0.16153805  0.51246478  0.25172736  1
  Cu  Cu94  1  0.17564507  0.15788513  0.24435484  1
  Cu  Cu95  1  0.00684482  -0.00114411  0.49958260  1
  Cu  Cu96  1  0.50169142  0.50760947  0.75023480  1
  Cu  Cu97  1  0.33330988  0.33418154  -0.01018068  1
  Cu  Cu98  1  0.66124836  0.65567857  0.00296403  1
  Cu  Cu99  1  0.32652291  -0.00620032  0.50333326  1
  Cu  Cu100  1  0.34027912  0.67210516  0.50008804  1
  Cu  Cu101  1  0.33131628  0.67017290  0.00265665  1
  Cu  Cu102  1  0.16601765  0.15877582  0.75351620  1
  Cu  Cu103  1  0.84035689  0.51083944  0.24900280  1
  Cu  Cu104  1  0.17005480  0.49713945  0.75361416  1
  Cu  Cu105  1  -0.01025799  0.33229884  -0.00223447  1
  Cu  Cu106  1  0.48801635  0.84247657  0.75455501  1
  Cu  Cu107  1  0.66330004  -0.00645792  -0.00129432  1
  Cu  Cu108  1  0.66521430  0.66477951  0.49672498  1
  Cu  Cu109  1  0.34093874  0.33328596  0.50511228  1
  Cu  Cu110  1  0.83664701  0.16641387  0.74190684  1
  Cu  Cu111  1  0.17173614  0.84300512  0.24716036  1
  Cu  Cu112  1  0.66497713  0.33468275  0.50464646  1
  Cu  Cu113  1  0.83931760  0.15595516  0.25822513  1
  Cu  Cu114  1  0.84577925  0.83564232  0.26047195  1
  Se  Se115  1  0.09164604  0.09621925  0.05125605  1
  Se  Se116  1  0.08557744  0.07631447  0.56428330  1
  Se  Se117  1  0.07313936  0.40980453  0.05983485  1
  Se  Se118  1  0.08311248  0.40312625  0.55961725  1
  Se  Se119  1  0.07626282  0.74873320  0.05454992  1
  Se  Se120  1  0.07138657  0.72679509  0.54707094  1
  Se  Se121  1  0.41977653  0.08243536  0.04092025  1
  Se  Se122  1  0.40318652  0.08482033  0.55597643  1
  Se  Se123  1  0.41115946  0.41920715  0.04676032  1
  Se  Se124  1  0.42238405  0.42105075  0.55571344  1
  Se  Se125  1  0.41474637  0.75153658  0.05817378  1
  Se  Se126  1  0.42156158  0.75716928  0.55452673  1
  Se  Se127  1  0.74552000  0.07396329  0.05816366  1
  Se  Se128  1  0.74583625  0.06469151  0.54451601  1
  Se  Se129  1  0.74793573  0.41764486  0.05240108  1
  Se  Se130  1  0.75374835  0.41800170  0.55254560  1
  Se  Se131  1  0.73845117  0.73839632  0.06517415  1
  Se  Se132  1  0.74647717  0.74899679  0.55131724  1
  Se  Se133  1  0.25041750  0.24962939  0.04207556  1
  Se  Se134  1  0.25894871  0.25383016  0.56361877  1
  Se  Se135  1  0.24877115  0.58981439  0.06283384  1
  Se  Se136  1  0.26375540  0.59053341  0.56377731  1
  Se  Se137  1  0.23537206  0.90277157  0.04730105  1
  Se  Se138  1  0.24447153  0.90833836  0.55486256  1
  Se  Se139  1  0.58334234  0.24966430  0.04889096  1
  Se  Se140  1  0.58140035  0.24773995  0.55335720  1
  Se  Se141  1  0.57456464  0.57813470  0.05789639  1
  Se  Se142  1  0.58317907  0.58345386  0.55323871  1
  Se  Se143  1  0.58241598  0.90824818  0.05134785  1
  Se  Se144  1  0.57981976  0.92619668  0.54857215  1
  Se  Se145  1  0.91672970  0.25218563  0.06383251  1
  Se  Se146  1  0.90798083  0.23107081  0.55358512  1
  Se  Se147  1  0.91050811  0.58111706  0.05218325  1
  Se  Se148  1  0.92717741  0.57894574  0.54508076  1
  Se  Se149  1  0.92322939  0.92391210  0.05629327  1
  Se  Se150  1  0.92239611  0.91437975  0.55147893  1
  Se  Se151  1  0.07327416  0.26135581  0.44591724  1
  Se  Se152  1  0.07532049  0.25313223  0.94399061  1
  Se  Se153  1  0.09080731  0.58867126  0.43335421  1
  Se  Se154  1  0.07484686  0.59086193  0.93889312  1
  Se  Se155  1  0.09123905  0.91491864  0.44742438  1
  Se  Se156  1  0.09997246  0.90917486  0.95355763  1
  Se  Se157  1  0.41557803  0.24473512  0.44918334  1
  Se  Se158  1  0.41822547  0.25174239  0.93810880  1
  Se  Se159  1  0.41968693  0.58303212  0.44845906  1
  Se  Se160  1  0.41367248  0.58370832  0.95020773  1
  Se  Se161  1  0.41254566  0.91450461  0.44746620  1
  Se  Se162  1  0.43393610  0.89060578  0.94685106  1
  Se  Se163  1  0.74298316  0.24951953  0.44765454  1
  Se  Se164  1  0.73719452  0.25911225  0.93252972  1
  Se  Se165  1  0.75136923  0.58220793  0.44552678  1
  Se  Se166  1  0.75117012  0.58156451  0.94847070  1
  Se  Se167  1  0.74436502  0.93605761  0.45975701  1
  Se  Se168  1  0.74629836  0.92050853  0.93644249  1
  Se  Se169  1  0.24903080  0.07390982  0.43923963  1
  Se  Se170  1  0.24500273  0.09705150  0.94577669  1
  Se  Se171  1  0.25863937  0.41127266  0.44467688  1
  Se  Se172  1  0.25103221  0.41411514  0.93056543  1
  Se  Se173  1  0.25241096  0.75175282  0.44759418  1
  Se  Se174  1  0.24794822  0.75071640  0.94798678  1
  Se  Se175  1  0.57635000  0.07925166  0.44984910  1
  Se  Se176  1  0.58346895  0.08562132  0.95158134  1
  Se  Se177  1  0.58055887  0.41588654  0.44892157  1
  Se  Se178  1  0.57671295  0.42175291  0.94498682  1
  Se  Se179  1  0.58192062  0.75244851  0.44820563  1
  Se  Se180  1  0.58832068  0.74708645  0.94900773  1
  Se  Se181  1  0.92507412  0.08714099  0.44960162  1
  Se  Se182  1  0.92395070  0.07457347  0.94477998  1
  Se  Se183  1  0.91909981  0.41602103  0.45181298  1
  Se  Se184  1  0.90910192  0.41966629  0.94757440  1
  Se  Se185  1  0.90934462  0.76632273  0.44847009  1
  Se  Se186  1  0.92060674  0.74977881  0.93579127  1
  Se  Se187  1  0.24919114  0.23969752  0.30772402  1
  Se  Se188  1  0.24960987  0.24950626  0.79982557  1
  Se  Se189  1  0.25737785  0.58729060  0.29887464  1
  Se  Se190  1  0.25364241  0.58697985  0.79841532  1
  Se  Se191  1  0.25874392  0.92256262  0.30120272  1
  Se  Se192  1  0.24988277  0.91881401  0.80804953  1
  Se  Se193  1  0.56798742  0.23100759  0.30554503  1
  Se  Se194  1  0.56978283  0.23893614  0.80124035  1
  Se  Se195  1  0.57265350  0.57234326  0.31256813  1
  Se  Se196  1  0.57805283  0.59077455  0.81090308  1
  Se  Se197  1  0.57438824  0.90795428  0.31150895  1
  Se  Se198  1  0.57079878  0.91906310  0.81379112  1
  Se  Se199  1  0.91221590  0.24572545  0.31526353  1
  Se  Se200  1  0.91760208  0.24646428  0.80080213  1
  Se  Se201  1  0.91861422  0.59281755  0.30563626  1
  Se  Se202  1  0.91368542  0.58045317  0.80880702  1
  Se  Se203  1  0.92713465  0.92301324  0.31030382  1
  Se  Se204  1  0.92526375  0.91748566  0.80169465  1
  Se  Se205  1  0.08540839  0.08291223  0.29826133  1
  Se  Se206  1  0.08368527  0.07556696  0.80814945  1
  Se  Se207  1  0.09250300  0.42911441  0.31546571  1
  Se  Se208  1  0.07947085  0.41399768  0.79932599  1
  Se  Se209  1  0.09052394  0.75901686  0.30391677  1
  Se  Se210  1  0.08837300  0.75126750  0.80762026  1
  Se  Se211  1  0.41382577  0.07414209  0.29886750  1
  Se  Se212  1  0.41946422  0.07455679  0.81347880  1
  Se  Se213  1  0.41845532  0.41371568  0.31304963  1
  Se  Se214  1  0.41909863  0.42186486  0.80191085  1
  Se  Se215  1  0.41005870  0.74681159  0.30439191  1
  Se  Se216  1  0.41120117  0.75027031  0.80503580  1
  Se  Se217  1  0.75661051  0.08133811  0.31859553  1
  Se  Se218  1  0.75379292  0.08812709  0.80227145  1
  Se  Se219  1  0.76246179  0.42606751  0.30760376  1
  Se  Se220  1  0.75256188  0.42411831  0.80670191  1
  Se  Se221  1  0.75523369  0.76771694  0.32031166  1
  Se  Se222  1  0.75851864  0.76068337  0.79929671  1
  Se  Se223  1  0.25514014  0.07927533  0.18578718  1
  Se  Se224  1  0.25356162  0.07662229  0.70338195  1
  Se  Se225  1  0.23584879  0.42638640  0.19093015  1
  Se  Se226  1  0.25619491  0.41477742  0.70140658  1
  Se  Se227  1  0.25361476  0.75415878  0.19680459  1
  Se  Se228  1  0.25336269  0.74995312  0.69771968  1
  Se  Se229  1  0.57726526  0.08250013  0.18387067  1
  Se  Se230  1  0.57112569  0.09406682  0.68677572  1
  Se  Se231  1  0.57366949  0.40956576  0.19259155  1
  Se  Se232  1  0.58251342  0.42765303  0.69049887  1
  Se  Se233  1  0.58018358  0.75088451  0.19719133  1
  Se  Se234  1  0.57402092  0.76931462  0.69125109  1
  Se  Se235  1  0.92339020  0.07932477  0.20205866  1
  Se  Se236  1  0.92117455  0.07670952  0.69643494  1
  Se  Se237  1  0.91338914  0.42357616  0.18903002  1
  Se  Se238  1  0.92146400  0.40854906  0.69368956  1
  Se  Se239  1  0.91997677  0.75291990  0.19978180  1
  Se  Se240  1  0.91505283  0.75698696  0.68234055  1
  Se  Se241  1  0.09278987  0.25029230  0.19449864  1
  Se  Se242  1  0.08503294  0.24481005  0.69931111  1
  Se  Se243  1  0.07648062  0.59545988  0.20109120  1
  Se  Se244  1  0.09637439  0.57270634  0.68432094  1
  Se  Se245  1  0.08661589  0.92325390  0.19198345  1
  Se  Se246  1  0.08358898  0.91035697  0.69431834  1
  Se  Se247  1  0.41940565  0.23695471  0.18408560  1
  Se  Se248  1  0.40900736  0.26582412  0.69865883  1
  Se  Se249  1  0.41309575  0.57991329  0.19887776  1
  Se  Se250  1  0.41990441  0.59147487  0.69581250  1
  Se  Se251  1  0.41756556  0.91644547  0.19079236  1
  Se  Se252  1  0.41025294  0.92365212  0.69494594  1
  Se  Se253  1  0.75743629  0.23680890  0.19985527  1
  Se  Se254  1  0.75136525  0.23994341  0.68202619  1
  Se  Se255  1  0.74834481  0.58155225  0.19241625  1
  Se  Se256  1  0.76734073  0.58056221  0.68891679  1
  Se  Se257  1  0.76065997  0.90963725  0.19826111  1
  Se  Se258  1  0.75561445  0.91494960  0.68511357  1
