# generated using pymatgen
data_In86Cu29Se144
_symmetry_space_group_name_H-M   'P 1'
_cell_length_a   17.58686481
_cell_length_b   17.59207304
_cell_length_c   23.45237288
_cell_angle_alpha   90.02648707
_cell_angle_beta   90.01435729
_cell_angle_gamma   90.00340539
_symmetry_Int_Tables_number   1
_chemical_formula_structural   In86Cu29Se144
_chemical_formula_sum   'In86 Cu29 Se144'
_cell_volume   7255.91479811
_cell_formula_units_Z   1
loop_
 _symmetry_equiv_pos_site_id
 _symmetry_equiv_pos_as_xyz
  1  'x, y, z'
loop_
 _atom_site_type_symbol
 _atom_site_label
 _atom_site_symmetry_multiplicity
 _atom_site_fract_x
 _atom_site_fract_y
 _atom_site_fract_z
 _atom_site_occupancy
  In  In0  1  -0.00612771  0.17247065  0.13279038  1
  In  In1  1  -0.00031514  0.16637066  0.61620496  1
  In  In2  1  -0.00323744  0.48017788  0.12544822  1
  In  In3  1  0.00318922  0.50736601  0.62211688  1
  In  In4  1  -0.00001724  0.84964850  0.13154174  1
  In  In5  1  0.00545392  0.82219657  0.61835972  1
  In  In6  1  0.34861634  0.16383509  0.11741009  1
  In  In7  1  0.36498821  0.19922255  0.59512732  1
  In  In8  1  0.34895528  0.50510751  0.11186873  1
  In  In9  1  0.35152682  0.47315130  0.64620327  1
  In  In10  1  0.33147732  0.83057640  0.12434956  1
  In  In11  1  0.34609677  0.84340845  0.61562168  1
  In  In12  1  0.66790673  0.16577305  0.12685477  1
  In  In13  1  0.66699570  0.17046752  0.62640579  1
  In  In14  1  0.65138167  0.50059721  0.12483128  1
  In  In15  1  0.66272732  0.49729368  0.62776983  1
  In  In16  1  0.67244813  0.83811246  0.11875088  1
  In  In17  1  0.65643822  0.84990207  0.63220052  1
  In  In18  1  0.15732375  0.00844622  0.37782800  1
  In  In19  1  0.16872164  -0.00015554  0.87353440  1
  In  In20  1  0.15681098  0.33254530  0.37438521  1
  In  In21  1  0.18597943  0.34301995  0.86502934  1
  In  In22  1  0.18931050  0.65889979  0.37321299  1
  In  In23  1  0.15764914  0.65963938  0.87818032  1
  In  In24  1  0.50942020  -0.00523709  0.38447903  1
  In  In25  1  0.50743179  -0.01020516  0.88830593  1
  In  In26  1  0.51264255  0.31547601  0.39286934  1
  In  In27  1  0.49675820  0.32835844  0.87950994  1
  In  In28  1  0.48804933  0.67248194  0.37848770  1
  In  In29  1  0.51120117  0.65827473  0.87744991  1
  In  In30  1  0.83488046  0.00699458  0.36945305  1
  In  In31  1  0.81847309  0.01411838  0.88566516  1
  In  In32  1  0.82948463  0.32744133  0.37803916  1
  In  In33  1  0.81564077  0.33822618  0.87611350  1
  In  In34  1  0.81874072  0.66135352  0.37728385  1
  In  In35  1  0.82220272  0.67829857  0.88167060  1
  In  In36  1  -0.00471575  0.16668011  0.37457951  1
  In  In37  1  0.00068401  0.15420297  0.87820621  1
  In  In38  1  0.00107083  0.47917049  0.37335401  1
  In  In39  1  0.00036148  0.50990461  0.88185675  1
  In  In40  1  -0.00617870  0.85041141  0.37151765  1
  In  In41  1  -0.00715232  0.81880686  0.87778038  1
  In  In42  1  0.34605502  0.16223244  0.39063814  1
  In  In43  1  0.34163276  0.18648452  0.87641659  1
  In  In44  1  0.33505522  0.50608437  0.37392851  1
  In  In45  1  0.34622417  0.48352231  0.88844862  1
  In  In46  1  0.34842227  0.81725350  0.37690841  1
  In  In47  1  0.34774975  0.84721622  0.87682211  1
  In  In48  1  0.66353915  0.16524655  0.37635432  1
  In  In49  1  0.66358793  0.16825452  0.87593283  1
  In  In50  1  0.67240939  0.49151073  0.38411120  1
  In  In51  1  0.62226491  0.46727635  0.83785778  1
  In  In52  1  0.64548585  0.84469260  0.37778897  1
  In  In53  1  0.66365663  0.83640046  0.87612031  1
  In  In54  1  0.16321134  -0.00640374  0.13114688  1
  In  In55  1  0.18017295  0.00804107  0.61425794  1
  In  In56  1  0.15774106  0.32770333  0.12537491  1
  In  In57  1  0.20171583  0.33762722  0.61993796  1
  In  In58  1  0.18722422  0.66807140  0.12931336  1
  In  In59  1  0.16576858  0.66394521  0.62055102  1
  In  In60  1  0.50808035  0.01169026  0.11789978  1
  In  In61  1  0.52556059  0.01558568  0.60639154  1
  In  In62  1  0.50692391  0.34339335  0.11711553  1
  In  In63  1  0.50678202  0.34089441  0.62908395  1
  In  In64  1  0.49456778  0.66323359  0.11860654  1
  In  In65  1  0.50797884  0.67297915  0.62349013  1
  In  In66  1  0.83031822  0.00289024  0.12635356  1
  In  In67  1  0.81412033  0.00446897  0.62128389  1
  In  In68  1  0.83781861  0.32024302  0.13041976  1
  In  In69  1  0.82038815  0.31900599  0.61847068  1
  In  In70  1  0.81346772  0.66825805  0.12306508  1
  In  In71  1  0.83396824  0.65419806  0.61871675  1
  In  In72  1  -0.00606145  0.33164447  0.74827603  1
  In  In73  1  0.82310922  0.50489842  -0.00206461  1
  In  In74  1  0.65843601  0.66843718  0.25261560  1
  In  In75  1  0.34238852  0.00936297  0.74796682  1
  In  In76  1  0.82811124  0.83393493  0.49311368  1
  In  In77  1  0.17044284  0.17063180  -0.00202428  1
  In  In78  1  0.00264665  0.66697536  0.25071809  1
  In  In79  1  0.33341773  0.65947348  0.75667117  1
  In  In80  1  0.17253683  0.50066878  0.50292542  1
  In  In81  1  0.33453342  -0.00142793  0.24871439  1
  In  In82  1  0.33168710  0.33474256  0.25332058  1
  In  In83  1  -0.00757229  0.66296944  0.74442698  1
  In  In84  1  0.16699600  0.83425284  0.00777318  1
  In  In85  1  -0.00301289  -0.00302816  0.75300277  1
  Cu  Cu86  1  0.16230488  0.16787083  0.25329892  1
  Cu  Cu87  1  0.17073701  0.49769924  0.25039313  1
  Cu  Cu88  1  -0.00106092  0.66641636  0.00418055  1
  Cu  Cu89  1  0.67162674  0.00208450  0.00132698  1
  Cu  Cu90  1  0.00306953  0.32809933  0.00347820  1
  Cu  Cu91  1  0.16969463  0.83543484  0.25225314  1
  Cu  Cu92  1  -0.00345211  0.33061833  0.49801159  1
  Cu  Cu93  1  0.66460954  0.33072675  -0.00367183  1
  Cu  Cu94  1  0.16924000  0.83108534  0.73997288  1
  Cu  Cu95  1  0.50981190  0.83838247  0.74987493  1
  Cu  Cu96  1  0.50832968  0.16838084  0.25158605  1
  Cu  Cu97  1  0.50366630  0.16978103  0.74555911  1
  Cu  Cu98  1  0.66667184  0.33314424  0.50366832  1
  Cu  Cu99  1  0.33278276  0.66973363  -0.00149106  1
  Cu  Cu100  1  0.49817749  0.49637902  0.24737338  1
  Cu  Cu101  1  -0.00201602  -0.00143573  0.49539887  1
  Cu  Cu102  1  0.33846071  0.66425966  0.50301187  1
  Cu  Cu103  1  0.66546030  0.66108490  0.50263624  1
  Cu  Cu104  1  0.00600538  0.66493599  0.49797107  1
  Cu  Cu105  1  0.65773376  0.66716599  -0.00426913  1
  Cu  Cu106  1  0.82275683  0.83758181  0.75360636  1
  Cu  Cu107  1  0.17652802  0.17715209  0.74154828  1
  Cu  Cu108  1  0.82557004  0.16407385  0.75167482  1
  Cu  Cu109  1  0.82845423  0.16747526  0.25235233  1
  Cu  Cu110  1  0.32651077  -0.01357916  0.49416922  1
  Cu  Cu111  1  0.82608871  0.50046122  0.74528585  1
  Cu  Cu112  1  0.83081157  0.48682852  0.25508628  1
  Cu  Cu113  1  0.82759490  0.84008105  0.24767102  1
  Cu  Cu114  1  -0.00818447  -0.00113050  0.00466891  1
  Se  Se115  1  0.07957505  0.07888503  0.05973744  1
  Se  Se116  1  0.08148972  0.07927457  0.55124896  1
  Se  Se117  1  0.08581977  0.41485463  0.05240585  1
  Se  Se118  1  0.08075213  0.40591868  0.56066601  1
  Se  Se119  1  0.07662543  0.74375247  0.06906422  1
  Se  Se120  1  0.09132743  0.74774645  0.54777715  1
  Se  Se121  1  0.42013931  0.08237933  0.04573296  1
  Se  Se122  1  0.40437104  0.06631971  0.55665384  1
  Se  Se123  1  0.41761375  0.41114495  0.04617276  1
  Se  Se124  1  0.40823849  0.40698173  0.56002582  1
  Se  Se125  1  0.41380065  0.75311159  0.05298273  1
  Se  Se126  1  0.42406970  0.75115997  0.55240037  1
  Se  Se127  1  0.75285356  0.08705253  0.05543991  1
  Se  Se128  1  0.74917488  0.09428633  0.55250961  1
  Se  Se129  1  0.74421184  0.40953068  0.06177609  1
  Se  Se130  1  0.74951281  0.41904985  0.55665312  1
  Se  Se131  1  0.74576958  0.74813175  0.04704218  1
  Se  Se132  1  0.74448980  0.74764846  0.56005684  1
  Se  Se133  1  0.25905257  0.25907010  0.05915677  1
  Se  Se134  1  0.23331766  0.23018488  0.55160256  1
  Se  Se135  1  0.25090342  0.58593986  0.05218769  1
  Se  Se136  1  0.26740911  0.58026571  0.56675172  1
  Se  Se137  1  0.25775995  0.93230087  0.05750999  1
  Se  Se138  1  0.24322583  0.90503904  0.55066684  1
  Se  Se139  1  0.58655746  0.24890030  0.05592763  1
  Se  Se140  1  0.58168387  0.25243418  0.55820330  1
  Se  Se141  1  0.57893795  0.58035593  0.05022287  1
  Se  Se142  1  0.58095918  0.57944802  0.55644685  1
  Se  Se143  1  0.58558669  0.91844151  0.05201713  1
  Se  Se144  1  0.58901178  0.91037518  0.54682830  1
  Se  Se145  1  0.91787837  0.24641320  0.05480039  1
  Se  Se146  1  0.91250552  0.24667157  0.55052529  1
  Se  Se147  1  0.91784524  0.58626090  0.06476579  1
  Se  Se148  1  0.92176136  0.58090657  0.54813543  1
  Se  Se149  1  0.91220500  0.91318677  0.05784824  1
  Se  Se150  1  0.91943367  0.91973911  0.55946804  1
  Se  Se151  1  0.08047150  0.24835641  0.44440549  1
  Se  Se152  1  0.08084358  0.25799562  0.93388413  1
  Se  Se153  1  0.08171531  0.58354348  0.43469948  1
  Se  Se154  1  0.08389226  0.58259198  0.95513408  1
  Se  Se155  1  0.08245621  0.91384723  0.44521305  1
  Se  Se156  1  0.07378914  0.92148234  0.94213094  1
  Se  Se157  1  0.40435042  0.26251366  0.45677921  1
  Se  Se158  1  0.41909333  0.25174355  0.95459122  1
  Se  Se159  1  0.41795554  0.57908180  0.44772329  1
  Se  Se160  1  0.41814395  0.58792933  0.94575603  1
  Se  Se161  1  0.41908379  0.90952915  0.44552101  1
  Se  Se162  1  0.41084733  0.92282429  0.95559137  1
  Se  Se163  1  0.74618062  0.24741737  0.44781150  1
  Se  Se164  1  0.75138877  0.24708634  0.94706677  1
  Se  Se165  1  0.75321144  0.57865269  0.45296324  1
  Se  Se166  1  0.73154070  0.58216472  0.93383908  1
  Se  Se167  1  0.74000507  0.92981738  0.44007753  1
  Se  Se168  1  0.75128918  0.91288627  0.94797603  1
  Se  Se169  1  0.24900049  0.07944121  0.44670626  1
  Se  Se170  1  0.25888126  0.08055157  0.93697215  1
  Se  Se171  1  0.25476520  0.40972649  0.43914259  1
  Se  Se172  1  0.24027993  0.41866597  0.94803509  1
  Se  Se173  1  0.25533039  0.74506525  0.44714399  1
  Se  Se174  1  0.25278402  0.75076081  0.93734235  1
  Se  Se175  1  0.55806581  0.10842420  0.44232897  1
  Se  Se176  1  0.58661928  0.08527339  0.94861757  1
  Se  Se177  1  0.58188073  0.41914547  0.45325090  1
  Se  Se178  1  0.58939840  0.41818253  0.93964796  1
  Se  Se179  1  0.58672550  0.74224458  0.44362118  1
  Se  Se180  1  0.57677364  0.75659753  0.94493872  1
  Se  Se181  1  0.91367794  0.08244667  0.44438384  1
  Se  Se182  1  0.91458860  0.08670131  0.95107802  1
  Se  Se183  1  0.91304306  0.41519965  0.44654264  1
  Se  Se184  1  0.91981425  0.40942000  0.94386561  1
  Se  Se185  1  0.92415017  0.74210592  0.43594746  1
  Se  Se186  1  0.91323709  0.74799048  0.95319531  1
  Se  Se187  1  0.24964239  0.23807137  0.31429549  1
  Se  Se188  1  0.26129109  0.25417590  0.79759128  1
  Se  Se189  1  0.25949597  0.58102145  0.29601045  1
  Se  Se190  1  0.24536160  0.57259969  0.81719305  1
  Se  Se191  1  0.24898152  0.91335318  0.31570862  1
  Se  Se192  1  0.24662658  0.91008241  0.80229913  1
  Se  Se193  1  0.58421614  0.25537216  0.30738712  1
  Se  Se194  1  0.58175608  0.25063640  0.80653516  1
  Se  Se195  1  0.57745650  0.57299391  0.31348354  1
  Se  Se196  1  0.59288032  0.59950184  0.79804444  1
  Se  Se197  1  0.57520910  0.92210952  0.30201380  1
  Se  Se198  1  0.58481387  0.92507844  0.80725991  1
  Se  Se199  1  0.91356243  0.25049353  0.30566781  1
  Se  Se200  1  0.90929883  0.24056946  0.81237617  1
  Se  Se201  1  0.90949648  0.57637600  0.30969626  1
  Se  Se202  1  0.90305040  0.57789085  0.80998331  1
  Se  Se203  1  0.91446106  0.92315346  0.29763215  1
  Se  Se204  1  0.90725326  0.91093531  0.81541781  1
  Se  Se205  1  0.07772980  0.08309617  0.30351206  1
  Se  Se206  1  0.09760456  0.09447223  0.80072690  1
  Se  Se207  1  0.08506045  0.41233674  0.29775776  1
  Se  Se208  1  0.07880374  0.42440958  0.80960824  1
  Se  Se209  1  0.09151223  0.75309836  0.31404287  1
  Se  Se210  1  0.08881506  0.75598733  0.80249738  1
  Se  Se211  1  0.42100839  0.09130103  0.30824092  1
  Se  Se212  1  0.42987199  0.09211480  0.81385135  1
  Se  Se213  1  0.42778681  0.41521310  0.31407641  1
  Se  Se214  1  0.42785061  0.42330362  0.80973558  1
  Se  Se215  1  0.41927712  0.74472000  0.29824273  1
  Se  Se216  1  0.42479896  0.75984933  0.80723833  1
  Se  Se217  1  0.74359167  0.08373184  0.30372620  1
  Se  Se218  1  0.74358250  0.08090239  0.80543963  1
  Se  Se219  1  0.74374824  0.41008251  0.30882812  1
  Se  Se220  1  0.74797919  0.41035409  0.79595130  1
  Se  Se221  1  0.75117434  0.76150254  0.31058820  1
  Se  Se222  1  0.74418418  0.75037407  0.80552719  1
  Se  Se223  1  0.24572579  0.09623704  0.18955671  1
  Se  Se224  1  0.25657774  0.09566473  0.68400819  1
  Se  Se225  1  0.24973592  0.42167697  0.18540156  1
  Se  Se226  1  0.23673909  0.42425239  0.70291859  1
  Se  Se227  1  0.25626392  0.75424953  0.20174095  1
  Se  Se228  1  0.25535653  0.75294623  0.68617630  1
  Se  Se229  1  0.58552748  0.08187508  0.19654488  1
  Se  Se230  1  0.58438064  0.08260715  0.69394365  1
  Se  Se231  1  0.58360100  0.41250791  0.19753524  1
  Se  Se232  1  0.58905196  0.41567170  0.70239881  1
  Se  Se233  1  0.57826920  0.75475350  0.18559431  1
  Se  Se234  1  0.58845761  0.75090942  0.69677564  1
  Se  Se235  1  0.91293479  0.08436861  0.19742093  1
  Se  Se236  1  0.91144744  0.08931568  0.69204702  1
  Se  Se237  1  0.91613679  0.40882229  0.19966241  1
  Se  Se238  1  0.90878580  0.42292341  0.68520415  1
  Se  Se239  1  0.90499841  0.75236801  0.19146924  1
  Se  Se240  1  0.90356108  0.76145758  0.69000506  1
  Se  Se241  1  0.08040792  0.25292565  0.20061102  1
  Se  Se242  1  0.08771238  0.25067133  0.68470961  1
  Se  Se243  1  0.08865144  0.57608985  0.18824310  1
  Se  Se244  1  0.09560684  0.57494506  0.69669779  1
  Se  Se245  1  0.08293463  0.92079657  0.20601476  1
  Se  Se246  1  0.08766922  0.91497154  0.68589011  1
  Se  Se247  1  0.42462794  0.24741699  0.19232365  1
  Se  Se248  1  0.41811621  0.24936206  0.69083382  1
  Se  Se249  1  0.41826842  0.58019273  0.19228254  1
  Se  Se250  1  0.43101781  0.58054631  0.69676579  1
  Se  Se251  1  0.42461288  0.91605503  0.18596680  1
  Se  Se252  1  0.43168356  0.91922830  0.68854431  1
  Se  Se253  1  0.74511008  0.25150000  0.19903321  1
  Se  Se254  1  0.74652866  0.25240244  0.69979960  1
  Se  Se255  1  0.75262269  0.57158174  0.19676880  1
  Se  Se256  1  0.74828780  0.58798782  0.69243397  1
  Se  Se257  1  0.74360021  0.92049802  0.19390393  1
  Se  Se258  1  0.74711711  0.92589613  0.69973545  1
