# generated using pymatgen
data_In86Cu29Se144
_symmetry_space_group_name_H-M   'P 1'
_cell_length_a   17.58015283
_cell_length_b   17.58516988
_cell_length_c   23.44437745
_cell_angle_alpha   90.00727241
_cell_angle_beta   89.99512294
_cell_angle_gamma   90.02038097
_symmetry_Int_Tables_number   1
_chemical_formula_structural   In86Cu29Se144
_chemical_formula_sum   'In86 Cu29 Se144'
_cell_volume   7247.82813614
_cell_formula_units_Z   1
loop_
 _symmetry_equiv_pos_site_id
 _symmetry_equiv_pos_as_xyz
  1  'x, y, z'
loop_
 _atom_site_type_symbol
 _atom_site_label
 _atom_site_symmetry_multiplicity
 _atom_site_fract_x
 _atom_site_fract_y
 _atom_site_fract_z
 _atom_site_occupancy
  In  In0  1  0.01568954  0.18881029  0.10062244  1
  In  In1  1  0.00342506  0.17498396  0.62952579  1
  In  In2  1  0.01083628  0.48710213  0.13891398  1
  In  In3  1  0.00249040  0.49572108  0.61618582  1
  In  In4  1  -0.01113699  0.83436956  0.12608880  1
  In  In5  1  0.00434035  0.81655823  0.63137349  1
  In  In6  1  0.32922001  0.18248613  0.12661409  1
  In  In7  1  0.30887881  0.16346013  0.63549730  1
  In  In8  1  0.31926623  0.50924796  0.13171372  1
  In  In9  1  0.32494530  0.51578098  0.62489726  1
  In  In10  1  0.32347948  0.82570970  0.12804018  1
  In  In11  1  0.33042585  0.82687018  0.62505508  1
  In  In12  1  0.68451554  0.16278876  0.12071485  1
  In  In13  1  0.68773960  0.15431644  0.64079177  1
  In  In14  1  0.68241320  0.50680532  0.12788800  1
  In  In15  1  0.68212859  0.48377437  0.63703019  1
  In  In16  1  0.66741403  0.83200393  0.12129576  1
  In  In17  1  0.65284411  0.84270792  0.62893021  1
  In  In18  1  0.15984508  0.00516503  0.39025097  1
  In  In19  1  0.18121975  0.00509029  0.86800736  1
  In  In20  1  0.15926328  0.33275554  0.37852444  1
  In  In21  1  0.15303771  0.33386991  0.87971336  1
  In  In22  1  0.16844666  0.66502775  0.37594310  1
  In  In23  1  0.15445924  0.65517913  0.85812223  1
  In  In24  1  0.48809488  -0.00325624  0.38129359  1
  In  In25  1  0.50004578  -0.00404787  0.86481811  1
  In  In26  1  0.49845441  0.34811596  0.37679223  1
  In  In27  1  0.50182839  0.32117851  0.86972080  1
  In  In28  1  0.50807074  0.67013063  0.37508137  1
  In  In29  1  0.50368921  0.67269463  0.86821848  1
  In  In30  1  0.84476731  0.00545209  0.38137814  1
  In  In31  1  0.81997601  0.00639992  0.87607323  1
  In  In32  1  0.85415870  0.32318938  0.39155507  1
  In  In33  1  0.84209970  0.32266942  0.86377540  1
  In  In34  1  0.82411039  0.66099846  0.37431765  1
  In  In35  1  0.84252773  0.67201765  0.86876201  1
  In  In36  1  -0.00333958  0.17407212  0.38972126  1
  In  In37  1  -0.00949795  0.18110651  0.87245841  1
  In  In38  1  -0.00250976  0.50092308  0.37966338  1
  In  In39  1  0.00558252  0.49790441  0.87322543  1
  In  In40  1  0.01360985  0.83597816  0.38043737  1
  In  In41  1  -0.00027605  0.81518340  0.86940248  1
  In  In42  1  0.31189240  0.17228451  0.37850293  1
  In  In43  1  0.33068586  0.15826579  0.86904372  1
  In  In44  1  0.32063454  0.48942133  0.36886031  1
  In  In45  1  0.30844175  0.49261605  0.87366175  1
  In  In46  1  0.34428261  0.82460628  0.38578885  1
  In  In47  1  0.32161249  0.83270563  0.85850837  1
  In  In48  1  0.67855227  0.17459606  0.37910823  1
  In  In49  1  0.67611047  0.16669777  0.85705656  1
  In  In50  1  0.66649059  0.51292493  0.38080063  1
  In  In51  1  0.67253228  0.50002932  0.86387872  1
  In  In52  1  0.67165392  0.81945854  0.38573937  1
  In  In53  1  0.68266833  0.84530730  0.86224339  1
  In  In54  1  0.15240232  0.00227045  0.12118241  1
  In  In55  1  0.17611973  0.00349084  0.63232101  1
  In  In56  1  0.16029951  0.33830425  0.12516397  1
  In  In57  1  0.13516905  0.31776039  0.60336532  1
  In  In58  1  0.17157507  0.65759045  0.13435953  1
  In  In59  1  0.16739533  0.66652935  0.62006215  1
  In  In60  1  0.51062684  -0.00756652  0.12107005  1
  In  In61  1  0.50974105  -0.01584618  0.62274052  1
  In  In62  1  0.49109325  0.32172317  0.12540700  1
  In  In63  1  0.50832906  0.34572326  0.62503064  1
  In  In64  1  0.50124324  0.67185414  0.13049196  1
  In  In65  1  0.49005061  0.67587114  0.62843031  1
  In  In66  1  0.84118791  0.01231238  0.10707532  1
  In  In67  1  0.81765826  0.00586014  0.62639510  1
  In  In68  1  0.85050543  0.33759963  0.12030854  1
  In  In69  1  0.84246813  0.33078618  0.62070914  1
  In  In70  1  0.83161328  0.66521418  0.13160292  1
  In  In71  1  0.84559003  0.65330022  0.63418538  1
  In  In72  1  0.49379461  0.50450912  0.00159274  1
  In  In73  1  0.50409196  0.83743793  0.00282327  1
  In  In74  1  -0.00207519  0.00041816  0.24812267  1
  In  In75  1  -0.00317929  0.00333357  0.74824430  1
  In  In76  1  0.50318034  0.15971839  0.50413530  1
  In  In77  1  0.84319532  0.49795840  -0.00363145  1
  In  In78  1  0.32740715  -0.00258624  0.25324748  1
  In  In79  1  0.50114206  0.50995620  0.50204217  1
  In  In80  1  0.66326430  0.35126562  0.25197865  1
  In  In81  1  0.66665872  -0.00365732  0.24542597  1
  In  In82  1  0.83017247  0.83658742  0.50809828  1
  In  In83  1  0.16231076  0.83393732  -0.00284744  1
  In  In84  1  0.49914823  0.16607232  -0.01117896  1
  In  In85  1  0.33495237  0.34157203  0.74543689  1
  Cu  Cu86  1  0.00235848  0.00554580  0.51022389  1
  Cu  Cu87  1  0.49379562  0.17579499  0.24937535  1
  Cu  Cu88  1  0.17270827  0.82311259  0.25875135  1
  Cu  Cu89  1  0.16114701  0.49694745  0.25549619  1
  Cu  Cu90  1  0.32212875  0.66088041  -0.00283117  1
  Cu  Cu91  1  -0.00327175  0.00317566  -0.01019850  1
  Cu  Cu92  1  0.83619394  0.50227873  0.25640301  1
  Cu  Cu93  1  0.84126124  0.17407540  0.25039105  1
  Cu  Cu94  1  0.50384160  0.50694981  0.74823151  1
  Cu  Cu95  1  0.15723527  0.17612118  0.25032255  1
  Cu  Cu96  1  0.67705489  0.67543793  0.00151607  1
  Cu  Cu97  1  0.83018458  0.82457365  0.24939944  1
  Cu  Cu98  1  0.31374259  0.33750188  0.00356891  1
  Cu  Cu99  1  0.00289799  0.66082102  -0.00230079  1
  Cu  Cu100  1  0.84520907  0.49719184  0.74927180  1
  Cu  Cu101  1  0.66915759  0.32985061  -0.01258455  1
  Cu  Cu102  1  0.32813261  0.66965472  0.49997518  1
  Cu  Cu103  1  0.50220357  0.16459762  0.74399866  1
  Cu  Cu104  1  0.00017144  0.66631000  0.50139602  1
  Cu  Cu105  1  0.83278113  0.82850242  0.74685485  1
  Cu  Cu106  1  0.50445406  0.82657674  0.25413328  1
  Cu  Cu107  1  0.66385278  0.66756702  0.50997371  1
  Cu  Cu108  1  0.32829222  0.33129610  0.50086191  1
  Cu  Cu109  1  0.33634172  0.00593232  -0.00597014  1
  Cu  Cu110  1  0.49580449  0.82792246  0.74712423  1
  Cu  Cu111  1  0.33289743  -0.00500858  0.50687090  1
  Cu  Cu112  1  0.16108720  0.49763323  0.74054073  1
  Cu  Cu113  1  0.68173265  0.32853610  0.50745797  1
  Cu  Cu114  1  0.49092582  0.50558338  0.25119325  1
  Se  Se115  1  0.08483264  0.08099204  0.04434422  1
  Se  Se116  1  0.08738555  0.08370037  0.56595116  1
  Se  Se117  1  0.06962341  0.41236145  0.05689748  1
  Se  Se118  1  0.09029405  0.42943312  0.54157622  1
  Se  Se119  1  0.07948905  0.74333692  0.06190810  1
  Se  Se120  1  0.08323189  0.75204643  0.55172642  1
  Se  Se121  1  0.41404984  0.08027898  0.06104503  1
  Se  Se122  1  0.40716469  0.08092031  0.56771390  1
  Se  Se123  1  0.40529244  0.41086454  0.05988164  1
  Se  Se124  1  0.40810977  0.41473675  0.55755718  1
  Se  Se125  1  0.40525510  0.74175789  0.05460934  1
  Se  Se126  1  0.41628164  0.75031656  0.55089301  1
  Se  Se127  1  0.74377887  0.08067095  0.04318568  1
  Se  Se128  1  0.74242217  0.08515360  0.55322520  1
  Se  Se129  1  0.74256302  0.40941120  0.05400879  1
  Se  Se130  1  0.75811300  0.42253056  0.55480237  1
  Se  Se131  1  0.76022067  0.75254556  0.05838206  1
  Se  Se132  1  0.74860092  0.74297495  0.57066367  1
  Se  Se133  1  0.23883777  0.24645238  0.05553339  1
  Se  Se134  1  0.24916796  0.24592014  0.55576036  1
  Se  Se135  1  0.24132361  0.58132847  0.05425435  1
  Se  Se136  1  0.24506856  0.58123163  0.54673574  1
  Se  Se137  1  0.25821695  0.92550209  0.05724580  1
  Se  Se138  1  0.24633828  0.91510671  0.55944832  1
  Se  Se139  1  0.58897337  0.25554244  0.05413360  1
  Se  Se140  1  0.59062305  0.25396346  0.56142151  1
  Se  Se141  1  0.59438056  0.59277300  0.05804119  1
  Se  Se142  1  0.59105479  0.58253292  0.57215188  1
  Se  Se143  1  0.60488782  0.93182239  0.04759468  1
  Se  Se144  1  0.59006838  0.91598437  0.54662543  1
  Se  Se145  1  0.88848075  0.22793137  0.05452644  1
  Se  Se146  1  0.92928601  0.25295959  0.55328981  1
  Se  Se147  1  0.92567381  0.58457101  0.06321837  1
  Se  Se148  1  0.91387686  0.58363190  0.55181062  1
  Se  Se149  1  0.92405964  0.91705877  0.04907183  1
  Se  Se150  1  0.92413331  0.92192056  0.56975366  1
  Se  Se151  1  0.10170267  0.23488640  0.44961027  1
  Se  Se152  1  0.08432575  0.23909820  0.94656281  1
  Se  Se153  1  0.08386389  0.58591296  0.44550943  1
  Se  Se154  1  0.08755071  0.58401620  0.94165714  1
  Se  Se155  1  0.08119000  0.91773898  0.45720571  1
  Se  Se156  1  0.07874014  0.92199117  0.93126376  1
  Se  Se157  1  0.41450517  0.25524858  0.44216000  1
  Se  Se158  1  0.39989880  0.26253742  0.94183463  1
  Se  Se159  1  0.40697577  0.58705602  0.43735342  1
  Se  Se160  1  0.40704289  0.58837691  0.93535666  1
  Se  Se161  1  0.41924436  0.91355056  0.45538797  1
  Se  Se162  1  0.40839787  0.91626701  0.93703863  1
  Se  Se163  1  0.76085391  0.24172402  0.45407813  1
  Se  Se164  1  0.74928487  0.24913119  0.93219886  1
  Se  Se165  1  0.74771563  0.58900965  0.45354081  1
  Se  Se166  1  0.74662472  0.58754163  0.94016323  1
  Se  Se167  1  0.74489486  0.92635177  0.44304201  1
  Se  Se168  1  0.76042465  0.90391883  0.94284493  1
  Se  Se169  1  0.25313401  0.08271099  0.45382023  1
  Se  Se170  1  0.24906741  0.08810891  0.94549251  1
  Se  Se171  1  0.24816909  0.41533252  0.44626628  1
  Se  Se172  1  0.23264394  0.42158657  0.95058638  1
  Se  Se173  1  0.24385153  0.75423627  0.44708686  1
  Se  Se174  1  0.24924136  0.74481417  0.93485772  1
  Se  Se175  1  0.59202944  0.07730824  0.43762972  1
  Se  Se176  1  0.58986939  0.07884117  0.93106999  1
  Se  Se177  1  0.59563190  0.40969413  0.44995070  1
  Se  Se178  1  0.58423495  0.41528729  0.93766549  1
  Se  Se179  1  0.58031686  0.74656205  0.45397838  1
  Se  Se180  1  0.59147907  0.74838500  0.94115228  1
  Se  Se181  1  0.91652529  0.08464012  0.45595405  1
  Se  Se182  1  0.91398298  0.08606813  0.93739592  1
  Se  Se183  1  0.91267155  0.42811095  0.45276023  1
  Se  Se184  1  0.92668879  0.40214831  0.93989746  1
  Se  Se185  1  0.91770849  0.74939736  0.44229693  1
  Se  Se186  1  0.91915000  0.74533075  0.94693168  1
  Se  Se187  1  0.24469828  0.25532060  0.30340846  1
  Se  Se188  1  0.24895409  0.25491521  0.80940129  1
  Se  Se189  1  0.24800156  0.58317162  0.30324094  1
  Se  Se190  1  0.24905012  0.57624960  0.79516041  1
  Se  Se191  1  0.24254271  0.91260640  0.31917470  1
  Se  Se192  1  0.25800471  0.93084503  0.79288285  1
  Se  Se193  1  0.57925758  0.24835352  0.31065384  1
  Se  Se194  1  0.58352034  0.25082730  0.79616145  1
  Se  Se195  1  0.58113697  0.57967600  0.30533476  1
  Se  Se196  1  0.58805773  0.58863145  0.80209016  1
  Se  Se197  1  0.57981530  0.91181901  0.31368004  1
  Se  Se198  1  0.58196377  0.91192085  0.79830908  1
  Se  Se199  1  0.92308228  0.24854066  0.31071916  1
  Se  Se200  1  0.93162342  0.25892870  0.78998460  1
  Se  Se201  1  0.91777470  0.58752177  0.30874388  1
  Se  Se202  1  0.92390986  0.58225898  0.80509456  1
  Se  Se203  1  0.90907168  0.90700100  0.30964207  1
  Se  Se204  1  0.91032530  0.90880472  0.80957196  1
  Se  Se205  1  0.08612581  0.08749263  0.31131518  1
  Se  Se206  1  0.08493863  0.09085408  0.81002245  1
  Se  Se207  1  0.07738033  0.41570122  0.30923104  1
  Se  Se208  1  0.08602432  0.41602845  0.80198953  1
  Se  Se209  1  0.07965749  0.74737662  0.30804161  1
  Se  Se210  1  0.09742233  0.76308107  0.79818831  1
  Se  Se211  1  0.41811324  0.09287210  0.31019639  1
  Se  Se212  1  0.41885564  0.08498380  0.80042259  1
  Se  Se213  1  0.41481588  0.41466776  0.30197726  1
  Se  Se214  1  0.42361981  0.42810994  0.81275894  1
  Se  Se215  1  0.41749828  0.74846284  0.30789278  1
  Se  Se216  1  0.41217385  0.74488747  0.80045853  1
  Se  Se217  1  0.76034221  0.08846514  0.30529239  1
  Se  Se218  1  0.74720088  0.07036327  0.79345337  1
  Se  Se219  1  0.75781160  0.42081432  0.32025040  1
  Se  Se220  1  0.75863165  0.41528111  0.80197230  1
  Se  Se221  1  0.74353399  0.74892410  0.30563512  1
  Se  Se222  1  0.74925438  0.74241252  0.79970511  1
  Se  Se223  1  0.23614006  0.08897546  0.19244016  1
  Se  Se224  1  0.24762085  0.07904504  0.71208212  1
  Se  Se225  1  0.24374228  0.41656702  0.19707487  1
  Se  Se226  1  0.24067728  0.41633228  0.68025225  1
  Se  Se227  1  0.25540586  0.74314888  0.20251560  1
  Se  Se228  1  0.26160604  0.73034994  0.69091207  1
  Se  Se229  1  0.57618206  0.09681210  0.19005666  1
  Se  Se230  1  0.58190313  0.07697656  0.69240627  1
  Se  Se231  1  0.57010970  0.43052554  0.18333491  1
  Se  Se232  1  0.58466456  0.41408959  0.70389332  1
  Se  Se233  1  0.59031768  0.75253666  0.19529295  1
  Se  Se234  1  0.58401345  0.74659903  0.69621519  1
  Se  Se235  1  0.91388996  0.09141065  0.18657116  1
  Se  Se236  1  0.90380328  0.09316338  0.69277623  1
  Se  Se237  1  0.91218345  0.41359373  0.20228342  1
  Se  Se238  1  0.92393691  0.41648320  0.69055701  1
  Se  Se239  1  0.92051212  0.74654824  0.19832709  1
  Se  Se240  1  0.92155062  0.74225063  0.70357632  1
  Se  Se241  1  0.07364661  0.25031347  0.19096921  1
  Se  Se242  1  0.08993100  0.25603013  0.69629288  1
  Se  Se243  1  0.08047186  0.58520239  0.20292963  1
  Se  Se244  1  0.08023112  0.58291787  0.68705102  1
  Se  Se245  1  0.09440802  0.90352168  0.19538392  1
  Se  Se246  1  0.08788070  0.90880910  0.69462205  1
  Se  Se247  1  0.40599571  0.25892770  0.20229296  1
  Se  Se248  1  0.42288854  0.24599331  0.68482471  1
  Se  Se249  1  0.41309934  0.58942328  0.19391636  1
  Se  Se250  1  0.41557673  0.58313384  0.69571034  1
  Se  Se251  1  0.42510836  0.90903166  0.19307565  1
  Se  Se252  1  0.41734421  0.91250154  0.69090483  1
  Se  Se253  1  0.75256051  0.25332171  0.19510972  1
  Se  Se254  1  0.74046120  0.27244923  0.68948849  1
  Se  Se255  1  0.75003060  0.58536583  0.20491989  1
  Se  Se256  1  0.75334329  0.58021102  0.70221619  1
  Se  Se257  1  0.76420783  0.91502908  0.18682893  1
  Se  Se258  1  0.74931365  0.91284787  0.69578331  1
