# generated using pymatgen
data_In86Cu29Se144
_symmetry_space_group_name_H-M   'P 1'
_cell_length_a   17.57816830
_cell_length_b   17.57687133
_cell_length_c   23.44002168
_cell_angle_alpha   89.99196295
_cell_angle_beta   90.00788668
_cell_angle_gamma   90.02688587
_symmetry_Int_Tables_number   1
_chemical_formula_structural   In86Cu29Se144
_chemical_formula_sum   'In86 Cu29 Se144'
_cell_volume   7242.24386443
_cell_formula_units_Z   1
loop_
 _symmetry_equiv_pos_site_id
 _symmetry_equiv_pos_as_xyz
  1  'x, y, z'
loop_
 _atom_site_type_symbol
 _atom_site_label
 _atom_site_symmetry_multiplicity
 _atom_site_fract_x
 _atom_site_fract_y
 _atom_site_fract_z
 _atom_site_occupancy
  In  In0  1  0.01059760  0.16634786  0.13500796  1
  In  In1  1  -0.00139132  0.16301647  0.62320099  1
  In  In2  1  -0.00746472  0.51076420  0.13532473  1
  In  In3  1  -0.00989152  0.48873356  0.61955823  1
  In  In4  1  -0.01266133  0.82235812  0.11804864  1
  In  In5  1  0.00582172  0.83960495  0.61868096  1
  In  In6  1  0.32462131  0.16978869  0.13048983  1
  In  In7  1  0.34514733  0.17256408  0.61524352  1
  In  In8  1  0.34540648  0.51317501  0.12448953  1
  In  In9  1  0.32963434  0.50061512  0.61730377  1
  In  In10  1  0.32993549  0.83370665  0.12589177  1
  In  In11  1  0.32558466  0.83935077  0.62617200  1
  In  In12  1  0.66917208  0.15118010  0.12909776  1
  In  In13  1  0.65965737  0.15825994  0.62073926  1
  In  In14  1  0.68328805  0.50701221  0.12315123  1
  In  In15  1  0.67316535  0.50502638  0.61682510  1
  In  In16  1  0.66564868  0.82861579  0.12555345  1
  In  In17  1  0.67838279  0.82760678  0.62686390  1
  In  In18  1  0.17858638  -0.01489812  0.38259585  1
  In  In19  1  0.15823463  0.00040291  0.87476934  1
  In  In20  1  0.15457445  0.34526026  0.38811066  1
  In  In21  1  0.15505892  0.32466916  0.85722597  1
  In  In22  1  0.16070167  0.66844801  0.37259661  1
  In  In23  1  0.17929836  0.66633333  0.87548783  1
  In  In24  1  0.48770560  0.00987953  0.37316687  1
  In  In25  1  0.50214255  -0.02251270  0.86842276  1
  In  In26  1  0.50541686  0.32785152  0.38476785  1
  In  In27  1  0.49702265  0.34514064  0.86670952  1
  In  In28  1  0.49110763  0.66623427  0.36253255  1
  In  In29  1  0.49680567  0.67969851  0.87300807  1
  In  In30  1  0.83971125  -0.00903098  0.38607371  1
  In  In31  1  0.82618678  -0.00787875  0.86061773  1
  In  In32  1  0.83738714  0.32940061  0.38460402  1
  In  In33  1  0.84360324  0.33875860  0.86950619  1
  In  In34  1  0.83359405  0.66829326  0.37389154  1
  In  In35  1  0.83434546  0.66524112  0.88727652  1
  In  In36  1  -0.01103967  0.17591765  0.38557083  1
  In  In37  1  -0.01178049  0.16287820  0.85391752  1
  In  In38  1  0.00255919  0.50182587  0.37790645  1
  In  In39  1  -0.00488887  0.48848635  0.87284017  1
  In  In40  1  0.00558212  0.82400664  0.37491226  1
  In  In41  1  -0.00665432  0.83572430  0.88475465  1
  In  In42  1  0.33835019  0.15551792  0.38212060  1
  In  In43  1  0.31759939  0.16924905  0.86789866  1
  In  In44  1  0.32725885  0.50628104  0.38364827  1
  In  In45  1  0.32839913  0.50216914  0.85993462  1
  In  In46  1  0.31273659  0.81703433  0.34784246  1
  In  In47  1  0.34314069  0.82478603  0.88288875  1
  In  In48  1  0.66022051  0.16759285  0.38577952  1
  In  In49  1  0.68140644  0.14535487  0.86637055  1
  In  In50  1  0.66119571  0.50845946  0.38552524  1
  In  In51  1  0.66295183  0.51237565  0.87740126  1
  In  In52  1  0.67710647  0.82972545  0.36921524  1
  In  In53  1  0.66350308  0.83422358  0.87977192  1
  In  In54  1  0.18704590  -0.00637200  0.13412769  1
  In  In55  1  0.15226075  -0.00922533  0.61563592  1
  In  In56  1  0.15857200  0.32356756  0.13201295  1
  In  In57  1  0.16653187  0.33226428  0.61935397  1
  In  In58  1  0.14478351  0.69330233  0.15013825  1
  In  In59  1  0.17551161  0.67736040  0.61486038  1
  In  In60  1  0.51025966  -0.02580638  0.13685303  1
  In  In61  1  0.49589156  0.00877285  0.62576906  1
  In  In62  1  0.48630916  0.34009847  0.12597299  1
  In  In63  1  0.48964607  0.32662686  0.61732781  1
  In  In64  1  0.47365703  0.70459913  0.16229919  1
  In  In65  1  0.50311125  0.65634258  0.62198180  1
  In  In66  1  0.84514437  -0.00498207  0.12438196  1
  In  In67  1  0.83657550  -0.00004196  0.62586197  1
  In  In68  1  0.83105503  0.34735597  0.12810338  1
  In  In69  1  0.84519465  0.34039001  0.62472297  1
  In  In70  1  0.83734173  0.66832133  0.12931718  1
  In  In71  1  0.83075348  0.66376714  0.61676404  1
  In  In72  1  0.66867520  0.33541881  0.26399457  1
  In  In73  1  0.66725724  0.33261030  0.74216859  1
  In  In74  1  0.33091690  0.00317398  0.74681298  1
  In  In75  1  0.66500778  -0.00159880  0.24940581  1
  In  In76  1  0.50967594  0.52439429  0.00048443  1
  In  In77  1  0.66387250  0.66904931  0.74599438  1
  In  In78  1  0.49436974  0.83921381  0.49125981  1
  In  In79  1  0.32683820  0.33619890  0.25327454  1
  In  In80  1  0.00628249  -0.00421354  0.25986916  1
  In  In81  1  0.16402473  0.50385543  0.00222492  1
  In  In82  1  0.50269488  0.16500432  0.00504724  1
  In  In83  1  0.00264704  0.66111728  0.74988489  1
  In  In84  1  0.16215655  0.16369642  -0.00138950  1
  In  In85  1  0.84285840  0.16918885  -0.01298864  1
  Cu  Cu86  1  0.66890349  0.66672274  0.49836919  1
  Cu  Cu87  1  0.67045128  0.33001211  0.50654062  1
  Cu  Cu88  1  0.82999824  0.17009242  0.26126960  1
  Cu  Cu89  1  0.33293635  0.33417985  0.49785785  1
  Cu  Cu90  1  -0.00638188  0.00212553  0.49942450  1
  Cu  Cu91  1  0.16768941  0.17041346  0.73961366  1
  Cu  Cu92  1  0.34437360  -0.00984070  0.00550621  1
  Cu  Cu93  1  0.66651928  -0.00405865  0.49874991  1
  Cu  Cu94  1  0.50229718  0.16714634  0.74409785  1
  Cu  Cu95  1  0.16637969  0.83343990  0.74629835  1
  Cu  Cu96  1  0.00228229  0.66688420  0.49775990  1
  Cu  Cu97  1  0.67211575  -0.00789751  -0.00174652  1
  Cu  Cu98  1  0.33086237  0.33972164  -0.01381184  1
  Cu  Cu99  1  0.83777338  0.83528076  0.74952511  1
  Cu  Cu100  1  0.33525673  0.66920916  0.48986888  1
  Cu  Cu101  1  0.16867836  0.50117679  0.25865667  1
  Cu  Cu102  1  0.15859748  0.17554959  0.26206761  1
  Cu  Cu103  1  0.33466148  0.67337345  0.00699729  1
  Cu  Cu104  1  0.32648351  -0.00343122  0.49972444  1
  Cu  Cu105  1  0.84547472  0.50404372  0.25261386  1
  Cu  Cu106  1  0.00001834  0.66570386  0.00956144  1
  Cu  Cu107  1  0.00494586  -0.01028709  -0.00036982  1
  Cu  Cu108  1  -0.00484203  0.33428401  -0.00226237  1
  Cu  Cu109  1  0.48517963  0.49748001  0.74131444  1
  Cu  Cu110  1  0.16750886  0.49802504  0.74060253  1
  Cu  Cu111  1  0.00182658  0.33357533  0.50368661  1
  Cu  Cu112  1  0.67005591  0.66912585  0.00689812  1
  Cu  Cu113  1  0.67045635  0.33341516  0.00415954  1
  Cu  Cu114  1  0.50843787  0.49374690  0.25543424  1
  Se  Se115  1  0.07936717  0.07190057  0.06300812  1
  Se  Se116  1  0.08177615  0.08513476  0.54897373  1
  Se  Se117  1  0.07577985  0.40917780  0.06193453  1
  Se  Se118  1  0.08630330  0.42117056  0.55205334  1
  Se  Se119  1  0.08934580  0.74893158  0.05664316  1
  Se  Se120  1  0.08445081  0.75435272  0.54925914  1
  Se  Se121  1  0.41313724  0.07949630  0.06742450  1
  Se  Se122  1  0.41736301  0.07743168  0.54816562  1
  Se  Se123  1  0.41146593  0.41887724  0.04653226  1
  Se  Se124  1  0.41769841  0.41944005  0.54988614  1
  Se  Se125  1  0.42354427  0.74893923  0.06310304  1
  Se  Se126  1  0.41145159  0.74715603  0.55668417  1
  Se  Se127  1  0.75263422  0.07862696  0.05282118  1
  Se  Se128  1  0.74816921  0.07728063  0.55534089  1
  Se  Se129  1  0.75535933  0.42026156  0.05075802  1
  Se  Se130  1  0.75602088  0.41678281  0.55420190  1
  Se  Se131  1  0.75531518  0.75113413  0.05848521  1
  Se  Se132  1  0.75194650  0.75221946  0.55002852  1
  Se  Se133  1  0.25445900  0.26294209  0.05322548  1
  Se  Se134  1  0.25166139  0.24880809  0.55108401  1
  Se  Se135  1  0.24992711  0.59390060  0.06352257  1
  Se  Se136  1  0.25225315  0.58828248  0.54706004  1
  Se  Se137  1  0.24893581  0.91511045  0.05297790  1
  Se  Se138  1  0.24466612  0.91044888  0.55123418  1
  Se  Se139  1  0.59250666  0.25832230  0.06716402  1
  Se  Se140  1  0.58095670  0.24640922  0.55364973  1
  Se  Se141  1  0.58701714  0.60177935  0.07410611  1
  Se  Se142  1  0.58410411  0.58149708  0.54898445  1
  Se  Se143  1  0.58687656  0.91359051  0.05427777  1
  Se  Se144  1  0.58547647  0.91678349  0.56049748  1
  Se  Se145  1  0.92324416  0.25096695  0.06287372  1
  Se  Se146  1  0.91632250  0.24960551  0.55456699  1
  Se  Se147  1  0.91491814  0.57991812  0.05719647  1
  Se  Se148  1  0.91853874  0.58319817  0.55177260  1
  Se  Se149  1  0.91223818  0.91261953  0.04862466  1
  Se  Se150  1  0.91306722  0.91470290  0.55285107  1
  Se  Se151  1  0.08441359  0.24682718  0.45245171  1
  Se  Se152  1  0.07045348  0.25113406  0.93577518  1
  Se  Se153  1  0.08771258  0.58384629  0.44649028  1
  Se  Se154  1  0.07290497  0.59064367  0.93845668  1
  Se  Se155  1  0.07526383  0.91853760  0.44441357  1
  Se  Se156  1  0.09248168  0.91101755  0.94717716  1
  Se  Se157  1  0.41668955  0.24658479  0.44857656  1
  Se  Se158  1  0.41338924  0.25219140  0.93651892  1
  Se  Se159  1  0.42497308  0.58663867  0.44254924  1
  Se  Se160  1  0.40191210  0.58964924  0.93925669  1
  Se  Se161  1  0.39527778  0.91596345  0.43150886  1
  Se  Se162  1  0.42762682  0.91024884  0.94938940  1
  Se  Se163  1  0.75057774  0.24597903  0.44995696  1
  Se  Se164  1  0.73998639  0.25469377  0.93546235  1
  Se  Se165  1  0.75699078  0.58387043  0.44813042  1
  Se  Se166  1  0.74646957  0.58099919  0.95154408  1
  Se  Se167  1  0.74691292  0.90906954  0.44692695  1
  Se  Se168  1  0.75763224  0.91625110  0.94114583  1
  Se  Se169  1  0.24362133  0.08487211  0.44963776  1
  Se  Se170  1  0.26320421  0.07252592  0.94544157  1
  Se  Se171  1  0.24769531  0.42241159  0.45228406  1
  Se  Se172  1  0.24330521  0.41383081  0.93090836  1
  Se  Se173  1  0.25282019  0.75330557  0.43683922  1
  Se  Se174  1  0.24936937  0.75089228  0.94976606  1
  Se  Se175  1  0.57826924  0.07507223  0.44667131  1
  Se  Se176  1  0.59003658  0.07498351  0.94043601  1
  Se  Se177  1  0.58757632  0.41283287  0.45042132  1
  Se  Se178  1  0.58496062  0.41179445  0.94548745  1
  Se  Se179  1  0.58615856  0.74437224  0.43779113  1
  Se  Se180  1  0.58634695  0.74378815  0.94640839  1
  Se  Se181  1  0.90698597  0.08830738  0.45160499  1
  Se  Se182  1  0.93038499  0.07102083  0.93462542  1
  Se  Se183  1  0.92034607  0.41785971  0.44832416  1
  Se  Se184  1  0.91090863  0.41964855  0.94841918  1
  Se  Se185  1  0.91693402  0.75008452  0.44477383  1
  Se  Se186  1  0.91672489  0.74875364  0.95367632  1
  Se  Se187  1  0.24322635  0.25228815  0.32102975  1
  Se  Se188  1  0.25203190  0.25353480  0.79248326  1
  Se  Se189  1  0.25374140  0.58469459  0.30826269  1
  Se  Se190  1  0.24385057  0.58690529  0.79534801  1
  Se  Se191  1  0.24025589  0.92348107  0.29461714  1
  Se  Se192  1  0.24715501  0.91118722  0.81008388  1
  Se  Se193  1  0.57307493  0.23752135  0.30829412  1
  Se  Se194  1  0.58120543  0.24301839  0.81016674  1
  Se  Se195  1  0.58837931  0.58140318  0.30648243  1
  Se  Se196  1  0.56740478  0.57555432  0.80307371  1
  Se  Se197  1  0.57565039  0.91408457  0.31239685  1
  Se  Se198  1  0.60103360  0.91880323  0.80221980  1
  Se  Se199  1  0.91624734  0.25510489  0.30804750  1
  Se  Se200  1  0.91612521  0.26145216  0.79473496  1
  Se  Se201  1  0.92477599  0.58783926  0.30802576  1
  Se  Se202  1  0.90580120  0.57911842  0.81006758  1
  Se  Se203  1  0.90638296  0.90649138  0.30827398  1
  Se  Se204  1  0.92652147  0.91173215  0.80427278  1
  Se  Se205  1  0.08559756  0.09017517  0.32231016  1
  Se  Se206  1  0.09249862  0.08635435  0.79997193  1
  Se  Se207  1  0.08336143  0.41599038  0.30702589  1
  Se  Se208  1  0.07981517  0.42202323  0.79682402  1
  Se  Se209  1  0.09408954  0.76036884  0.30101360  1
  Se  Se210  1  0.08809748  0.75504726  0.81071165  1
  Se  Se211  1  0.40701743  0.08601005  0.30100489  1
  Se  Se212  1  0.42406464  0.09011485  0.81159161  1
  Se  Se213  1  0.42316894  0.41789342  0.31487859  1
  Se  Se214  1  0.40701197  0.41019171  0.79528988  1
  Se  Se215  1  0.42960153  0.76366420  0.29437628  1
  Se  Se216  1  0.40953233  0.74842181  0.80328723  1
  Se  Se217  1  0.75230892  0.08474083  0.31690372  1
  Se  Se218  1  0.77327086  0.09452079  0.79211864  1
  Se  Se219  1  0.76135814  0.42885277  0.31581109  1
  Se  Se220  1  0.74574601  0.42618986  0.80941488  1
  Se  Se221  1  0.74179077  0.73561059  0.30143996  1
  Se  Se222  1  0.75974142  0.75124083  0.80947303  1
  Se  Se223  1  0.23972051  0.09760132  0.20264439  1
  Se  Se224  1  0.24538532  0.08635789  0.67974940  1
  Se  Se225  1  0.24338128  0.42828294  0.18707783  1
  Se  Se226  1  0.25162359  0.41510299  0.68833078  1
  Se  Se227  1  0.27158782  0.73161821  0.19489765  1
  Se  Se228  1  0.24965422  0.75032765  0.69471630  1
  Se  Se229  1  0.56799478  0.09200392  0.19602834  1
  Se  Se230  1  0.58475505  0.07892603  0.69738548  1
  Se  Se231  1  0.58408567  0.41780907  0.19030654  1
  Se  Se232  1  0.57593019  0.42498096  0.68402129  1
  Se  Se233  1  0.60135004  0.74743267  0.20411340  1
  Se  Se234  1  0.57171259  0.75852344  0.68958980  1
  Se  Se235  1  0.90972939  0.09012264  0.19984943  1
  Se  Se236  1  0.93166460  0.06937599  0.69267550  1
  Se  Se237  1  0.92058911  0.41207267  0.20032081  1
  Se  Se238  1  0.91669764  0.42108404  0.70017513  1
  Se  Se239  1  0.93247275  0.73779158  0.19712338  1
  Se  Se240  1  0.91320306  0.75180192  0.68873464  1
  Se  Se241  1  0.07466130  0.25665132  0.20793655  1
  Se  Se242  1  0.08145275  0.25262923  0.68926962  1
  Se  Se243  1  0.08287299  0.58130007  0.20469744  1
  Se  Se244  1  0.08923948  0.58115724  0.68096128  1
  Se  Se245  1  0.08035054  0.91391493  0.18510426  1
  Se  Se246  1  0.08136771  0.91650235  0.69562704  1
  Se  Se247  1  0.42250861  0.24546747  0.19759023  1
  Se  Se248  1  0.41582684  0.24948482  0.69458712  1
  Se  Se249  1  0.42091206  0.57704079  0.20467872  1
  Se  Se250  1  0.40865562  0.58686003  0.68914520  1
  Se  Se251  1  0.39644831  0.93049973  0.19540843  1
  Se  Se252  1  0.42447529  0.91022596  0.69392276  1
  Se  Se253  1  0.75313900  0.24483028  0.19420959  1
  Se  Se254  1  0.75498410  0.24346982  0.68335695  1
  Se  Se255  1  0.75647686  0.58187419  0.19982384  1
  Se  Se256  1  0.75852267  0.57658182  0.69388575  1
  Se  Se257  1  0.76158520  0.91226122  0.19333880  1
  Se  Se258  1  0.75211784  0.91541608  0.69592750  1
