# generated using pymatgen
data_In86Cu29Se144
_symmetry_space_group_name_H-M   'P 1'
_cell_length_a   17.57733675
_cell_length_b   17.57538072
_cell_length_c   23.43745852
_cell_angle_alpha   90.01232205
_cell_angle_beta   90.00030583
_cell_angle_gamma   90.00723314
_symmetry_Int_Tables_number   1
_chemical_formula_structural   In86Cu29Se144
_chemical_formula_sum   'In86 Cu29 Se144'
_cell_volume   7240.49599506
_cell_formula_units_Z   1
loop_
 _symmetry_equiv_pos_site_id
 _symmetry_equiv_pos_as_xyz
  1  'x, y, z'
loop_
 _atom_site_type_symbol
 _atom_site_label
 _atom_site_symmetry_multiplicity
 _atom_site_fract_x
 _atom_site_fract_y
 _atom_site_fract_z
 _atom_site_occupancy
  In  In0  1  -0.00933311  0.15744143  0.10384852  1
  In  In1  1  0.01274857  0.16479525  0.62836671  1
  In  In2  1  -0.00431819  0.51305570  0.12509834  1
  In  In3  1  -0.00422172  0.49568271  0.62812409  1
  In  In4  1  -0.00064999  0.83731777  0.11082518  1
  In  In5  1  -0.00633557  0.82068859  0.61704567  1
  In  In6  1  0.34128059  0.17203132  0.11548252  1
  In  In7  1  0.32195574  0.17991759  0.63631865  1
  In  In8  1  0.33082355  0.48150638  0.12667135  1
  In  In9  1  0.32261707  0.47778862  0.61111939  1
  In  In10  1  0.33204097  0.84405698  0.12047929  1
  In  In11  1  0.32372956  0.85155363  0.63423774  1
  In  In12  1  0.66680155  0.17225862  0.12838059  1
  In  In13  1  0.68178673  0.17248231  0.62666801  1
  In  In14  1  0.66372801  0.49880890  0.12474775  1
  In  In15  1  0.65869642  0.49406792  0.61637835  1
  In  In16  1  0.68099700  0.82355064  0.13066940  1
  In  In17  1  0.66469675  0.82373826  0.62077079  1
  In  In18  1  0.16500179  0.00156661  0.38153824  1
  In  In19  1  0.16924812  -0.01070238  0.88013069  1
  In  In20  1  0.17348942  0.33108069  0.38617098  1
  In  In21  1  0.16108560  0.32730411  0.86546792  1
  In  In22  1  0.15992361  0.66455167  0.39550772  1
  In  In23  1  0.16460981  0.68178190  0.87223917  1
  In  In24  1  0.51294486  -0.00632367  0.37230373  1
  In  In25  1  0.50526599  0.01257183  0.87348929  1
  In  In26  1  0.50123115  0.33480021  0.37076417  1
  In  In27  1  0.50017839  0.33229955  0.87443059  1
  In  In28  1  0.50637785  0.65244360  0.37449730  1
  In  In29  1  0.48230320  0.65188261  0.88037204  1
  In  In30  1  0.81904439  -0.01004626  0.37504533  1
  In  In31  1  0.84622788  -0.00261196  0.89561568  1
  In  In32  1  0.83323206  0.33915320  0.37115088  1
  In  In33  1  0.83051969  0.33771253  0.87702471  1
  In  In34  1  0.83171866  0.67156882  0.38127782  1
  In  In35  1  0.83869464  0.65670896  0.87779756  1
  In  In36  1  0.00547861  0.17742612  0.37606521  1
  In  In37  1  -0.00944674  0.17670521  0.88697772  1
  In  In38  1  -0.00460400  0.50274336  0.39421371  1
  In  In39  1  -0.00783601  0.49130707  0.86252415  1
  In  In40  1  -0.00562121  0.82833269  0.38689793  1
  In  In41  1  0.00606218  0.82998874  0.87631881  1
  In  In42  1  0.32218898  0.17432261  0.37592969  1
  In  In43  1  0.33528835  0.16672186  0.87252581  1
  In  In44  1  0.34453495  0.48779018  0.39134599  1
  In  In45  1  0.34908279  0.50357691  0.87661778  1
  In  In46  1  0.33168980  0.82633582  0.37841504  1
  In  In47  1  0.31636310  0.82591377  0.86916067  1
  In  In48  1  0.66459351  0.16074400  0.36165542  1
  In  In49  1  0.65896065  0.17336458  0.88457921  1
  In  In50  1  0.66645996  0.49676382  0.37053350  1
  In  In51  1  0.66929356  0.49081234  0.88020398  1
  In  In52  1  0.68768674  0.84099887  0.36602991  1
  In  In53  1  0.67007846  0.84564369  0.87762886  1
  In  In54  1  0.15955555  0.00080933  0.10772351  1
  In  In55  1  0.17127419  0.01367361  0.62111840  1
  In  In56  1  0.18003863  0.33088644  0.12799175  1
  In  In57  1  0.16922311  0.32764369  0.62913740  1
  In  In58  1  0.15562709  0.67044074  0.12426123  1
  In  In59  1  0.14655117  0.64712127  0.61067600  1
  In  In60  1  0.50395539  0.01538230  0.12148179  1
  In  In61  1  0.48761182  -0.00976800  0.63133305  1
  In  In62  1  0.49961693  0.33100920  0.12497932  1
  In  In63  1  0.49239741  0.34261985  0.63253441  1
  In  In64  1  0.51309473  0.67159757  0.12430543  1
  In  In65  1  0.50725295  0.65928348  0.62296150  1
  In  In66  1  0.83034689  -0.00422994  0.11998847  1
  In  In67  1  0.84365197  0.00072194  0.62251747  1
  In  In68  1  0.80971961  0.31904796  0.11504097  1
  In  In69  1  0.82134413  0.34342447  0.63324427  1
  In  In70  1  0.82761383  0.65646322  0.11475741  1
  In  In71  1  0.84548298  0.66876196  0.61423529  1
  In  In72  1  0.00373656  0.00228846  0.75589560  1
  In  In73  1  0.16968068  0.50156311  -0.00030185  1
  In  In74  1  0.83883150  0.16401522  0.49545747  1
  In  In75  1  0.66688696  0.00975988  0.75702615  1
  In  In76  1  -0.00196030  0.00046285  0.23657728  1
  In  In77  1  0.66612924  0.66542085  0.74339240  1
  In  In78  1  0.32968782  0.66411041  0.74854700  1
  In  In79  1  -0.00423237  0.33318406  0.24891630  1
  In  In80  1  0.49720616  0.82897063  -0.00213930  1
  In  In81  1  0.33782962  0.65827146  0.25885387  1
  In  In82  1  0.50172058  0.83086232  0.50243383  1
  In  In83  1  -0.00516863  0.66880070  0.25756302  1
  In  In84  1  0.50041223  0.16959650  0.49358548  1
  In  In85  1  0.34074054  0.01121500  0.24279348  1
  Cu  Cu86  1  0.33705751  0.32929768  -0.00225153  1
  Cu  Cu87  1  0.83489373  0.49979027  0.75050421  1
  Cu  Cu88  1  0.83176820  0.83206736  0.74412396  1
  Cu  Cu89  1  0.17032834  0.49367340  0.26199606  1
  Cu  Cu90  1  0.66833018  0.66476420  0.00217963  1
  Cu  Cu91  1  0.16679766  0.17252669  0.24759929  1
  Cu  Cu92  1  0.17124189  0.16672392  0.75186740  1
  Cu  Cu93  1  0.50206939  0.49425166  0.25069550  1
  Cu  Cu94  1  0.17391162  0.83141285  0.25269936  1
  Cu  Cu95  1  0.50060729  0.49372705  0.74818991  1
  Cu  Cu96  1  0.33047297  -0.00090475  -0.00494769  1
  Cu  Cu97  1  -0.00204389  0.34492420  -0.00608531  1
  Cu  Cu98  1  0.66140624  0.33632111  0.00146882  1
  Cu  Cu99  1  0.33104608  0.00950440  0.50287993  1
  Cu  Cu100  1  0.66722114  0.00069728  0.00331513  1
  Cu  Cu101  1  -0.00006079  0.66932413  -0.00467407  1
  Cu  Cu102  1  0.00247812  -0.00701444  0.50323689  1
  Cu  Cu103  1  0.16715942  0.49870240  0.74163096  1
  Cu  Cu104  1  0.66357259  0.33642994  0.49735323  1
  Cu  Cu105  1  0.83461717  0.83156123  0.24642718  1
  Cu  Cu106  1  0.82467560  0.49831964  0.24630900  1
  Cu  Cu107  1  0.16042994  0.83369105  0.74729695  1
  Cu  Cu108  1  0.50200149  0.17087228  0.75451661  1
  Cu  Cu109  1  0.83193689  0.17674181  0.76044673  1
  Cu  Cu110  1  0.00274522  0.33076464  0.50647259  1
  Cu  Cu111  1  0.67156477  0.66354002  0.49646142  1
  Cu  Cu112  1  0.49941807  0.17491473  0.24410883  1
  Cu  Cu113  1  0.33229883  0.67082967  0.50192178  1
  Cu  Cu114  1  0.51775086  0.83319838  0.24866749  1
  Se  Se115  1  0.09650426  0.09928286  0.04325868  1
  Se  Se116  1  0.08125963  0.08586974  0.55061828  1
  Se  Se117  1  0.07915930  0.41363571  0.06326215  1
  Se  Se118  1  0.08426180  0.41223824  0.56226873  1
  Se  Se119  1  0.08623222  0.75026256  0.04827244  1
  Se  Se120  1  0.09928481  0.76346447  0.55476675  1
  Se  Se121  1  0.41603644  0.08050957  0.04802745  1
  Se  Se122  1  0.41396347  0.08528009  0.56248349  1
  Se  Se123  1  0.41679205  0.41340420  0.05338075  1
  Se  Se124  1  0.43247070  0.42112286  0.55193268  1
  Se  Se125  1  0.40807671  0.74172566  0.06052402  1
  Se  Se126  1  0.40811640  0.74938951  0.56634263  1
  Se  Se127  1  0.74635835  0.08646357  0.05793818  1
  Se  Se128  1  0.74579263  0.07539591  0.55534685  1
  Se  Se129  1  0.74774127  0.42248284  0.05138479  1
  Se  Se130  1  0.75125694  0.41454480  0.55151139  1
  Se  Se131  1  0.75313917  0.75228158  0.05004207  1
  Se  Se132  1  0.75001849  0.74884419  0.55195684  1
  Se  Se133  1  0.24881384  0.25065482  0.05073315  1
  Se  Se134  1  0.24896825  0.24663003  0.55710428  1
  Se  Se135  1  0.25444995  0.58706864  0.06653336  1
  Se  Se136  1  0.25247708  0.58080903  0.55166744  1
  Se  Se137  1  0.24827899  0.91307693  0.04700759  1
  Se  Se138  1  0.24998691  0.92218465  0.55454127  1
  Se  Se139  1  0.58187663  0.24843688  0.05561491  1
  Se  Se140  1  0.58974234  0.25410116  0.55997155  1
  Se  Se141  1  0.58227439  0.58293578  0.05338029  1
  Se  Se142  1  0.58283344  0.58352910  0.54754857  1
  Se  Se143  1  0.58773960  0.91456775  0.06211709  1
  Se  Se144  1  0.58774393  0.92753806  0.55978124  1
  Se  Se145  1  0.91560351  0.26249134  0.04991922  1
  Se  Se146  1  0.91741174  0.25173077  0.56536479  1
  Se  Se147  1  0.91881207  0.58198803  0.04688355  1
  Se  Se148  1  0.91186732  0.56751182  0.55392200  1
  Se  Se149  1  0.92610899  0.93293337  0.05029268  1
  Se  Se150  1  0.91350193  0.91276683  0.55224465  1
  Se  Se151  1  0.08500719  0.24757286  0.45137166  1
  Se  Se152  1  0.08558473  0.26061227  0.94634068  1
  Se  Se153  1  0.07371076  0.58689250  0.46118871  1
  Se  Se154  1  0.07825364  0.58479192  0.93547764  1
  Se  Se155  1  0.08652536  0.91302624  0.44694430  1
  Se  Se156  1  0.07082941  0.92385779  0.94516510  1
  Se  Se157  1  0.40554083  0.26288533  0.44370666  1
  Se  Se158  1  0.42003150  0.24588143  0.94336634  1
  Se  Se159  1  0.41904259  0.59028853  0.44944917  1
  Se  Se160  1  0.41210714  0.57835148  0.95821445  1
  Se  Se161  1  0.41097987  0.92768415  0.44244500  1
  Se  Se162  1  0.41176197  0.91908813  0.93428324  1
  Se  Se163  1  0.74097763  0.25112658  0.43863725  1
  Se  Se164  1  0.74859839  0.25551147  0.94785028  1
  Se  Se165  1  0.74999451  0.57714271  0.44147028  1
  Se  Se166  1  0.74888066  0.58151767  0.94517921  1
  Se  Se167  1  0.75558583  0.90491260  0.45038127  1
  Se  Se168  1  0.75052626  0.91407918  0.95363027  1
  Se  Se169  1  0.24748727  0.08863499  0.44628802  1
  Se  Se170  1  0.25023359  0.08405071  0.94102418  1
  Se  Se171  1  0.23511229  0.43209779  0.45060570  1
  Se  Se172  1  0.25508796  0.40998393  0.93746279  1
  Se  Se173  1  0.24909898  0.75724260  0.45201812  1
  Se  Se174  1  0.25517943  0.74166058  0.94545115  1
  Se  Se175  1  0.59638128  0.07555228  0.44320312  1
  Se  Se176  1  0.58136907  0.08249656  0.95153125  1
  Se  Se177  1  0.58132277  0.41721921  0.44129938  1
  Se  Se178  1  0.57664344  0.41778466  0.94693566  1
  Se  Se179  1  0.59125592  0.74808427  0.43674580  1
  Se  Se180  1  0.58890631  0.73991603  0.93606657  1
  Se  Se181  1  0.92815208  0.07124638  0.43561805  1
  Se  Se182  1  0.91319130  0.09570162  0.95786147  1
  Se  Se183  1  0.91361893  0.40416754  0.44987976  1
  Se  Se184  1  0.91329080  0.42773507  0.94306251  1
  Se  Se185  1  0.92785406  0.73163450  0.45133299  1
  Se  Se186  1  0.91428447  0.75135232  0.94224334  1
  Se  Se187  1  0.24413074  0.25594489  0.30456005  1
  Se  Se188  1  0.25657303  0.25242201  0.80182192  1
  Se  Se189  1  0.24313297  0.57950386  0.32201533  1
  Se  Se190  1  0.24115295  0.57408806  0.81121806  1
  Se  Se191  1  0.25272316  0.91867280  0.30671211  1
  Se  Se192  1  0.24389383  0.91659312  0.80037603  1
  Se  Se193  1  0.58346229  0.25370163  0.30111712  1
  Se  Se194  1  0.58898192  0.25147883  0.80629768  1
  Se  Se195  1  0.58644191  0.58176974  0.29907421  1
  Se  Se196  1  0.57695719  0.57871573  0.80792286  1
  Se  Se197  1  0.59647631  0.92094982  0.30064679  1
  Se  Se198  1  0.57496183  0.90989074  0.80578061  1
  Se  Se199  1  0.90665066  0.23742515  0.30549295  1
  Se  Se200  1  0.92110408  0.25744536  0.80982772  1
  Se  Se201  1  0.90984390  0.56872757  0.31064892  1
  Se  Se202  1  0.91720886  0.58889467  0.79887573  1
  Se  Se203  1  0.92021644  0.90797816  0.30546021  1
  Se  Se204  1  0.90473822  0.91415529  0.80901244  1
  Se  Se205  1  0.08811958  0.08712624  0.30414451  1
  Se  Se206  1  0.08829867  0.09438016  0.81638785  1
  Se  Se207  1  0.07867693  0.42036346  0.31694131  1
  Se  Se208  1  0.08409324  0.41568918  0.79739729  1
  Se  Se209  1  0.09362927  0.75538661  0.31357584  1
  Se  Se210  1  0.07665566  0.74996623  0.79898251  1
  Se  Se211  1  0.42605497  0.09452466  0.31227122  1
  Se  Se212  1  0.41797464  0.08303970  0.80188316  1
  Se  Se213  1  0.41267222  0.42042270  0.30658313  1
  Se  Se214  1  0.41593450  0.41491670  0.80395128  1
  Se  Se215  1  0.43113436  0.75971695  0.30891081  1
  Se  Se216  1  0.42274078  0.75133285  0.80896390  1
  Se  Se217  1  0.75766012  0.07950198  0.30301064  1
  Se  Se218  1  0.76209121  0.08782307  0.82090876  1
  Se  Se219  1  0.74625160  0.41110468  0.29996965  1
  Se  Se220  1  0.74906384  0.41909132  0.80421012  1
  Se  Se221  1  0.75737969  0.74273494  0.30095462  1
  Se  Se222  1  0.75202826  0.75557286  0.80771684  1
  Se  Se223  1  0.24032541  0.08928454  0.18420443  1
  Se  Se224  1  0.25198836  0.07919499  0.70009156  1
  Se  Se225  1  0.24997420  0.41355525  0.20420071  1
  Se  Se226  1  0.25548774  0.41327545  0.69654948  1
  Se  Se227  1  0.25242173  0.75086722  0.19325744  1
  Se  Se228  1  0.23703620  0.74834672  0.68678289  1
  Se  Se229  1  0.58299008  0.08538374  0.19745529  1
  Se  Se230  1  0.57813956  0.09279645  0.68863571  1
  Se  Se231  1  0.58377811  0.41320831  0.19376619  1
  Se  Se232  1  0.59095520  0.41607134  0.69610689  1
  Se  Se233  1  0.59482436  0.74259859  0.19873373  1
  Se  Se234  1  0.56900974  0.76052594  0.69418359  1
  Se  Se235  1  0.90761347  0.09676260  0.18700031  1
  Se  Se236  1  0.90825982  0.09439146  0.69788866  1
  Se  Se237  1  0.90876290  0.42205065  0.18608701  1
  Se  Se238  1  0.91751075  0.41146090  0.70035602  1
  Se  Se239  1  0.91614955  0.75362208  0.18509958  1
  Se  Se240  1  0.91501416  0.74757555  0.69345666  1
  Se  Se241  1  0.08047776  0.24237731  0.18481444  1
  Se  Se242  1  0.08366504  0.24891597  0.70118513  1
  Se  Se243  1  0.09250137  0.57592770  0.20141068  1
  Se  Se244  1  0.07929140  0.58369650  0.69605021  1
  Se  Se245  1  0.09655994  0.90622030  0.18730960  1
  Se  Se246  1  0.08336472  0.91702600  0.68605241  1
  Se  Se247  1  0.40872662  0.25223239  0.19370795  1
  Se  Se248  1  0.41767035  0.25345907  0.70048087  1
  Se  Se249  1  0.42274625  0.57631453  0.18981229  1
  Se  Se250  1  0.41878466  0.57299618  0.68781224  1
  Se  Se251  1  0.43143942  0.91013515  0.19097040  1
  Se  Se252  1  0.41407677  0.91459733  0.70596984  1
  Se  Se253  1  0.74545190  0.25532311  0.19968573  1
  Se  Se254  1  0.74676291  0.25397778  0.70393372  1
  Se  Se255  1  0.74846397  0.58650056  0.19181698  1
  Se  Se256  1  0.75617852  0.57630244  0.68479026  1
  Se  Se257  1  0.75289136  0.91979034  0.19613085  1
  Se  Se258  1  0.75094861  0.91654031  0.68993069  1
