# generated using pymatgen
data_In86Cu29Se144
_symmetry_space_group_name_H-M   'P 1'
_cell_length_a   17.70398866
_cell_length_b   17.70655866
_cell_length_c   23.57685195
_cell_angle_alpha   89.96896176
_cell_angle_beta   89.98213089
_cell_angle_gamma   89.99756416
_symmetry_Int_Tables_number   1
_chemical_formula_structural   In86Cu29Se144
_chemical_formula_sum   'In86 Cu29 Se144'
_cell_volume   7390.79261718
_cell_formula_units_Z   1
loop_
 _symmetry_equiv_pos_site_id
 _symmetry_equiv_pos_as_xyz
  1  'x, y, z'
loop_
 _atom_site_type_symbol
 _atom_site_label
 _atom_site_symmetry_multiplicity
 _atom_site_fract_x
 _atom_site_fract_y
 _atom_site_fract_z
 _atom_site_occupancy
  In  In0  1  -0.00015752  0.15787424  0.11372761  1
  In  In1  1  0.01359336  0.15931841  0.63434172  1
  In  In2  1  0.01502001  0.49881579  0.12319575  1
  In  In3  1  -0.00973187  0.49242475  0.63419062  1
  In  In4  1  0.00103844  0.83979368  0.12521346  1
  In  In5  1  0.02010002  0.84272866  0.60893436  1
  In  In6  1  0.33169066  0.16784718  0.12370955  1
  In  In7  1  0.33031256  0.16669245  0.62642358  1
  In  In8  1  0.31450476  0.49893903  0.12465892  1
  In  In9  1  0.34826872  0.49211891  0.63697072  1
  In  In10  1  0.33467038  0.83896150  0.12655497  1
  In  In11  1  0.32098491  0.84715525  0.63360644  1
  In  In12  1  0.66257963  0.15222065  0.11899641  1
  In  In13  1  0.66326391  0.17633466  0.62087306  1
  In  In14  1  0.67182628  0.50708721  0.12687131  1
  In  In15  1  0.66718094  0.50919324  0.62225310  1
  In  In16  1  0.66850988  0.83250508  0.13380663  1
  In  In17  1  0.67388103  0.82863409  0.61854049  1
  In  In18  1  0.16987440  0.00157290  0.37298210  1
  In  In19  1  0.16772859  -0.00098596  0.87571183  1
  In  In20  1  0.16506875  0.31347039  0.37668179  1
  In  In21  1  0.16924821  0.33164523  0.87292520  1
  In  In22  1  0.15674522  0.68535247  0.38099290  1
  In  In23  1  0.17770111  0.65286478  0.89194997  1
  In  In24  1  0.50191485  0.00512069  0.36983022  1
  In  In25  1  0.49322979  0.01276069  0.87788016  1
  In  In26  1  0.48805951  0.34380926  0.37951367  1
  In  In27  1  0.48634943  0.32152295  0.86709810  1
  In  In28  1  0.49877125  0.65478768  0.37624513  1
  In  In29  1  0.49207874  0.66313134  0.86817842  1
  In  In30  1  0.82054374  -0.00461937  0.36933018  1
  In  In31  1  0.84638320  -0.01435683  0.88790876  1
  In  In32  1  0.84229849  0.32693491  0.37010518  1
  In  In33  1  0.82893932  0.31690861  0.87240660  1
  In  In34  1  0.85721193  0.69004850  0.35899927  1
  In  In35  1  0.84482387  0.67268068  0.87914422  1
  In  In36  1  0.00653033  0.17221012  0.37530645  1
  In  In37  1  0.00664582  0.16292797  0.87556911  1
  In  In38  1  -0.00931635  0.50278515  0.37439585  1
  In  In39  1  0.01168908  0.50513405  0.87249414  1
  In  In40  1  0.00042693  0.83432959  0.37957207  1
  In  In41  1  0.00273155  0.83456305  0.88279800  1
  In  In42  1  0.33154033  0.16774530  0.37362834  1
  In  In43  1  0.33122730  0.16433466  0.87386361  1
  In  In44  1  0.33993265  0.50464851  0.37807878  1
  In  In45  1  0.33241737  0.48928263  0.86719736  1
  In  In46  1  0.31203742  0.84006129  0.37353173  1
  In  In47  1  0.31604457  0.82142912  0.86998370  1
  In  In48  1  0.65874239  0.15194747  0.36697101  1
  In  In49  1  0.67412331  0.14883746  0.89024045  1
  In  In50  1  0.65943524  0.50084903  0.37278783  1
  In  In51  1  0.66790372  0.49889155  0.87491378  1
  In  In52  1  0.67793199  0.84401338  0.36706061  1
  In  In53  1  0.67182820  0.84029113  0.88270569  1
  In  In54  1  0.16656948  0.00365782  0.12205104  1
  In  In55  1  0.16505469  0.00158560  0.62611705  1
  In  In56  1  0.17363232  0.34079614  0.11765248  1
  In  In57  1  0.18053168  0.32757316  0.63577443  1
  In  In58  1  0.16408138  0.66187435  0.12222740  1
  In  In59  1  0.16718201  0.68310958  0.62384106  1
  In  In60  1  0.48658607  0.00532507  0.13221806  1
  In  In61  1  0.48047146  0.00138520  0.62378858  1
  In  In62  1  0.49520557  0.31622182  0.12039579  1
  In  In63  1  0.49352340  0.32455706  0.61924261  1
  In  In64  1  0.49775483  0.67806582  0.12951555  1
  In  In65  1  0.49870702  0.65508322  0.61891368  1
  In  In66  1  0.83750490  -0.00354475  0.12157514  1
  In  In67  1  0.85097524  -0.00032693  0.62508500  1
  In  In68  1  0.84096062  0.32598927  0.12101597  1
  In  In69  1  0.83784665  0.34210905  0.63007771  1
  In  In70  1  0.82587932  0.68267645  0.13324610  1
  In  In71  1  0.83252995  0.67067679  0.62183674  1
  In  In72  1  0.66580792  0.33157417  0.75051493  1
  In  In73  1  0.66600282  0.66844137  0.74131497  1
  In  In74  1  0.17078949  0.50078666  0.50555037  1
  In  In75  1  0.00311923  0.66872258  0.74945920  1
  In  In76  1  0.84054848  0.49989872  -0.00164468  1
  In  In77  1  0.49717437  0.49253530  -0.01144770  1
  In  In78  1  0.49435877  0.83571353  0.00563646  1
  In  In79  1  0.32751493  0.67238987  0.25207291  1
  In  In80  1  0.66413004  0.33052913  0.23879751  1
  In  In81  1  0.82801806  0.16694849  0.49743891  1
  In  In82  1  0.00326986  0.33142242  0.24747664  1
  In  In83  1  0.49905675  0.83458295  0.49468382  1
  In  In84  1  0.83103956  0.50574528  0.50291737  1
  In  In85  1  0.66586955  -0.00009013  0.75781735  1
  Cu  Cu86  1  0.00633806  0.32881155  -0.00389136  1
  Cu  Cu87  1  0.83932547  0.83566833  0.75374591  1
  Cu  Cu88  1  0.00164593  -0.00077931  0.49891153  1
  Cu  Cu89  1  0.49763720  0.16514141  0.74914893  1
  Cu  Cu90  1  0.48945744  0.83261650  0.75035900  1
  Cu  Cu91  1  0.66321746  0.00198815  0.49264130  1
  Cu  Cu92  1  0.16199076  0.83575651  0.75164483  1
  Cu  Cu93  1  0.16844137  0.49980674  0.24870429  1
  Cu  Cu94  1  0.00435859  0.32710951  0.50661248  1
  Cu  Cu95  1  0.66184232  0.67217990  0.00677847  1
  Cu  Cu96  1  0.33190126  0.33030631  -0.00735506  1
  Cu  Cu97  1  0.49405397  0.49806496  0.25411113  1
  Cu  Cu98  1  0.17024970  0.49980390  0.75418025  1
  Cu  Cu99  1  0.50095648  0.83530468  0.25177149  1
  Cu  Cu100  1  0.49361025  0.16925901  0.24809698  1
  Cu  Cu101  1  0.67538500  0.66739906  0.49644371  1
  Cu  Cu102  1  0.84686326  0.16203334  0.75318241  1
  Cu  Cu103  1  0.33019704  0.32721221  0.50467256  1
  Cu  Cu104  1  0.33386759  0.66892848  0.50121661  1
  Cu  Cu105  1  0.83027862  0.50770333  0.24957321  1
  Cu  Cu106  1  0.32525378  0.00660503  0.50140420  1
  Cu  Cu107  1  0.65521585  0.33194842  0.49559513  1
  Cu  Cu108  1  0.83936112  0.83952133  0.24795170  1
  Cu  Cu109  1  0.16894437  0.16535061  0.75357000  1
  Cu  Cu110  1  0.17154149  0.16431781  0.24749857  1
  Cu  Cu111  1  -0.00418193  0.67636133  0.00522114  1
  Cu  Cu112  1  0.66905068  0.32108907  0.00057545  1
  Cu  Cu113  1  0.33183666  0.00085598  0.00230639  1
  Cu  Cu114  1  0.00587334  -0.00006900  0.00263076  1
  Se  Se115  1  0.09296404  0.08630542  0.04742858  1
  Se  Se116  1  0.08049838  0.08210943  0.55568174  1
  Se  Se117  1  0.08412669  0.41612031  0.04934472  1
  Se  Se118  1  0.07977209  0.41063030  0.56529891  1
  Se  Se119  1  0.08265380  0.75308726  0.05909409  1
  Se  Se120  1  0.08338352  0.74134333  0.54729131  1
  Se  Se121  1  0.41491671  0.08346499  0.05553356  1
  Se  Se122  1  0.41208132  0.08747883  0.55261802  1
  Se  Se123  1  0.40991393  0.41050915  0.05645225  1
  Se  Se124  1  0.41154520  0.41413661  0.55567444  1
  Se  Se125  1  0.40313703  0.73827577  0.05705419  1
  Se  Se126  1  0.41082334  0.75352159  0.56147464  1
  Se  Se127  1  0.76543812  0.09119851  0.05728831  1
  Se  Se128  1  0.74320383  0.07380601  0.56065846  1
  Se  Se129  1  0.74350418  0.41027532  0.05652795  1
  Se  Se130  1  0.74056946  0.40581859  0.55594420  1
  Se  Se131  1  0.74507460  0.75404488  0.05813632  1
  Se  Se132  1  0.75649471  0.75146918  0.54895778  1
  Se  Se133  1  0.25198192  0.25123281  0.05290261  1
  Se  Se134  1  0.24498759  0.24794276  0.55722260  1
  Se  Se135  1  0.24556756  0.58109353  0.05321571  1
  Se  Se136  1  0.26062212  0.58830314  0.56576485  1
  Se  Se137  1  0.25192484  0.91760993  0.05705015  1
  Se  Se138  1  0.24780983  0.91941307  0.55549821  1
  Se  Se139  1  0.58295607  0.24278987  0.05323898  1
  Se  Se140  1  0.57792165  0.24515337  0.54914225  1
  Se  Se141  1  0.58027225  0.58589375  0.05763492  1
  Se  Se142  1  0.58999567  0.58643231  0.54886554  1
  Se  Se143  1  0.58170336  0.92065333  0.06751012  1
  Se  Se144  1  0.58588141  0.92514028  0.55902096  1
  Se  Se145  1  0.92081602  0.24972701  0.04998294  1
  Se  Se146  1  0.91785838  0.25002238  0.56335574  1
  Se  Se147  1  0.91804556  0.59122259  0.06495945  1
  Se  Se148  1  0.92949867  0.58771465  0.55974064  1
  Se  Se149  1  0.91984670  0.91562402  0.05138991  1
  Se  Se150  1  0.91703136  0.91623913  0.55072131  1
  Se  Se151  1  0.08407321  0.24425253  0.45234996  1
  Se  Se152  1  0.08997397  0.24744951  0.94271647  1
  Se  Se153  1  0.07832183  0.58243585  0.44267613  1
  Se  Se154  1  0.07183144  0.58674874  0.95135943  1
  Se  Se155  1  0.08659207  0.92113254  0.44365931  1
  Se  Se156  1  0.08793653  0.91737534  0.94756312  1
  Se  Se157  1  0.41240642  0.25181010  0.44373018  1
  Se  Se158  1  0.41673518  0.24505666  0.94411274  1
  Se  Se159  1  0.41681515  0.58413734  0.45100201  1
  Se  Se160  1  0.40636871  0.58840808  0.94000252  1
  Se  Se161  1  0.40521785  0.92547161  0.44033606  1
  Se  Se162  1  0.40645015  0.91814990  0.93960613  1
  Se  Se163  1  0.73952119  0.25737445  0.43543391  1
  Se  Se164  1  0.75661807  0.24256264  0.94928357  1
  Se  Se165  1  0.75220234  0.58918347  0.43270921  1
  Se  Se166  1  0.74234987  0.59301562  0.94491542  1
  Se  Se167  1  0.74924708  0.91728382  0.44646726  1
  Se  Se168  1  0.73850507  0.93009800  0.94961110  1
  Se  Se169  1  0.24699573  0.08817836  0.44320807  1
  Se  Se170  1  0.25152896  0.08190066  0.94391076  1
  Se  Se171  1  0.25270578  0.40810270  0.44140357  1
  Se  Se172  1  0.25137461  0.41667646  0.94147799  1
  Se  Se173  1  0.25170613  0.75144079  0.44919954  1
  Se  Se174  1  0.24062108  0.75871309  0.95022735  1
  Se  Se175  1  0.57855742  0.08513339  0.44431394  1
  Se  Se176  1  0.58267503  0.07129845  0.95061533  1
  Se  Se177  1  0.57985792  0.42214807  0.44376970  1
  Se  Se178  1  0.59275621  0.39896424  0.93695997  1
  Se  Se179  1  0.59225438  0.74599700  0.43670248  1
  Se  Se180  1  0.58222459  0.74273000  0.94034547  1
  Se  Se181  1  0.91979033  0.07931830  0.43955654  1
  Se  Se182  1  0.92467032  0.08227986  0.94648881  1
  Se  Se183  1  0.92243378  0.40553079  0.44721496  1
  Se  Se184  1  0.92351030  0.40819175  0.93646474  1
  Se  Se185  1  0.91768452  0.74804135  0.44607190  1
  Se  Se186  1  0.91237405  0.75709482  0.95138732  1
  Se  Se187  1  0.25012650  0.25033248  0.30180520  1
  Se  Se188  1  0.25297862  0.24978248  0.80451528  1
  Se  Se189  1  0.24009889  0.58146813  0.31415903  1
  Se  Se190  1  0.24759801  0.58480738  0.80950765  1
  Se  Se191  1  0.24128095  0.91668501  0.29955493  1
  Se  Se192  1  0.24827638  0.91735574  0.80368922  1
  Se  Se193  1  0.57408112  0.25248714  0.30719260  1
  Se  Se194  1  0.58680475  0.23244735  0.81121679  1
  Se  Se195  1  0.58009701  0.58200782  0.30172195  1
  Se  Se196  1  0.58183449  0.57592308  0.80378735  1
  Se  Se197  1  0.58408696  0.92012274  0.30382020  1
  Se  Se198  1  0.57262999  0.90679524  0.81169287  1
  Se  Se199  1  0.91017031  0.23571261  0.29893393  1
  Se  Se200  1  0.92359580  0.24834154  0.80664443  1
  Se  Se201  1  0.92205388  0.58347597  0.29933889  1
  Se  Se202  1  0.90939556  0.57920418  0.80809424  1
  Se  Se203  1  0.91589469  0.91716469  0.31019482  1
  Se  Se204  1  0.92187467  0.91367901  0.80997031  1
  Se  Se205  1  0.08724280  0.09118584  0.30710387  1
  Se  Se206  1  0.08590089  0.08030765  0.80484182  1
  Se  Se207  1  0.09007874  0.42013480  0.31244383  1
  Se  Se208  1  0.08584157  0.41740033  0.80514323  1
  Se  Se209  1  0.07894290  0.75355029  0.30655300  1
  Se  Se210  1  0.09132436  0.75013179  0.81422496  1
  Se  Se211  1  0.41467277  0.08547765  0.30460479  1
  Se  Se212  1  0.41409858  0.08310692  0.80217729  1
  Se  Se213  1  0.40832947  0.41820871  0.30475589  1
  Se  Se214  1  0.43416490  0.42580227  0.80423802  1
  Se  Se215  1  0.42086420  0.75720268  0.31456013  1
  Se  Se216  1  0.41050573  0.74817942  0.80361514  1
  Se  Se217  1  0.75779089  0.09335285  0.30254142  1
  Se  Se218  1  0.76434559  0.08389679  0.81248175  1
  Se  Se219  1  0.75613319  0.41825186  0.30530913  1
  Se  Se220  1  0.75882911  0.42194558  0.80837772  1
  Se  Se221  1  0.75215797  0.75420574  0.29923276  1
  Se  Se222  1  0.75426937  0.75559009  0.80857434  1
  Se  Se223  1  0.25185619  0.08229779  0.19214213  1
  Se  Se224  1  0.24805477  0.08360749  0.69442430  1
  Se  Se225  1  0.24760453  0.41242424  0.19788916  1
  Se  Se226  1  0.25548994  0.41751047  0.70181610  1
  Se  Se227  1  0.23900235  0.75848499  0.19145741  1
  Se  Se228  1  0.24729113  0.75334732  0.69918179  1
  Se  Se229  1  0.57799529  0.08716552  0.19565158  1
  Se  Se230  1  0.58055982  0.08670261  0.68981259  1
  Se  Se231  1  0.56991744  0.42454807  0.18529181  1
  Se  Se232  1  0.58236498  0.41781613  0.68473810  1
  Se  Se233  1  0.58200608  0.74935761  0.20044137  1
  Se  Se234  1  0.57366473  0.76308675  0.68689942  1
  Se  Se235  1  0.94564012  0.05979815  0.18662815  1
  Se  Se236  1  0.92481929  0.07713229  0.69874081  1
  Se  Se237  1  0.91011881  0.42567459  0.18973562  1
  Se  Se238  1  0.91768752  0.40972215  0.70447788  1
  Se  Se239  1  0.92159671  0.75540111  0.19596632  1
  Se  Se240  1  0.91524814  0.75903857  0.68896455  1
  Se  Se241  1  0.08921938  0.24240877  0.18530794  1
  Se  Se242  1  0.08724852  0.25107697  0.69997539  1
  Se  Se243  1  0.08542428  0.58195074  0.19653254  1
  Se  Se244  1  0.09375966  0.57754912  0.68950191  1
  Se  Se245  1  0.05770624  0.94978526  0.18913261  1
  Se  Se246  1  0.08087561  0.91422062  0.69277684  1
  Se  Se247  1  0.41116100  0.25248188  0.19564986  1
  Se  Se248  1  0.41722690  0.24859489  0.69433516  1
  Se  Se249  1  0.41523953  0.57832376  0.19098066  1
  Se  Se250  1  0.41931624  0.59300292  0.69596278  1
  Se  Se251  1  0.41320660  0.91452000  0.20035760  1
  Se  Se252  1  0.41200942  0.92275690  0.70017367  1
  Se  Se253  1  0.75808521  0.24012658  0.18777887  1
  Se  Se254  1  0.76068253  0.23744572  0.69421993  1
  Se  Se255  1  0.74632034  0.58934027  0.19692787  1
  Se  Se256  1  0.76414694  0.57446127  0.69294870  1
  Se  Se257  1  0.75484670  0.91990540  0.19468438  1
  Se  Se258  1  0.75527163  0.91183417  0.69303085  1
