# generated using pymatgen
data_In86Cu29Se144
_symmetry_space_group_name_H-M   'P 1'
_cell_length_a   17.57880960
_cell_length_b   17.57911397
_cell_length_c   23.43412665
_cell_angle_alpha   89.96842525
_cell_angle_beta   90.01941622
_cell_angle_gamma   90.00674324
_symmetry_Int_Tables_number   1
_chemical_formula_structural   In86Cu29Se144
_chemical_formula_sum   'In86 Cu29 Se144'
_cell_volume   7241.60984684
_cell_formula_units_Z   1
loop_
 _symmetry_equiv_pos_site_id
 _symmetry_equiv_pos_as_xyz
  1  'x, y, z'
loop_
 _atom_site_type_symbol
 _atom_site_label
 _atom_site_symmetry_multiplicity
 _atom_site_fract_x
 _atom_site_fract_y
 _atom_site_fract_z
 _atom_site_occupancy
  In  In0  1  0.00211789  0.15976473  0.12447128  1
  In  In1  1  -0.00742526  0.17590179  0.63393241  1
  In  In2  1  0.01390615  0.51107489  0.11131179  1
  In  In3  1  0.00019588  0.49944801  0.63125036  1
  In  In4  1  -0.00296993  0.83015611  0.12667623  1
  In  In5  1  0.00449879  0.83082543  0.63588724  1
  In  In6  1  0.31722433  0.15958551  0.12697186  1
  In  In7  1  0.33979263  0.17292742  0.62544244  1
  In  In8  1  0.33871898  0.50868766  0.11888440  1
  In  In9  1  0.32507969  0.49698497  0.62114031  1
  In  In10  1  0.33026076  0.83213910  0.12685812  1
  In  In11  1  0.33703383  0.82526223  0.62356630  1
  In  In12  1  0.67335255  0.16421830  0.13376763  1
  In  In13  1  0.67834404  0.16315321  0.62598286  1
  In  In14  1  0.66061586  0.50075858  0.11717379  1
  In  In15  1  0.65393006  0.50326557  0.62616419  1
  In  In16  1  0.68424960  0.84908873  0.10046925  1
  In  In17  1  0.66335143  0.84059290  0.61970349  1
  In  In18  1  0.15738478  -0.00150011  0.35624209  1
  In  In19  1  0.15445104  0.01308769  0.88845573  1
  In  In20  1  0.17598105  0.34099300  0.37834909  1
  In  In21  1  0.16551249  0.33251781  0.87734699  1
  In  In22  1  0.15767745  0.65219333  0.36434356  1
  In  In23  1  0.15782910  0.67657162  0.88410504  1
  In  In24  1  0.48989489  -0.01048779  0.36137359  1
  In  In25  1  0.50962627  -0.00999647  0.88073106  1
  In  In26  1  0.50772739  0.33133115  0.37500720  1
  In  In27  1  0.50947517  0.34576848  0.86809855  1
  In  In28  1  0.49380769  0.67243414  0.37458323  1
  In  In29  1  0.51089766  0.66030857  0.89531954  1
  In  In30  1  0.84541110  0.00904228  0.36494352  1
  In  In31  1  0.84207294  -0.01583617  0.88697784  1
  In  In32  1  0.81956681  0.33590386  0.37621411  1
  In  In33  1  0.84381460  0.33943318  0.87137482  1
  In  In34  1  0.84503509  0.67169420  0.36492250  1
  In  In35  1  0.84761066  0.65205586  0.89072113  1
  In  In36  1  0.00018682  0.15223286  0.37540800  1
  In  In37  1  0.02920023  0.18555237  0.85844498  1
  In  In38  1  0.01017244  0.51238086  0.37547415  1
  In  In39  1  -0.00219353  0.49776952  0.88032076  1
  In  In40  1  -0.00130069  0.83439956  0.36421137  1
  In  In41  1  0.00105046  0.83383604  0.87922877  1
  In  In42  1  0.33856626  0.16542094  0.36942929  1
  In  In43  1  0.31380515  0.17155005  0.87662103  1
  In  In44  1  0.32313913  0.50852438  0.37884710  1
  In  In45  1  0.33990638  0.49196074  0.88013276  1
  In  In46  1  0.33862209  0.83524462  0.36288334  1
  In  In47  1  0.33777747  0.82257962  0.88483579  1
  In  In48  1  0.67339026  0.17656337  0.36853881  1
  In  In49  1  0.66011211  0.16903760  0.87356890  1
  In  In50  1  0.66602188  0.48734238  0.37381352  1
  In  In51  1  0.68897244  0.49274026  0.89311782  1
  In  In52  1  0.65412171  0.82683925  0.36821504  1
  In  In53  1  0.68831824  0.81025903  0.90801614  1
  In  In54  1  0.16640638  -0.00001108  0.12875061  1
  In  In55  1  0.15998400  -0.00421960  0.63062076  1
  In  In56  1  0.15959245  0.32993200  0.10699223  1
  In  In57  1  0.14785501  0.34660832  0.64190519  1
  In  In58  1  0.16499624  0.66721195  0.12565238  1
  In  In59  1  0.16593982  0.65855315  0.62758587  1
  In  In60  1  0.51531841  -0.01722426  0.13255795  1
  In  In61  1  0.50639085  -0.00543058  0.62126469  1
  In  In62  1  0.50396808  0.34758642  0.12286737  1
  In  In63  1  0.48936056  0.34346011  0.63573498  1
  In  In64  1  0.49571955  0.66082186  0.11849328  1
  In  In65  1  0.50228700  0.66580030  0.61471256  1
  In  In66  1  0.83956361  -0.00849217  0.13230603  1
  In  In67  1  0.82853823  0.01024848  0.62175914  1
  In  In68  1  0.82612932  0.32948387  0.12009712  1
  In  In69  1  0.84215823  0.32560799  0.63565339  1
  In  In70  1  0.84476571  0.68300589  0.11378869  1
  In  In71  1  0.83998334  0.67031890  0.62851878  1
  In  In72  1  0.67051092  0.66254976  0.76167525  1
  In  In73  1  0.33421947  0.33187143  0.24865184  1
  In  In74  1  0.16746973  0.82658511  0.49743172  1
  In  In75  1  0.16547348  0.16942385  0.49966230  1
  In  In76  1  0.83135232  0.49770942  0.50137900  1
  In  In77  1  0.32842288  0.00523899  0.75643205  1
  In  In78  1  0.49753538  0.15953475  -0.00323434  1
  In  In79  1  0.66824029  -0.00030057  0.75123940  1
  In  In80  1  0.50131471  0.16878500  0.49603630  1
  In  In81  1  0.67080054  0.67310026  0.24126499  1
  In  In82  1  0.32974898  0.66456339  0.74967467  1
  In  In83  1  0.83347738  0.83323534  0.48720421  1
  In  In84  1  -0.00309064  0.33151496  0.23862417  1
  In  In85  1  0.84446567  0.16280912  0.00404213  1
  Cu  Cu86  1  0.84400863  0.83138112  0.75595017  1
  Cu  Cu87  1  0.32861664  0.34658004  0.50693839  1
  Cu  Cu88  1  0.66495350  0.66325065  0.49417638  1
  Cu  Cu89  1  0.65932139  -0.00181252  0.49525941  1
  Cu  Cu90  1  -0.00281608  0.33417277  0.51052010  1
  Cu  Cu91  1  0.83472343  0.49499499  0.76032123  1
  Cu  Cu92  1  0.66347993  0.33149428  0.50016919  1
  Cu  Cu93  1  0.83026127  0.16999536  0.24738417  1
  Cu  Cu94  1  -0.00710047  -0.00099687  0.49726747  1
  Cu  Cu95  1  0.15856527  0.84030824  0.76185828  1
  Cu  Cu96  1  0.32933986  -0.00273457  0.00634360  1
  Cu  Cu97  1  0.00410421  -0.00223027  0.00306918  1
  Cu  Cu98  1  0.16849960  0.49983533  0.24182105  1
  Cu  Cu99  1  0.66659196  0.33330224  -0.00154198  1
  Cu  Cu100  1  0.16208237  0.50062658  0.75501176  1
  Cu  Cu101  1  0.83518890  0.50209173  0.24932462  1
  Cu  Cu102  1  0.33393433  -0.00738444  0.48754392  1
  Cu  Cu103  1  0.50318518  0.50123441  0.24375205  1
  Cu  Cu104  1  0.34161655  0.67115806  0.49550504  1
  Cu  Cu105  1  0.00154956  0.66910711  0.00120511  1
  Cu  Cu106  1  0.83693822  0.16367035  0.75097973  1
  Cu  Cu107  1  0.33315482  0.33372639  -0.00084119  1
  Cu  Cu108  1  0.50195527  0.16442434  0.24922780  1
  Cu  Cu109  1  0.50438911  0.83033084  0.75434203  1
  Cu  Cu110  1  0.50097881  0.49622175  0.75309189  1
  Cu  Cu111  1  0.49332040  0.17454332  0.75481757  1
  Cu  Cu112  1  0.32307727  0.66483629  0.00512226  1
  Cu  Cu113  1  0.16698570  0.82933148  0.24356576  1
  Cu  Cu114  1  0.50013456  0.82848614  0.24322671  1
  Se  Se115  1  0.08720465  0.08293378  0.05490049  1
  Se  Se116  1  0.07472369  0.07758775  0.55866708  1
  Se  Se117  1  0.08113329  0.41731618  0.04312980  1
  Se  Se118  1  0.08191922  0.41932993  0.55912842  1
  Se  Se119  1  0.08336651  0.75165375  0.05667311  1
  Se  Se120  1  0.07552570  0.74369057  0.55965677  1
  Se  Se121  1  0.41486125  0.07504754  0.06526766  1
  Se  Se122  1  0.40783973  0.07405490  0.55327004  1
  Se  Se123  1  0.41632934  0.41741335  0.05185075  1
  Se  Se124  1  0.42187111  0.42267907  0.55676845  1
  Se  Se125  1  0.40947191  0.74862578  0.05559277  1
  Se  Se126  1  0.42158513  0.75631122  0.55030323  1
  Se  Se127  1  0.74913160  0.07810852  0.06175284  1
  Se  Se128  1  0.74348580  0.08075673  0.54818287  1
  Se  Se129  1  0.74963761  0.41717609  0.05154559  1
  Se  Se130  1  0.74382901  0.40900021  0.56390156  1
  Se  Se131  1  0.73031323  0.72639918  0.05063980  1
  Se  Se132  1  0.74548553  0.74262171  0.55499323  1
  Se  Se133  1  0.25430308  0.24477355  0.04992070  1
  Se  Se134  1  0.24938322  0.26074038  0.56312806  1
  Se  Se135  1  0.23988608  0.57785010  0.05466296  1
  Se  Se136  1  0.25753671  0.59537866  0.55523199  1
  Se  Se137  1  0.24510084  0.91403765  0.05823949  1
  Se  Se138  1  0.25567421  0.92352969  0.55744318  1
  Se  Se139  1  0.58887388  0.24998759  0.05865166  1
  Se  Se140  1  0.58424360  0.25371749  0.56431407  1
  Se  Se141  1  0.56597182  0.56845906  0.05032456  1
  Se  Se142  1  0.58323505  0.57940643  0.54783324  1
  Se  Se143  1  0.57129534  0.91147116  0.04668031  1
  Se  Se144  1  0.57814997  0.91256919  0.54700058  1
  Se  Se145  1  0.93161278  0.26187927  0.05736143  1
  Se  Se146  1  0.91217906  0.24722368  0.55692283  1
  Se  Se147  1  0.91376725  0.58377055  0.04935890  1
  Se  Se148  1  0.92260406  0.59004082  0.55663045  1
  Se  Se149  1  0.91774464  0.91719967  0.05580097  1
  Se  Se150  1  0.91903333  0.91533220  0.55953319  1
  Se  Se151  1  0.07304424  0.26003509  0.44047439  1
  Se  Se152  1  0.08489140  0.24818336  0.94702259  1
  Se  Se153  1  0.09551101  0.57968192  0.44811613  1
  Se  Se154  1  0.08242307  0.58262953  0.94823552  1
  Se  Se155  1  0.07916191  0.92382329  0.43960131  1
  Se  Se156  1  0.08686773  0.91130337  0.95058982  1
  Se  Se157  1  0.40258519  0.26246850  0.44428340  1
  Se  Se158  1  0.41589474  0.25695905  0.93677140  1
  Se  Se159  1  0.41995432  0.58122435  0.44334159  1
  Se  Se160  1  0.40875569  0.58406347  0.95038720  1
  Se  Se161  1  0.41930941  0.90990024  0.43896249  1
  Se  Se162  1  0.41067672  0.92336532  0.94520528  1
  Se  Se163  1  0.74814699  0.24878986  0.44853028  1
  Se  Se164  1  0.74891364  0.25045709  0.94215049  1
  Se  Se165  1  0.74952276  0.59066748  0.43352734  1
  Se  Se166  1  0.72430560  0.61650939  0.94597929  1
  Se  Se167  1  0.74129989  0.92401807  0.43174531  1
  Se  Se168  1  0.75493237  0.91950838  0.95993817  1
  Se  Se169  1  0.24983741  0.07611408  0.43555337  1
  Se  Se170  1  0.25099751  0.08578038  0.95316791  1
  Se  Se171  1  0.24436239  0.42615114  0.45160718  1
  Se  Se172  1  0.24850681  0.41709323  0.94692768  1
  Se  Se173  1  0.25661782  0.74353353  0.43309832  1
  Se  Se174  1  0.24434820  0.75393852  0.95314676  1
  Se  Se175  1  0.58299290  0.07851717  0.43166427  1
  Se  Se176  1  0.60114795  0.07200618  0.94737402  1
  Se  Se177  1  0.58124120  0.41616266  0.44799959  1
  Se  Se178  1  0.58202078  0.41831175  0.94738737  1
  Se  Se179  1  0.58142570  0.74995387  0.44461537  1
  Se  Se180  1  0.55602767  0.78010865  0.94804757  1
  Se  Se181  1  0.90996074  0.08562274  0.44762870  1
  Se  Se182  1  0.93397856  0.08249601  0.93785780  1
  Se  Se183  1  0.92370698  0.41074957  0.44014062  1
  Se  Se184  1  0.89550024  0.43360059  0.94549376  1
  Se  Se185  1  0.93349449  0.74077803  0.44157983  1
  Se  Se186  1  0.91614228  0.75565250  0.95075351  1
  Se  Se187  1  0.23875584  0.24365323  0.30714449  1
  Se  Se188  1  0.24570238  0.25353749  0.80337978  1
  Se  Se189  1  0.25320484  0.58038530  0.29741401  1
  Se  Se190  1  0.24291696  0.58067309  0.81511449  1
  Se  Se191  1  0.24931643  0.91487282  0.29739489  1
  Se  Se192  1  0.24759559  0.91180544  0.81935086  1
  Se  Se193  1  0.58233553  0.25302500  0.30085320  1
  Se  Se194  1  0.58631242  0.25311444  0.80228069  1
  Se  Se195  1  0.58366893  0.58106629  0.30640379  1
  Se  Se196  1  0.57827210  0.57196564  0.81721555  1
  Se  Se197  1  0.58311840  0.91360662  0.29624336  1
  Se  Se198  1  0.59212060  0.90180004  0.81306454  1
  Se  Se199  1  0.91086772  0.24951346  0.30961357  1
  Se  Se200  1  0.91868972  0.25070118  0.80257747  1
  Se  Se201  1  0.92308223  0.58004935  0.30138848  1
  Se  Se202  1  0.91682255  0.58384531  0.80854770  1
  Se  Se203  1  0.92043126  0.92062282  0.29886079  1
  Se  Se204  1  0.92171494  0.91981009  0.80766728  1
  Se  Se205  1  0.07775118  0.09057306  0.29619935  1
  Se  Se206  1  0.09002660  0.07508048  0.80212055  1
  Se  Se207  1  0.08946812  0.41882973  0.30334830  1
  Se  Se208  1  0.07989007  0.41752368  0.80923205  1
  Se  Se209  1  0.08430574  0.74803637  0.30074597  1
  Se  Se210  1  0.07816376  0.74724390  0.80724175  1
  Se  Se211  1  0.41239251  0.08315134  0.29749304  1
  Se  Se212  1  0.42540460  0.08831053  0.81747709  1
  Se  Se213  1  0.42242324  0.42401769  0.30882947  1
  Se  Se214  1  0.41110222  0.41461200  0.80184110  1
  Se  Se215  1  0.41751451  0.74435905  0.29678359  1
  Se  Se216  1  0.42700013  0.74465562  0.81129936  1
  Se  Se217  1  0.74861576  0.08518155  0.30198046  1
  Se  Se218  1  0.75996738  0.08406380  0.81412190  1
  Se  Se219  1  0.75059058  0.41763684  0.29972636  1
  Se  Se220  1  0.74429418  0.41499223  0.80837780  1
  Se  Se221  1  0.76079028  0.76319039  0.30282880  1
  Se  Se222  1  0.76140269  0.75516165  0.81696302  1
  Se  Se223  1  0.24918968  0.07807161  0.20122390  1
  Se  Se224  1  0.24434661  0.09212408  0.69039687  1
  Se  Se225  1  0.24456865  0.41508539  0.18340905  1
  Se  Se226  1  0.24968127  0.42407650  0.69858269  1
  Se  Se227  1  0.25230176  0.74350698  0.19605040  1
  Se  Se228  1  0.23811125  0.76416950  0.69615252  1
  Se  Se229  1  0.58655044  0.08022976  0.19771120  1
  Se  Se230  1  0.57160049  0.09160154  0.69364491  1
  Se  Se231  1  0.59011399  0.41805712  0.19562269  1
  Se  Se232  1  0.58775950  0.41570344  0.69972810  1
  Se  Se233  1  0.58179245  0.75790051  0.17853716  1
  Se  Se234  1  0.58344435  0.75062569  0.69202490  1
  Se  Se235  1  0.91542395  0.08784200  0.19549542  1
  Se  Se236  1  0.91438833  0.07793600  0.69495695  1
  Se  Se237  1  0.91204836  0.42781776  0.18221241  1
  Se  Se238  1  0.91826183  0.41702100  0.70061872  1
  Se  Se239  1  0.91047143  0.75168574  0.19578200  1
  Se  Se240  1  0.92123419  0.74406385  0.70140538  1
  Se  Se241  1  0.09713236  0.24455308  0.18882568  1
  Se  Se242  1  0.08625353  0.24210329  0.70154420  1
  Se  Se243  1  0.07936261  0.58320027  0.19436657  1
  Se  Se244  1  0.08191708  0.58567679  0.69979808  1
  Se  Se245  1  0.08118357  0.91439133  0.19482575  1
  Se  Se246  1  0.07855987  0.92167223  0.70349753  1
  Se  Se247  1  0.42468610  0.24480174  0.18573813  1
  Se  Se248  1  0.40863866  0.25459064  0.70102213  1
  Se  Se249  1  0.41650438  0.58399093  0.19493108  1
  Se  Se250  1  0.42628986  0.57988375  0.69077820  1
  Se  Se251  1  0.41363185  0.91653979  0.19624173  1
  Se  Se252  1  0.42305720  0.91114234  0.69599677  1
  Se  Se253  1  0.74857058  0.25884780  0.19838918  1
  Se  Se254  1  0.74908260  0.24603543  0.69994716  1
  Se  Se255  1  0.75820278  0.57909051  0.18435745  1
  Se  Se256  1  0.75762870  0.57477536  0.69458823  1
  Se  Se257  1  0.74220839  0.91040116  0.18923104  1
  Se  Se258  1  0.76042684  0.90514182  0.69244476  1
