# generated using pymatgen
data_In86Cu29Se144
_symmetry_space_group_name_H-M   'P 1'
_cell_length_a   17.57998044
_cell_length_b   17.58234048
_cell_length_c   23.43323247
_cell_angle_alpha   89.98491828
_cell_angle_beta   89.98673647
_cell_angle_gamma   90.01941282
_symmetry_Int_Tables_number   1
_chemical_formula_structural   In86Cu29Se144
_chemical_formula_sum   'In86 Cu29 Se144'
_cell_volume   7243.14572418
_cell_formula_units_Z   1
loop_
 _symmetry_equiv_pos_site_id
 _symmetry_equiv_pos_as_xyz
  1  'x, y, z'
loop_
 _atom_site_type_symbol
 _atom_site_label
 _atom_site_symmetry_multiplicity
 _atom_site_fract_x
 _atom_site_fract_y
 _atom_site_fract_z
 _atom_site_occupancy
  In  In0  1  -0.01229538  0.17974422  0.11646887  1
  In  In1  1  -0.02026792  0.18194583  0.64359385  1
  In  In2  1  0.01303603  0.49919907  0.12022103  1
  In  In3  1  -0.01056917  0.49518054  0.63665701  1
  In  In4  1  -0.01435976  0.83270441  0.12086489  1
  In  In5  1  -0.00142719  0.83389075  0.62848684  1
  In  In6  1  0.33890954  0.15330403  0.12548727  1
  In  In7  1  0.33563517  0.15231185  0.62519312  1
  In  In8  1  0.33221838  0.50353653  0.11772308  1
  In  In9  1  0.32908031  0.51609380  0.63376102  1
  In  In10  1  0.34473806  0.83575443  0.12013469  1
  In  In11  1  0.32231923  0.83664672  0.63038440  1
  In  In12  1  0.67686948  0.18261699  0.11131201  1
  In  In13  1  0.65728521  0.15955244  0.62108789  1
  In  In14  1  0.65508374  0.49663947  0.12648676  1
  In  In15  1  0.68158921  0.50536811  0.62795331  1
  In  In16  1  0.66811499  0.83639557  0.11403551  1
  In  In17  1  0.68560198  0.81737346  0.63547033  1
  In  In18  1  0.16580512  -0.01536016  0.37753471  1
  In  In19  1  0.16322457  -0.00256453  0.86329745  1
  In  In20  1  0.17311953  0.34713238  0.38208896  1
  In  In21  1  0.15836516  0.34947508  0.87654222  1
  In  In22  1  0.15672959  0.67584518  0.38714852  1
  In  In23  1  0.15848514  0.64336102  0.85714039  1
  In  In24  1  0.50665326  0.00831063  0.37280284  1
  In  In25  1  0.50195751  -0.00316774  0.87242406  1
  In  In26  1  0.49893904  0.31989141  0.37414999  1
  In  In27  1  0.52369189  0.32346575  0.89704632  1
  In  In28  1  0.50623239  0.67014891  0.37673732  1
  In  In29  1  0.50274010  0.66952123  0.87496410  1
  In  In30  1  0.83543132  -0.00261208  0.38990077  1
  In  In31  1  0.82417560  0.00521156  0.86616546  1
  In  In32  1  0.82507239  0.33986387  0.38149516  1
  In  In33  1  0.82918180  0.32690206  0.86866648  1
  In  In34  1  0.84072355  0.65196365  0.39022441  1
  In  In35  1  0.84932565  0.66819449  0.85763002  1
  In  In36  1  -0.00453790  0.15648097  0.38208037  1
  In  In37  1  -0.02033370  0.16508418  0.85487070  1
  In  In38  1  -0.00928994  0.51042999  0.38580847  1
  In  In39  1  0.00223400  0.50017862  0.85986238  1
  In  In40  1  0.00952398  0.82513358  0.38799035  1
  In  In41  1  -0.01153980  0.82872813  0.86662084  1
  In  In42  1  0.35034634  0.16641728  0.37596993  1
  In  In43  1  0.34736616  0.16370147  0.87565205  1
  In  In44  1  0.32741737  0.49157599  0.38160870  1
  In  In45  1  0.33232997  0.50674728  0.87834731  1
  In  In46  1  0.32171244  0.82426374  0.37470318  1
  In  In47  1  0.34012228  0.83791126  0.86802311  1
  In  In48  1  0.66095222  0.16870061  0.38343023  1
  In  In49  1  0.68439805  0.15276143  0.88070083  1
  In  In50  1  0.68127134  0.50358382  0.37302002  1
  In  In51  1  0.65720272  0.49502843  0.87578604  1
  In  In52  1  0.67069569  0.83787758  0.38281507  1
  In  In53  1  0.66822634  0.83360569  0.87269903  1
  In  In54  1  0.17266897  0.00918455  0.12553338  1
  In  In55  1  0.17023213  -0.00518108  0.63152115  1
  In  In56  1  0.15866902  0.34906818  0.11805795  1
  In  In57  1  0.15115626  0.33956157  0.63011706  1
  In  In58  1  0.16212887  0.65514176  0.12063510  1
  In  In59  1  0.15606692  0.66229851  0.63134470  1
  In  In60  1  0.49845774  -0.00181693  0.11675070  1
  In  In61  1  0.49462274  0.00117868  0.62963115  1
  In  In62  1  0.51940466  0.35205180  0.10619782  1
  In  In63  1  0.51228375  0.32611745  0.62408481  1
  In  In64  1  0.49260741  0.66140827  0.11243511  1
  In  In65  1  0.50199104  0.66504869  0.63764489  1
  In  In66  1  0.82531458  0.00001207  0.11518516  1
  In  In67  1  0.83430263  0.00068146  0.63058775  1
  In  In68  1  0.83653297  0.32137457  0.12005869  1
  In  In69  1  0.83873903  0.34102986  0.62146252  1
  In  In70  1  0.83267383  0.67897175  0.12337485  1
  In  In71  1  0.83006774  0.66811949  0.62930837  1
  In  In72  1  0.83129611  0.50027421  -0.00904181  1
  In  In73  1  0.00162006  -0.00299391  0.25013310  1
  In  In74  1  0.50338148  0.83444746  0.49859281  1
  In  In75  1  0.67258724  0.33577333  0.75558356  1
  In  In76  1  -0.00019706  0.33066004  0.24475399  1
  In  In77  1  0.66915906  0.00040765  0.24849921  1
  In  In78  1  0.16448244  0.82746554  -0.01725843  1
  In  In79  1  0.50092563  0.49685190  0.50237952  1
  In  In80  1  0.16223731  0.16644535  0.50492860  1
  In  In81  1  0.16263834  0.17490504  -0.00089868  1
  In  In82  1  0.33346317  0.33720593  0.76167150  1
  In  In83  1  0.34201692  0.33156546  0.24838769  1
  In  In84  1  0.66804298  0.66446804  0.25221634  1
  In  In85  1  0.32951405  0.66220901  0.23913614  1
  Cu  Cu86  1  -0.00401820  0.33912780  0.50934105  1
  Cu  Cu87  1  0.67069032  0.67316792  -0.00429386  1
  Cu  Cu88  1  0.33316093  0.66525065  -0.00540164  1
  Cu  Cu89  1  0.17086713  0.82869564  0.74795631  1
  Cu  Cu90  1  0.82855286  0.16865478  0.24764457  1
  Cu  Cu91  1  0.16895265  0.16193652  0.74915062  1
  Cu  Cu92  1  0.66465904  0.00119602  -0.00634500  1
  Cu  Cu93  1  0.82926206  0.83970674  0.74938609  1
  Cu  Cu94  1  0.67103833  0.32789535  0.50254398  1
  Cu  Cu95  1  0.49867186  0.16121875  0.75192972  1
  Cu  Cu96  1  0.49951328  0.50057966  0.75924385  1
  Cu  Cu97  1  -0.00070261  0.66398279  0.51187494  1
  Cu  Cu98  1  0.33326018  0.33561343  -0.00528275  1
  Cu  Cu99  1  0.50300166  0.83613580  0.75121277  1
  Cu  Cu100  1  0.33028577  0.33659089  0.50223487  1
  Cu  Cu101  1  -0.00182201  0.66430874  -0.01385460  1
  Cu  Cu102  1  0.84265602  0.82417494  0.25269854  1
  Cu  Cu103  1  -0.00365705  0.00265209  0.51157041  1
  Cu  Cu104  1  -0.01602960  0.00761204  -0.00686150  1
  Cu  Cu105  1  0.83736963  0.50069030  0.25795687  1
  Cu  Cu106  1  0.33499325  -0.00442554  -0.00584431  1
  Cu  Cu107  1  0.33477906  0.00008576  0.50575944  1
  Cu  Cu108  1  0.17706457  0.16632009  0.24817306  1
  Cu  Cu109  1  0.32529524  0.66992559  0.50731517  1
  Cu  Cu110  1  0.16146299  0.50779566  0.25242755  1
  Cu  Cu111  1  0.49667783  0.83256030  0.23906606  1
  Cu  Cu112  1  0.16511029  0.83043245  0.25719267  1
  Cu  Cu113  1  0.50497724  0.16484166  0.24892628  1
  Cu  Cu114  1  0.67209980  -0.00514865  0.50786044  1
  Se  Se115  1  0.07105766  0.07614069  0.05689378  1
  Se  Se116  1  0.07523753  0.08503940  0.57080378  1
  Se  Se117  1  0.07489318  0.41404149  0.04431699  1
  Se  Se118  1  0.07749205  0.42484164  0.55998478  1
  Se  Se119  1  0.07581461  0.74499019  0.05117378  1
  Se  Se120  1  0.08402763  0.75154301  0.55973177  1
  Se  Se121  1  0.41494925  0.08125371  0.04790692  1
  Se  Se122  1  0.42288209  0.08366490  0.55212597  1
  Se  Se123  1  0.41400583  0.42231254  0.04882077  1
  Se  Se124  1  0.40971585  0.41229594  0.56742851  1
  Se  Se125  1  0.41481754  0.75157912  0.04672855  1
  Se  Se126  1  0.41524180  0.74561333  0.56230315  1
  Se  Se127  1  0.74967575  0.08617418  0.04666601  1
  Se  Se128  1  0.75286791  0.08276913  0.55823304  1
  Se  Se129  1  0.74793326  0.41553942  0.05947805  1
  Se  Se130  1  0.74839121  0.41761403  0.55404653  1
  Se  Se131  1  0.75607776  0.75517682  0.04866817  1
  Se  Se132  1  0.75527966  0.75059941  0.55450395  1
  Se  Se133  1  0.25835451  0.25836713  0.06277786  1
  Se  Se134  1  0.25335195  0.25642053  0.56561100  1
  Se  Se135  1  0.24734064  0.58363138  0.04885398  1
  Se  Se136  1  0.24448310  0.58464236  0.55962576  1
  Se  Se137  1  0.24797582  0.91823789  0.05187784  1
  Se  Se138  1  0.24845700  0.91801923  0.55530407  1
  Se  Se139  1  0.56601086  0.23485456  0.05155743  1
  Se  Se140  1  0.58036666  0.24502705  0.54825719  1
  Se  Se141  1  0.59274219  0.58840316  0.05288272  1
  Se  Se142  1  0.58630552  0.58826288  0.56222563  1
  Se  Se143  1  0.58212368  0.91661627  0.04829355  1
  Se  Se144  1  0.58986094  0.91498363  0.56626362  1
  Se  Se145  1  0.91366213  0.25399648  0.04192621  1
  Se  Se146  1  0.91626120  0.24681295  0.55602931  1
  Se  Se147  1  0.92067723  0.59012510  0.05520573  1
  Se  Se148  1  0.91460309  0.57996210  0.56331107  1
  Se  Se149  1  0.91185134  0.91723914  0.04951180  1
  Se  Se150  1  0.91287733  0.91483684  0.55946239  1
  Se  Se151  1  0.07452131  0.26170093  0.44297944  1
  Se  Se152  1  0.07287687  0.24638592  0.92954708  1
  Se  Se153  1  0.08279888  0.58332484  0.45344112  1
  Se  Se154  1  0.08003255  0.57756865  0.93710476  1
  Se  Se155  1  0.08010479  0.92286092  0.45363510  1
  Se  Se156  1  0.06966733  0.92755216  0.93746223  1
  Se  Se157  1  0.41516089  0.25296766  0.45101883  1
  Se  Se158  1  0.41724295  0.24653960  0.94987502  1
  Se  Se159  1  0.40795879  0.59389490  0.44447071  1
  Se  Se160  1  0.42259614  0.58319554  0.94537661  1
  Se  Se161  1  0.40971257  0.92228130  0.43812103  1
  Se  Se162  1  0.41951047  0.91257933  0.94312611  1
  Se  Se163  1  0.75460695  0.24424900  0.44823372  1
  Se  Se164  1  0.72311495  0.27541615  0.93440352  1
  Se  Se165  1  0.74533525  0.57771539  0.45258459  1
  Se  Se166  1  0.74850845  0.59695607  0.93188877  1
  Se  Se167  1  0.75439130  0.90985487  0.45531417  1
  Se  Se168  1  0.75093707  0.92013122  0.94041419  1
  Se  Se169  1  0.25523188  0.08024268  0.44162253  1
  Se  Se170  1  0.24830196  0.07654082  0.93984803  1
  Se  Se171  1  0.24460021  0.42534921  0.45869211  1
  Se  Se172  1  0.24910664  0.42020305  0.94565070  1
  Se  Se173  1  0.24560745  0.75667349  0.45352148  1
  Se  Se174  1  0.25411351  0.73518208  0.92753712  1
  Se  Se175  1  0.58763331  0.07405844  0.44982966  1
  Se  Se176  1  0.58055715  0.08446406  0.94133685  1
  Se  Se177  1  0.58936713  0.40761811  0.44002167  1
  Se  Se178  1  0.58877957  0.42656896  0.95787220  1
  Se  Se179  1  0.59796705  0.73649446  0.44878038  1
  Se  Se180  1  0.58337073  0.75521784  0.94450845  1
  Se  Se181  1  0.91448135  0.08602863  0.45657537  1
  Se  Se182  1  0.90821762  0.09128786  0.93564648  1
  Se  Se183  1  0.91335006  0.41714752  0.44892218  1
  Se  Se184  1  0.92234432  0.41247079  0.93257683  1
  Se  Se185  1  0.91887060  0.74652697  0.45291406  1
  Se  Se186  1  0.91128993  0.74837736  0.94010008  1
  Se  Se187  1  0.24643646  0.24790691  0.31323209  1
  Se  Se188  1  0.24248793  0.24077641  0.81609201  1
  Se  Se189  1  0.24511596  0.58303509  0.31281719  1
  Se  Se190  1  0.26089826  0.57494284  0.79710471  1
  Se  Se191  1  0.25227083  0.91523228  0.30369594  1
  Se  Se192  1  0.25249388  0.91633542  0.79990506  1
  Se  Se193  1  0.58774386  0.24479645  0.30527188  1
  Se  Se194  1  0.57778518  0.24422842  0.80962933  1
  Se  Se195  1  0.57462571  0.57322857  0.30831141  1
  Se  Se196  1  0.58687649  0.58585705  0.80622668  1
  Se  Se197  1  0.57785544  0.90388205  0.30525252  1
  Se  Se198  1  0.58800393  0.91929316  0.80269321  1
  Se  Se199  1  0.91330777  0.24225141  0.30965075  1
  Se  Se200  1  0.91707365  0.26940206  0.78998092  1
  Se  Se201  1  0.91813684  0.58764000  0.30820092  1
  Se  Se202  1  0.93985200  0.59608272  0.78784401  1
  Se  Se203  1  0.91404343  0.91071513  0.31422623  1
  Se  Se204  1  0.91499283  0.92214171  0.80142469  1
  Se  Se205  1  0.09336165  0.09033227  0.30951745  1
  Se  Se206  1  0.07810756  0.08155213  0.79851298  1
  Se  Se207  1  0.08330673  0.42226545  0.31021393  1
  Se  Se208  1  0.08985505  0.41671020  0.79512045  1
  Se  Se209  1  0.08078563  0.74866721  0.30879912  1
  Se  Se210  1  0.08585315  0.75243588  0.80537263  1
  Se  Se211  1  0.42021184  0.08194569  0.30136408  1
  Se  Se212  1  0.41360079  0.07647860  0.80220432  1
  Se  Se213  1  0.42382954  0.42508047  0.31186270  1
  Se  Se214  1  0.43456853  0.41204784  0.82240722  1
  Se  Se215  1  0.42131329  0.75201221  0.30289430  1
  Se  Se216  1  0.42023825  0.74918601  0.80248738  1
  Se  Se217  1  0.75957370  0.08439504  0.31253833  1
  Se  Se218  1  0.75342142  0.09601051  0.79553562  1
  Se  Se219  1  0.75105188  0.41297549  0.30220956  1
  Se  Se220  1  0.76136495  0.43611653  0.80559784  1
  Se  Se221  1  0.75727163  0.75229603  0.31447938  1
  Se  Se222  1  0.75082171  0.75104792  0.80237186  1
  Se  Se223  1  0.25755144  0.07740095  0.19972919  1
  Se  Se224  1  0.25506933  0.07959899  0.69895544  1
  Se  Se225  1  0.24295425  0.42533831  0.19466222  1
  Se  Se226  1  0.24562560  0.42114750  0.69612926  1
  Se  Se227  1  0.23959538  0.75903352  0.18486666  1
  Se  Se228  1  0.25095394  0.74124722  0.69598740  1
  Se  Se229  1  0.58506293  0.08849351  0.18491220  1
  Se  Se230  1  0.58267679  0.08104426  0.69710680  1
  Se  Se231  1  0.58149203  0.40994694  0.19530879  1
  Se  Se232  1  0.57701185  0.42392900  0.69394726  1
  Se  Se233  1  0.58012309  0.75111352  0.18477355  1
  Se  Se234  1  0.58705759  0.74935334  0.70182994  1
  Se  Se235  1  0.91005312  0.08751437  0.18920535  1
  Se  Se236  1  0.92256511  0.07311854  0.70179041  1
  Se  Se237  1  0.91055162  0.42493161  0.18822139  1
  Se  Se238  1  0.92568783  0.39210112  0.70300843  1
  Se  Se239  1  0.92390810  0.74405752  0.19693417  1
  Se  Se240  1  0.91265537  0.75474088  0.69740464  1
  Se  Se241  1  0.09527017  0.24016735  0.18629669  1
  Se  Se242  1  0.08636359  0.24978632  0.70172337  1
  Se  Se243  1  0.07813945  0.58649765  0.19612072  1
  Se  Se244  1  0.06237917  0.59288889  0.70155129  1
  Se  Se245  1  0.09104416  0.90747142  0.18767583  1
  Se  Se246  1  0.08468561  0.91387591  0.69859094  1
  Se  Se247  1  0.42820965  0.24500236  0.18576996  1
  Se  Se248  1  0.41968151  0.24697268  0.69426548  1
  Se  Se249  1  0.42807616  0.57084400  0.19105501  1
  Se  Se250  1  0.41714394  0.58404932  0.70571319  1
  Se  Se251  1  0.41596605  0.92238386  0.19193689  1
  Se  Se252  1  0.41463359  0.91366395  0.69581782  1
  Se  Se253  1  0.74879999  0.25256393  0.19347777  1
  Se  Se254  1  0.74764331  0.24953529  0.68416634  1
  Se  Se255  1  0.75965279  0.57702966  0.19060474  1
  Se  Se256  1  0.74908108  0.58724063  0.70173249  1
  Se  Se257  1  0.76102461  0.90465302  0.19303895  1
  Se  Se258  1  0.74303131  0.92380687  0.69902986  1
