# generated using pymatgen
data_In86Cu29Se144
_symmetry_space_group_name_H-M   'P 1'
_cell_length_a   17.58128919
_cell_length_b   17.57787961
_cell_length_c   23.44248000
_cell_angle_alpha   89.99472864
_cell_angle_beta   90.02186916
_cell_angle_gamma   89.98737961
_symmetry_Int_Tables_number   1
_chemical_formula_structural   In86Cu29Se144
_chemical_formula_sum   'In86 Cu29 Se144'
_cell_volume   7244.70512495
_cell_formula_units_Z   1
loop_
 _symmetry_equiv_pos_site_id
 _symmetry_equiv_pos_as_xyz
  1  'x, y, z'
loop_
 _atom_site_type_symbol
 _atom_site_label
 _atom_site_symmetry_multiplicity
 _atom_site_fract_x
 _atom_site_fract_y
 _atom_site_fract_z
 _atom_site_occupancy
  In  In0  1  -0.00142091  0.15652554  0.13509201  1
  In  In1  1  -0.01159972  0.15326345  0.61523413  1
  In  In2  1  -0.01213245  0.49746561  0.12783438  1
  In  In3  1  -0.00940230  0.51997659  0.62416942  1
  In  In4  1  0.00513856  0.83879864  0.11624821  1
  In  In5  1  -0.00060919  0.83111469  0.61949554  1
  In  In6  1  0.31528859  0.15562385  0.12267347  1
  In  In7  1  0.32944889  0.15777200  0.61180981  1
  In  In8  1  0.34807308  0.48929408  0.12127890  1
  In  In9  1  0.33867682  0.49175906  0.61983058  1
  In  In10  1  0.32583474  0.84665590  0.13010402  1
  In  In11  1  0.33344180  0.83323030  0.61759432  1
  In  In12  1  0.68748911  0.16605312  0.13343679  1
  In  In13  1  0.67007831  0.16504838  0.62227659  1
  In  In14  1  0.66145275  0.50034360  0.13427282  1
  In  In15  1  0.66879091  0.50160800  0.62406233  1
  In  In16  1  0.66481956  0.82004660  0.12567980  1
  In  In17  1  0.67070203  0.83399783  0.62445022  1
  In  In18  1  0.16581675  0.00045484  0.37093380  1
  In  In19  1  0.16002717  0.01143714  0.88340778  1
  In  In20  1  0.14460614  0.32791493  0.36961967  1
  In  In21  1  0.15849782  0.31632224  0.88128378  1
  In  In22  1  0.16207961  0.67981883  0.38108100  1
  In  In23  1  0.16634738  0.69081083  0.87863445  1
  In  In24  1  0.49358078  0.00640846  0.37931484  1
  In  In25  1  0.50522447  -0.00687096  0.87268822  1
  In  In26  1  0.51100347  0.32802989  0.37961346  1
  In  In27  1  0.51788500  0.33684833  0.87456398  1
  In  In28  1  0.50865441  0.65681086  0.38409663  1
  In  In29  1  0.50185715  0.65793853  0.87687055  1
  In  In30  1  0.84166912  -0.00441599  0.38124649  1
  In  In31  1  0.82683592  -0.00716072  0.86509127  1
  In  In32  1  0.83458759  0.33223173  0.37865365  1
  In  In33  1  0.82792889  0.34234209  0.87345098  1
  In  In34  1  0.82768324  0.68069425  0.38794006  1
  In  In35  1  0.83924963  0.67210081  0.86562110  1
  In  In36  1  -0.00234917  0.16750473  0.37951435  1
  In  In37  1  0.01587879  0.16299991  0.87770118  1
  In  In38  1  -0.00128857  0.48463284  0.37630278  1
  In  In39  1  -0.01665528  0.50084315  0.87471373  1
  In  In40  1  -0.00944978  0.84193363  0.37982722  1
  In  In41  1  -0.00335428  0.83652569  0.87058969  1
  In  In42  1  0.34237145  0.15669581  0.37700361  1
  In  In43  1  0.31957042  0.15621486  0.87620782  1
  In  In44  1  0.33657541  0.51076600  0.37692438  1
  In  In45  1  0.34466656  0.51538803  0.88230758  1
  In  In46  1  0.32298005  0.84912025  0.38070931  1
  In  In47  1  0.32197890  0.83009074  0.88275065  1
  In  In48  1  0.66196067  0.17284085  0.38070059  1
  In  In49  1  0.66793132  0.17006075  0.86362231  1
  In  In50  1  0.66894202  0.50135470  0.37827099  1
  In  In51  1  0.66632132  0.50201373  0.86805639  1
  In  In52  1  0.67503572  0.82489060  0.38226707  1
  In  In53  1  0.67306132  0.83757648  0.86567275  1
  In  In54  1  0.15769675  -0.00682739  0.12912611  1
  In  In55  1  0.15463144  -0.01251275  0.61623965  1
  In  In56  1  0.16224483  0.31749577  0.12178559  1
  In  In57  1  0.17386515  0.32678742  0.61987790  1
  In  In58  1  0.16441346  0.67784312  0.12142849  1
  In  In59  1  0.14577632  0.67418596  0.62432234  1
  In  In60  1  0.49221303  -0.01251161  0.13067618  1
  In  In61  1  0.51110471  0.00994018  0.61430413  1
  In  In62  1  0.50290317  0.34270277  0.12588920  1
  In  In63  1  0.51494440  0.34359618  0.61381606  1
  In  In64  1  0.52103157  0.66507666  0.12565332  1
  In  In65  1  0.51345907  0.67863038  0.61886616  1
  In  In66  1  0.86420421  -0.00941136  0.13365558  1
  In  In67  1  0.83517796  -0.00215824  0.62372544  1
  In  In68  1  0.83626899  0.32007662  0.14469572  1
  In  In69  1  0.82200516  0.32381376  0.61676201  1
  In  In70  1  0.81335445  0.66698037  0.12327801  1
  In  In71  1  0.83466526  0.66554598  0.61921605  1
  In  In72  1  0.34043058  0.33474814  0.74207814  1
  In  In73  1  0.49548813  0.17019425  0.00674078  1
  In  In74  1  0.33363909  0.67371022  0.24687678  1
  In  In75  1  0.67092106  0.00056695  0.26152271  1
  In  In76  1  0.83206654  0.49824677  -0.00145038  1
  In  In77  1  0.17253690  0.50458743  0.00335114  1
  In  In78  1  0.33284125  0.32696663  0.24338363  1
  In  In79  1  -0.00610841  0.32905650  0.75127843  1
  In  In80  1  0.49149628  0.82845155  -0.00290635  1
  In  In81  1  0.33644245  0.66917167  0.75522395  1
  In  In82  1  0.83874663  0.16130656  0.01076813  1
  In  In83  1  0.16988979  0.49765044  0.49963268  1
  In  In84  1  0.33825796  -0.00066933  0.75366786  1
  In  In85  1  -0.01021964  0.67362906  0.26012123  1
  Cu  Cu86  1  0.50665589  0.50355443  0.74634709  1
  Cu  Cu87  1  0.16305473  0.50486224  0.24621163  1
  Cu  Cu88  1  -0.00318464  0.33184054  0.49914489  1
  Cu  Cu89  1  0.50771999  0.17172337  0.74068517  1
  Cu  Cu90  1  0.33835561  0.66891857  0.49944011  1
  Cu  Cu91  1  0.67263247  0.33885304  0.00041080  1
  Cu  Cu92  1  0.33542875  0.32734490  0.49493649  1
  Cu  Cu93  1  0.00097895  -0.00525228  0.00040578  1
  Cu  Cu94  1  0.82661480  0.49623555  0.25444296  1
  Cu  Cu95  1  0.66559544  0.66464950  0.50433272  1
  Cu  Cu96  1  0.50864561  0.83700464  0.74699071  1
  Cu  Cu97  1  0.49690938  0.82615422  0.25213803  1
  Cu  Cu98  1  0.33322957  -0.00276824  0.49543288  1
  Cu  Cu99  1  0.66738956  0.33700688  0.49923562  1
  Cu  Cu100  1  0.67272285  -0.00322966  0.49952584  1
  Cu  Cu101  1  -0.00028880  0.67649447  -0.00552109  1
  Cu  Cu102  1  0.50933240  0.49642588  0.25629693  1
  Cu  Cu103  1  0.15736223  0.50646362  0.75281431  1
  Cu  Cu104  1  0.00449277  0.00190675  0.49934005  1
  Cu  Cu105  1  0.66845430  -0.00389046  -0.00665800  1
  Cu  Cu106  1  0.83261309  0.16249806  0.74245363  1
  Cu  Cu107  1  0.83646318  0.83192430  0.74262035  1
  Cu  Cu108  1  0.50046535  0.16185286  0.25419520  1
  Cu  Cu109  1  0.83194757  0.83171675  0.25528319  1
  Cu  Cu110  1  0.82734380  0.50203507  0.74606018  1
  Cu  Cu111  1  0.16061726  0.16047876  0.25039846  1
  Cu  Cu112  1  0.33972232  0.33546175  0.00059345  1
  Cu  Cu113  1  0.15510051  0.83546278  0.74815383  1
  Cu  Cu114  1  0.16127651  0.15725726  0.74736976  1
  Se  Se115  1  0.07558387  0.08045899  0.05954146  1
  Se  Se116  1  0.08966105  0.08799032  0.55067957  1
  Se  Se117  1  0.07835900  0.41552586  0.05958696  1
  Se  Se118  1  0.07510896  0.41274498  0.56266835  1
  Se  Se119  1  0.08744990  0.75486967  0.04752040  1
  Se  Se120  1  0.08994666  0.76000921  0.54816008  1
  Se  Se121  1  0.40879173  0.07046196  0.05810879  1
  Se  Se122  1  0.41957995  0.08228884  0.54580768  1
  Se  Se123  1  0.42959017  0.41673740  0.04684507  1
  Se  Se124  1  0.41631441  0.41333576  0.54795387  1
  Se  Se125  1  0.41490927  0.74758805  0.07193460  1
  Se  Se126  1  0.42145120  0.75334706  0.55221069  1
  Se  Se127  1  0.74616284  0.06483470  0.06251445  1
  Se  Se128  1  0.75371441  0.08238874  0.55395539  1
  Se  Se129  1  0.75377657  0.40776780  0.06704128  1
  Se  Se130  1  0.75097402  0.42076331  0.55250447  1
  Se  Se131  1  0.74715211  0.75363625  0.05062159  1
  Se  Se132  1  0.75022255  0.75180745  0.55309043  1
  Se  Se133  1  0.25529303  0.25203090  0.05123078  1
  Se  Se134  1  0.24826726  0.24685720  0.54676845  1
  Se  Se135  1  0.26341088  0.59028900  0.06494480  1
  Se  Se136  1  0.25510013  0.59231470  0.56241844  1
  Se  Se137  1  0.24294126  0.91689050  0.05787339  1
  Se  Se138  1  0.24996194  0.91568455  0.55087491  1
  Se  Se139  1  0.59835502  0.25292585  0.06166778  1
  Se  Se140  1  0.58663361  0.24634693  0.55075780  1
  Se  Se141  1  0.59343584  0.57910434  0.05641654  1
  Se  Se142  1  0.58024879  0.57897855  0.55433674  1
  Se  Se143  1  0.58564884  0.92101891  0.05657862  1
  Se  Se144  1  0.58718310  0.91423826  0.55247055  1
  Se  Se145  1  0.92406065  0.25849490  0.06505355  1
  Se  Se146  1  0.91304171  0.24675418  0.55106379  1
  Se  Se147  1  0.92237894  0.59537779  0.05641086  1
  Se  Se148  1  0.91436701  0.58511491  0.54630686  1
  Se  Se149  1  0.91095601  0.91182777  0.04788989  1
  Se  Se150  1  0.91846029  0.91928041  0.55230508  1
  Se  Se151  1  0.08469560  0.24916122  0.45045764  1
  Se  Se152  1  0.08106986  0.24338642  0.95487433  1
  Se  Se153  1  0.07762091  0.58477089  0.44120234  1
  Se  Se154  1  0.07679329  0.58715621  0.93880002  1
  Se  Se155  1  0.08542566  0.91881387  0.44357537  1
  Se  Se156  1  0.08246947  0.91339937  0.94255029  1
  Se  Se157  1  0.42182324  0.24537744  0.44331405  1
  Se  Se158  1  0.41343685  0.25530262  0.93410644  1
  Se  Se159  1  0.41887624  0.57831285  0.45216778  1
  Se  Se160  1  0.42002341  0.59350268  0.95403846  1
  Se  Se161  1  0.42230992  0.91333542  0.44782812  1
  Se  Se162  1  0.40584472  0.93048941  0.94198483  1
  Se  Se163  1  0.75030433  0.25061410  0.44842812  1
  Se  Se164  1  0.74749903  0.24994578  0.94343251  1
  Se  Se165  1  0.74943294  0.58420856  0.44877334  1
  Se  Se166  1  0.74923661  0.59016173  0.93717695  1
  Se  Se167  1  0.75675381  0.91227679  0.44773084  1
  Se  Se168  1  0.75203449  0.91450281  0.94084304  1
  Se  Se169  1  0.24983513  0.08170506  0.44245016  1
  Se  Se170  1  0.24691294  0.08586227  0.95290744  1
  Se  Se171  1  0.25374572  0.40653389  0.43338895  1
  Se  Se172  1  0.25708256  0.41109122  0.93697274  1
  Se  Se173  1  0.25330628  0.75189781  0.44809119  1
  Se  Se174  1  0.26555174  0.73272918  0.95186722  1
  Se  Se175  1  0.58683781  0.07942713  0.44627660  1
  Se  Se176  1  0.58891958  0.08472871  0.94164302  1
  Se  Se177  1  0.58172156  0.42071271  0.44743227  1
  Se  Se178  1  0.59161663  0.42163409  0.94545359  1
  Se  Se179  1  0.58363873  0.74984913  0.44993350  1
  Se  Se180  1  0.59073259  0.75000895  0.93828051  1
  Se  Se181  1  0.91652130  0.08515894  0.45015782  1
  Se  Se182  1  0.91879241  0.07574681  0.93969995  1
  Se  Se183  1  0.91301077  0.41870120  0.45123835  1
  Se  Se184  1  0.92672886  0.40055075  0.94700472  1
  Se  Se185  1  0.92899520  0.74582637  0.44965307  1
  Se  Se186  1  0.91288028  0.75377908  0.94007414  1
  Se  Se187  1  0.24439365  0.24271274  0.30855693  1
  Se  Se188  1  0.24355531  0.24468511  0.80070208  1
  Se  Se189  1  0.23893652  0.58294385  0.30842657  1
  Se  Se190  1  0.24124598  0.57966442  0.81367095  1
  Se  Se191  1  0.25273818  0.92117633  0.30233897  1
  Se  Se192  1  0.24110928  0.91112786  0.80846763  1
  Se  Se193  1  0.58257859  0.24761294  0.30382282  1
  Se  Se194  1  0.58542067  0.25647886  0.79740186  1
  Se  Se195  1  0.58767345  0.58592361  0.30711522  1
  Se  Se196  1  0.58476841  0.58976391  0.80095573  1
  Se  Se197  1  0.57735149  0.90660785  0.31430405  1
  Se  Se198  1  0.58903831  0.92473993  0.79906006  1
  Se  Se199  1  0.93878156  0.27182121  0.31446159  1
  Se  Se200  1  0.90686135  0.23733218  0.81294532  1
  Se  Se201  1  0.90537858  0.57668146  0.31646534  1
  Se  Se202  1  0.91649509  0.58087200  0.79795894  1
  Se  Se203  1  0.91527684  0.91883804  0.30292174  1
  Se  Se204  1  0.91721014  0.91714987  0.79809083  1
  Se  Se205  1  0.07506168  0.08287783  0.30680964  1
  Se  Se206  1  0.08041989  0.07571345  0.80259709  1
  Se  Se207  1  0.08047270  0.41952111  0.29740075  1
  Se  Se208  1  0.08760579  0.41819447  0.81294419  1
  Se  Se209  1  0.08786065  0.76531040  0.30770184  1
  Se  Se210  1  0.07804865  0.74725009  0.80220689  1
  Se  Se211  1  0.41472800  0.07677161  0.30065027  1
  Se  Se212  1  0.42813937  0.09908082  0.80798018  1
  Se  Se213  1  0.41755471  0.41874446  0.30872925  1
  Se  Se214  1  0.42282692  0.42705589  0.80721145  1
  Se  Se215  1  0.41976759  0.75002981  0.31798326  1
  Se  Se216  1  0.42541229  0.76508504  0.81162524  1
  Se  Se217  1  0.76045336  0.09284606  0.31626799  1
  Se  Se218  1  0.74740516  0.08208752  0.79878906  1
  Se  Se219  1  0.74632544  0.41274112  0.31008893  1
  Se  Se220  1  0.74750833  0.41552447  0.79984962  1
  Se  Se221  1  0.75026497  0.74622638  0.30628651  1
  Se  Se222  1  0.75161928  0.75028566  0.79749562  1
  Se  Se223  1  0.24462748  0.07680478  0.19844421  1
  Se  Se224  1  0.24617569  0.08124065  0.68866976  1
  Se  Se225  1  0.24220315  0.42384407  0.18713922  1
  Se  Se226  1  0.23792478  0.42818397  0.69278055  1
  Se  Se227  1  0.23344732  0.76312894  0.19846167  1
  Se  Se228  1  0.24482491  0.75685754  0.69325309  1
  Se  Se229  1  0.58065793  0.08271536  0.19121623  1
  Se  Se230  1  0.58761579  0.08069581  0.69264123  1
  Se  Se231  1  0.58659440  0.40836831  0.20213084  1
  Se  Se232  1  0.58572264  0.41594211  0.69379710  1
  Se  Se233  1  0.58701060  0.74761857  0.20294690  1
  Se  Se234  1  0.58961038  0.74972394  0.69650464  1
  Se  Se235  1  0.88235045  0.10943752  0.19394025  1
  Se  Se236  1  0.92013943  0.07927272  0.69536823  1
  Se  Se237  1  0.91661412  0.41836127  0.20288076  1
  Se  Se238  1  0.90947347  0.41877579  0.68746378  1
  Se  Se239  1  0.90744097  0.75362705  0.18775695  1
  Se  Se240  1  0.91857735  0.74742835  0.68951185  1
  Se  Se241  1  0.08180740  0.24913203  0.19802993  1
  Se  Se242  1  0.08503210  0.24292459  0.68809217  1
  Se  Se243  1  0.08093926  0.58776146  0.19034922  1
  Se  Se244  1  0.07653768  0.58849833  0.69858779  1
  Se  Se245  1  0.05225710  0.93224619  0.19285840  1
  Se  Se246  1  0.07544754  0.91856155  0.69318845  1
  Se  Se247  1  0.42374144  0.23549727  0.18465546  1
  Se  Se248  1  0.42259283  0.24274744  0.67936607  1
  Se  Se249  1  0.42600971  0.57450148  0.19545810  1
  Se  Se250  1  0.42120874  0.58153394  0.68847972  1
  Se  Se251  1  0.41298800  0.91375001  0.20515490  1
  Se  Se252  1  0.42453379  0.91377622  0.68781023  1
  Se  Se253  1  0.73891183  0.25440092  0.21043875  1
  Se  Se254  1  0.74857971  0.24990112  0.69498846  1
  Se  Se255  1  0.74873590  0.58305201  0.20013286  1
  Se  Se256  1  0.74880279  0.58838428  0.69170132  1
  Se  Se257  1  0.75286982  0.91241141  0.19191270  1
  Se  Se258  1  0.75090976  0.91839824  0.69419506  1
