# generated using pymatgen
data_In86Cu29Se144
_symmetry_space_group_name_H-M   'P 1'
_cell_length_a   17.67978567
_cell_length_b   17.67274386
_cell_length_c   23.53696351
_cell_angle_alpha   89.99939652
_cell_angle_beta   89.98290121
_cell_angle_gamma   89.98834422
_symmetry_Int_Tables_number   1
_chemical_formula_structural   In86Cu29Se144
_chemical_formula_sum   'In86 Cu29 Se144'
_cell_volume   7354.13138616
_cell_formula_units_Z   1
loop_
 _symmetry_equiv_pos_site_id
 _symmetry_equiv_pos_as_xyz
  1  'x, y, z'
loop_
 _atom_site_type_symbol
 _atom_site_label
 _atom_site_symmetry_multiplicity
 _atom_site_fract_x
 _atom_site_fract_y
 _atom_site_fract_z
 _atom_site_occupancy
  In  In0  1  -0.01837649  0.17855829  0.14520287  1
  In  In1  1  -0.00098520  0.15946328  0.61146181  1
  In  In2  1  -0.00887270  0.50818985  0.12746511  1
  In  In3  1  -0.01042623  0.49753603  0.62146362  1
  In  In4  1  -0.00327624  0.83294003  0.13641418  1
  In  In5  1  0.00884283  0.84066708  0.61436863  1
  In  In6  1  0.34088713  0.15560850  0.13556733  1
  In  In7  1  0.33617144  0.15163309  0.61058357  1
  In  In8  1  0.34178578  0.49881120  0.13234240  1
  In  In9  1  0.33880684  0.48451141  0.62437518  1
  In  In10  1  0.33490322  0.83774306  0.12315535  1
  In  In11  1  0.33546622  0.86178045  0.61750742  1
  In  In12  1  0.66928548  0.17216031  0.13468878  1
  In  In13  1  0.66648440  0.16822019  0.62531331  1
  In  In14  1  0.65502716  0.49016024  0.12186278  1
  In  In15  1  0.65257400  0.49282132  0.62307381  1
  In  In16  1  0.67377595  0.86593260  0.12676045  1
  In  In17  1  0.67961809  0.84153593  0.62849459  1
  In  In18  1  0.17541943  0.00030100  0.37968969  1
  In  In19  1  0.16226383  -0.01017630  0.87812503  1
  In  In20  1  0.16327970  0.32114268  0.36815204  1
  In  In21  1  0.17471602  0.33048245  0.87756358  1
  In  In22  1  0.17028152  0.67738632  0.36779816  1
  In  In23  1  0.17526009  0.67396319  0.87710474  1
  In  In24  1  0.50194806  0.00536746  0.37110347  1
  In  In25  1  0.49792946  0.00875626  0.87329834  1
  In  In26  1  0.50137351  0.32836734  0.37431334  1
  In  In27  1  0.52601304  0.29706109  0.89744082  1
  In  In28  1  0.49126542  0.66689175  0.37173910  1
  In  In29  1  0.50232002  0.66355788  0.88952707  1
  In  In30  1  0.86395666  0.04094755  0.32799296  1
  In  In31  1  0.82097009  0.02071220  0.88956888  1
  In  In32  1  0.80742064  0.27890000  0.32297671  1
  In  In33  1  0.82441386  0.33379866  0.88051122  1
  In  In34  1  0.84288843  0.65993092  0.36629236  1
  In  In35  1  0.81939533  0.66620907  0.88377911  1
  In  In36  1  0.00689050  0.17251825  0.37505681  1
  In  In37  1  -0.00549219  0.15435578  0.87749978  1
  In  In38  1  -0.00044897  0.48956207  0.36513482  1
  In  In39  1  -0.00781413  0.49176688  0.88422359  1
  In  In40  1  0.01357332  0.86459270  0.34134893  1
  In  In41  1  0.00615973  0.84635464  0.88418175  1
  In  In42  1  0.33192874  0.16042127  0.37810707  1
  In  In43  1  0.34349843  0.16758652  0.87340339  1
  In  In44  1  0.34131673  0.50680413  0.36898034  1
  In  In45  1  0.33390717  0.50193040  0.88013089  1
  In  In46  1  0.33351634  0.82727210  0.36894841  1
  In  In47  1  0.32717505  0.84315715  0.88405222  1
  In  In48  1  0.66227025  0.15202788  0.37111210  1
  In  In49  1  0.67050562  0.16470653  0.86585293  1
  In  In50  1  0.67214345  0.48059704  0.37270789  1
  In  In51  1  0.67107454  0.48821662  0.88843762  1
  In  In52  1  0.66710692  0.84758257  0.36888405  1
  In  In53  1  0.65555877  0.83853881  0.88048124  1
  In  In54  1  0.17060179  -0.00892930  0.13204339  1
  In  In55  1  0.19163028  0.02342071  0.58898015  1
  In  In56  1  0.16805893  0.33934941  0.13904607  1
  In  In57  1  0.17310218  0.32024600  0.61803512  1
  In  In58  1  0.14969636  0.68791258  0.12973586  1
  In  In59  1  0.15887977  0.67466006  0.62158546  1
  In  In60  1  0.50005925  0.00371531  0.12213623  1
  In  In61  1  0.49112151  0.00980414  0.63705108  1
  In  In62  1  0.50079429  0.33170077  0.12981629  1
  In  In63  1  0.50895187  0.33035788  0.61872158  1
  In  In64  1  0.49251729  0.66801923  0.12061371  1
  In  In65  1  0.50194451  0.65953595  0.62406831  1
  In  In66  1  0.81194982  0.01876659  0.16191863  1
  In  In67  1  0.81989429  0.01133453  0.63032750  1
  In  In68  1  0.82911649  0.33449102  0.12886372  1
  In  In69  1  0.82773728  0.31490102  0.61936053  1
  In  In70  1  0.85658472  0.66653640  0.11926319  1
  In  In71  1  0.83767904  0.66995385  0.62628696  1
  In  In72  1  0.16332116  0.16258323  0.00996256  1
  In  In73  1  0.66057598  0.67195996  0.75373617  1
  In  In74  1  0.50057620  0.83837251  0.49832178  1
  In  In75  1  0.83688642  0.83436293  0.48709374  1
  In  In76  1  0.33306590  0.67115939  0.75445092  1
  In  In77  1  0.15479624  0.51097950  0.01467704  1
  In  In78  1  0.84269566  0.83604445  0.00950537  1
  In  In79  1  0.66073353  0.65849609  0.23364053  1
  In  In80  1  0.17401431  0.49697610  0.49947680  1
  In  In81  1  -0.00654292  0.67049914  0.75657338  1
  In  In82  1  -0.00732197  0.32557471  0.74039282  1
  In  In83  1  0.34006742  0.33059589  0.75578671  1
  In  In84  1  0.83630660  0.49380987  0.49190693  1
  In  In85  1  0.00280163  -0.00158645  0.74801731  1
  Cu  Cu86  1  0.15521569  0.49369625  0.74973679  1
  Cu  Cu87  1  -0.00646193  0.00408158  0.01088052  1
  Cu  Cu88  1  0.67010230  0.32186663  0.48849178  1
  Cu  Cu89  1  -0.01234528  0.32386413  0.00481432  1
  Cu  Cu90  1  0.17604166  0.50558968  0.25014961  1
  Cu  Cu91  1  0.49892233  0.84067685  0.75639541  1
  Cu  Cu92  1  0.17371873  0.84190066  0.74784399  1
  Cu  Cu93  1  0.66750401  0.66718574  0.00860681  1
  Cu  Cu94  1  0.34332207  0.33079746  0.49559235  1
  Cu  Cu95  1  0.66612950  0.32853902  0.00490683  1
  Cu  Cu96  1  0.33657651  0.66567687  0.49525044  1
  Cu  Cu97  1  0.49669386  0.16945304  0.25203917  1
  Cu  Cu98  1  0.83609496  0.84704277  0.75276556  1
  Cu  Cu99  1  0.50005346  0.16791387  0.74917456  1
  Cu  Cu100  1  0.33339358  0.33810669  0.00940690  1
  Cu  Cu101  1  0.33156168  0.67227609  0.00281513  1
  Cu  Cu102  1  -0.00141607  0.33084423  0.49183414  1
  Cu  Cu103  1  0.17345843  0.15870392  0.25390608  1
  Cu  Cu104  1  0.50459188  0.49094962  0.75457678  1
  Cu  Cu105  1  0.84093493  0.49780824  0.24605372  1
  Cu  Cu106  1  0.66935972  0.00868298  0.50110570  1
  Cu  Cu107  1  0.50326432  0.49309408  0.24797190  1
  Cu  Cu108  1  0.81929732  0.49793744  0.75551205  1
  Cu  Cu109  1  0.33757734  0.00319522  0.00353474  1
  Cu  Cu110  1  0.17200052  0.83373991  0.24863946  1
  Cu  Cu111  1  0.49332335  0.83837376  0.24575616  1
  Cu  Cu112  1  0.01024686  0.67163702  0.49067164  1
  Cu  Cu113  1  -0.01110644  -0.00345633  0.48258328  1
  Cu  Cu114  1  0.66109986  0.66250780  0.50043935  1
  Se  Se115  1  0.07226171  0.08209147  0.07436696  1
  Se  Se116  1  0.07273507  0.07832207  0.53840875  1
  Se  Se117  1  0.07412938  0.40241506  0.06210485  1
  Se  Se118  1  0.07420087  0.40868061  0.55694713  1
  Se  Se119  1  0.07126602  0.76137391  0.05692268  1
  Se  Se120  1  0.08769232  0.75392796  0.54706435  1
  Se  Se121  1  0.41639031  0.09058905  0.05456430  1
  Se  Se122  1  0.42833877  0.07064204  0.55082467  1
  Se  Se123  1  0.41961531  0.41822607  0.06042406  1
  Se  Se124  1  0.42155287  0.41460847  0.55263102  1
  Se  Se125  1  0.41730246  0.75631167  0.05194523  1
  Se  Se126  1  0.41083591  0.74597865  0.56153938  1
  Se  Se127  1  0.74768492  0.07423660  0.07458602  1
  Se  Se128  1  0.75413753  0.09094602  0.55342000  1
  Se  Se129  1  0.74722656  0.41309581  0.05722649  1
  Se  Se130  1  0.74229733  0.40910237  0.55302897  1
  Se  Se131  1  0.74651636  0.74829167  0.06736064  1
  Se  Se132  1  0.74546132  0.74257539  0.55617869  1
  Se  Se133  1  0.25257656  0.25535836  0.06693258  1
  Se  Se134  1  0.25879830  0.24926071  0.54879386  1
  Se  Se135  1  0.25499588  0.59432640  0.06756075  1
  Se  Se136  1  0.26044879  0.58894191  0.56251409  1
  Se  Se137  1  0.25093841  0.92194321  0.05468922  1
  Se  Se138  1  0.23642119  0.89874048  0.54397609  1
  Se  Se139  1  0.58555932  0.24970965  0.06305513  1
  Se  Se140  1  0.58843563  0.24656072  0.54997041  1
  Se  Se141  1  0.58012968  0.58359508  0.05680441  1
  Se  Se142  1  0.57901635  0.57918603  0.55239187  1
  Se  Se143  1  0.57941968  0.91661868  0.05468761  1
  Se  Se144  1  0.59446754  0.92186218  0.55948580  1
  Se  Se145  1  0.90899867  0.24347485  0.06176971  1
  Se  Se146  1  0.91655811  0.24886713  0.54805491  1
  Se  Se147  1  0.92257912  0.57880542  0.04688914  1
  Se  Se148  1  0.92475384  0.59594167  0.54990698  1
  Se  Se149  1  0.91412538  0.93215286  0.07466099  1
  Se  Se150  1  0.91493863  0.92750488  0.55659952  1
  Se  Se151  1  0.09114561  0.24919996  0.44802747  1
  Se  Se152  1  0.07697550  0.25467312  0.94374387  1
  Se  Se153  1  0.08305559  0.58059544  0.43640969  1
  Se  Se154  1  0.07758525  0.59186867  0.93829416  1
  Se  Se155  1  0.07487960  0.91348118  0.43342312  1
  Se  Se156  1  0.08146796  0.92557698  0.95712238  1
  Se  Se157  1  0.42077660  0.24413910  0.44297493  1
  Se  Se158  1  0.40551510  0.25088201  0.95103931  1
  Se  Se159  1  0.42026963  0.58244821  0.44530850  1
  Se  Se160  1  0.41051438  0.58276953  0.95123181  1
  Se  Se161  1  0.40949479  0.92157752  0.43802939  1
  Se  Se162  1  0.41911930  0.92385882  0.94477199  1
  Se  Se163  1  0.75065487  0.25085862  0.42401113  1
  Se  Se164  1  0.74309712  0.24639987  0.94448386  1
  Se  Se165  1  0.74387932  0.58894418  0.43841862  1
  Se  Se166  1  0.74684166  0.58136737  0.95376565  1
  Se  Se167  1  0.74691333  0.93003276  0.43885539  1
  Se  Se168  1  0.74506552  0.91939074  0.94912017  1
  Se  Se169  1  0.24970489  0.08421924  0.45079113  1
  Se  Se170  1  0.25246828  0.08076762  0.94272112  1
  Se  Se171  1  0.26001759  0.41009668  0.43669604  1
  Se  Se172  1  0.24793880  0.41745020  0.95196483  1
  Se  Se173  1  0.25400080  0.74717330  0.44244115  1
  Se  Se174  1  0.24700425  0.75423730  0.95006422  1
  Se  Se175  1  0.57898064  0.08151964  0.44692377  1
  Se  Se176  1  0.56549553  0.11185241  0.93350542  1
  Se  Se177  1  0.58550105  0.41177041  0.44442935  1
  Se  Se178  1  0.57860364  0.41254365  0.95335730  1
  Se  Se179  1  0.59018828  0.74666743  0.43806272  1
  Se  Se180  1  0.58791542  0.74917048  0.95148753  1
  Se  Se181  1  0.91103431  0.08213665  0.42787522  1
  Se  Se182  1  0.91550061  0.09016631  0.95642787  1
  Se  Se183  1  0.91626185  0.40246415  0.43103914  1
  Se  Se184  1  0.91006683  0.41163926  0.95084703  1
  Se  Se185  1  0.92984870  0.74750239  0.43040445  1
  Se  Se186  1  0.92271264  0.74599407  0.93960945  1
  Se  Se187  1  0.25644986  0.24509713  0.30466463  1
  Se  Se188  1  0.24086755  0.23953764  0.80536017  1
  Se  Se189  1  0.25510646  0.59005800  0.30431818  1
  Se  Se190  1  0.23792923  0.57266247  0.80591102  1
  Se  Se191  1  0.25103195  0.91574787  0.30601972  1
  Se  Se192  1  0.25209637  0.91976811  0.80764280  1
  Se  Se193  1  0.58331645  0.24601903  0.30616234  1
  Se  Se194  1  0.58142398  0.25240816  0.80237926  1
  Se  Se195  1  0.58263273  0.57466448  0.30893838  1
  Se  Se196  1  0.57887321  0.57667230  0.81419179  1
  Se  Se197  1  0.57801546  0.91835719  0.30032803  1
  Se  Se198  1  0.58413030  0.92135002  0.80769800  1
  Se  Se199  1  0.94898198  0.26996549  0.30285945  1
  Se  Se200  1  0.91151087  0.24547511  0.81148341  1
  Se  Se201  1  0.92490012  0.58013105  0.29765358  1
  Se  Se202  1  0.90369984  0.57583149  0.81150079  1
  Se  Se203  1  0.87864630  0.89493855  0.31054530  1
  Se  Se204  1  0.91211250  0.92068431  0.81793023  1
  Se  Se205  1  0.09044625  0.08207587  0.31133104  1
  Se  Se206  1  0.09245872  0.08923764  0.80919536  1
  Se  Se207  1  0.09592941  0.41808498  0.30185706  1
  Se  Se208  1  0.07973552  0.41373037  0.80995743  1
  Se  Se209  1  0.08281151  0.74901371  0.29638535  1
  Se  Se210  1  0.09100045  0.76274537  0.80623411  1
  Se  Se211  1  0.41435897  0.08381061  0.30420717  1
  Se  Se212  1  0.41365558  0.08507560  0.79959004  1
  Se  Se213  1  0.42017681  0.41487093  0.30555533  1
  Se  Se214  1  0.42531518  0.41747925  0.81856853  1
  Se  Se215  1  0.41874825  0.74906553  0.29916152  1
  Se  Se216  1  0.42554298  0.75408614  0.81563118  1
  Se  Se217  1  0.72786870  0.06873790  0.29357154  1
  Se  Se218  1  0.75963602  0.08130465  0.80329773  1
  Se  Se219  1  0.75736468  0.41586585  0.29866147  1
  Se  Se220  1  0.74135701  0.41359107  0.80939958  1
  Se  Se221  1  0.73708712  0.73642896  0.31117683  1
  Se  Se222  1  0.75701012  0.76172446  0.80934796  1
  Se  Se223  1  0.25331395  0.07433053  0.19978784  1
  Se  Se224  1  0.24718659  0.08049979  0.67991522  1
  Se  Se225  1  0.25943087  0.41773830  0.20150372  1
  Se  Se226  1  0.23946087  0.41621601  0.69340924  1
  Se  Se227  1  0.25271697  0.75235454  0.19232652  1
  Se  Se228  1  0.24939323  0.75746011  0.68764180  1
  Se  Se229  1  0.57574440  0.08731102  0.19487559  1
  Se  Se230  1  0.58652669  0.08527459  0.69776934  1
  Se  Se231  1  0.58929261  0.40944674  0.19993603  1
  Se  Se232  1  0.58227852  0.41032914  0.69636481  1
  Se  Se233  1  0.57849193  0.76352247  0.18454037  1
  Se  Se234  1  0.57275561  0.76199207  0.69070286  1
  Se  Se235  1  0.92664854  0.07760034  0.21532214  1
  Se  Se236  1  0.91533997  0.09431232  0.69232886  1
  Se  Se237  1  0.92279772  0.41279593  0.19398065  1
  Se  Se238  1  0.89854366  0.42526386  0.69025634  1
  Se  Se239  1  0.92084237  0.73858740  0.20005463  1
  Se  Se240  1  0.91321909  0.76733536  0.69223161  1
  Se  Se241  1  0.09268677  0.24273187  0.19996996  1
  Se  Se242  1  0.08882285  0.23727216  0.68619590  1
  Se  Se243  1  0.09140631  0.57812227  0.18976984  1
  Se  Se244  1  0.08070003  0.57820553  0.69115622  1
  Se  Se245  1  0.08184138  0.91843651  0.20262400  1
  Se  Se246  1  0.09391977  0.91643196  0.68556393  1
  Se  Se247  1  0.41407011  0.25250469  0.19849979  1
  Se  Se248  1  0.41924134  0.24451559  0.68622688  1
  Se  Se249  1  0.42596099  0.58447221  0.19791421  1
  Se  Se250  1  0.42127402  0.57176323  0.69749664  1
  Se  Se251  1  0.41412499  0.92320218  0.19168280  1
  Se  Se252  1  0.41291246  0.91705794  0.70084338  1
  Se  Se253  1  0.75891209  0.24916736  0.20442026  1
  Se  Se254  1  0.74563886  0.25347867  0.69442134  1
  Se  Se255  1  0.76079484  0.57263227  0.18172043  1
  Se  Se256  1  0.75010923  0.58172718  0.69064898  1
  Se  Se257  1  0.77656249  0.88648721  0.20249162  1
  Se  Se258  1  0.74771338  0.92527061  0.70225081  1
