# generated using pymatgen
data_In86Cu29Se144
_symmetry_space_group_name_H-M   'P 1'
_cell_length_a   17.57563487
_cell_length_b   17.57798815
_cell_length_c   23.43960498
_cell_angle_alpha   89.98398503
_cell_angle_beta   89.97934925
_cell_angle_gamma   89.98775619
_symmetry_Int_Tables_number   1
_chemical_formula_structural   In86Cu29Se144
_chemical_formula_sum   'In86 Cu29 Se144'
_cell_volume   7241.53146949
_cell_formula_units_Z   1
loop_
 _symmetry_equiv_pos_site_id
 _symmetry_equiv_pos_as_xyz
  1  'x, y, z'
loop_
 _atom_site_type_symbol
 _atom_site_label
 _atom_site_symmetry_multiplicity
 _atom_site_fract_x
 _atom_site_fract_y
 _atom_site_fract_z
 _atom_site_occupancy
  In  In0  1  -0.01965169  0.16590799  0.12731330  1
  In  In1  1  -0.01742522  0.14090601  0.60606168  1
  In  In2  1  -0.00674358  0.50990947  0.12832115  1
  In  In3  1  -0.00839242  0.51025208  0.62102544  1
  In  In4  1  0.00172680  0.82737822  0.13001891  1
  In  In5  1  -0.00332041  0.85538224  0.62060696  1
  In  In6  1  0.32524576  0.16143582  0.13016089  1
  In  In7  1  0.31654319  0.16835443  0.61888254  1
  In  In8  1  0.34025993  0.49605563  0.12228244  1
  In  In9  1  0.35353455  0.50377007  0.61540922  1
  In  In10  1  0.33502640  0.84431639  0.12681076  1
  In  In11  1  0.35011223  0.82069898  0.62973847  1
  In  In12  1  0.67758570  0.15758061  0.13089752  1
  In  In13  1  0.67559137  0.15933687  0.63167580  1
  In  In14  1  0.67125667  0.49443177  0.12662277  1
  In  In15  1  0.66684435  0.50167877  0.62783879  1
  In  In16  1  0.66654045  0.83761960  0.13350096  1
  In  In17  1  0.66654738  0.83165086  0.61998381  1
  In  In18  1  0.16833805  -0.00352265  0.37446641  1
  In  In19  1  0.15894913  -0.00211894  0.87043636  1
  In  In20  1  0.15066124  0.32807041  0.37709161  1
  In  In21  1  0.16164861  0.32390067  0.87605307  1
  In  In22  1  0.16517052  0.67738926  0.37346136  1
  In  In23  1  0.18554679  0.66556146  0.87246459  1
  In  In24  1  0.49154651  -0.00642152  0.37142930  1
  In  In25  1  0.49898775  0.00108520  0.86291027  1
  In  In26  1  0.51787753  0.33499410  0.37265939  1
  In  In27  1  0.52611605  0.33651505  0.87540704  1
  In  In28  1  0.51884292  0.64698649  0.39423249  1
  In  In29  1  0.49851185  0.66417410  0.87106416  1
  In  In30  1  0.83372466  0.00148343  0.37659854  1
  In  In31  1  0.83463658  0.00107637  0.86781247  1
  In  In32  1  0.82507963  0.34192562  0.38338454  1
  In  In33  1  0.80370815  0.35183790  0.90032964  1
  In  In34  1  0.82810859  0.66725892  0.37203913  1
  In  In35  1  0.81693539  0.66960946  0.87088467  1
  In  In36  1  0.00380670  0.15121959  0.38723770  1
  In  In37  1  -0.00665516  0.16111943  0.87424552  1
  In  In38  1  -0.01737843  0.49774881  0.37387821  1
  In  In39  1  -0.01180827  0.48879583  0.88030812  1
  In  In40  1  -0.00665408  0.83045838  0.37164970  1
  In  In41  1  -0.00170103  0.85231771  0.87474910  1
  In  In42  1  0.33659682  0.14911409  0.37769135  1
  In  In43  1  0.34325647  0.16528995  0.86747624  1
  In  In44  1  0.35452672  0.50159751  0.38279485  1
  In  In45  1  0.33982361  0.51629823  0.87312973  1
  In  In46  1  0.33317510  0.83888941  0.38170832  1
  In  In47  1  0.33136631  0.83311200  0.87115848  1
  In  In48  1  0.67536406  0.17433236  0.37115138  1
  In  In49  1  0.67408624  0.16791705  0.86910316  1
  In  In50  1  0.66320692  0.50388839  0.37273974  1
  In  In51  1  0.66265388  0.50191019  0.87838591  1
  In  In52  1  0.66716322  0.83349723  0.37550974  1
  In  In53  1  0.67028190  0.83266514  0.86537097  1
  In  In54  1  0.17342092  -0.01268256  0.13022381  1
  In  In55  1  0.15833035  0.00517552  0.62986800  1
  In  In56  1  0.16477960  0.33581077  0.12433130  1
  In  In57  1  0.17483891  0.31077889  0.62145293  1
  In  In58  1  0.15039451  0.67021534  0.12518209  1
  In  In59  1  0.16986807  0.68099735  0.62767680  1
  In  In60  1  0.50444672  -0.00426051  0.13390935  1
  In  In61  1  0.51248008  -0.01293776  0.62888311  1
  In  In62  1  0.51101867  0.35144524  0.11718350  1
  In  In63  1  0.50161224  0.35607106  0.62038924  1
  In  In64  1  0.51882072  0.65701154  0.13280667  1
  In  In65  1  0.50318088  0.66858144  0.62074303  1
  In  In66  1  0.82306174  0.01644312  0.13412076  1
  In  In67  1  0.83023974  -0.00208916  0.62022479  1
  In  In68  1  0.81699781  0.31397928  0.10888865  1
  In  In69  1  0.82453996  0.32427285  0.62143570  1
  In  In70  1  0.83440413  0.66085304  0.13216046  1
  In  In71  1  0.81977568  0.65570800  0.61581007  1
  In  In72  1  0.83554411  0.83686321  -0.00095730  1
  In  In73  1  0.15935373  0.50217314  0.00514764  1
  In  In74  1  0.50118399  0.16892289  0.49868064  1
  In  In75  1  0.34248251  0.32377589  0.25839379  1
  In  In76  1  0.15749495  0.16579813  -0.00683735  1
  In  In77  1  0.33768756  0.67147935  0.25795333  1
  In  In78  1  -0.00092214  0.67719062  0.74770861  1
  In  In79  1  0.16543574  0.83719821  0.49953017  1
  In  In80  1  -0.00444051  0.32829526  0.75414345  1
  In  In81  1  0.50587013  0.16841592  -0.00427975  1
  In  In82  1  0.50523948  0.83275857  0.01141606  1
  In  In83  1  0.16644003  0.49211579  0.50264011  1
  In  In84  1  -0.00914710  0.33010334  0.24605277  1
  In  In85  1  0.34283626  0.33473206  0.74096644  1
  Cu  Cu86  1  0.50168749  0.16160757  0.74577877  1
  Cu  Cu87  1  0.50861191  0.50521643  0.74842428  1
  Cu  Cu88  1  0.66479437  0.34260518  0.50146276  1
  Cu  Cu89  1  0.66623759  0.66170852  0.00119611  1
  Cu  Cu90  1  0.16790133  0.50679740  0.24655095  1
  Cu  Cu91  1  0.33785447  0.67169168  -0.00453842  1
  Cu  Cu92  1  0.83317907  0.16697552  0.25482453  1
  Cu  Cu93  1  -0.00899463  0.66556914  0.49425721  1
  Cu  Cu94  1  0.82951474  0.83630195  0.74302924  1
  Cu  Cu95  1  0.82358253  0.50155733  0.25223164  1
  Cu  Cu96  1  0.83185629  0.16547840  0.74738223  1
  Cu  Cu97  1  0.16049690  0.15957487  0.74575089  1
  Cu  Cu98  1  0.50228444  0.83478808  0.25516118  1
  Cu  Cu99  1  0.50508485  0.16681496  0.25161987  1
  Cu  Cu100  1  0.00328864  0.67360439  0.00208643  1
  Cu  Cu101  1  -0.00481328  0.32693334  0.50009897  1
  Cu  Cu102  1  0.82459207  0.49745126  0.75233818  1
  Cu  Cu103  1  0.33420165  0.34090892  -0.00139894  1
  Cu  Cu104  1  0.83197751  0.83447298  0.25344551  1
  Cu  Cu105  1  0.66976063  0.66735495  0.49887650  1
  Cu  Cu106  1  0.33286418  -0.00239885  0.50261863  1
  Cu  Cu107  1  0.50167592  0.82850168  0.74669391  1
  Cu  Cu108  1  0.16086199  0.83607708  0.25331664  1
  Cu  Cu109  1  0.17757769  0.49891886  0.74899391  1
  Cu  Cu110  1  0.17357998  0.83974904  0.74843328  1
  Cu  Cu111  1  0.33480027  -0.00339180  0.00141977  1
  Cu  Cu112  1  0.66783541  -0.00343055  0.49948572  1
  Cu  Cu113  1  0.00188617  -0.00117240  0.00089768  1
  Cu  Cu114  1  0.16398484  0.15156994  0.25239151  1
  Se  Se115  1  0.08143819  0.07759793  0.06368096  1
  Se  Se116  1  0.09948226  0.09051626  0.55229366  1
  Se  Se117  1  0.06788300  0.40889120  0.05980076  1
  Se  Se118  1  0.07391708  0.40421055  0.56499648  1
  Se  Se119  1  0.08537702  0.75925092  0.05186350  1
  Se  Se120  1  0.06976376  0.74385575  0.55725107  1
  Se  Se121  1  0.41397085  0.07878292  0.05969641  1
  Se  Se122  1  0.41643592  0.07691096  0.56232253  1
  Se  Se123  1  0.42017044  0.42366961  0.04746163  1
  Se  Se124  1  0.40765862  0.40538247  0.54567762  1
  Se  Se125  1  0.41411028  0.73889653  0.06742214  1
  Se  Se126  1  0.41843288  0.74787194  0.55086582  1
  Se  Se127  1  0.75821824  0.08952849  0.05318149  1
  Se  Se128  1  0.74625060  0.08484858  0.55248920  1
  Se  Se129  1  0.76696974  0.43149678  0.05619784  1
  Se  Se130  1  0.75115258  0.42054033  0.55757352  1
  Se  Se131  1  0.74369857  0.74744849  0.05952705  1
  Se  Se132  1  0.75367012  0.75365767  0.54964367  1
  Se  Se133  1  0.25586738  0.25580626  0.05437677  1
  Se  Se134  1  0.25995104  0.25684719  0.54259650  1
  Se  Se135  1  0.25567708  0.59449051  0.06011662  1
  Se  Se136  1  0.24968372  0.59016717  0.56001527  1
  Se  Se137  1  0.25004751  0.91331521  0.05228974  1
  Se  Se138  1  0.25611459  0.91727259  0.56632770  1
  Se  Se139  1  0.59362438  0.25099752  0.06030691  1
  Se  Se140  1  0.59020763  0.25567589  0.56221790  1
  Se  Se141  1  0.58550506  0.57758964  0.05536174  1
  Se  Se142  1  0.58842787  0.58273781  0.55500052  1
  Se  Se143  1  0.59810708  0.93118832  0.05831665  1
  Se  Se144  1  0.58177066  0.91279686  0.54920600  1
  Se  Se145  1  0.91901142  0.24434600  0.04899413  1
  Se  Se146  1  0.90819703  0.24555600  0.55140885  1
  Se  Se147  1  0.91853925  0.59299870  0.05522143  1
  Se  Se148  1  0.90947660  0.57940226  0.54652559  1
  Se  Se149  1  0.91951577  0.92457667  0.06440775  1
  Se  Se150  1  0.91893774  0.92808271  0.54731920  1
  Se  Se151  1  0.08297051  0.24478603  0.45131297  1
  Se  Se152  1  0.06276024  0.26299390  0.94524690  1
  Se  Se153  1  0.07837898  0.58557004  0.43959883  1
  Se  Se154  1  0.07783656  0.59230001  0.93661628  1
  Se  Se155  1  0.07098511  0.92296662  0.44329877  1
  Se  Se156  1  0.08778585  0.91826632  0.94800909  1
  Se  Se157  1  0.41485694  0.25496824  0.43330950  1
  Se  Se158  1  0.41174793  0.26153611  0.93689619  1
  Se  Se159  1  0.41077487  0.59115059  0.45691730  1
  Se  Se160  1  0.42272531  0.58548749  0.94794573  1
  Se  Se161  1  0.41945719  0.91746110  0.45035627  1
  Se  Se162  1  0.41960414  0.91919081  0.94298542  1
  Se  Se163  1  0.74417199  0.25341549  0.44968065  1
  Se  Se164  1  0.75036526  0.23297259  0.94947114  1
  Se  Se165  1  0.74985134  0.58222167  0.44280661  1
  Se  Se166  1  0.75271881  0.58441361  0.94566887  1
  Se  Se167  1  0.75157064  0.91460825  0.44470899  1
  Se  Se168  1  0.74246743  0.92113954  0.93912330  1
  Se  Se169  1  0.24843179  0.07698858  0.44779900  1
  Se  Se170  1  0.26027640  0.08067971  0.94016696  1
  Se  Se171  1  0.25232968  0.40990866  0.43421755  1
  Se  Se172  1  0.25033448  0.41694895  0.93763295  1
  Se  Se173  1  0.25722122  0.73970275  0.44805168  1
  Se  Se174  1  0.25198172  0.75397983  0.94576951  1
  Se  Se175  1  0.58869486  0.07833165  0.43765980  1
  Se  Se176  1  0.58754356  0.07300989  0.93621708  1
  Se  Se177  1  0.58127806  0.42314771  0.44712628  1
  Se  Se178  1  0.59281127  0.41421753  0.95172608  1
  Se  Se179  1  0.58573219  0.75539209  0.44986779  1
  Se  Se180  1  0.59015789  0.74798644  0.94269605  1
  Se  Se181  1  0.89890673  0.09332794  0.44924078  1
  Se  Se182  1  0.91681729  0.07425775  0.94342403  1
  Se  Se183  1  0.91574764  0.41801446  0.45140967  1
  Se  Se184  1  0.91028135  0.42113284  0.95562822  1
  Se  Se185  1  0.91066395  0.75115561  0.44199727  1
  Se  Se186  1  0.92260978  0.74556014  0.93520641  1
  Se  Se187  1  0.23967979  0.23835878  0.31092894  1
  Se  Se188  1  0.24294552  0.24590603  0.80098567  1
  Se  Se189  1  0.24803345  0.57385130  0.31461055  1
  Se  Se190  1  0.25974972  0.58693725  0.79680156  1
  Se  Se191  1  0.25095837  0.91146102  0.30704049  1
  Se  Se192  1  0.25310065  0.92365505  0.80507615  1
  Se  Se193  1  0.59029237  0.25212477  0.29953138  1
  Se  Se194  1  0.58316036  0.24477844  0.80097938  1
  Se  Se195  1  0.57899481  0.58830090  0.30617560  1
  Se  Se196  1  0.58944170  0.58765027  0.80482749  1
  Se  Se197  1  0.58625520  0.92040983  0.30591569  1
  Se  Se198  1  0.58373409  0.91440557  0.79946860  1
  Se  Se199  1  0.91242597  0.24647534  0.31722703  1
  Se  Se200  1  0.89976573  0.24836706  0.81435320  1
  Se  Se201  1  0.91280467  0.58349058  0.30173428  1
  Se  Se202  1  0.91314388  0.57838018  0.80665438  1
  Se  Se203  1  0.91538857  0.91932025  0.30467260  1
  Se  Se204  1  0.91538627  0.91608597  0.79768666  1
  Se  Se205  1  0.07783389  0.07662086  0.30854448  1
  Se  Se206  1  0.07654972  0.08297842  0.80366840  1
  Se  Se207  1  0.08484374  0.42417031  0.30400232  1
  Se  Se208  1  0.09209516  0.42557389  0.80822507  1
  Se  Se209  1  0.07875931  0.74802075  0.30258108  1
  Se  Se210  1  0.09271757  0.75939429  0.81116141  1
  Se  Se211  1  0.41720836  0.08310956  0.30027555  1
  Se  Se212  1  0.41199519  0.08053307  0.79449899  1
  Se  Se213  1  0.43100180  0.42561051  0.30420963  1
  Se  Se214  1  0.42625100  0.42237210  0.80869134  1
  Se  Se215  1  0.42895350  0.75451938  0.31945848  1
  Se  Se216  1  0.41701744  0.75048802  0.80483739  1
  Se  Se217  1  0.74841300  0.08078736  0.30472889  1
  Se  Se218  1  0.74791083  0.07877344  0.79879821  1
  Se  Se219  1  0.74649500  0.41401551  0.30702626  1
  Se  Se220  1  0.74674461  0.41490609  0.81016925  1
  Se  Se221  1  0.74564273  0.75011505  0.30305043  1
  Se  Se222  1  0.74795148  0.74899473  0.79410547  1
  Se  Se223  1  0.25312658  0.07415649  0.19970863  1
  Se  Se224  1  0.25210240  0.08284285  0.69531414  1
  Se  Se225  1  0.24865675  0.41879278  0.19540169  1
  Se  Se226  1  0.24685166  0.42010132  0.68231458  1
  Se  Se227  1  0.24348098  0.75444388  0.19313812  1
  Se  Se228  1  0.25490117  0.75085076  0.69998531  1
  Se  Se229  1  0.58756277  0.08131959  0.19871689  1
  Se  Se230  1  0.58784060  0.07721709  0.69669525  1
  Se  Se231  1  0.58540375  0.41583327  0.19649505  1
  Se  Se232  1  0.58726656  0.41479675  0.69857239  1
  Se  Se233  1  0.58470898  0.75243178  0.20033590  1
  Se  Se234  1  0.58630204  0.74847838  0.69159880  1
  Se  Se235  1  0.91867533  0.08219116  0.20490012  1
  Se  Se236  1  0.91321230  0.08128639  0.69239013  1
  Se  Se237  1  0.90128228  0.42084733  0.18900894  1
  Se  Se238  1  0.91045038  0.42324953  0.69224157  1
  Se  Se239  1  0.91425592  0.74994090  0.19798009  1
  Se  Se240  1  0.90921851  0.75598076  0.68144395  1
  Se  Se241  1  0.09153639  0.23900928  0.19187244  1
  Se  Se242  1  0.07706835  0.23871644  0.68752336  1
  Se  Se243  1  0.07858300  0.58759816  0.19891350  1
  Se  Se244  1  0.09015616  0.57822542  0.69233631  1
  Se  Se245  1  0.07873753  0.91792708  0.19781386  1
  Se  Se246  1  0.08143093  0.91674608  0.69870391  1
  Se  Se247  1  0.42703629  0.24489803  0.18559976  1
  Se  Se248  1  0.42766638  0.24200233  0.68050101  1
  Se  Se249  1  0.42041292  0.57630616  0.19579039  1
  Se  Se250  1  0.42217494  0.58282901  0.69277814  1
  Se  Se251  1  0.41667764  0.91606995  0.20101366  1
  Se  Se252  1  0.41816652  0.91657861  0.69720538  1
  Se  Se253  1  0.75439795  0.25110449  0.19703217  1
  Se  Se254  1  0.74727591  0.25381975  0.69959765  1
  Se  Se255  1  0.74234414  0.58712323  0.19847052  1
  Se  Se256  1  0.74902299  0.58625392  0.69777702  1
  Se  Se257  1  0.75094635  0.92017463  0.19950836  1
  Se  Se258  1  0.74509336  0.91884477  0.69003167  1
