# generated using pymatgen
data_In86Cu29Se144
_symmetry_space_group_name_H-M   'P 1'
_cell_length_a   17.57634209
_cell_length_b   17.57450797
_cell_length_c   23.43979049
_cell_angle_alpha   90.03169354
_cell_angle_beta   90.01552092
_cell_angle_gamma   89.98047295
_symmetry_Int_Tables_number   1
_chemical_formula_structural   In86Cu29Se144
_chemical_formula_sum   'In86 Cu29 Se144'
_cell_volume   7240.44550894
_cell_formula_units_Z   1
loop_
 _symmetry_equiv_pos_site_id
 _symmetry_equiv_pos_as_xyz
  1  'x, y, z'
loop_
 _atom_site_type_symbol
 _atom_site_label
 _atom_site_symmetry_multiplicity
 _atom_site_fract_x
 _atom_site_fract_y
 _atom_site_fract_z
 _atom_site_occupancy
  In  In0  1  0.00066174  0.16426598  0.12053688  1
  In  In1  1  0.00583158  0.16930777  0.62076724  1
  In  In2  1  0.01426555  0.49681750  0.10885758  1
  In  In3  1  -0.00500680  0.49263672  0.64253193  1
  In  In4  1  -0.00605168  0.84491396  0.12975615  1
  In  In5  1  -0.01343842  0.84105008  0.62558734  1
  In  In6  1  0.33203529  0.16323880  0.12641485  1
  In  In7  1  0.33132940  0.16187064  0.62705530  1
  In  In8  1  0.31676887  0.50568663  0.12539548  1
  In  In9  1  0.31936899  0.49757929  0.63209537  1
  In  In10  1  0.32720614  0.83340392  0.13266446  1
  In  In11  1  0.34903554  0.83536798  0.62214289  1
  In  In12  1  0.67907466  0.18082439  0.11941363  1
  In  In13  1  0.65658609  0.15738999  0.61822002  1
  In  In14  1  0.66522181  0.47934410  0.12350510  1
  In  In15  1  0.67426851  0.50879377  0.62813666  1
  In  In16  1  0.67659978  0.82855226  0.12674263  1
  In  In17  1  0.68008836  0.83906068  0.61755865  1
  In  In18  1  0.17688409  0.01993034  0.35880991  1
  In  In19  1  0.18016433  0.00198419  0.87213929  1
  In  In20  1  0.16568583  0.30904586  0.36748367  1
  In  In21  1  0.16604989  0.33191956  0.88489265  1
  In  In22  1  0.16230496  0.66484031  0.36446635  1
  In  In23  1  0.15210263  0.67446654  0.87586448  1
  In  In24  1  0.50106116  0.00750397  0.38233832  1
  In  In25  1  0.50199433  0.00728414  0.87059855  1
  In  In26  1  0.48595423  0.32279112  0.36851693  1
  In  In27  1  0.48077058  0.33021862  0.87269784  1
  In  In28  1  0.49937123  0.68106545  0.37513322  1
  In  In29  1  0.50272843  0.65677374  0.87556963  1
  In  In30  1  0.83227123  0.00332092  0.37713895  1
  In  In31  1  0.82870894  0.01033141  0.88001185  1
  In  In32  1  0.82308955  0.33845635  0.36939326  1
  In  In33  1  0.84537362  0.33310812  0.88153785  1
  In  In34  1  0.84035459  0.66799743  0.37203066  1
  In  In35  1  0.85273168  0.65199719  0.88925527  1
  In  In36  1  0.00423565  0.15912569  0.37669291  1
  In  In37  1  -0.00602230  0.18507521  0.89319134  1
  In  In38  1  -0.01247014  0.50620273  0.36728791  1
  In  In39  1  -0.00285677  0.50071416  0.88002380  1
  In  In40  1  -0.00472338  0.83215001  0.37236205  1
  In  In41  1  0.00502051  0.81190641  0.87050506  1
  In  In42  1  0.33767405  0.16374059  0.37420428  1
  In  In43  1  0.32917307  0.16723227  0.88080270  1
  In  In44  1  0.32464015  0.49208247  0.36537889  1
  In  In45  1  0.33913973  0.48656321  0.87824340  1
  In  In46  1  0.34189307  0.84604227  0.37014003  1
  In  In47  1  0.31809731  0.84564474  0.87058727  1
  In  In48  1  0.66707453  0.16954588  0.37706005  1
  In  In49  1  0.67244686  0.15539843  0.87808205  1
  In  In50  1  0.67615814  0.49559180  0.36940798  1
  In  In51  1  0.67806679  0.50617021  0.87771945  1
  In  In52  1  0.66489673  0.83223913  0.38937083  1
  In  In53  1  0.66687537  0.85052209  0.87235324  1
  In  In54  1  0.15680351  0.01256024  0.14194172  1
  In  In55  1  0.16242129  0.01765820  0.62677932  1
  In  In56  1  0.16647614  0.33704151  0.11633661  1
  In  In57  1  0.17215250  0.31924855  0.63480686  1
  In  In58  1  0.17290361  0.65413874  0.12592278  1
  In  In59  1  0.16127009  0.65532504  0.62912222  1
  In  In60  1  0.48331197  0.00663053  0.13120774  1
  In  In61  1  0.50103733  0.00157777  0.62543313  1
  In  In62  1  0.51032863  0.31961079  0.12959042  1
  In  In63  1  0.50029656  0.31570591  0.62605839  1
  In  In64  1  0.48670893  0.65851773  0.12532636  1
  In  In65  1  0.49874757  0.67387372  0.61654086  1
  In  In66  1  0.85485968  0.02395021  0.11410061  1
  In  In67  1  0.82525271  -0.00792808  0.62004365  1
  In  In68  1  0.83398071  0.32189512  0.11064464  1
  In  In69  1  0.84928650  0.33299679  0.62826277  1
  In  In70  1  0.84337443  0.67710546  0.11666477  1
  In  In71  1  0.83562064  0.67788188  0.62835496  1
  In  In72  1  0.67410457  0.32615514  0.75921459  1
  In  In73  1  0.67923324  0.67295538  0.74312343  1
  In  In74  1  0.00289101  0.33339286  0.23841998  1
  In  In75  1  0.50082375  0.49650925  0.00048012  1
  In  In76  1  0.16458669  0.83631750  -0.00316962  1
  In  In77  1  0.00450899  0.00207959  0.75178328  1
  In  In78  1  0.16396938  0.84116394  0.49711007  1
  In  In79  1  0.83151674  0.50220841  0.49780274  1
  In  In80  1  0.49888130  0.49445539  0.50331268  1
  In  In81  1  0.66884453  0.00330696  0.25653673  1
  In  In82  1  0.66334827  0.66289770  0.25410787  1
  In  In83  1  0.32996209  0.66965350  0.75195997  1
  In  In84  1  0.16471544  0.49323569  0.50410895  1
  In  In85  1  0.50084833  0.83763937  0.00893856  1
  Cu  Cu86  1  0.66916999  0.00353319  0.50084992  1
  Cu  Cu87  1  0.48735717  0.16201448  0.74872566  1
  Cu  Cu88  1  0.66862764  0.00296061  -0.00012346  1
  Cu  Cu89  1  0.00050016  -0.00143664  0.00225008  1
  Cu  Cu90  1  0.33100343  0.31924166  0.50125962  1
  Cu  Cu91  1  0.00056271  0.66775096  0.00121480  1
  Cu  Cu92  1  0.50129404  0.49209359  0.74750529  1
  Cu  Cu93  1  0.15921354  0.82707481  0.24985461  1
  Cu  Cu94  1  0.83784095  0.84291738  0.24937868  1
  Cu  Cu95  1  0.48963803  0.49359085  0.24345355  1
  Cu  Cu96  1  0.49800389  0.84156270  0.74957176  1
  Cu  Cu97  1  0.83269345  0.16368608  0.75439542  1
  Cu  Cu98  1  -0.00436705  0.00196188  0.49785736  1
  Cu  Cu99  1  0.00285742  0.32332547  0.50149033  1
  Cu  Cu100  1  0.16007568  0.49443939  0.75816978  1
  Cu  Cu101  1  0.33068207  0.00599986  0.00361212  1
  Cu  Cu102  1  0.66636930  0.32744812  0.49732155  1
  Cu  Cu103  1  0.16240190  0.49779684  0.24263199  1
  Cu  Cu104  1  0.33926015  0.67380920  0.49293090  1
  Cu  Cu105  1  -0.00495853  0.67009071  0.49845284  1
  Cu  Cu106  1  0.83381673  0.83344102  0.75035514  1
  Cu  Cu107  1  0.50046534  0.16578505  0.25326014  1
  Cu  Cu108  1  0.33546162  0.32916382  0.00374900  1
  Cu  Cu109  1  0.67220837  0.67143701  -0.00000759  1
  Cu  Cu110  1  0.66810045  0.32712636  -0.00290876  1
  Cu  Cu111  1  0.16469004  0.17425500  0.75639209  1
  Cu  Cu112  1  0.49237383  0.83056797  0.25321449  1
  Cu  Cu113  1  0.33595703  0.00524724  0.49708467  1
  Cu  Cu114  1  0.83181173  0.50306103  0.24211905  1
  Se  Se115  1  0.08809981  0.07646109  0.05614629  1
  Se  Se116  1  0.08248632  0.08407073  0.54937589  1
  Se  Se117  1  0.07422960  0.39582876  0.04051970  1
  Se  Se118  1  0.07432805  0.40758846  0.56535502  1
  Se  Se119  1  0.07939199  0.74933311  0.06277415  1
  Se  Se120  1  0.07884470  0.74538562  0.55930453  1
  Se  Se121  1  0.41994138  0.08737562  0.05270921  1
  Se  Se122  1  0.41747529  0.08503875  0.55650734  1
  Se  Se123  1  0.41548491  0.41017987  0.06517584  1
  Se  Se124  1  0.40239108  0.40808056  0.56219574  1
  Se  Se125  1  0.40316751  0.74443868  0.05685779  1
  Se  Se126  1  0.42180134  0.75663036  0.54557331  1
  Se  Se127  1  0.75247986  0.08918146  0.05100622  1
  Se  Se128  1  0.75399477  0.08708845  0.55321958  1
  Se  Se129  1  0.74961668  0.41432789  0.04805768  1
  Se  Se130  1  0.74356533  0.40879024  0.55954245  1
  Se  Se131  1  0.75464799  0.75843632  0.04986201  1
  Se  Se132  1  0.75064765  0.74107458  0.55453842  1
  Se  Se133  1  0.25164914  0.24548906  0.05551802  1
  Se  Se134  1  0.24429038  0.24283779  0.55716657  1
  Se  Se135  1  0.24301476  0.57753180  0.04799531  1
  Se  Se136  1  0.26027867  0.59359446  0.55411468  1
  Se  Se137  1  0.24989243  0.92385107  0.06185263  1
  Se  Se138  1  0.25528613  0.92662611  0.55998511  1
  Se  Se139  1  0.58213513  0.24633663  0.04980170  1
  Se  Se140  1  0.57935922  0.24695768  0.54950375  1
  Se  Se141  1  0.59185847  0.59063737  0.06052408  1
  Se  Se142  1  0.59421266  0.58890290  0.55471748  1
  Se  Se143  1  0.59139457  0.92941629  0.06717648  1
  Se  Se144  1  0.58654624  0.92004817  0.55633579  1
  Se  Se145  1  0.93227956  0.25240243  0.04792285  1
  Se  Se146  1  0.91299168  0.24580083  0.55341910  1
  Se  Se147  1  0.91693666  0.58190164  0.05195193  1
  Se  Se148  1  0.92654879  0.58254237  0.56167265  1
  Se  Se149  1  0.91437780  0.91506257  0.05227364  1
  Se  Se150  1  0.91314247  0.91555743  0.54910009  1
  Se  Se151  1  0.08687278  0.24374829  0.44666868  1
  Se  Se152  1  0.08139331  0.26250173  0.96193779  1
  Se  Se153  1  0.07572404  0.58606372  0.44161104  1
  Se  Se154  1  0.08493122  0.58598684  0.94782612  1
  Se  Se155  1  0.08032394  0.93045751  0.43407690  1
  Se  Se156  1  0.07473217  0.92379797  0.93385893  1
  Se  Se157  1  0.42010315  0.24360106  0.44776019  1
  Se  Se158  1  0.41866246  0.24662136  0.94983666  1
  Se  Se159  1  0.40932870  0.57950263  0.43724853  1
  Se  Se160  1  0.40829048  0.59089682  0.94585200  1
  Se  Se161  1  0.41908065  0.91758313  0.44761000  1
  Se  Se162  1  0.40943462  0.92185306  0.94381991  1
  Se  Se163  1  0.75577515  0.25233011  0.44370010  1
  Se  Se164  1  0.75208303  0.24735379  0.94113608  1
  Se  Se165  1  0.74052939  0.59366402  0.43956723  1
  Se  Se166  1  0.75398194  0.58086917  0.95308456  1
  Se  Se167  1  0.75287425  0.91967768  0.44819673  1
  Se  Se168  1  0.75070585  0.91846189  0.94733965  1
  Se  Se169  1  0.24966672  0.08329076  0.44276361  1
  Se  Se170  1  0.24358898  0.08530208  0.95006271  1
  Se  Se171  1  0.25238223  0.40397508  0.44228204  1
  Se  Se172  1  0.25511081  0.41605910  0.95107460  1
  Se  Se173  1  0.24973164  0.74674140  0.43622462  1
  Se  Se174  1  0.25847689  0.74522779  0.94042235  1
  Se  Se175  1  0.58669415  0.08856412  0.44833302  1
  Se  Se176  1  0.58076517  0.08165991  0.94646172  1
  Se  Se177  1  0.58797712  0.41022040  0.43766609  1
  Se  Se178  1  0.58854400  0.40769143  0.93513554  1
  Se  Se179  1  0.58054868  0.74574335  0.45078386  1
  Se  Se180  1  0.58746277  0.74778515  0.94121167  1
  Se  Se181  1  0.91288596  0.08830890  0.44663566  1
  Se  Se182  1  0.91619051  0.08427389  0.95025818  1
  Se  Se183  1  0.92655748  0.40933930  0.44203597  1
  Se  Se184  1  0.91429401  0.42294911  0.95125419  1
  Se  Se185  1  0.91305291  0.75245645  0.44503492  1
  Se  Se186  1  0.91935350  0.75681299  0.95061662  1
  Se  Se187  1  0.26507421  0.25088075  0.30202880  1
  Se  Se188  1  0.24944409  0.25421023  0.81206554  1
  Se  Se189  1  0.24554422  0.58017161  0.29905765  1
  Se  Se190  1  0.24644403  0.57607243  0.81393064  1
  Se  Se191  1  0.24334982  0.91004265  0.30350038  1
  Se  Se192  1  0.24658454  0.92096628  0.79527817  1
  Se  Se193  1  0.58468436  0.24955594  0.30586085  1
  Se  Se194  1  0.57204717  0.23935559  0.81022826  1
  Se  Se195  1  0.56804444  0.57116601  0.30964171  1
  Se  Se196  1  0.58376772  0.57580807  0.80161650  1
  Se  Se197  1  0.57905247  0.90652871  0.31151984  1
  Se  Se198  1  0.58396642  0.92430980  0.80065840  1
  Se  Se199  1  0.91907035  0.25451781  0.30996217  1
  Se  Se200  1  0.91617555  0.24427496  0.80917695  1
  Se  Se201  1  0.91267389  0.58859131  0.29509682  1
  Se  Se202  1  0.93093792  0.59543303  0.80876572  1
  Se  Se203  1  0.91671369  0.92384627  0.30720431  1
  Se  Se204  1  0.91340896  0.91315026  0.81285994  1
  Se  Se205  1  0.07831872  0.08992868  0.29686477  1
  Se  Se206  1  0.08237995  0.09621512  0.81732289  1
  Se  Se207  1  0.08755574  0.42120145  0.31052233  1
  Se  Se208  1  0.08124751  0.41167038  0.81457467  1
  Se  Se209  1  0.07229016  0.74559648  0.30193692  1
  Se  Se210  1  0.09991167  0.76072308  0.79678590  1
  Se  Se211  1  0.42131878  0.07742149  0.30571474  1
  Se  Se212  1  0.40643959  0.08232692  0.80751872  1
  Se  Se213  1  0.40919187  0.40936342  0.29921687  1
  Se  Se214  1  0.41169391  0.41460614  0.79791395  1
  Se  Se215  1  0.40798959  0.74500003  0.30338289  1
  Se  Se216  1  0.42605012  0.75761013  0.81209034  1
  Se  Se217  1  0.76235747  0.09927310  0.30494763  1
  Se  Se218  1  0.74727859  0.07753810  0.80148879  1
  Se  Se219  1  0.74907186  0.41796690  0.29355621  1
  Se  Se220  1  0.76309863  0.42500441  0.80877650  1
  Se  Se221  1  0.75195419  0.76264233  0.30675153  1
  Se  Se222  1  0.75808731  0.75402772  0.81613019  1
  Se  Se223  1  0.27205675  0.06471528  0.19632142  1
  Se  Se224  1  0.24484133  0.08863953  0.70116682  1
  Se  Se225  1  0.24567708  0.41172958  0.19258628  1
  Se  Se226  1  0.24464688  0.41411180  0.70208990  1
  Se  Se227  1  0.24408961  0.74527576  0.19603015  1
  Se  Se228  1  0.24769483  0.75537435  0.68433328  1
  Se  Se229  1  0.58337571  0.09061950  0.19034841  1
  Se  Se230  1  0.58000693  0.08680714  0.69672265  1
  Se  Se231  1  0.58240335  0.41246886  0.19905679  1
  Se  Se232  1  0.58583331  0.41529776  0.68943209  1
  Se  Se233  1  0.57305295  0.75412165  0.19118218  1
  Se  Se234  1  0.57727421  0.75818554  0.69021490  1
  Se  Se235  1  0.92587113  0.08573888  0.19649689  1
  Se  Se236  1  0.91043825  0.08492795  0.68939169  1
  Se  Se237  1  0.91265045  0.42496826  0.18064327  1
  Se  Se238  1  0.91743743  0.40486140  0.70759084  1
  Se  Se239  1  0.91391239  0.75300167  0.19560826  1
  Se  Se240  1  0.92127137  0.75202230  0.69980168  1
  Se  Se241  1  0.09816983  0.24073907  0.18895944  1
  Se  Se242  1  0.07506505  0.24802503  0.69970529  1
  Se  Se243  1  0.07686603  0.57837091  0.18973462  1
  Se  Se244  1  0.08246658  0.58142857  0.70288807  1
  Se  Se245  1  0.07755581  0.91774573  0.20253318  1
  Se  Se246  1  0.09021814  0.91216825  0.68815574  1
  Se  Se247  1  0.41744720  0.24630157  0.19593524  1
  Se  Se248  1  0.40916025  0.25148512  0.69727106  1
  Se  Se249  1  0.40641258  0.58147431  0.19618231  1
  Se  Se250  1  0.42502841  0.57970284  0.68938494  1
  Se  Se251  1  0.41232042  0.91581123  0.19987515  1
  Se  Se252  1  0.41370915  0.92287174  0.69634149  1
  Se  Se253  1  0.75624387  0.25844065  0.19137735  1
  Se  Se254  1  0.75364046  0.24019990  0.68911702  1
  Se  Se255  1  0.74873468  0.58368976  0.18327204  1
  Se  Se256  1  0.77269264  0.57196395  0.69750347  1
  Se  Se257  1  0.75853278  0.92214244  0.18890038  1
  Se  Se258  1  0.74947195  0.91593491  0.69715356  1
