# generated using pymatgen
data_In86Cu29Se144
_symmetry_space_group_name_H-M   'P 1'
_cell_length_a   17.57737372
_cell_length_b   17.57764971
_cell_length_c   23.43866897
_cell_angle_alpha   90.03502277
_cell_angle_beta   89.99475301
_cell_angle_gamma   90.00224832
_symmetry_Int_Tables_number   1
_chemical_formula_structural   In86Cu29Se144
_chemical_formula_sum   'In86 Cu29 Se144'
_cell_volume   7241.81880375
_cell_formula_units_Z   1
loop_
 _symmetry_equiv_pos_site_id
 _symmetry_equiv_pos_as_xyz
  1  'x, y, z'
loop_
 _atom_site_type_symbol
 _atom_site_label
 _atom_site_symmetry_multiplicity
 _atom_site_fract_x
 _atom_site_fract_y
 _atom_site_fract_z
 _atom_site_occupancy
  In  In0  1  0.01187980  0.15457216  0.13960169  1
  In  In1  1  0.01104129  0.18223030  0.60929067  1
  In  In2  1  -0.01123756  0.49198439  0.12584552  1
  In  In3  1  -0.00806358  0.49073956  0.62690654  1
  In  In4  1  0.01183417  0.83576040  0.12748038  1
  In  In5  1  0.02033738  0.83496494  0.61467240  1
  In  In6  1  0.33339343  0.16681595  0.12514259  1
  In  In7  1  0.33305839  0.16594369  0.62400312  1
  In  In8  1  0.33865212  0.48370010  0.13662492  1
  In  In9  1  0.33162086  0.50362241  0.63596134  1
  In  In10  1  0.33797138  0.84124175  0.12979979  1
  In  In11  1  0.33405996  0.83285262  0.62378197  1
  In  In12  1  0.65365242  0.17331239  0.12062161  1
  In  In13  1  0.67002329  0.17040057  0.61782819  1
  In  In14  1  0.67070324  0.48994719  0.11458159  1
  In  In15  1  0.64913119  0.49479103  0.62758631  1
  In  In16  1  0.65397470  0.84611190  0.13285772  1
  In  In17  1  0.66001149  0.85548187  0.62325016  1
  In  In18  1  0.17148134  0.00131018  0.37837000  1
  In  In19  1  0.18637183  -0.01775304  0.88994782  1
  In  In20  1  0.15014703  0.31260269  0.35827709  1
  In  In21  1  0.15763046  0.32380847  0.87010922  1
  In  In22  1  0.18551465  0.66403350  0.37454489  1
  In  In23  1  0.18305528  0.67006574  0.87422942  1
  In  In24  1  0.50073743  0.00067771  0.36874956  1
  In  In25  1  0.48226686  0.01360478  0.88697241  1
  In  In26  1  0.48516753  0.33518145  0.37574381  1
  In  In27  1  0.49762280  0.33094493  0.87537209  1
  In  In28  1  0.48945274  0.68440937  0.37594604  1
  In  In29  1  0.48808185  0.67381195  0.88679595  1
  In  In30  1  0.85707781  0.03613130  0.34208637  1
  In  In31  1  0.83937505  -0.00168392  0.87807754  1
  In  In32  1  0.83573223  0.31733599  0.37048273  1
  In  In33  1  0.84086934  0.33988606  0.87267427  1
  In  In34  1  0.84720420  0.66507903  0.37209219  1
  In  In35  1  0.81640340  0.65865271  0.88074879  1
  In  In36  1  0.00642774  0.17047240  0.37749287  1
  In  In37  1  0.00165428  0.17794545  0.87273386  1
  In  In38  1  0.00283082  0.47607422  0.35860316  1
  In  In39  1  0.00439842  0.48174131  0.87836700  1
  In  In40  1  0.00144700  0.85193396  0.37648936  1
  In  In41  1  0.01605351  0.83437929  0.87755145  1
  In  In42  1  0.33704800  0.16336698  0.37731879  1
  In  In43  1  0.32897813  0.16306925  0.87445325  1
  In  In44  1  0.31447227  0.49549382  0.35366880  1
  In  In45  1  0.34104083  0.50611145  0.87352265  1
  In  In46  1  0.33685331  0.83432900  0.37152807  1
  In  In47  1  0.33414365  0.83676710  0.87776712  1
  In  In48  1  0.67112619  0.15879534  0.37619946  1
  In  In49  1  0.64727279  0.16615271  0.87806115  1
  In  In50  1  0.66443425  0.49100115  0.37167375  1
  In  In51  1  0.67401958  0.48009343  0.89472883  1
  In  In52  1  0.64547524  0.84669786  0.37407193  1
  In  In53  1  0.65887472  0.81895863  0.87679398  1
  In  In54  1  0.17297962  0.00041708  0.13034159  1
  In  In55  1  0.17571018  0.00682255  0.61837074  1
  In  In56  1  0.17928343  0.32267000  0.13382116  1
  In  In57  1  0.16755475  0.32735855  0.62993295  1
  In  In58  1  0.16822715  0.68737105  0.11926978  1
  In  In59  1  0.18154270  0.67621533  0.62016573  1
  In  In60  1  0.49286050  0.00181483  0.12733786  1
  In  In61  1  0.48861595  -0.01035264  0.61266476  1
  In  In62  1  0.49660864  0.32274418  0.10991714  1
  In  In63  1  0.50546236  0.33173671  0.63409344  1
  In  In64  1  0.49535610  0.66225894  0.12290575  1
  In  In65  1  0.48219579  0.67043290  0.62758215  1
  In  In66  1  0.83021226  0.00811988  0.14471642  1
  In  In67  1  0.81962911  0.01482560  0.62020113  1
  In  In68  1  0.83552357  0.34226734  0.13120287  1
  In  In69  1  0.83929392  0.32030216  0.63391311  1
  In  In70  1  0.83567415  0.64967557  0.12258117  1
  In  In71  1  0.84493548  0.66575236  0.62369680  1
  In  In72  1  0.66582595  0.66734744  0.24295059  1
  In  In73  1  0.65768307  0.65877124  0.75290972  1
  In  In74  1  0.82979973  0.49086956  0.48689949  1
  In  In75  1  0.83143325  0.82902246  0.01080898  1
  In  In76  1  0.49089335  0.50570244  0.50450988  1
  In  In77  1  0.83168420  0.17192190  0.00675004  1
  In  In78  1  0.00402026  0.66583270  0.24903905  1
  In  In79  1  0.67007059  0.32655770  0.24451684  1
  In  In80  1  0.01556643  0.01358890  0.73499230  1
  In  In81  1  0.65929904  0.00571136  0.75115436  1
  In  In82  1  0.16234285  0.49334525  0.49296370  1
  In  In83  1  0.82286454  0.85146667  0.49480523  1
  In  In84  1  0.17041995  0.50289416  0.00028801  1
  In  In85  1  0.01425293  0.65578979  0.76130205  1
  Cu  Cu86  1  0.85324595  0.83298753  0.74937408  1
  Cu  Cu87  1  0.50131934  0.50051244  0.24737300  1
  Cu  Cu88  1  0.50150931  0.49490052  0.75899960  1
  Cu  Cu89  1  0.01138800  0.66713478  0.49583758  1
  Cu  Cu90  1  0.82720036  0.82884526  0.25201311  1
  Cu  Cu91  1  0.49276218  0.83725601  0.75445535  1
  Cu  Cu92  1  0.65828349  -0.00683456  0.00350227  1
  Cu  Cu93  1  0.66728559  0.68156593  0.49578860  1
  Cu  Cu94  1  0.49494464  0.16925350  0.24484097  1
  Cu  Cu95  1  0.82795297  0.48995939  0.75230632  1
  Cu  Cu96  1  0.16634255  0.49433029  0.75293196  1
  Cu  Cu97  1  0.82739847  0.17692096  0.74998434  1
  Cu  Cu98  1  0.32840056  0.32616409  0.50028598  1
  Cu  Cu99  1  0.00971668  0.00360010  0.00876937  1
  Cu  Cu100  1  -0.00264736  0.66429082  0.00396534  1
  Cu  Cu101  1  0.00325627  0.32889560  0.00141141  1
  Cu  Cu102  1  0.33180184  0.00140998  0.00666766  1
  Cu  Cu103  1  0.33801840  0.67344109  0.49507566  1
  Cu  Cu104  1  0.16898765  0.84083783  0.25085711  1
  Cu  Cu105  1  0.16869037  0.16175683  0.74744737  1
  Cu  Cu106  1  0.49278057  0.16646834  0.75040059  1
  Cu  Cu107  1  0.17543703  0.16214698  0.25398847  1
  Cu  Cu108  1  0.33296578  0.32927691  -0.00178909  1
  Cu  Cu109  1  0.33105942  0.67351369  0.00371517  1
  Cu  Cu110  1  0.66194432  0.00491388  0.49123442  1
  Cu  Cu111  1  0.33547309  0.00007274  0.49635480  1
  Cu  Cu112  1  0.66719494  0.32831215  0.50345811  1
  Cu  Cu113  1  -0.00092742  0.00667229  0.49131608  1
  Cu  Cu114  1  0.65769804  0.66273015  0.00189136  1
  Se  Se115  1  0.09156761  0.08768119  0.06085517  1
  Se  Se116  1  0.08378261  0.08139605  0.55074520  1
  Se  Se117  1  0.08564994  0.40927507  0.06095595  1
  Se  Se118  1  0.07502347  0.40802753  0.55750232  1
  Se  Se119  1  0.07874488  0.75635119  0.04786111  1
  Se  Se120  1  0.09749792  0.74882661  0.54619828  1
  Se  Se121  1  0.41800213  0.08723937  0.05456219  1
  Se  Se122  1  0.41523492  0.08689980  0.55095069  1
  Se  Se123  1  0.40946345  0.41726408  0.05322307  1
  Se  Se124  1  0.40488249  0.41052560  0.56213667  1
  Se  Se125  1  0.41536219  0.75335548  0.05862274  1
  Se  Se126  1  0.42018612  0.75449141  0.55064725  1
  Se  Se127  1  0.74638834  0.06975597  0.06084212  1
  Se  Se128  1  0.74663217  0.08891729  0.54345913  1
  Se  Se129  1  0.75769552  0.40571908  0.05218809  1
  Se  Se130  1  0.74374117  0.41535430  0.56170098  1
  Se  Se131  1  0.73589375  0.74046803  0.06800294  1
  Se  Se132  1  0.74794339  0.75183324  0.56214499  1
  Se  Se133  1  0.24964146  0.24923491  0.05422708  1
  Se  Se134  1  0.24468408  0.24761734  0.55637271  1
  Se  Se135  1  0.25782671  0.58756290  0.06461268  1
  Se  Se136  1  0.26118074  0.58185100  0.55158317  1
  Se  Se137  1  0.24890311  0.91536422  0.05802416  1
  Se  Se138  1  0.25491928  0.91683720  0.55295791  1
  Se  Se139  1  0.59630484  0.25999890  0.04442805  1
  Se  Se140  1  0.57660578  0.25299365  0.55652055  1
  Se  Se141  1  0.57920809  0.57678174  0.05669042  1
  Se  Se142  1  0.58929632  0.59873421  0.55801775  1
  Se  Se143  1  0.57313566  0.91351613  0.05638292  1
  Se  Se144  1  0.58196981  0.91741921  0.54329216  1
  Se  Se145  1  0.92970898  0.24999567  0.06752901  1
  Se  Se146  1  0.90126382  0.24459160  0.55327193  1
  Se  Se147  1  0.91637638  0.57427245  0.04970726  1
  Se  Se148  1  0.92518501  0.58434101  0.54881961  1
  Se  Se149  1  0.91847054  0.92801778  0.06507854  1
  Se  Se150  1  0.92179431  0.92853470  0.56020877  1
  Se  Se151  1  0.08622036  0.25634589  0.44591430  1
  Se  Se152  1  0.08577089  0.24583406  0.94839356  1
  Se  Se153  1  0.07424288  0.58337344  0.42874828  1
  Se  Se154  1  0.07799141  0.59110948  0.93720322  1
  Se  Se155  1  0.08749952  0.91827154  0.45010175  1
  Se  Se156  1  0.08503965  0.91390108  0.95434089  1
  Se  Se157  1  0.41870886  0.24845231  0.44898157  1
  Se  Se158  1  0.41400783  0.24466242  0.94290283  1
  Se  Se159  1  0.40416676  0.58136281  0.43391500  1
  Se  Se160  1  0.41013764  0.58275557  0.95271499  1
  Se  Se161  1  0.41778907  0.91912578  0.44047253  1
  Se  Se162  1  0.41416927  0.91581000  0.95191055  1
  Se  Se163  1  0.74655504  0.25113774  0.44333680  1
  Se  Se164  1  0.74863090  0.24991857  0.93557584  1
  Se  Se165  1  0.73969014  0.59560666  0.43683443  1
  Se  Se166  1  0.74845724  0.57936688  0.95714822  1
  Se  Se167  1  0.74700393  0.93602283  0.42524811  1
  Se  Se168  1  0.74283506  0.91754682  0.94283870  1
  Se  Se169  1  0.25083724  0.08653836  0.44800346  1
  Se  Se170  1  0.24960219  0.08637162  0.95168100  1
  Se  Se171  1  0.25694285  0.40842787  0.43532015  1
  Se  Se172  1  0.25172267  0.40940062  0.93742388  1
  Se  Se173  1  0.25094158  0.75576627  0.44521102  1
  Se  Se174  1  0.24907844  0.75497839  0.94871917  1
  Se  Se175  1  0.57506299  0.08823348  0.44199032  1
  Se  Se176  1  0.57916330  0.08344682  0.95337297  1
  Se  Se177  1  0.58543800  0.41265511  0.44759100  1
  Se  Se178  1  0.56391514  0.42028490  0.94889060  1
  Se  Se179  1  0.57622155  0.75867424  0.44691198  1
  Se  Se180  1  0.57806950  0.75331197  0.95374060  1
  Se  Se181  1  0.91120288  0.08406106  0.43813509  1
  Se  Se182  1  0.92621005  0.07866752  0.94699196  1
  Se  Se183  1  0.92976954  0.40157705  0.43986611  1
  Se  Se184  1  0.91794708  0.41294415  0.95135336  1
  Se  Se185  1  0.92131954  0.75181771  0.44580920  1
  Se  Se186  1  0.91756815  0.74552793  0.93995669  1
  Se  Se187  1  0.26076865  0.24846152  0.30388857  1
  Se  Se188  1  0.24820786  0.24679241  0.80407781  1
  Se  Se189  1  0.24744712  0.59508010  0.29068456  1
  Se  Se190  1  0.24968417  0.57943342  0.80355443  1
  Se  Se191  1  0.25191158  0.92128482  0.30616629  1
  Se  Se192  1  0.25530828  0.91981364  0.80709204  1
  Se  Se193  1  0.57436313  0.24804616  0.30895142  1
  Se  Se194  1  0.57902316  0.24785569  0.80250355  1
  Se  Se195  1  0.57660297  0.58038014  0.31043995  1
  Se  Se196  1  0.57805137  0.57675685  0.82292309  1
  Se  Se197  1  0.57308313  0.91473891  0.29547459  1
  Se  Se198  1  0.57559305  0.91401956  0.81560758  1
  Se  Se199  1  0.93014564  0.25324442  0.30309809  1
  Se  Se200  1  0.91773916  0.25372010  0.80198310  1
  Se  Se201  1  0.90832252  0.56896102  0.30022146  1
  Se  Se202  1  0.90656291  0.57307058  0.81358865  1
  Se  Se203  1  0.91616570  0.91232020  0.29950985  1
  Se  Se204  1  0.92756430  0.91881670  0.80736531  1
  Se  Se205  1  0.08898862  0.08377925  0.30919901  1
  Se  Se206  1  0.09246291  0.08439382  0.81488547  1
  Se  Se207  1  0.11913086  0.43589257  0.30031067  1
  Se  Se208  1  0.07870103  0.41091388  0.80013108  1
  Se  Se209  1  0.08788615  0.75930478  0.31163604  1
  Se  Se210  1  0.10265654  0.76164723  0.80320733  1
  Se  Se211  1  0.41642202  0.08677999  0.30224391  1
  Se  Se212  1  0.41334568  0.08037435  0.80370453  1
  Se  Se213  1  0.41718927  0.41611761  0.29974841  1
  Se  Se214  1  0.41141855  0.41212737  0.80587302  1
  Se  Se215  1  0.40382325  0.74131741  0.30021514  1
  Se  Se216  1  0.41617976  0.74890625  0.80834595  1
  Se  Se217  1  0.73347463  0.08190409  0.29560655  1
  Se  Se218  1  0.75669611  0.09014814  0.81203516  1
  Se  Se219  1  0.75923174  0.41978648  0.30570098  1
  Se  Se220  1  0.74293082  0.41442507  0.80934827  1
  Se  Se221  1  0.75090517  0.75131518  0.31460585  1
  Se  Se222  1  0.75991545  0.75595716  0.80315412  1
  Se  Se223  1  0.25836784  0.08227808  0.19788889  1
  Se  Se224  1  0.25297998  0.08066208  0.69503470  1
  Se  Se225  1  0.23675390  0.42468312  0.20186711  1
  Se  Se226  1  0.24964506  0.41255831  0.69733967  1
  Se  Se227  1  0.24806809  0.75686521  0.19546678  1
  Se  Se228  1  0.26756153  0.73807609  0.69395335  1
  Se  Se229  1  0.58104433  0.08818467  0.19202379  1
  Se  Se230  1  0.57188639  0.08740008  0.68504333  1
  Se  Se231  1  0.57732955  0.41788895  0.18738899  1
  Se  Se232  1  0.58609139  0.41400021  0.70537804  1
  Se  Se233  1  0.56638931  0.75800529  0.19658329  1
  Se  Se234  1  0.57887237  0.76186642  0.69185180  1
  Se  Se235  1  0.92258386  0.08103820  0.20863397  1
  Se  Se236  1  0.90647213  0.09643313  0.68874574  1
  Se  Se237  1  0.92633120  0.40881275  0.20245290  1
  Se  Se238  1  0.91723247  0.41148412  0.70048420  1
  Se  Se239  1  0.90712809  0.75321947  0.18817836  1
  Se  Se240  1  0.93085529  0.75064659  0.69147764  1
  Se  Se241  1  0.08979964  0.24835796  0.20306721  1
  Se  Se242  1  0.08021976  0.24270823  0.69605520  1
  Se  Se243  1  0.08667264  0.58590112  0.17893530  1
  Se  Se244  1  0.09301027  0.57515668  0.68504751  1
  Se  Se245  1  0.08205571  0.92207446  0.19915722  1
  Se  Se246  1  0.10171093  0.90696681  0.69079963  1
  Se  Se247  1  0.41832915  0.25686863  0.18990589  1
  Se  Se248  1  0.41238458  0.25086764  0.69518236  1
  Se  Se249  1  0.41625316  0.58313600  0.19564674  1
  Se  Se250  1  0.42243556  0.58060618  0.70263446  1
  Se  Se251  1  0.40699838  0.93160542  0.20060621  1
  Se  Se252  1  0.41761737  0.91826610  0.69325609  1
  Se  Se253  1  0.76043073  0.23364821  0.18877702  1
  Se  Se254  1  0.73667771  0.25205099  0.69654042  1
  Se  Se255  1  0.75467653  0.56625796  0.19368396  1
  Se  Se256  1  0.75698129  0.57648938  0.68985089  1
  Se  Se257  1  0.74409394  0.91548344  0.20272317  1
  Se  Se258  1  0.76263579  0.91401868  0.69623866  1
