# generated using pymatgen
data_In86Cu29Se144
_symmetry_space_group_name_H-M   'P 1'
_cell_length_a   17.57990416
_cell_length_b   17.57975180
_cell_length_c   23.43474176
_cell_angle_alpha   90.00916600
_cell_angle_beta   90.01371836
_cell_angle_gamma   90.01039999
_symmetry_Int_Tables_number   1
_chemical_formula_structural   In86Cu29Se144
_chemical_formula_sum   'In86 Cu29 Se144'
_cell_volume   7242.51476261
_cell_formula_units_Z   1
loop_
 _symmetry_equiv_pos_site_id
 _symmetry_equiv_pos_as_xyz
  1  'x, y, z'
loop_
 _atom_site_type_symbol
 _atom_site_label
 _atom_site_symmetry_multiplicity
 _atom_site_fract_x
 _atom_site_fract_y
 _atom_site_fract_z
 _atom_site_occupancy
  In  In0  1  -0.00343239  0.16944456  0.13521425  1
  In  In1  1  -0.00023905  0.17076181  0.61781856  1
  In  In2  1  -0.03809350  0.52763704  0.15412195  1
  In  In3  1  -0.00859184  0.50406987  0.62669881  1
  In  In4  1  -0.00827510  0.84818038  0.12692198  1
  In  In5  1  -0.01466661  0.83858501  0.64239036  1
  In  In6  1  0.32761091  0.15664145  0.12254543  1
  In  In7  1  0.34130415  0.17006063  0.61928647  1
  In  In8  1  0.33988516  0.48860540  0.11947242  1
  In  In9  1  0.32228009  0.50993459  0.64003650  1
  In  In10  1  0.34766321  0.83462373  0.12163919  1
  In  In11  1  0.32867027  0.82651601  0.63095434  1
  In  In12  1  0.66892947  0.17837283  0.12666436  1
  In  In13  1  0.65498463  0.16345920  0.61549285  1
  In  In14  1  0.67523918  0.50579923  0.12286445  1
  In  In15  1  0.66480396  0.48957379  0.62381744  1
  In  In16  1  0.66048575  0.82299736  0.11997782  1
  In  In17  1  0.67031070  0.85439568  0.63240206  1
  In  In18  1  0.17282543  -0.00019234  0.37755747  1
  In  In19  1  0.15267171  0.00645023  0.86583416  1
  In  In20  1  0.15169070  0.33172101  0.37913462  1
  In  In21  1  0.16452803  0.32853265  0.86528043  1
  In  In22  1  0.15513251  0.68038858  0.37756642  1
  In  In23  1  0.16486685  0.67109655  0.86242070  1
  In  In24  1  0.49426078  0.00551332  0.38054477  1
  In  In25  1  0.51236494  -0.01297133  0.88017183  1
  In  In26  1  0.50172978  0.32354100  0.37537233  1
  In  In27  1  0.49476591  0.33851426  0.88033043  1
  In  In28  1  0.51322949  0.66009119  0.37629298  1
  In  In29  1  0.50302303  0.66997550  0.87549738  1
  In  In30  1  0.85229527  0.00248720  0.37986804  1
  In  In31  1  0.82294853  -0.01507136  0.85482791  1
  In  In32  1  0.83116102  0.32960947  0.37734520  1
  In  In33  1  0.84510891  0.33946473  0.87802296  1
  In  In34  1  0.82882253  0.66014312  0.36785868  1
  In  In35  1  0.83756288  0.66250076  0.88242360  1
  In  In36  1  0.00034811  0.15995847  0.38642887  1
  In  In37  1  -0.00080239  0.16505996  0.86091187  1
  In  In38  1  -0.02833575  0.47808372  0.35557747  1
  In  In39  1  -0.00227019  0.49857649  0.87576809  1
  In  In40  1  -0.00199224  0.83375153  0.36803811  1
  In  In41  1  -0.01522557  0.82011495  0.85686681  1
  In  In42  1  0.34726016  0.15811888  0.38545148  1
  In  In43  1  0.33457700  0.17713346  0.86893532  1
  In  In44  1  0.34191451  0.49569576  0.37423576  1
  In  In45  1  0.35370083  0.51033402  0.85760779  1
  In  In46  1  0.32893949  0.84632307  0.37815491  1
  In  In47  1  0.35413623  0.83314376  0.86682516  1
  In  In48  1  0.65837969  0.17646661  0.37870598  1
  In  In49  1  0.66978666  0.14633284  0.87290693  1
  In  In50  1  0.68783051  0.50804451  0.35714839  1
  In  In51  1  0.66724760  0.50513401  0.88544241  1
  In  In52  1  0.67086564  0.81730857  0.37617951  1
  In  In53  1  0.66133759  0.83897391  0.87841699  1
  In  In54  1  0.16307818  0.01108203  0.13192474  1
  In  In55  1  0.13575801  0.01300575  0.63514275  1
  In  In56  1  0.15895538  0.32501452  0.12495735  1
  In  In57  1  0.17415189  0.31640289  0.63420136  1
  In  In58  1  0.15927483  0.65642527  0.12154696  1
  In  In59  1  0.15749326  0.68360253  0.64568085  1
  In  In60  1  0.49334078  -0.00866200  0.11979810  1
  In  In61  1  0.50246713  0.00170002  0.62198386  1
  In  In62  1  0.51050773  0.34266296  0.11471738  1
  In  In63  1  0.49920016  0.32544010  0.62750712  1
  In  In64  1  0.51364125  0.67202301  0.11698953  1
  In  In65  1  0.48469268  0.67261028  0.63356604  1
  In  In66  1  0.84673432  0.00410956  0.12567191  1
  In  In67  1  0.82833692  0.00540400  0.62644851  1
  In  In68  1  0.81454809  0.35398241  0.14950631  1
  In  In69  1  0.84163526  0.34321124  0.61654323  1
  In  In70  1  0.83009384  0.67069010  0.12161404  1
  In  In71  1  0.84581043  0.67164614  0.62643736  1
  In  In72  1  0.66423400  0.33000463  0.74682351  1
  In  In73  1  0.66642727  0.67074684  0.75638281  1
  In  In74  1  0.16380909  0.83875736  0.51484697  1
  In  In75  1  0.83266722  0.17016955  0.00012197  1
  In  In76  1  0.17289150  0.83500819  -0.01052041  1
  In  In77  1  0.32923868  0.67099897  0.24711617  1
  In  In78  1  0.32915719  -0.00479716  0.74935585  1
  In  In79  1  0.16644847  0.49134923  -0.00319828  1
  In  In80  1  0.16787320  0.16730963  -0.00954736  1
  In  In81  1  0.82896538  0.83793169  0.50779632  1
  In  In82  1  0.15709553  0.50395708  0.50190546  1
  In  In83  1  0.50344101  0.49064870  0.50107037  1
  In  In84  1  0.33008834  0.32812966  0.24699323  1
  In  In85  1  0.66566421  -0.00075993  0.25312916  1
  Cu  Cu86  1  -0.00381867  0.67278996  0.00058579  1
  Cu  Cu87  1  -0.00774916  0.66191781  0.50042909  1
  Cu  Cu88  1  -0.00869692  0.00221373  -0.00393526  1
  Cu  Cu89  1  0.66572674  -0.00570616  -0.00254802  1
  Cu  Cu90  1  0.34212073  0.33667620  -0.00964964  1
  Cu  Cu91  1  0.66379515  0.66488452  0.49721542  1
  Cu  Cu92  1  0.15652613  0.49122471  0.74923926  1
  Cu  Cu93  1  0.34067393  -0.00380244  -0.00106813  1
  Cu  Cu94  1  0.84191448  0.16557377  0.25750031  1
  Cu  Cu95  1  0.49661470  0.83331618  0.24536508  1
  Cu  Cu96  1  0.50199487  0.16002179  0.74564923  1
  Cu  Cu97  1  -0.00649754  0.33993964  0.00614763  1
  Cu  Cu98  1  0.16320489  0.83967441  0.24911439  1
  Cu  Cu99  1  0.16628422  0.16022018  0.25899571  1
  Cu  Cu100  1  0.83537760  0.16800683  0.74414394  1
  Cu  Cu101  1  0.83504975  0.50400543  0.75175158  1
  Cu  Cu102  1  0.67263747  0.66430479  -0.00077618  1
  Cu  Cu103  1  0.66372172  0.00414299  0.50062478  1
  Cu  Cu104  1  0.34769067  0.66246553  -0.00553969  1
  Cu  Cu105  1  0.33771620  0.00047850  0.50318368  1
  Cu  Cu106  1  0.83180445  0.83140655  0.24917681  1
  Cu  Cu107  1  -0.00444644  0.33161872  0.49803349  1
  Cu  Cu108  1  0.66712791  0.33309601  0.00488419  1
  Cu  Cu109  1  0.51249921  0.50206711  0.24109148  1
  Cu  Cu110  1  0.32953356  0.33151505  0.50494342  1
  Cu  Cu111  1  0.49691866  0.16573441  0.25349827  1
  Cu  Cu112  1  0.67360758  0.33502036  0.49772930  1
  Cu  Cu113  1  0.15906795  0.50609125  0.25324560  1
  Cu  Cu114  1  0.33283063  0.66876567  0.51158995  1
  Se  Se115  1  0.07326213  0.08343981  0.05509115  1
  Se  Se116  1  0.08386039  0.08633613  0.55028007  1
  Se  Se117  1  0.07497146  0.41906277  0.06535604  1
  Se  Se118  1  0.07640090  0.40892075  0.56206654  1
  Se  Se119  1  0.08184964  0.75221767  0.05677935  1
  Se  Se120  1  0.06796368  0.74214258  0.56344032  1
  Se  Se121  1  0.41705948  0.08456560  0.05335813  1
  Se  Se122  1  0.42453457  0.08681234  0.55175337  1
  Se  Se123  1  0.42303471  0.42025570  0.04538794  1
  Se  Se124  1  0.40390492  0.41693997  0.56503199  1
  Se  Se125  1  0.42211165  0.74991616  0.05117059  1
  Se  Se126  1  0.41721215  0.75627775  0.55719682  1
  Se  Se127  1  0.74269285  0.07585386  0.06010167  1
  Se  Se128  1  0.74959479  0.08466679  0.55316418  1
  Se  Se129  1  0.75527720  0.41103352  0.05806710  1
  Se  Se130  1  0.75099427  0.42350080  0.55015678  1
  Se  Se131  1  0.75246667  0.75430134  0.04989164  1
  Se  Se132  1  0.73866230  0.74336859  0.56382005  1
  Se  Se133  1  0.25833994  0.26067243  0.05226802  1
  Se  Se134  1  0.24615527  0.24498101  0.55341273  1
  Se  Se135  1  0.26108222  0.58828477  0.05395063  1
  Se  Se136  1  0.24236913  0.59502564  0.56563075  1
  Se  Se137  1  0.25146212  0.92602533  0.05958932  1
  Se  Se138  1  0.25575086  0.93179924  0.56921235  1
  Se  Se139  1  0.58343798  0.24417317  0.05144914  1
  Se  Se140  1  0.58168716  0.25949631  0.55015137  1
  Se  Se141  1  0.58741218  0.57946860  0.05120643  1
  Se  Se142  1  0.58303255  0.58977280  0.56162972  1
  Se  Se143  1  0.58205401  0.91295702  0.05350316  1
  Se  Se144  1  0.58608833  0.91626171  0.55377591  1
  Se  Se145  1  0.91568604  0.25716354  0.06605408  1
  Se  Se146  1  0.90917313  0.24834739  0.54866172  1
  Se  Se147  1  0.92075672  0.58499101  0.05692994  1
  Se  Se148  1  0.90790667  0.57962558  0.55279171  1
  Se  Se149  1  0.91063037  0.91762675  0.04953809  1
  Se  Se150  1  0.92823991  0.92343676  0.56027449  1
  Se  Se151  1  0.08568865  0.24731356  0.45345726  1
  Se  Se152  1  0.06852069  0.25915813  0.94181314  1
  Se  Se153  1  0.06862964  0.58534384  0.43545105  1
  Se  Se154  1  0.08247084  0.59516290  0.94259944  1
  Se  Se155  1  0.07808852  0.91555439  0.44297077  1
  Se  Se156  1  0.07395568  0.92261060  0.93822678  1
  Se  Se157  1  0.41918104  0.25497244  0.45079382  1
  Se  Se158  1  0.42045091  0.24137377  0.94534472  1
  Se  Se159  1  0.40912503  0.58982262  0.44702675  1
  Se  Se160  1  0.42561954  0.57564739  0.94126434  1
  Se  Se161  1  0.41806115  0.91490679  0.44922871  1
  Se  Se162  1  0.42105276  0.90920423  0.94720957  1
  Se  Se163  1  0.75221290  0.24437167  0.44776285  1
  Se  Se164  1  0.74136770  0.25633590  0.93655164  1
  Se  Se165  1  0.74679919  0.58504859  0.44156602  1
  Se  Se166  1  0.75918691  0.57792476  0.95250103  1
  Se  Se167  1  0.74275455  0.92384457  0.43895029  1
  Se  Se168  1  0.75499953  0.92118610  0.94121031  1
  Se  Se169  1  0.25285212  0.08138990  0.44864130  1
  Se  Se170  1  0.25775231  0.07081729  0.93636871  1
  Se  Se171  1  0.25525330  0.41385144  0.44309369  1
  Se  Se172  1  0.25740130  0.41244396  0.93098292  1
  Se  Se173  1  0.25291161  0.74679143  0.44820544  1
  Se  Se174  1  0.26313544  0.73908693  0.93563483  1
  Se  Se175  1  0.58022694  0.08789246  0.44626578  1
  Se  Se176  1  0.58321732  0.08226714  0.94842682  1
  Se  Se177  1  0.59560351  0.41575573  0.43309212  1
  Se  Se178  1  0.58522716  0.41424631  0.94768552  1
  Se  Se179  1  0.57941526  0.75108215  0.44844029  1
  Se  Se180  1  0.58766385  0.74712245  0.94598995  1
  Se  Se181  1  0.91921035  0.07880988  0.45735667  1
  Se  Se182  1  0.91580608  0.08334702  0.93405181  1
  Se  Se183  1  0.91322012  0.41847355  0.44582114  1
  Se  Se184  1  0.91468624  0.42553824  0.95139588  1
  Se  Se185  1  0.91539237  0.74879375  0.44183818  1
  Se  Se186  1  0.91873540  0.75810550  0.94437280  1
  Se  Se187  1  0.24823257  0.24412144  0.31669241  1
  Se  Se188  1  0.23507875  0.23248596  0.80095332  1
  Se  Se189  1  0.24421364  0.57976626  0.31358116  1
  Se  Se190  1  0.24157303  0.57312356  0.80276323  1
  Se  Se191  1  0.25019080  0.91805551  0.30286409  1
  Se  Se192  1  0.24185909  0.90601042  0.81236158  1
  Se  Se193  1  0.58301324  0.25152987  0.30046234  1
  Se  Se194  1  0.57986369  0.23928369  0.81026065  1
  Se  Se195  1  0.58775999  0.58717948  0.29896218  1
  Se  Se196  1  0.58015887  0.57040265  0.80835448  1
  Se  Se197  1  0.57620291  0.90729490  0.31180175  1
  Se  Se198  1  0.59035913  0.92024774  0.80300193  1
  Se  Se199  1  0.92311533  0.24530146  0.31480973  1
  Se  Se200  1  0.90977906  0.25389934  0.80218736  1
  Se  Se201  1  0.92599466  0.59540495  0.30086130  1
  Se  Se202  1  0.91691529  0.58506199  0.80799445  1
  Se  Se203  1  0.91324459  0.91701400  0.30174591  1
  Se  Se204  1  0.94949467  0.94702602  0.80808194  1
  Se  Se205  1  0.08200009  0.07960321  0.31291544  1
  Se  Se206  1  0.09970966  0.10343896  0.79462685  1
  Se  Se207  1  0.08441487  0.41259041  0.30265074  1
  Se  Se208  1  0.07280662  0.41213923  0.80520533  1
  Se  Se209  1  0.08179710  0.75194644  0.29921950  1
  Se  Se210  1  0.08226551  0.74981482  0.79471624  1
  Se  Se211  1  0.41467213  0.08114441  0.30500352  1
  Se  Se212  1  0.42440844  0.08183791  0.81034326  1
  Se  Se213  1  0.42880316  0.42259712  0.30019638  1
  Se  Se214  1  0.40554281  0.39351376  0.80337607  1
  Se  Se215  1  0.42003210  0.75345683  0.31176682  1
  Se  Se216  1  0.41627282  0.73583636  0.80014221  1
  Se  Se217  1  0.75511568  0.08674629  0.31513020  1
  Se  Se218  1  0.74842212  0.08290465  0.79280212  1
  Se  Se219  1  0.76092639  0.40921956  0.29910036  1
  Se  Se220  1  0.75200446  0.42265980  0.80923587  1
  Se  Se221  1  0.74728130  0.74641654  0.29911982  1
  Se  Se222  1  0.75925024  0.75680331  0.81418022  1
  Se  Se223  1  0.25250360  0.08532359  0.20098965  1
  Se  Se224  1  0.24826118  0.08791498  0.68670436  1
  Se  Se225  1  0.23953353  0.42694931  0.19169902  1
  Se  Se226  1  0.24705897  0.41133542  0.69968800  1
  Se  Se227  1  0.23995691  0.76037443  0.18437054  1
  Se  Se228  1  0.27029652  0.73415565  0.70469797  1
  Se  Se229  1  0.57681924  0.08688537  0.19027366  1
  Se  Se230  1  0.58778148  0.08063917  0.69262460  1
  Se  Se231  1  0.59166713  0.41499768  0.18906837  1
  Se  Se232  1  0.56974088  0.42510764  0.69603025  1
  Se  Se233  1  0.58254131  0.74863151  0.19676831  1
  Se  Se234  1  0.58129184  0.75950840  0.69268781  1
  Se  Se235  1  0.92029322  0.07948113  0.20282362  1
  Se  Se236  1  0.91931752  0.08635434  0.69021510  1
  Se  Se237  1  0.94141095  0.39372462  0.19446528  1
  Se  Se238  1  0.91236862  0.41737040  0.69658993  1
  Se  Se239  1  0.91560309  0.75437721  0.19055956  1
  Se  Se240  1  0.91330560  0.74402784  0.70626545  1
  Se  Se241  1  0.08960873  0.24523166  0.20121454  1
  Se  Se242  1  0.05887579  0.26718807  0.69005346  1
  Se  Se243  1  0.08063450  0.59344709  0.20059112  1
  Se  Se244  1  0.07720244  0.58054065  0.69741512  1
  Se  Se245  1  0.07993101  0.92420273  0.19583278  1
  Se  Se246  1  0.11276399  0.88571899  0.68539174  1
  Se  Se247  1  0.42365744  0.24524101  0.18568403  1
  Se  Se248  1  0.41659597  0.24583574  0.69742997  1
  Se  Se249  1  0.42051754  0.57969045  0.18771281  1
  Se  Se250  1  0.42301840  0.57682084  0.70097896  1
  Se  Se251  1  0.41299736  0.92017442  0.19756098  1
  Se  Se252  1  0.42604843  0.91045342  0.69293126  1
  Se  Se253  1  0.75157328  0.24202110  0.20438959  1
  Se  Se254  1  0.75392544  0.24701209  0.68258371  1
  Se  Se255  1  0.76931573  0.57284897  0.19184660  1
  Se  Se256  1  0.75138849  0.57831543  0.69064255  1
  Se  Se257  1  0.75263858  0.91340728  0.18807134  1
  Se  Se258  1  0.77727939  0.90268420  0.69653589  1
