# generated using pymatgen
data_In86Cu29Se144
_symmetry_space_group_name_H-M   'P 1'
_cell_length_a   17.59096670
_cell_length_b   17.58762531
_cell_length_c   23.44842572
_cell_angle_alpha   89.99819678
_cell_angle_beta   89.99014847
_cell_angle_gamma   89.98809521
_symmetry_Int_Tables_number   1
_chemical_formula_structural   In86Cu29Se144
_chemical_formula_sum   'In86 Cu29 Se144'
_cell_volume   7254.55179414
_cell_formula_units_Z   1
loop_
 _symmetry_equiv_pos_site_id
 _symmetry_equiv_pos_as_xyz
  1  'x, y, z'
loop_
 _atom_site_type_symbol
 _atom_site_label
 _atom_site_symmetry_multiplicity
 _atom_site_fract_x
 _atom_site_fract_y
 _atom_site_fract_z
 _atom_site_occupancy
  In  In0  1  -0.00917507  0.17573906  0.12392003  1
  In  In1  1  0.00048989  0.16467385  0.62929841  1
  In  In2  1  -0.00903962  0.48597032  0.11604181  1
  In  In3  1  -0.01046123  0.49098043  0.62215034  1
  In  In4  1  -0.00337749  0.83501680  0.13804672  1
  In  In5  1  0.00135408  0.83765939  0.61694183  1
  In  In6  1  0.33917990  0.18268447  0.12885005  1
  In  In7  1  0.32507974  0.18147397  0.62200924  1
  In  In8  1  0.33562577  0.49691765  0.12397268  1
  In  In9  1  0.34417888  0.51116348  0.61989209  1
  In  In10  1  0.31932995  0.82615873  0.13188147  1
  In  In11  1  0.31794378  0.82463316  0.61999233  1
  In  In12  1  0.67371384  0.15313495  0.12441100  1
  In  In13  1  0.67508451  0.16312273  0.63396043  1
  In  In14  1  0.67157321  0.50544947  0.11983430  1
  In  In15  1  0.66653514  0.50326382  0.62630336  1
  In  In16  1  0.67419989  0.83189511  0.13585644  1
  In  In17  1  0.67698221  0.82427989  0.61976435  1
  In  In18  1  0.15526414  0.01161755  0.38065253  1
  In  In19  1  0.15529994  0.01186246  0.87494320  1
  In  In20  1  0.16193826  0.33493563  0.37163307  1
  In  In21  1  0.16675636  0.34788140  0.87639228  1
  In  In22  1  0.17800847  0.65618793  0.38390202  1
  In  In23  1  0.16110908  0.64849258  0.87129641  1
  In  In24  1  0.51155961  -0.01254371  0.37589653  1
  In  In25  1  0.50731905  -0.01272412  0.87267079  1
  In  In26  1  0.50299841  0.35244318  0.37563047  1
  In  In27  1  0.50597805  0.33646726  0.87661833  1
  In  In28  1  0.49127618  0.65891293  0.36888591  1
  In  In29  1  0.49012300  0.64822358  0.85434644  1
  In  In30  1  0.82207492  -0.02165337  0.35497337  1
  In  In31  1  0.84274005  0.00956781  0.86327155  1
  In  In32  1  0.84644970  0.33378610  0.37373741  1
  In  In33  1  0.83899228  0.33616880  0.87870929  1
  In  In34  1  0.81573630  0.68116969  0.39388805  1
  In  In35  1  0.82062787  0.66263032  0.87319576  1
  In  In36  1  0.00168240  0.17156255  0.36680409  1
  In  In37  1  -0.01349390  0.15596157  0.87109684  1
  In  In38  1  0.00377326  0.49800605  0.37943667  1
  In  In39  1  0.00975265  0.48729864  0.88790837  1
  In  In40  1  -0.01036133  0.84584674  0.38195428  1
  In  In41  1  -0.01431536  0.84024993  0.87169535  1
  In  In42  1  0.31583139  0.16630894  0.37135328  1
  In  In43  1  0.33475020  0.17895170  0.87766244  1
  In  In44  1  0.32935096  0.49882158  0.37282020  1
  In  In45  1  0.32935879  0.50222630  0.87769321  1
  In  In46  1  0.34113192  0.81678981  0.37772734  1
  In  In47  1  0.34486282  0.82829697  0.87137230  1
  In  In48  1  0.68170205  0.15875168  0.37768878  1
  In  In49  1  0.68296697  0.18006520  0.86702481  1
  In  In50  1  0.65199147  0.51592924  0.39480877  1
  In  In51  1  0.66825957  0.50039501  0.87498692  1
  In  In52  1  0.67935017  0.83587732  0.36990408  1
  In  In53  1  0.66830477  0.82676088  0.86333428  1
  In  In54  1  0.15220130  0.00072298  0.13123382  1
  In  In55  1  0.15119603  -0.00578462  0.61612603  1
  In  In56  1  0.15753014  0.34843306  0.12853043  1
  In  In57  1  0.15789739  0.32671801  0.61981673  1
  In  In58  1  0.18073059  0.65723552  0.13213120  1
  In  In59  1  0.17268413  0.66935922  0.61992570  1
  In  In60  1  0.51548840  0.00670677  0.12670946  1
  In  In61  1  0.50974244  0.00220417  0.62513465  1
  In  In62  1  0.48902850  0.33923545  0.12745545  1
  In  In63  1  0.50175725  0.35444553  0.63013199  1
  In  In64  1  0.50948308  0.65738738  0.13070582  1
  In  In65  1  0.52104887  0.63896136  0.64160605  1
  In  In66  1  0.83366330  0.00274906  0.12610008  1
  In  In67  1  0.83518705  -0.00257180  0.62317465  1
  In  In68  1  0.84780997  0.33954318  0.11324585  1
  In  In69  1  0.82368825  0.34505628  0.63656364  1
  In  In70  1  0.83355349  0.65681733  0.13075987  1
  In  In71  1  0.81427758  0.65475902  0.60512638  1
  In  In72  1  0.32947687  -0.00238689  0.74835457  1
  In  In73  1  0.83252882  0.82803969  0.00496956  1
  In  In74  1  0.50919219  0.17470759  -0.00615619  1
  In  In75  1  0.33887060  -0.00598775  0.25247987  1
  In  In76  1  0.16399654  0.82517700  0.00043452  1
  In  In77  1  0.33388577  0.33828031  0.75276268  1
  In  In78  1  0.84142127  0.16674440  0.50084148  1
  In  In79  1  0.67310429  0.33161015  0.25520153  1
  In  In80  1  0.50001983  0.82536214  0.50510954  1
  In  In81  1  -0.00533791  0.66829837  0.74563493  1
  In  In82  1  -0.00543424  0.66759233  0.25698954  1
  In  In83  1  0.15772817  0.18144890  0.01166330  1
  In  In84  1  0.49550773  0.17390386  0.49811549  1
  In  In85  1  0.50215179  0.82678592  0.00070020  1
  Cu  Cu86  1  0.83314267  0.83418802  0.74141824  1
  Cu  Cu87  1  0.50568701  0.82728761  0.25397278  1
  Cu  Cu88  1  0.33454668  0.65954579  0.49917754  1
  Cu  Cu89  1  0.16673307  0.82900253  0.25907903  1
  Cu  Cu90  1  0.66595025  0.33949620  0.50859783  1
  Cu  Cu91  1  -0.00178963  0.00692074  0.49716229  1
  Cu  Cu92  1  0.00246875  0.65997379  0.00511023  1
  Cu  Cu93  1  0.16339504  0.50036169  0.25343852  1
  Cu  Cu94  1  0.83940083  0.16543812  0.24786276  1
  Cu  Cu95  1  0.00581396  0.66794663  0.49890335  1
  Cu  Cu96  1  0.32377992  0.34005790  0.49816593  1
  Cu  Cu97  1  0.16241535  0.83455263  0.74300321  1
  Cu  Cu98  1  0.50721128  0.16489558  0.75246216  1
  Cu  Cu99  1  0.67198130  0.33379043  -0.00452100  1
  Cu  Cu100  1  0.83095829  0.49962959  0.25123730  1
  Cu  Cu101  1  0.67970337  0.00109271  -0.00383985  1
  Cu  Cu102  1  0.33610389  0.65757825  -0.00050156  1
  Cu  Cu103  1  0.16833503  0.49788158  0.75045496  1
  Cu  Cu104  1  0.32431746  0.00294615  0.50024011  1
  Cu  Cu105  1  0.50305049  0.16881207  0.24933949  1
  Cu  Cu106  1  0.15219712  0.16518221  0.74609599  1
  Cu  Cu107  1  0.83321102  0.49979227  0.75044350  1
  Cu  Cu108  1  0.32902835  0.00974879  0.00514739  1
  Cu  Cu109  1  0.65774168  0.65578388  -0.00380038  1
  Cu  Cu110  1  0.83133057  0.16942704  0.75000956  1
  Cu  Cu111  1  0.49655400  0.50314207  0.25194320  1
  Cu  Cu112  1  0.00457748  0.33408924  0.49844438  1
  Cu  Cu113  1  0.50281602  0.82968637  0.74600941  1
  Cu  Cu114  1  0.16656244  0.17271734  0.24813786  1
  Se  Se115  1  0.07288394  0.07449645  0.05598516  1
  Se  Se116  1  0.07900795  0.09156238  0.55199871  1
  Se  Se117  1  0.07946996  0.41186547  0.04852054  1
  Se  Se118  1  0.08348686  0.41988622  0.55378632  1
  Se  Se119  1  0.07683071  0.74100269  0.06832980  1
  Se  Se120  1  0.08809224  0.75252063  0.55315731  1
  Se  Se121  1  0.41708304  0.08461019  0.06058396  1
  Se  Se122  1  0.40720935  0.07932536  0.56077875  1
  Se  Se123  1  0.42726664  0.42619946  0.05420050  1
  Se  Se124  1  0.41344576  0.41361805  0.55342633  1
  Se  Se125  1  0.40650620  0.74362028  0.06155068  1
  Se  Se126  1  0.41327802  0.73446515  0.56477667  1
  Se  Se127  1  0.75945163  0.08464536  0.05033152  1
  Se  Se128  1  0.74269373  0.08075113  0.55480871  1
  Se  Se129  1  0.75079812  0.41798958  0.05322767  1
  Se  Se130  1  0.75431709  0.42071200  0.55772462  1
  Se  Se131  1  0.73602316  0.73703576  0.05843892  1
  Se  Se132  1  0.74918698  0.75386870  0.54024138  1
  Se  Se133  1  0.25977200  0.26768407  0.06024171  1
  Se  Se134  1  0.24326006  0.25049315  0.54743321  1
  Se  Se135  1  0.24917917  0.57981263  0.05425028  1
  Se  Se136  1  0.24762756  0.57820749  0.55215173  1
  Se  Se137  1  0.25140533  0.92454319  0.06100093  1
  Se  Se138  1  0.24509177  0.91593631  0.55308490  1
  Se  Se139  1  0.59465143  0.25712331  0.06309846  1
  Se  Se140  1  0.58730209  0.25316141  0.56503807  1
  Se  Se141  1  0.57507935  0.57601808  0.05242476  1
  Se  Se142  1  0.58616718  0.58384518  0.55377563  1
  Se  Se143  1  0.59662825  0.92132328  0.05456783  1
  Se  Se144  1  0.59190282  0.92315207  0.55394878  1
  Se  Se145  1  0.92031042  0.24938057  0.04550292  1
  Se  Se146  1  0.91975682  0.26260949  0.56329495  1
  Se  Se147  1  0.91115201  0.58332613  0.05589298  1
  Se  Se148  1  0.92259222  0.58394958  0.55201857  1
  Se  Se149  1  0.92731185  0.91692107  0.05920258  1
  Se  Se150  1  0.91626857  0.92124374  0.54990411  1
  Se  Se151  1  0.08059165  0.24898034  0.44118669  1
  Se  Se152  1  0.07857132  0.24992416  0.93268345  1
  Se  Se153  1  0.08660367  0.57958026  0.44898000  1
  Se  Se154  1  0.08947984  0.58070122  0.95212832  1
  Se  Se155  1  0.08421852  0.91897646  0.44868464  1
  Se  Se156  1  0.07584144  0.91888237  0.94321513  1
  Se  Se157  1  0.40509442  0.26050305  0.43612670  1
  Se  Se158  1  0.40774823  0.26695600  0.94892855  1
  Se  Se159  1  0.41617784  0.57808752  0.44296483  1
  Se  Se160  1  0.42217753  0.58513546  0.94045329  1
  Se  Se161  1  0.40927496  0.92319757  0.44450333  1
  Se  Se162  1  0.40747854  0.92588548  0.94672485  1
  Se  Se163  1  0.74476930  0.26176435  0.44565894  1
  Se  Se164  1  0.75602094  0.24746443  0.94723617  1
  Se  Se165  1  0.76664704  0.56606673  0.45092836  1
  Se  Se166  1  0.75260479  0.57950334  0.94824224  1
  Se  Se167  1  0.75180958  0.92243350  0.44091849  1
  Se  Se168  1  0.75011370  0.91341809  0.93548109  1
  Se  Se169  1  0.24447174  0.08992982  0.44846947  1
  Se  Se170  1  0.25142007  0.08723723  0.94406706  1
  Se  Se171  1  0.24172729  0.42032539  0.44155547  1
  Se  Se172  1  0.25400352  0.41584581  0.94614038  1
  Se  Se173  1  0.25330650  0.75017725  0.45085530  1
  Se  Se174  1  0.25805079  0.74087098  0.93872992  1
  Se  Se175  1  0.58905015  0.07923788  0.44576321  1
  Se  Se176  1  0.59429140  0.07703492  0.93648234  1
  Se  Se177  1  0.57641399  0.41830674  0.45710685  1
  Se  Se178  1  0.58649816  0.41738615  0.94636666  1
  Se  Se179  1  0.58180667  0.74811070  0.43265854  1
  Se  Se180  1  0.58533636  0.74094285  0.93481709  1
  Se  Se181  1  0.91668913  0.07793812  0.43135303  1
  Se  Se182  1  0.91764737  0.07018565  0.94460151  1
  Se  Se183  1  0.91754852  0.41593564  0.44806170  1
  Se  Se184  1  0.90995819  0.42335196  0.95104468  1
  Se  Se185  1  0.91954966  0.75371728  0.45096285  1
  Se  Se186  1  0.92419735  0.73806795  0.94215575  1
  Se  Se187  1  0.24937879  0.25649569  0.30033236  1
  Se  Se188  1  0.23826421  0.24180867  0.80528645  1
  Se  Se189  1  0.24909537  0.58482375  0.30291906  1
  Se  Se190  1  0.25283267  0.58198647  0.80139478  1
  Se  Se191  1  0.24824906  0.91239511  0.31693505  1
  Se  Se192  1  0.23935247  0.90985625  0.81205642  1
  Se  Se193  1  0.58017645  0.24299813  0.31674209  1
  Se  Se194  1  0.58312599  0.25319641  0.80612550  1
  Se  Se195  1  0.58611476  0.57823573  0.30688760  1
  Se  Se196  1  0.60974790  0.59996402  0.80495293  1
  Se  Se197  1  0.58902742  0.91526987  0.30094285  1
  Se  Se198  1  0.58553649  0.91502264  0.79779048  1
  Se  Se199  1  0.91897959  0.25498435  0.29791405  1
  Se  Se200  1  0.91464876  0.25048286  0.80522470  1
  Se  Se201  1  0.90515402  0.57950037  0.31663440  1
  Se  Se202  1  0.91708261  0.57675464  0.81240344  1
  Se  Se203  1  0.93121912  0.91896476  0.29759438  1
  Se  Se204  1  0.91652495  0.91721568  0.79435567  1
  Se  Se205  1  0.08624388  0.08541261  0.30018495  1
  Se  Se206  1  0.07349210  0.07766974  0.79888265  1
  Se  Se207  1  0.07649254  0.41759900  0.30312104  1
  Se  Se208  1  0.08146976  0.41993409  0.80385997  1
  Se  Se209  1  0.08717185  0.75051330  0.32038122  1
  Se  Se210  1  0.08617421  0.75638580  0.80998706  1
  Se  Se211  1  0.42595895  0.08776406  0.31344096  1
  Se  Se212  1  0.42091018  0.08838844  0.81104191  1
  Se  Se213  1  0.41415617  0.41662007  0.30255070  1
  Se  Se214  1  0.42713514  0.42741426  0.80723807  1
  Se  Se215  1  0.41381813  0.74578330  0.29847515  1
  Se  Se216  1  0.41384005  0.74908284  0.79556445  1
  Se  Se217  1  0.75045352  0.08530909  0.29846718  1
  Se  Se218  1  0.74579495  0.08098121  0.79922123  1
  Se  Se219  1  0.75129839  0.42636377  0.31789277  1
  Se  Se220  1  0.75389477  0.41600702  0.80825758  1
  Se  Se221  1  0.75017851  0.73849321  0.30636316  1
  Se  Se222  1  0.75592890  0.74744718  0.79667404  1
  Se  Se223  1  0.25010204  0.08855764  0.19132053  1
  Se  Se224  1  0.24098270  0.08912252  0.68835533  1
  Se  Se225  1  0.24864450  0.42157705  0.19636858  1
  Se  Se226  1  0.24596892  0.42002145  0.68595115  1
  Se  Se227  1  0.24867638  0.74482324  0.20634979  1
  Se  Se228  1  0.24709472  0.74708380  0.69785313  1
  Se  Se229  1  0.58943296  0.08517163  0.20101581  1
  Se  Se230  1  0.58643260  0.07971681  0.69864087  1
  Se  Se231  1  0.58209603  0.42098538  0.19501586  1
  Se  Se232  1  0.59018756  0.42081458  0.69960210  1
  Se  Se233  1  0.58772107  0.74535246  0.19770515  1
  Se  Se234  1  0.58928188  0.75129297  0.69190903  1
  Se  Se235  1  0.92232505  0.08232919  0.19353943  1
  Se  Se236  1  0.91103451  0.08459420  0.69354991  1
  Se  Se237  1  0.91179698  0.41775819  0.19497982  1
  Se  Se238  1  0.92099313  0.41545759  0.70249635  1
  Se  Se239  1  0.89899676  0.75786936  0.19989457  1
  Se  Se240  1  0.90714789  0.75004946  0.67955995  1
  Se  Se241  1  0.08293095  0.25083401  0.19105839  1
  Se  Se242  1  0.07614169  0.25749259  0.69647112  1
  Se  Se243  1  0.07906538  0.57712117  0.19173556  1
  Se  Se244  1  0.08793107  0.57773245  0.68891301  1
  Se  Se245  1  0.08655999  0.91269759  0.20441344  1
  Se  Se246  1  0.07761421  0.91748011  0.69324980  1
  Se  Se247  1  0.41884188  0.25599995  0.20332318  1
  Se  Se248  1  0.42473417  0.24354663  0.69272443  1
  Se  Se249  1  0.41409367  0.58374615  0.19507293  1
  Se  Se250  1  0.41254613  0.58085077  0.70104790  1
  Se  Se251  1  0.42899638  0.90692927  0.18740204  1
  Se  Se252  1  0.41929148  0.90909104  0.68613137  1
  Se  Se253  1  0.75897043  0.24754561  0.18804950  1
  Se  Se254  1  0.74504668  0.25517867  0.70211955  1
  Se  Se255  1  0.74492288  0.58058819  0.19870764  1
  Se  Se256  1  0.75706848  0.58511620  0.69302056  1
  Se  Se257  1  0.74753956  0.92751332  0.19579270  1
  Se  Se258  1  0.74718195  0.91693500  0.68981104  1
