# generated using pymatgen
data_In86Cu29Se144
_symmetry_space_group_name_H-M   'P 1'
_cell_length_a   17.58232333
_cell_length_b   17.58034918
_cell_length_c   23.44272114
_cell_angle_alpha   90.01339830
_cell_angle_beta   90.00507743
_cell_angle_gamma   90.01842247
_symmetry_Int_Tables_number   1
_chemical_formula_structural   In86Cu29Se144
_chemical_formula_sum   'In86 Cu29 Se144'
_cell_volume   7246.22382588
_cell_formula_units_Z   1
loop_
 _symmetry_equiv_pos_site_id
 _symmetry_equiv_pos_as_xyz
  1  'x, y, z'
loop_
 _atom_site_type_symbol
 _atom_site_label
 _atom_site_symmetry_multiplicity
 _atom_site_fract_x
 _atom_site_fract_y
 _atom_site_fract_z
 _atom_site_occupancy
  In  In0  1  -0.00323630  0.16558823  0.13059322  1
  In  In1  1  -0.00086190  0.18952315  0.62827959  1
  In  In2  1  -0.00180998  0.49981665  0.12319686  1
  In  In3  1  -0.00823282  0.49296116  0.61781401  1
  In  In4  1  0.01547672  0.81866593  0.13348690  1
  In  In5  1  -0.00254602  0.83521147  0.62246651  1
  In  In6  1  0.31325010  0.16443580  0.12427229  1
  In  In7  1  0.32992380  0.15279963  0.63044705  1
  In  In8  1  0.32089629  0.52322553  0.12667063  1
  In  In9  1  0.34283364  0.51781915  0.61052526  1
  In  In10  1  0.32958722  0.83665528  0.13105019  1
  In  In11  1  0.37282041  0.80955787  0.65710599  1
  In  In12  1  0.68267057  0.15906721  0.11833609  1
  In  In13  1  0.68208807  0.16181802  0.62532447  1
  In  In14  1  0.67722929  0.50354037  0.12245581  1
  In  In15  1  0.67113835  0.50479937  0.63320734  1
  In  In16  1  0.65664142  0.82583703  0.12350680  1
  In  In17  1  0.64973623  0.83920720  0.63459608  1
  In  In18  1  0.16722265  0.00041773  0.36907699  1
  In  In19  1  0.17708830  -0.00983957  0.89051491  1
  In  In20  1  0.15788428  0.34826525  0.37307986  1
  In  In21  1  0.14982617  0.34860919  0.88104341  1
  In  In22  1  0.16574183  0.66238981  0.36740603  1
  In  In23  1  0.18084536  0.65696756  0.88894411  1
  In  In24  1  0.48474968  -0.00805246  0.37046838  1
  In  In25  1  0.49114929  -0.01338174  0.85789150  1
  In  In26  1  0.51323198  0.33826979  0.37728220  1
  In  In27  1  0.51019474  0.32364697  0.86884782  1
  In  In28  1  0.49456217  0.66768950  0.37775806  1
  In  In29  1  0.48781579  0.66614104  0.86458674  1
  In  In30  1  0.84039756  0.00515487  0.37249351  1
  In  In31  1  0.83382667  0.00709792  0.87441480  1
  In  In32  1  0.84018085  0.33068860  0.37913303  1
  In  In33  1  0.83593543  0.33393462  0.87130268  1
  In  In34  1  0.82720828  0.65847902  0.37229487  1
  In  In35  1  0.81851501  0.65806809  0.87659334  1
  In  In36  1  -0.01551393  0.16451170  0.35958571  1
  In  In37  1  -0.01255800  0.17700303  0.88670040  1
  In  In38  1  -0.00225394  0.49870667  0.37028272  1
  In  In39  1  0.00797747  0.49061632  0.87352428  1
  In  In40  1  0.00682768  0.83668072  0.36306311  1
  In  In41  1  0.00518084  0.84456300  0.88227493  1
  In  In42  1  0.33845580  0.15044725  0.37280842  1
  In  In43  1  0.33491649  0.15712394  0.87955448  1
  In  In44  1  0.31748534  0.51636382  0.39088500  1
  In  In45  1  0.31770545  0.51136088  0.87115990  1
  In  In46  1  0.33940888  0.82933056  0.37136749  1
  In  In47  1  0.31959695  0.81649245  0.86015291  1
  In  In48  1  0.67463366  0.17725281  0.37648262  1
  In  In49  1  0.68083618  0.17658162  0.86324275  1
  In  In50  1  0.65628243  0.51404716  0.38951025  1
  In  In51  1  0.67458945  0.50518535  0.86575418  1
  In  In52  1  0.66049083  0.81722499  0.37502327  1
  In  In53  1  0.64770361  0.82209138  0.85424483  1
  In  In54  1  0.16544560  -0.00217894  0.12963553  1
  In  In55  1  0.17884823  0.00460827  0.62946059  1
  In  In56  1  0.14945659  0.32272991  0.11595141  1
  In  In57  1  0.15255301  0.34710840  0.63520004  1
  In  In58  1  0.16937695  0.66220144  0.11793239  1
  In  In59  1  0.18510699  0.66866430  0.62349340  1
  In  In60  1  0.49142626  -0.02225928  0.12896691  1
  In  In61  1  0.50761535  -0.00932038  0.63139068  1
  In  In62  1  0.50501442  0.33431908  0.12496990  1
  In  In63  1  0.49912051  0.35312813  0.62364045  1
  In  In64  1  0.48948415  0.68677064  0.14997734  1
  In  In65  1  0.50156014  0.66618011  0.62760880  1
  In  In66  1  0.84181811  0.01803107  0.12012644  1
  In  In67  1  0.81687002  0.00051992  0.61951102  1
  In  In68  1  0.84316379  0.33804066  0.12101574  1
  In  In69  1  0.84036471  0.33810299  0.62960861  1
  In  In70  1  0.84195035  0.65650753  0.13297936  1
  In  In71  1  0.82769175  0.64190215  0.62598041  1
  In  In72  1  0.32858525  0.33447156  0.25355665  1
  In  In73  1  0.50574100  0.16096357  -0.00917600  1
  In  In74  1  0.82704355  0.82428639  0.49493030  1
  In  In75  1  0.67278123  -0.00259734  0.25058224  1
  In  In76  1  0.67264575  0.33716746  0.24689592  1
  In  In77  1  0.17308936  0.83088735  0.49241150  1
  In  In78  1  0.00221103  0.00725682  0.75840452  1
  In  In79  1  0.83311874  0.83547395  -0.00063947  1
  In  In80  1  0.49262609  0.82898622  0.00137691  1
  In  In81  1  0.16334042  0.17601184  0.50501386  1
  In  In82  1  0.49747263  0.50312828  -0.00201829  1
  In  In83  1  0.00283931  0.66093713  0.75286267  1
  In  In84  1  0.33542346  0.33529506  0.74735158  1
  In  In85  1  0.50419822  0.17392833  0.49516789  1
  Cu  Cu86  1  -0.00608950  0.01515211  0.49601395  1
  Cu  Cu87  1  0.50806793  0.16114166  0.74830301  1
  Cu  Cu88  1  0.82839112  0.50216417  0.25177838  1
  Cu  Cu89  1  0.33157749  0.00107794  0.00448859  1
  Cu  Cu90  1  0.17008331  0.82967976  0.24941344  1
  Cu  Cu91  1  0.17145971  0.83709147  0.75603182  1
  Cu  Cu92  1  0.49889455  0.51077804  0.26131312  1
  Cu  Cu93  1  -0.00462310  0.33782268  0.49958495  1
  Cu  Cu94  1  0.32482162  0.34175922  0.00141824  1
  Cu  Cu95  1  0.67827583  0.33984553  0.50646101  1
  Cu  Cu96  1  0.65928812  -0.00192297  0.50213586  1
  Cu  Cu97  1  0.33660681  -0.01228722  0.50311688  1
  Cu  Cu98  1  0.68072282  0.33069246  -0.00726363  1
  Cu  Cu99  1  0.49546887  0.15456264  0.24668518  1
  Cu  Cu100  1  0.67274463  0.00297524  -0.01131297  1
  Cu  Cu101  1  -0.00297658  0.66088803  0.00435806  1
  Cu  Cu102  1  0.32829380  0.33547215  0.50241806  1
  Cu  Cu103  1  0.82614385  0.82581580  0.74591478  1
  Cu  Cu104  1  0.16412456  0.17185329  0.76199707  1
  Cu  Cu105  1  0.66218151  0.66678635  0.50577479  1
  Cu  Cu106  1  0.00668355  0.00225012  0.00743783  1
  Cu  Cu107  1  -0.00396977  0.33334160  0.00023497  1
  Cu  Cu108  1  0.66271263  0.65661160  0.00005333  1
  Cu  Cu109  1  0.50079507  0.50262835  0.74616861  1
  Cu  Cu110  1  0.83397019  0.83679361  0.24812077  1
  Cu  Cu111  1  0.16259968  0.16249959  0.24767650  1
  Cu  Cu112  1  0.16442734  0.50201605  0.24614202  1
  Cu  Cu113  1  0.00486672  0.65787764  0.49491550  1
  Cu  Cu114  1  0.83814723  0.16790699  0.74985631  1
  Se  Se115  1  0.08570697  0.08628641  0.06246526  1
  Se  Se116  1  0.07586128  0.08010827  0.56471949  1
  Se  Se117  1  0.08004699  0.41949192  0.05093955  1
  Se  Se118  1  0.08583994  0.41607843  0.55129431  1
  Se  Se119  1  0.08202776  0.74754648  0.05131034  1
  Se  Se120  1  0.07689298  0.74516564  0.55541296  1
  Se  Se121  1  0.41860186  0.07893397  0.06161270  1
  Se  Se122  1  0.41579770  0.08118161  0.55422210  1
  Se  Se123  1  0.40841746  0.41431407  0.06346903  1
  Se  Se124  1  0.41829097  0.42035743  0.54733045  1
  Se  Se125  1  0.40786272  0.73822456  0.06281658  1
  Se  Se126  1  0.41629194  0.75266643  0.56295643  1
  Se  Se127  1  0.75756255  0.08357102  0.04197909  1
  Se  Se128  1  0.74854095  0.08460595  0.54412043  1
  Se  Se129  1  0.75195681  0.41569854  0.05392875  1
  Se  Se130  1  0.75565323  0.42267244  0.56291515  1
  Se  Se131  1  0.74486095  0.74019583  0.05738929  1
  Se  Se132  1  0.74422425  0.74634782  0.56681623  1
  Se  Se133  1  0.24691145  0.25077033  0.05105991  1
  Se  Se134  1  0.25580283  0.25872781  0.56917364  1
  Se  Se135  1  0.24367511  0.57824017  0.04446306  1
  Se  Se136  1  0.24555364  0.58663853  0.54553549  1
  Se  Se137  1  0.25085844  0.91734718  0.05939498  1
  Se  Se138  1  0.25458841  0.91210291  0.56336666  1
  Se  Se139  1  0.59503888  0.25460443  0.05385003  1
  Se  Se140  1  0.59019618  0.25763994  0.56176027  1
  Se  Se141  1  0.57829051  0.59207279  0.06647043  1
  Se  Se142  1  0.58525625  0.57963343  0.56094471  1
  Se  Se143  1  0.59229484  0.92646269  0.05135224  1
  Se  Se144  1  0.57922809  0.91325018  0.55384563  1
  Se  Se145  1  0.91831890  0.24591453  0.05511032  1
  Se  Se146  1  0.91426411  0.25307089  0.55291602  1
  Se  Se147  1  0.90954915  0.57947242  0.05355523  1
  Se  Se148  1  0.91560257  0.58236571  0.54912359  1
  Se  Se149  1  0.92619002  0.91490620  0.06435061  1
  Se  Se150  1  0.91785548  0.92430905  0.55165970  1
  Se  Se151  1  0.07362843  0.25412946  0.43806029  1
  Se  Se152  1  0.08448673  0.25141634  0.94912477  1
  Se  Se153  1  0.08666685  0.57903268  0.43809747  1
  Se  Se154  1  0.07821690  0.58239454  0.94462413  1
  Se  Se155  1  0.07391743  0.92790563  0.44226090  1
  Se  Se156  1  0.08729827  0.91330504  0.95784109  1
  Se  Se157  1  0.40425148  0.25880371  0.43663555  1
  Se  Se158  1  0.41064898  0.26235900  0.94373710  1
  Se  Se159  1  0.43613556  0.56337347  0.44340857  1
  Se  Se160  1  0.40581771  0.59575888  0.94281337  1
  Se  Se161  1  0.41895701  0.90892092  0.44668117  1
  Se  Se162  1  0.40962424  0.92328850  0.94044419  1
  Se  Se163  1  0.75281032  0.25352713  0.44943424  1
  Se  Se164  1  0.76002219  0.24200258  0.94246351  1
  Se  Se165  1  0.75302352  0.58967616  0.45312580  1
  Se  Se166  1  0.74635717  0.57241214  0.94929880  1
  Se  Se167  1  0.74108583  0.92282848  0.43660947  1
  Se  Se168  1  0.74035044  0.90965036  0.93026637  1
  Se  Se169  1  0.25294154  0.07488138  0.44897352  1
  Se  Se170  1  0.24915645  0.08937639  0.95427661  1
  Se  Se171  1  0.24249521  0.41444637  0.44861498  1
  Se  Se172  1  0.24815285  0.42390601  0.94335390  1
  Se  Se173  1  0.26113316  0.73467166  0.43934486  1
  Se  Se174  1  0.24567502  0.76487793  0.94568069  1
  Se  Se175  1  0.58683063  0.07668046  0.43363939  1
  Se  Se176  1  0.58964156  0.07518147  0.92534310  1
  Se  Se177  1  0.58628897  0.41449974  0.45354665  1
  Se  Se178  1  0.58869652  0.40879460  0.94152437  1
  Se  Se179  1  0.57940400  0.74829775  0.45046348  1
  Se  Se180  1  0.58527876  0.74035195  0.93994976  1
  Se  Se181  1  0.91154388  0.09609035  0.44282654  1
  Se  Se182  1  0.91917700  0.07418287  0.94900685  1
  Se  Se183  1  0.91478430  0.42382735  0.44519418  1
  Se  Se184  1  0.91740682  0.41549563  0.94202220  1
  Se  Se185  1  0.92898235  0.74653039  0.43644597  1
  Se  Se186  1  0.92098433  0.74045334  0.93872543  1
  Se  Se187  1  0.24082269  0.23916717  0.31478266  1
  Se  Se188  1  0.25041134  0.25280977  0.81674771  1
  Se  Se189  1  0.25292735  0.57663623  0.30223869  1
  Se  Se190  1  0.24701027  0.59819056  0.80110524  1
  Se  Se191  1  0.25023807  0.91217796  0.30695160  1
  Se  Se192  1  0.25037456  0.92764061  0.80670555  1
  Se  Se193  1  0.57551756  0.24021575  0.30232512  1
  Se  Se194  1  0.59022871  0.25091166  0.79460312  1
  Se  Se195  1  0.58967445  0.59028279  0.30977499  1
  Se  Se196  1  0.58031476  0.58492179  0.80383148  1
  Se  Se197  1  0.57931553  0.90926938  0.30686398  1
  Se  Se198  1  0.59182178  0.92747466  0.79248802  1
  Se  Se199  1  0.91763986  0.26685962  0.29934170  1
  Se  Se200  1  0.92219293  0.24858420  0.80389566  1
  Se  Se201  1  0.91611733  0.58565558  0.30241431  1
  Se  Se202  1  0.90889149  0.57390797  0.81032951  1
  Se  Se203  1  0.91576577  0.92046024  0.30205839  1
  Se  Se204  1  0.90797822  0.90535911  0.80608309  1
  Se  Se205  1  0.07987010  0.07977900  0.30275319  1
  Se  Se206  1  0.08953945  0.08924176  0.82417846  1
  Se  Se207  1  0.07914144  0.41778447  0.29648613  1
  Se  Se208  1  0.09191852  0.42365831  0.79776806  1
  Se  Se209  1  0.08296908  0.74471446  0.29883799  1
  Se  Se210  1  0.08568906  0.75842209  0.81246008  1
  Se  Se211  1  0.40888633  0.07219967  0.29595521  1
  Se  Se212  1  0.41522539  0.08997805  0.80173263  1
  Se  Se213  1  0.42025261  0.42081294  0.31444567  1
  Se  Se214  1  0.42376427  0.42479856  0.81274438  1
  Se  Se215  1  0.41622164  0.74351185  0.30271469  1
  Se  Se216  1  0.43715401  0.77667623  0.80260983  1
  Se  Se217  1  0.75839454  0.09757922  0.30386468  1
  Se  Se218  1  0.75498259  0.07967630  0.79859060  1
  Se  Se219  1  0.74738164  0.42712114  0.31626449  1
  Se  Se220  1  0.73156960  0.39568142  0.80771206  1
  Se  Se221  1  0.75577836  0.75413080  0.30572814  1
  Se  Se222  1  0.74838474  0.74047765  0.80119278  1
  Se  Se223  1  0.25139852  0.07908891  0.20048308  1
  Se  Se224  1  0.24366993  0.08846406  0.70656161  1
  Se  Se225  1  0.24245646  0.41630661  0.18558459  1
  Se  Se226  1  0.25563332  0.43052906  0.68690397  1
  Se  Se227  1  0.24654691  0.74478560  0.19207284  1
  Se  Se228  1  0.25030627  0.75051179  0.70210815  1
  Se  Se229  1  0.58042009  0.08360861  0.18376125  1
  Se  Se230  1  0.59104501  0.08286789  0.69082952  1
  Se  Se231  1  0.57361555  0.43024635  0.19502031  1
  Se  Se232  1  0.58484492  0.41593254  0.69877791  1
  Se  Se233  1  0.59952779  0.74804009  0.20458099  1
  Se  Se234  1  0.58465137  0.74268990  0.70015299  1
  Se  Se235  1  0.91530290  0.08318315  0.20003754  1
  Se  Se236  1  0.91401873  0.08487516  0.68649290  1
  Se  Se237  1  0.91192663  0.42252013  0.19561342  1
  Se  Se238  1  0.93656193  0.40692099  0.69660905  1
  Se  Se239  1  0.91715821  0.74905839  0.19791260  1
  Se  Se240  1  0.91113642  0.75097365  0.68752534  1
  Se  Se241  1  0.08257851  0.25136373  0.19800140  1
  Se  Se242  1  0.08574266  0.25238738  0.70422225  1
  Se  Se243  1  0.08364891  0.58406533  0.18945680  1
  Se  Se244  1  0.08681996  0.58313928  0.68193894  1
  Se  Se245  1  0.08417383  0.91524465  0.20003179  1
  Se  Se246  1  0.08732715  0.91254207  0.69478282  1
  Se  Se247  1  0.41916938  0.24317645  0.18992407  1
  Se  Se248  1  0.42743350  0.24258826  0.68666100  1
  Se  Se249  1  0.41171960  0.58233232  0.20212788  1
  Se  Se250  1  0.41287778  0.58230664  0.69519048  1
  Se  Se251  1  0.42760228  0.89407200  0.20279522  1
  Se  Se252  1  0.38695411  0.94986850  0.68574608  1
  Se  Se253  1  0.75991166  0.24354896  0.19040882  1
  Se  Se254  1  0.75496326  0.25023733  0.69497313  1
  Se  Se255  1  0.74439454  0.58593560  0.19913049  1
  Se  Se256  1  0.75732185  0.57550823  0.70665142  1
  Se  Se257  1  0.75923453  0.91226704  0.18153271  1
  Se  Se258  1  0.75033560  0.91588572  0.69383662  1
