# generated using pymatgen
data_In86Cu29Se144
_symmetry_space_group_name_H-M   'P 1'
_cell_length_a   17.57439765
_cell_length_b   17.57392685
_cell_length_c   23.43522807
_cell_angle_alpha   90.00206658
_cell_angle_beta   90.00270913
_cell_angle_gamma   90.03804424
_symmetry_Int_Tables_number   1
_chemical_formula_structural   In86Cu29Se144
_chemical_formula_sum   'In86 Cu29 Se144'
_cell_volume   7237.99620460
_cell_formula_units_Z   1
loop_
 _symmetry_equiv_pos_site_id
 _symmetry_equiv_pos_as_xyz
  1  'x, y, z'
loop_
 _atom_site_type_symbol
 _atom_site_label
 _atom_site_symmetry_multiplicity
 _atom_site_fract_x
 _atom_site_fract_y
 _atom_site_fract_z
 _atom_site_occupancy
  In  In0  1  -0.00812537  0.17608709  0.13657944  1
  In  In1  1  0.01098803  0.18246190  0.61533287  1
  In  In2  1  -0.01292831  0.49646316  0.12609980  1
  In  In3  1  -0.00412456  0.49089597  0.62275198  1
  In  In4  1  -0.00738014  0.84551590  0.13025486  1
  In  In5  1  -0.00200973  0.82968907  0.61666705  1
  In  In6  1  0.34517763  0.17652965  0.13042000  1
  In  In7  1  0.33293430  0.17207702  0.61800884  1
  In  In8  1  0.34061650  0.50050836  0.13201975  1
  In  In9  1  0.31736655  0.49146129  0.62382818  1
  In  In10  1  0.33236437  0.82192183  0.12667440  1
  In  In11  1  0.33726204  0.83748203  0.61506342  1
  In  In12  1  0.67251055  0.15861134  0.13585228  1
  In  In13  1  0.66648213  0.16262424  0.61212214  1
  In  In14  1  0.65677008  0.49420714  0.11720404  1
  In  In15  1  0.68163138  0.50149418  0.62572750  1
  In  In16  1  0.67115353  0.83829054  0.11851106  1
  In  In17  1  0.66595111  0.82945398  0.62225761  1
  In  In18  1  0.15373009  0.01206149  0.38349709  1
  In  In19  1  0.17098532  -0.00058553  0.87069901  1
  In  In20  1  0.16393218  0.33402362  0.37622972  1
  In  In21  1  0.17263151  0.33615212  0.84739977  1
  In  In22  1  0.17338933  0.65595082  0.38379348  1
  In  In23  1  0.17498759  0.66733571  0.87029620  1
  In  In24  1  0.51035718  -0.00777233  0.37653278  1
  In  In25  1  0.49814230  -0.02632352  0.88088434  1
  In  In26  1  0.48792027  0.32553587  0.36671230  1
  In  In27  1  0.50575198  0.34845473  0.87763966  1
  In  In28  1  0.50559557  0.67765785  0.37028182  1
  In  In29  1  0.51533032  0.64952849  0.89526460  1
  In  In30  1  0.83125823  -0.00298985  0.37104750  1
  In  In31  1  0.83523818  0.00362207  0.88054311  1
  In  In32  1  0.83496551  0.33001925  0.37502812  1
  In  In33  1  0.83762567  0.32846198  0.88402907  1
  In  In34  1  0.83169783  0.66530749  0.38251928  1
  In  In35  1  0.81876838  0.67394823  0.89026601  1
  In  In36  1  -0.00257574  0.16607631  0.37445278  1
  In  In37  1  -0.00376745  0.16945390  0.87198744  1
  In  In38  1  0.00783416  0.49103937  0.38210631  1
  In  In39  1  -0.00160910  0.48380263  0.87467640  1
  In  In40  1  -0.01179472  0.84235806  0.37977411  1
  In  In41  1  -0.00667118  0.82555181  0.87355650  1
  In  In42  1  0.32252170  0.17626015  0.38307926  1
  In  In43  1  0.32624287  0.16712475  0.87609042  1
  In  In44  1  0.32580519  0.48774169  0.36485724  1
  In  In45  1  0.34493863  0.50223084  0.87463159  1
  In  In46  1  0.34135465  0.82474626  0.37943703  1
  In  In47  1  0.35463949  0.82361834  0.88423044  1
  In  In48  1  0.66832568  0.16507275  0.37525532  1
  In  In49  1  0.67209787  0.17892103  0.87903119  1
  In  In50  1  0.67967030  0.50503139  0.37209922  1
  In  In51  1  0.66157030  0.50713303  0.88726040  1
  In  In52  1  0.66267575  0.83409713  0.37591755  1
  In  In53  1  0.68058339  0.81307472  0.89358975  1
  In  In54  1  0.15451406  -0.00982495  0.13477491  1
  In  In55  1  0.16842866  0.00380681  0.61295605  1
  In  In56  1  0.17029331  0.33364738  0.13614128  1
  In  In57  1  0.16405493  0.33247179  0.62737339  1
  In  In58  1  0.17608898  0.67435636  0.12961158  1
  In  In59  1  0.15850262  0.65833885  0.61326929  1
  In  In60  1  0.51056247  0.00738450  0.12713417  1
  In  In61  1  0.49773733  -0.00260126  0.61518119  1
  In  In62  1  0.49590761  0.35139907  0.14179885  1
  In  In63  1  0.50015100  0.32130758  0.62176661  1
  In  In64  1  0.48623933  0.65203176  0.10383890  1
  In  In65  1  0.50033675  0.67871589  0.62547225  1
  In  In66  1  0.82990696  0.00220660  0.12724854  1
  In  In67  1  0.83180396  0.00048703  0.61694098  1
  In  In68  1  0.83398542  0.32939769  0.12941746  1
  In  In69  1  0.84227416  0.34052424  0.61523937  1
  In  In70  1  0.81261499  0.65744134  0.10181001  1
  In  In71  1  0.82979155  0.66472075  0.62498936  1
  In  In72  1  -0.00445360  0.65688717  0.74172315  1
  In  In73  1  0.33435610  0.00115566  0.74440347  1
  In  In74  1  0.16014164  0.16586965  -0.00634534  1
  In  In75  1  0.16882950  0.83551244  -0.00356148  1
  In  In76  1  0.65822499  0.66223086  0.23772401  1
  In  In77  1  0.50798667  0.16523773  0.00869592  1
  In  In78  1  0.66725851  0.00111769  0.74050352  1
  In  In79  1  0.16853762  0.49950195  -0.00651499  1
  In  In80  1  -0.00004189  0.00631927  0.75305225  1
  In  In81  1  0.66862726  0.33711107  0.74890914  1
  In  In82  1  0.33094673  0.65816515  0.74980102  1
  In  In83  1  0.50225635  0.50178224  0.48843374  1
  In  In84  1  0.32797003  0.00487041  0.25678247  1
  In  In85  1  -0.00199092  0.67028924  0.24477591  1
  Cu  Cu86  1  -0.00995412  0.00520608  0.00327550  1
  Cu  Cu87  1  0.17261554  0.83504356  0.74258630  1
  Cu  Cu88  1  -0.00277646  0.67139978  0.00051030  1
  Cu  Cu89  1  0.16952966  0.49939184  0.25689392  1
  Cu  Cu90  1  -0.00306291  0.33106983  0.00257947  1
  Cu  Cu91  1  -0.00141575  0.66878395  0.50079767  1
  Cu  Cu92  1  0.67001994  0.32901452  0.49735028  1
  Cu  Cu93  1  0.50070210  0.83545566  0.25085613  1
  Cu  Cu94  1  0.48630354  0.16885612  0.74811857  1
  Cu  Cu95  1  0.66960035  0.66737444  0.49883185  1
  Cu  Cu96  1  0.33836248  0.33582738  0.00340981  1
  Cu  Cu97  1  0.83743250  0.17422311  0.74834842  1
  Cu  Cu98  1  0.83873235  0.49209882  0.25152933  1
  Cu  Cu99  1  0.51380156  0.82287465  0.75099240  1
  Cu  Cu100  1  0.50237462  0.17177630  0.25313538  1
  Cu  Cu101  1  0.33377611  0.66843266  0.50115020  1
  Cu  Cu102  1  0.32808997  0.33546171  0.49586816  1
  Cu  Cu103  1  0.66898049  0.00543055  0.00490014  1
  Cu  Cu104  1  0.33507565  -0.00020797  0.49352794  1
  Cu  Cu105  1  0.16338122  0.83194346  0.25678025  1
  Cu  Cu106  1  0.50089427  0.50256141  0.75662525  1
  Cu  Cu107  1  -0.00460038  -0.00028785  0.49693567  1
  Cu  Cu108  1  0.16454917  0.17146596  0.25946047  1
  Cu  Cu109  1  0.83412369  0.16364760  0.25422532  1
  Cu  Cu110  1  0.82657470  0.83156406  0.24588751  1
  Cu  Cu111  1  0.83190384  0.50501410  0.75140977  1
  Cu  Cu112  1  0.67063870  0.33379565  0.00708709  1
  Cu  Cu113  1  -0.00063626  0.33077671  0.49729216  1
  Cu  Cu114  1  0.67022357  -0.00259845  0.49476356  1
  Se  Se115  1  0.07612103  0.07971278  0.06224806  1
  Se  Se116  1  0.07955108  0.08459173  0.54912590  1
  Se  Se117  1  0.08301158  0.40999483  0.05961105  1
  Se  Se118  1  0.08210896  0.41298660  0.55393237  1
  Se  Se119  1  0.07700129  0.74903303  0.06185384  1
  Se  Se120  1  0.08687034  0.75387972  0.54896875  1
  Se  Se121  1  0.40674564  0.07768442  0.06071587  1
  Se  Se122  1  0.41436354  0.08384515  0.55160520  1
  Se  Se123  1  0.41889815  0.41642292  0.05981752  1
  Se  Se124  1  0.41527053  0.41373355  0.55431016  1
  Se  Se125  1  0.41622084  0.76012150  0.05067686  1
  Se  Se126  1  0.42156152  0.75151430  0.54990100  1
  Se  Se127  1  0.75112775  0.08966806  0.05718877  1
  Se  Se128  1  0.75367642  0.08351270  0.54626834  1
  Se  Se129  1  0.75658627  0.41607519  0.05903799  1
  Se  Se130  1  0.74848770  0.41742580  0.55062846  1
  Se  Se131  1  0.74406499  0.75837603  0.04291300  1
  Se  Se132  1  0.75261248  0.74989393  0.55384841  1
  Se  Se133  1  0.25348801  0.25443613  0.05785619  1
  Se  Se134  1  0.24548373  0.25346093  0.55237400  1
  Se  Se135  1  0.25286062  0.58578315  0.05930112  1
  Se  Se136  1  0.25176091  0.57987931  0.55027735  1
  Se  Se137  1  0.24957316  0.92380295  0.06450538  1
  Se  Se138  1  0.25084194  0.91661979  0.54836425  1
  Se  Se139  1  0.58846471  0.25854568  0.07076823  1
  Se  Se140  1  0.58116169  0.24813582  0.54784890  1
  Se  Se141  1  0.60753453  0.60467000  0.05424382  1
  Se  Se142  1  0.58730280  0.58655136  0.55833214  1
  Se  Se143  1  0.58139381  0.92335579  0.05416023  1
  Se  Se144  1  0.58793714  0.91597574  0.55285991  1
  Se  Se145  1  0.91679511  0.24682272  0.05737219  1
  Se  Se146  1  0.91194173  0.24634612  0.54769989  1
  Se  Se147  1  0.92007247  0.58065833  0.05114116  1
  Se  Se148  1  0.91880391  0.58537310  0.55877468  1
  Se  Se149  1  0.91138728  0.91760650  0.05586202  1
  Se  Se150  1  0.91438623  0.91471214  0.55097213  1
  Se  Se151  1  0.08301691  0.24744070  0.44358532  1
  Se  Se152  1  0.08168741  0.26612037  0.93545562  1
  Se  Se153  1  0.08196250  0.58137428  0.45050244  1
  Se  Se154  1  0.07571277  0.59484597  0.93723515  1
  Se  Se155  1  0.08177756  0.91434049  0.44751827  1
  Se  Se156  1  0.07176154  0.92807953  0.94000500  1
  Se  Se157  1  0.41744961  0.25249587  0.44762309  1
  Se  Se158  1  0.41744857  0.25276556  0.94350716  1
  Se  Se159  1  0.40826558  0.59160606  0.43378204  1
  Se  Se160  1  0.41259941  0.57794827  0.95224152  1
  Se  Se161  1  0.42126980  0.91493886  0.44455733  1
  Se  Se162  1  0.39916048  0.92795588  0.95284798  1
  Se  Se163  1  0.75406916  0.24533609  0.44483424  1
  Se  Se164  1  0.75229458  0.24856493  0.95425207  1
  Se  Se165  1  0.75271181  0.57879312  0.45098105  1
  Se  Se166  1  0.75699701  0.57313424  0.95458939  1
  Se  Se167  1  0.75260268  0.91156231  0.44253047  1
  Se  Se168  1  0.75002941  0.92309544  0.94775080  1
  Se  Se169  1  0.24632013  0.08649556  0.44984625  1
  Se  Se170  1  0.25798754  0.06996606  0.94664388  1
  Se  Se171  1  0.24645249  0.42148965  0.44402208  1
  Se  Se172  1  0.25491966  0.40250720  0.93622773  1
  Se  Se173  1  0.24919533  0.75173761  0.44770557  1
  Se  Se174  1  0.26008689  0.73553608  0.94631085  1
  Se  Se175  1  0.58411140  0.08251421  0.44523467  1
  Se  Se176  1  0.58879655  0.07701397  0.93724224  1
  Se  Se177  1  0.59226854  0.40740552  0.43422335  1
  Se  Se178  1  0.58352779  0.41652817  0.95522289  1
  Se  Se179  1  0.58365919  0.74953736  0.44691574  1
  Se  Se180  1  0.54899915  0.78141937  0.93648698  1
  Se  Se181  1  0.91299353  0.08097911  0.44087530  1
  Se  Se182  1  0.91627288  0.09256884  0.94559544  1
  Se  Se183  1  0.91381794  0.41571742  0.44647934  1
  Se  Se184  1  0.91514383  0.41866699  0.95171757  1
  Se  Se185  1  0.91384682  0.75106360  0.44806958  1
  Se  Se186  1  0.91442602  0.75796359  0.95032935  1
  Se  Se187  1  0.25258022  0.25562717  0.30606613  1
  Se  Se188  1  0.26157262  0.24240832  0.79758129  1
  Se  Se189  1  0.25101524  0.58950719  0.30405659  1
  Se  Se190  1  0.23872660  0.56449878  0.80509344  1
  Se  Se191  1  0.24188258  0.91342012  0.31791149  1
  Se  Se192  1  0.25460025  0.90249341  0.80897582  1
  Se  Se193  1  0.58866628  0.25224127  0.30601207  1
  Se  Se194  1  0.57420489  0.24419679  0.80671679  1
  Se  Se195  1  0.57728111  0.57517938  0.30702264  1
  Se  Se196  1  0.58453295  0.58316895  0.81086199  1
  Se  Se197  1  0.58823847  0.91572214  0.30120444  1
  Se  Se198  1  0.59031999  0.90910889  0.80770671  1
  Se  Se199  1  0.91839050  0.25028187  0.30384721  1
  Se  Se200  1  0.91519644  0.25671213  0.80545636  1
  Se  Se201  1  0.91456184  0.57936341  0.31011286  1
  Se  Se202  1  0.91084131  0.58192680  0.81527965  1
  Se  Se203  1  0.91220863  0.91151705  0.30021865  1
  Se  Se204  1  0.90747861  0.91191232  0.80642194  1
  Se  Se205  1  0.08000770  0.08157303  0.30355352  1
  Se  Se206  1  0.09828479  0.09667081  0.80543880  1
  Se  Se207  1  0.08163061  0.41604747  0.30455643  1
  Se  Se208  1  0.07255707  0.41614923  0.79637918  1
  Se  Se209  1  0.08280080  0.74973320  0.31574458  1
  Se  Se210  1  0.09083726  0.75536785  0.80216033  1
  Se  Se211  1  0.42113721  0.09184738  0.31552955  1
  Se  Se212  1  0.42634143  0.08000784  0.81341671  1
  Se  Se213  1  0.42292113  0.42243314  0.30012664  1
  Se  Se214  1  0.41770173  0.41400317  0.80360403  1
  Se  Se215  1  0.41617726  0.75105619  0.30070160  1
  Se  Se216  1  0.42777704  0.74307752  0.80695022  1
  Se  Se217  1  0.74670434  0.08018318  0.30368857  1
  Se  Se218  1  0.75440998  0.09343618  0.80576738  1
  Se  Se219  1  0.75193462  0.41339805  0.30466087  1
  Se  Se220  1  0.75364452  0.42320231  0.81435489  1
  Se  Se221  1  0.75088899  0.74600429  0.30513534  1
  Se  Se222  1  0.75107479  0.74900854  0.81078251  1
  Se  Se223  1  0.24058452  0.09424934  0.19161621  1
  Se  Se224  1  0.24139060  0.08969222  0.68894679  1
  Se  Se225  1  0.25406391  0.41954858  0.19949912  1
  Se  Se226  1  0.25510436  0.40586311  0.69742982  1
  Se  Se227  1  0.25057066  0.75324533  0.20419134  1
  Se  Se228  1  0.24814592  0.75094142  0.68364612  1
  Se  Se229  1  0.58296647  0.08201260  0.20455724  1
  Se  Se230  1  0.57056637  0.09385363  0.68793118  1
  Se  Se231  1  0.59732139  0.42112837  0.20102238  1
  Se  Se232  1  0.57598980  0.42499129  0.68868888  1
  Se  Se233  1  0.57193890  0.75808271  0.18235808  1
  Se  Se234  1  0.59504241  0.74141006  0.69603972  1
  Se  Se235  1  0.91605900  0.07945014  0.19849944  1
  Se  Se236  1  0.91285586  0.09116898  0.68711572  1
  Se  Se237  1  0.92281047  0.40844537  0.19970469  1
  Se  Se238  1  0.90837959  0.41864736  0.69555478  1
  Se  Se239  1  0.89860980  0.74666466  0.18257812  1
  Se  Se240  1  0.91113114  0.76023009  0.69330396  1
  Se  Se241  1  0.08328018  0.25345572  0.20191719  1
  Se  Se242  1  0.07436436  0.25522549  0.69601585  1
  Se  Se243  1  0.09139778  0.57447335  0.18932356  1
  Se  Se244  1  0.09475459  0.57006049  0.69087002  1
  Se  Se245  1  0.07509619  0.91361867  0.20757058  1
  Se  Se246  1  0.08819768  0.91535900  0.68815232  1
  Se  Se247  1  0.41568038  0.25662603  0.20481498  1
  Se  Se248  1  0.40978487  0.25346988  0.69300965  1
  Se  Se249  1  0.42573565  0.59083404  0.19190877  1
  Se  Se250  1  0.42334618  0.57319705  0.68641103  1
  Se  Se251  1  0.41736648  0.91871221  0.19308732  1
  Se  Se252  1  0.43046832  0.90389756  0.69300219  1
  Se  Se253  1  0.75178894  0.24916741  0.20067320  1
  Se  Se254  1  0.75200324  0.24529868  0.68563713  1
  Se  Se255  1  0.76272027  0.57523236  0.18949373  1
  Se  Se256  1  0.74806039  0.58814052  0.69990472  1
  Se  Se257  1  0.74408810  0.91802449  0.19476972  1
  Se  Se258  1  0.76222053  0.90895880  0.69079654  1
