# generated using pymatgen
data_In86Cu29Se144
_symmetry_space_group_name_H-M   'P 1'
_cell_length_a   17.59094905
_cell_length_b   17.59085231
_cell_length_c   23.44852665
_cell_angle_alpha   90.02297826
_cell_angle_beta   90.01958580
_cell_angle_gamma   89.99890505
_symmetry_Int_Tables_number   1
_chemical_formula_structural   In86Cu29Se144
_chemical_formula_sum   'In86 Cu29 Se144'
_cell_volume   7255.90607900
_cell_formula_units_Z   1
loop_
 _symmetry_equiv_pos_site_id
 _symmetry_equiv_pos_as_xyz
  1  'x, y, z'
loop_
 _atom_site_type_symbol
 _atom_site_label
 _atom_site_symmetry_multiplicity
 _atom_site_fract_x
 _atom_site_fract_y
 _atom_site_fract_z
 _atom_site_occupancy
  In  In0  1  0.02567070  0.14556810  0.15551358  1
  In  In1  1  0.00712199  0.16448652  0.62474392  1
  In  In2  1  0.00277966  0.49793243  0.11796743  1
  In  In3  1  -0.01035358  0.48984185  0.62754192  1
  In  In4  1  0.00846732  0.83855945  0.11784034  1
  In  In5  1  0.01843445  0.84195989  0.62150611  1
  In  In6  1  0.31246051  0.18254684  0.15105133  1
  In  In7  1  0.32825729  0.15900012  0.60953488  1
  In  In8  1  0.32685292  0.48997323  0.11484293  1
  In  In9  1  0.34255258  0.50143842  0.62622425  1
  In  In10  1  0.34205983  0.83795925  0.12165404  1
  In  In11  1  0.33029555  0.82858993  0.61888596  1
  In  In12  1  0.66968634  0.16028026  0.13476962  1
  In  In13  1  0.67092856  0.16721252  0.60689491  1
  In  In14  1  0.67217116  0.50106971  0.11446390  1
  In  In15  1  0.65131463  0.49212612  0.62470615  1
  In  In16  1  0.67335055  0.85394923  0.10783721  1
  In  In17  1  0.65795796  0.84576958  0.62040186  1
  In  In18  1  0.16512405  0.00369503  0.37105310  1
  In  In19  1  0.15787250  0.01206539  0.88876417  1
  In  In20  1  0.14317151  0.30741723  0.34545490  1
  In  In21  1  0.15551324  0.34222831  0.88312602  1
  In  In22  1  0.18083948  0.67003561  0.37607143  1
  In  In23  1  0.17493860  0.66228303  0.88020795  1
  In  In24  1  0.49583339  0.00292071  0.37422292  1
  In  In25  1  0.49911361  -0.00288575  0.88068129  1
  In  In26  1  0.49316872  0.33586407  0.37952858  1
  In  In27  1  0.51333364  0.33074976  0.87412904  1
  In  In28  1  0.47589642  0.67030472  0.39322830  1
  In  In29  1  0.49189901  0.67317804  0.87477467  1
  In  In30  1  0.85236197  0.02776710  0.35088079  1
  In  In31  1  0.83109012  -0.01082510  0.87732000  1
  In  In32  1  0.83009178  0.30303565  0.37112923  1
  In  In33  1  0.84663983  0.33186549  0.87034155  1
  In  In34  1  0.83623155  0.67305076  0.37336171  1
  In  In35  1  0.82801067  0.67130333  0.88097084  1
  In  In36  1  0.00462721  0.16321161  0.37071516  1
  In  In37  1  0.00383790  0.17571154  0.86928934  1
  In  In38  1  0.00715789  0.47529879  0.37230719  1
  In  In39  1  0.00350183  0.49050591  0.88301049  1
  In  In40  1  -0.00208927  0.85412635  0.37122601  1
  In  In41  1  -0.00541857  0.84426475  0.88406930  1
  In  In42  1  0.32713010  0.16863402  0.37020111  1
  In  In43  1  0.32733986  0.15389737  0.87931809  1
  In  In44  1  0.33727101  0.49147016  0.37222809  1
  In  In45  1  0.32132055  0.50782843  0.88078203  1
  In  In46  1  0.31994230  0.83652467  0.38193604  1
  In  In47  1  0.34270266  0.82713953  0.88228803  1
  In  In48  1  0.68012965  0.14479814  0.39381057  1
  In  In49  1  0.66066553  0.16789734  0.86926332  1
  In  In50  1  0.65495130  0.49029375  0.37419962  1
  In  In51  1  0.67776507  0.48867934  0.88222695  1
  In  In52  1  0.64672534  0.84363266  0.38335246  1
  In  In53  1  0.66904699  0.83984024  0.88653567  1
  In  In54  1  0.17260409  -0.00114748  0.13301763  1
  In  In55  1  0.16196919  -0.00153462  0.62044523  1
  In  In56  1  0.16652297  0.33279432  0.12861989  1
  In  In57  1  0.16626360  0.32184384  0.62200222  1
  In  In58  1  0.16947102  0.66644553  0.11481055  1
  In  In59  1  0.16467626  0.68430024  0.62748706  1
  In  In60  1  0.49888306  -0.00229566  0.13042716  1
  In  In61  1  0.50507458  -0.00913179  0.60192379  1
  In  In62  1  0.49043270  0.33275095  0.12541167  1
  In  In63  1  0.50362545  0.33971847  0.61937155  1
  In  In64  1  0.50558616  0.67052556  0.11731630  1
  In  In65  1  0.48773664  0.65926437  0.61700509  1
  In  In66  1  0.84191918  0.00309287  0.13306384  1
  In  In67  1  0.83411955  0.03578727  0.62400807  1
  In  In68  1  0.84100319  0.33888676  0.12226760  1
  In  In69  1  0.84637960  0.30329042  0.64204395  1
  In  In70  1  0.83075465  0.66606522  0.11488166  1
  In  In71  1  0.83619468  0.66618455  0.63069396  1
  In  In72  1  0.33263789  0.33505031  0.74775858  1
  In  In73  1  0.33311830  0.66511256  0.25418771  1
  In  In74  1  0.65982159  0.67343832  0.24947665  1
  In  In75  1  0.49655857  0.16025877  0.00394267  1
  In  In76  1  0.17667711  0.49889470  0.49465406  1
  In  In77  1  0.33220895  -0.00286287  0.74821936  1
  In  In78  1  0.66849303  0.66463901  0.75358333  1
  In  In79  1  0.82547171  0.84632679  0.50349489  1
  In  In80  1  0.00058427  0.66650173  0.23849434  1
  In  In81  1  0.67249341  0.00380218  0.74454822  1
  In  In82  1  0.84078108  0.16627389  0.00792004  1
  In  In83  1  0.66323106  0.32910466  0.25236693  1
  In  In84  1  0.00499572  0.66377346  0.76374050  1
  In  In85  1  0.82626345  0.49554786  0.50789373  1
  Cu  Cu86  1  0.00442627  0.00777474  0.49482691  1
  Cu  Cu87  1  0.32592549  0.32913335  0.49419583  1
  Cu  Cu88  1  0.33307028  0.33196350  0.00643265  1
  Cu  Cu89  1  0.16079584  0.17223601  0.75239549  1
  Cu  Cu90  1  0.00216779  0.00346187  0.01005997  1
  Cu  Cu91  1  0.65918821  0.66356758  -0.00488940  1
  Cu  Cu92  1  0.83003384  0.48314308  0.75421163  1
  Cu  Cu93  1  0.49800737  0.84580576  0.24971015  1
  Cu  Cu94  1  0.49963990  0.49966138  0.74762723  1
  Cu  Cu95  1  0.49838422  0.83077565  0.74963060  1
  Cu  Cu96  1  0.33605015  0.66651825  -0.00083511  1
  Cu  Cu97  1  0.32768605  0.00281224  0.00880488  1
  Cu  Cu98  1  0.17444566  0.84127228  0.75024650  1
  Cu  Cu99  1  0.66159953  0.65974176  0.50135360  1
  Cu  Cu100  1  0.84585628  0.84210947  0.75016600  1
  Cu  Cu101  1  0.83783770  0.49836047  0.24795961  1
  Cu  Cu102  1  -0.00042856  0.66521617  -0.00270312  1
  Cu  Cu103  1  -0.00160886  0.32263844  0.49681596  1
  Cu  Cu104  1  0.82346621  0.84298748  0.24548928  1
  Cu  Cu105  1  0.00864326  0.67242864  0.49651248  1
  Cu  Cu106  1  0.33088354  -0.00118941  0.49153985  1
  Cu  Cu107  1  0.16163529  0.50149917  0.75753391  1
  Cu  Cu108  1  0.50329142  0.16761569  0.74059034  1
  Cu  Cu109  1  0.49799466  0.50478887  0.25085755  1
  Cu  Cu110  1  0.66091424  0.33220317  0.49907088  1
  Cu  Cu111  1  0.66995528  0.33212294  0.00010439  1
  Cu  Cu112  1  0.50163873  0.16319624  0.25780610  1
  Cu  Cu113  1  0.00562693  0.32692673  0.00372212  1
  Cu  Cu114  1  0.16347489  0.83585274  0.25076655  1
  Se  Se115  1  0.08534093  0.08383915  0.06596460  1
  Se  Se116  1  0.08936293  0.08806614  0.55070126  1
  Se  Se117  1  0.09001276  0.41471362  0.05295297  1
  Se  Se118  1  0.07543059  0.41210187  0.55363290  1
  Se  Se119  1  0.08337335  0.74917364  0.04994695  1
  Se  Se120  1  0.09027597  0.75690564  0.54866424  1
  Se  Se121  1  0.40215458  0.08766109  0.07019563  1
  Se  Se122  1  0.41675063  0.08091140  0.54392339  1
  Se  Se123  1  0.42413796  0.41667777  0.04958239  1
  Se  Se124  1  0.40576686  0.41023876  0.55379673  1
  Se  Se125  1  0.41824721  0.75171196  0.05182540  1
  Se  Se126  1  0.43415893  0.76754295  0.55616626  1
  Se  Se127  1  0.74380289  0.07680297  0.06023338  1
  Se  Se128  1  0.73679156  0.06314466  0.54682642  1
  Se  Se129  1  0.75695650  0.41498804  0.05076432  1
  Se  Se130  1  0.74446677  0.40040237  0.56695415  1
  Se  Se131  1  0.74197032  0.74680888  0.05057312  1
  Se  Se132  1  0.74414163  0.73908809  0.56059111  1
  Se  Se133  1  0.25375718  0.24781635  0.06162175  1
  Se  Se134  1  0.24205519  0.24618745  0.54729999  1
  Se  Se135  1  0.25085939  0.58094796  0.04839225  1
  Se  Se136  1  0.25024259  0.58977346  0.56434827  1
  Se  Se137  1  0.24606948  0.91429234  0.05882053  1
  Se  Se138  1  0.25177992  0.92018101  0.55460446  1
  Se  Se139  1  0.59227116  0.25252922  0.06189634  1
  Se  Se140  1  0.57354443  0.24862611  0.54918943  1
  Se  Se141  1  0.58051825  0.57881126  0.05050580  1
  Se  Se142  1  0.57814954  0.57636654  0.55373458  1
  Se  Se143  1  0.56373837  0.91650025  0.05207986  1
  Se  Se144  1  0.59978814  0.91815324  0.53724636  1
  Se  Se145  1  0.93628162  0.24543661  0.06914836  1
  Se  Se146  1  0.91749053  0.24424239  0.55599549  1
  Se  Se147  1  0.91710558  0.58174861  0.05148110  1
  Se  Se148  1  0.92684378  0.59353354  0.55613493  1
  Se  Se149  1  0.91347378  0.92012998  0.05794387  1
  Se  Se150  1  0.92550796  0.92980803  0.56013015  1
  Se  Se151  1  0.08670518  0.25095175  0.43879488  1
  Se  Se152  1  0.08572161  0.24330806  0.94713504  1
  Se  Se153  1  0.07614360  0.58422935  0.43560780  1
  Se  Se154  1  0.08459206  0.58204843  0.94489849  1
  Se  Se155  1  0.08547809  0.91901881  0.44437380  1
  Se  Se156  1  0.08339679  0.91844551  0.95405171  1
  Se  Se157  1  0.41198467  0.24635253  0.44325709  1
  Se  Se158  1  0.41086057  0.25453113  0.94012911  1
  Se  Se159  1  0.40138121  0.57223991  0.45078575  1
  Se  Se160  1  0.41756741  0.58325941  0.94361653  1
  Se  Se161  1  0.41670655  0.91338567  0.44296289  1
  Se  Se162  1  0.41103941  0.92489351  0.94947968  1
  Se  Se163  1  0.75181041  0.24772765  0.45436660  1
  Se  Se164  1  0.74778737  0.24901846  0.94127635  1
  Se  Se165  1  0.74497300  0.58780411  0.43947582  1
  Se  Se166  1  0.75104395  0.58251405  0.94768291  1
  Se  Se167  1  0.76202973  0.92370556  0.42290619  1
  Se  Se168  1  0.75464455  0.91754523  0.95304600  1
  Se  Se169  1  0.24714509  0.08491573  0.44153236  1
  Se  Se170  1  0.24664783  0.08995241  0.95702568  1
  Se  Se171  1  0.24345131  0.39911040  0.42981612  1
  Se  Se172  1  0.25132739  0.41353054  0.94815192  1
  Se  Se173  1  0.25928168  0.73825228  0.45094313  1
  Se  Se174  1  0.25054179  0.75177799  0.94832083  1
  Se  Se175  1  0.56698223  0.08953228  0.44725308  1
  Se  Se176  1  0.59499796  0.07644458  0.94461610  1
  Se  Se177  1  0.57764112  0.41907910  0.44997741  1
  Se  Se178  1  0.58333082  0.41401717  0.94850486  1
  Se  Se179  1  0.58078444  0.74472609  0.44845217  1
  Se  Se180  1  0.57903048  0.75136732  0.94336348  1
  Se  Se181  1  0.91642277  0.08545589  0.44094855  1
  Se  Se182  1  0.92558309  0.07810547  0.94233492  1
  Se  Se183  1  0.91287476  0.40589361  0.44311299  1
  Se  Se184  1  0.91808085  0.40685962  0.94946546  1
  Se  Se185  1  0.92183190  0.75340974  0.44324471  1
  Se  Se186  1  0.91525965  0.75123491  0.94686518  1
  Se  Se187  1  0.26405311  0.25969339  0.29610381  1
  Se  Se188  1  0.24640631  0.24694232  0.81241351  1
  Se  Se189  1  0.23972330  0.57025981  0.30497069  1
  Se  Se190  1  0.24990751  0.58593118  0.80269735  1
  Se  Se191  1  0.24937221  0.91428220  0.30520860  1
  Se  Se192  1  0.24768852  0.91781894  0.81837325  1
  Se  Se193  1  0.58259721  0.24210318  0.31883143  1
  Se  Se194  1  0.58254094  0.24901168  0.79755617  1
  Se  Se195  1  0.57015258  0.58754699  0.31385503  1
  Se  Se196  1  0.58018914  0.57417698  0.81297048  1
  Se  Se197  1  0.58436724  0.92394644  0.30362312  1
  Se  Se198  1  0.58070376  0.91213686  0.80673912  1
  Se  Se199  1  0.93608034  0.26437876  0.30425812  1
  Se  Se200  1  0.91227314  0.24221059  0.79945828  1
  Se  Se201  1  0.91628223  0.57913209  0.30943975  1
  Se  Se202  1  0.90447509  0.57293767  0.81262180  1
  Se  Se203  1  0.91873127  0.91974398  0.29286176  1
  Se  Se204  1  0.92470482  0.92390360  0.80612546  1
  Se  Se205  1  0.08252554  0.07992195  0.29942695  1
  Se  Se206  1  0.08718938  0.08226777  0.80729392  1
  Se  Se207  1  0.08859954  0.42454417  0.29178720  1
  Se  Se208  1  0.07836129  0.41459446  0.80518252  1
  Se  Se209  1  0.08452166  0.75198754  0.30956894  1
  Se  Se210  1  0.09390626  0.76290914  0.81407374  1
  Se  Se211  1  0.41080080  0.08057253  0.30380026  1
  Se  Se212  1  0.42717885  0.09021520  0.80598826  1
  Se  Se213  1  0.42102884  0.41444390  0.30131114  1
  Se  Se214  1  0.42030787  0.42159696  0.81177192  1
  Se  Se215  1  0.42380840  0.75931225  0.30965244  1
  Se  Se216  1  0.41201705  0.75142733  0.80170304  1
  Se  Se217  1  0.74017579  0.09467644  0.30134172  1
  Se  Se218  1  0.76062756  0.08931237  0.80831618  1
  Se  Se219  1  0.75883824  0.42132363  0.31126631  1
  Se  Se220  1  0.74450584  0.40364775  0.80735438  1
  Se  Se221  1  0.75152180  0.76218481  0.30960982  1
  Se  Se222  1  0.75754922  0.76504904  0.80646316  1
  Se  Se223  1  0.23817030  0.08453026  0.20947649  1
  Se  Se224  1  0.24460209  0.09424710  0.69269513  1
  Se  Se225  1  0.26796307  0.40534408  0.19116595  1
  Se  Se226  1  0.23859425  0.42526139  0.69021445  1
  Se  Se227  1  0.24398025  0.75408562  0.19158523  1
  Se  Se228  1  0.25417968  0.75503969  0.69788577  1
  Se  Se229  1  0.58050929  0.08216333  0.19929871  1
  Se  Se230  1  0.57450751  0.07981637  0.68138922  1
  Se  Se231  1  0.58252547  0.42788179  0.19082128  1
  Se  Se232  1  0.57993338  0.41019942  0.69935310  1
  Se  Se233  1  0.57771147  0.76628383  0.18761226  1
  Se  Se234  1  0.58206008  0.75303810  0.68978725  1
  Se  Se235  1  0.90522268  0.09466816  0.20425659  1
  Se  Se236  1  0.93163206  0.07865633  0.69622921  1
  Se  Se237  1  0.92114404  0.42174421  0.19200039  1
  Se  Se238  1  0.91923673  0.40715865  0.70072421  1
  Se  Se239  1  0.90344659  0.75881410  0.18730428  1
  Se  Se240  1  0.92291436  0.75466342  0.69382201  1
  Se  Se241  1  0.07665245  0.26731007  0.20268916  1
  Se  Se242  1  0.08143096  0.25565972  0.69650480  1
  Se  Se243  1  0.09730093  0.57667971  0.18795001  1
  Se  Se244  1  0.08475398  0.57863621  0.69002188  1
  Se  Se245  1  0.07839592  0.91511959  0.19607099  1
  Se  Se246  1  0.08821956  0.92172118  0.69840217  1
  Se  Se247  1  0.42588063  0.25060955  0.20199321  1
  Se  Se248  1  0.41400538  0.24098464  0.68423301  1
  Se  Se249  1  0.42154937  0.58250434  0.18681417  1
  Se  Se250  1  0.41712300  0.58628806  0.69829148  1
  Se  Se251  1  0.40673998  0.92213582  0.19866730  1
  Se  Se252  1  0.42823397  0.91659153  0.68701765  1
  Se  Se253  1  0.76197156  0.24902558  0.19378965  1
  Se  Se254  1  0.73363057  0.23826001  0.69065342  1
  Se  Se255  1  0.75437553  0.57976795  0.19320597  1
  Se  Se256  1  0.75690586  0.56859739  0.69302321  1
  Se  Se257  1  0.74037369  0.92355797  0.19138432  1
  Se  Se258  1  0.76447664  0.91290541  0.68453478  1
