# generated using pymatgen
data_In86Cu29Se144
_symmetry_space_group_name_H-M   'P 1'
_cell_length_a   17.57415843
_cell_length_b   17.57631653
_cell_length_c   23.43425288
_cell_angle_alpha   90.01192719
_cell_angle_beta   89.98369176
_cell_angle_gamma   89.98341303
_symmetry_Int_Tables_number   1
_chemical_formula_structural   In86Cu29Se144
_chemical_formula_sum   'In86 Cu29 Se144'
_cell_volume   7238.58151464
_cell_formula_units_Z   1
loop_
 _symmetry_equiv_pos_site_id
 _symmetry_equiv_pos_as_xyz
  1  'x, y, z'
loop_
 _atom_site_type_symbol
 _atom_site_label
 _atom_site_symmetry_multiplicity
 _atom_site_fract_x
 _atom_site_fract_y
 _atom_site_fract_z
 _atom_site_occupancy
  In  In0  1  0.00743463  0.16035127  0.12670135  1
  In  In1  1  0.00301514  0.16106484  0.64103040  1
  In  In2  1  0.00074600  0.49768996  0.12784290  1
  In  In3  1  0.00357256  0.48414824  0.62583082  1
  In  In4  1  -0.02107732  0.84533546  0.14467635  1
  In  In5  1  0.00390323  0.84696529  0.61162777  1
  In  In6  1  0.34119802  0.17459046  0.11614188  1
  In  In7  1  0.33222522  0.17221848  0.63501555  1
  In  In8  1  0.31469060  0.49893635  0.12067156  1
  In  In9  1  0.32695142  0.51409889  0.63720302  1
  In  In10  1  0.34190521  0.82238239  0.12131276  1
  In  In11  1  0.32671314  0.82108431  0.62230703  1
  In  In12  1  0.66462218  0.16885655  0.12911368  1
  In  In13  1  0.65570971  0.16380995  0.62805795  1
  In  In14  1  0.67148959  0.49507640  0.12500968  1
  In  In15  1  0.67391534  0.50215080  0.62337553  1
  In  In16  1  0.67843456  0.83446586  0.12945321  1
  In  In17  1  0.68045145  0.84125817  0.60979837  1
  In  In18  1  0.15131263  -0.00677902  0.37582245  1
  In  In19  1  0.16267264  0.01568086  0.87328695  1
  In  In20  1  0.17373307  0.33891956  0.37122615  1
  In  In21  1  0.16538074  0.33385726  0.87481313  1
  In  In22  1  0.15423369  0.67492764  0.38534035  1
  In  In23  1  0.16530111  0.65163498  0.87718586  1
  In  In24  1  0.50111147  -0.01501557  0.37701919  1
  In  In25  1  0.50892493  -0.00503312  0.88066525  1
  In  In26  1  0.50521138  0.34451331  0.36496202  1
  In  In27  1  0.47924890  0.33372733  0.87563778  1
  In  In28  1  0.51364021  0.67467013  0.36924032  1
  In  In29  1  0.50277765  0.67501852  0.87253894  1
  In  In30  1  0.83360528  -0.00599236  0.36486224  1
  In  In31  1  0.82805982  0.00104310  0.86541102  1
  In  In32  1  0.83299177  0.33025758  0.36556244  1
  In  In33  1  0.85103391  0.33154187  0.87850760  1
  In  In34  1  0.85452580  0.69768322  0.34494696  1
  In  In35  1  0.81751772  0.67494427  0.90035216  1
  In  In36  1  -0.00623791  0.15948185  0.36511620  1
  In  In37  1  0.01536213  0.18567085  0.85431798  1
  In  In38  1  0.00483428  0.50679104  0.37126432  1
  In  In39  1  0.00874480  0.49972483  0.88713332  1
  In  In40  1  0.00176476  0.83866490  0.37428338  1
  In  In41  1  -0.01658939  0.83371299  0.87700712  1
  In  In42  1  0.32241487  0.17445296  0.37489704  1
  In  In43  1  0.31774221  0.18047261  0.88492084  1
  In  In44  1  0.33364929  0.48895759  0.37184525  1
  In  In45  1  0.32315382  0.48064271  0.86184121  1
  In  In46  1  0.33394814  0.82672861  0.38552239  1
  In  In47  1  0.35106798  0.83872752  0.87140621  1
  In  In48  1  0.67244402  0.17090660  0.36750066  1
  In  In49  1  0.67376581  0.14667060  0.87611553  1
  In  In50  1  0.66902850  0.50534989  0.36508683  1
  In  In51  1  0.66875269  0.51712920  0.88427816  1
  In  In52  1  0.66956434  0.83470830  0.37023684  1
  In  In53  1  0.66187489  0.84007093  0.88199022  1
  In  In54  1  0.15032620  0.00179271  0.12274466  1
  In  In55  1  0.16472161  -0.00585442  0.62832699  1
  In  In56  1  0.16499480  0.33266523  0.12542410  1
  In  In57  1  0.15643134  0.33653683  0.62980198  1
  In  In58  1  0.16186579  0.65299162  0.12304073  1
  In  In59  1  0.16982882  0.67440530  0.62023091  1
  In  In60  1  0.51439738  0.00953389  0.11777659  1
  In  In61  1  0.51326578  -0.00146290  0.62729745  1
  In  In62  1  0.50658581  0.32353342  0.12769183  1
  In  In63  1  0.49976038  0.32755601  0.62947311  1
  In  In64  1  0.50877598  0.68264056  0.11641606  1
  In  In65  1  0.48939871  0.66457474  0.62534424  1
  In  In66  1  0.83612350  -0.00999819  0.13523534  1
  In  In67  1  0.84076094  -0.00857996  0.63604449  1
  In  In68  1  0.82811979  0.34132898  0.12887132  1
  In  In69  1  0.84362568  0.34246411  0.62910210  1
  In  In70  1  0.83286438  0.66885656  0.13014152  1
  In  In71  1  0.82364565  0.67682436  0.62220705  1
  In  In72  1  0.66659535  0.33230926  0.75171673  1
  In  In73  1  0.33433775  0.65822485  0.24545662  1
  In  In74  1  0.33511298  0.00621002  0.25102364  1
  In  In75  1  0.33071289  0.00372150  0.75126145  1
  In  In76  1  0.49729302  0.16762300  0.50834091  1
  In  In77  1  0.16257804  0.16060500  0.50801248  1
  In  In78  1  0.83509770  0.16100558  0.49469750  1
  In  In79  1  0.49658938  0.49914975  -0.00359938  1
  In  In80  1  0.66146248  0.67017629  0.75653519  1
  In  In81  1  -0.00394096  0.66459504  0.75679936  1
  In  In82  1  0.83549868  0.50588831  0.49607496  1
  In  In83  1  0.49981348  0.50522174  0.49585742  1
  In  In84  1  0.84060831  0.16214083  -0.00431767  1
  In  In85  1  0.16735000  0.83080227  0.00502269  1
  Cu  Cu86  1  0.33112917  0.66380057  0.50418767  1
  Cu  Cu87  1  0.00563151  0.32802904  0.50001760  1
  Cu  Cu88  1  0.33612620  0.66554144  -0.00252843  1
  Cu  Cu89  1  0.32342490  0.33261545  -0.00220439  1
  Cu  Cu90  1  0.49783663  0.49545462  0.24219629  1
  Cu  Cu91  1  0.16114379  0.83232460  0.25299500  1
  Cu  Cu92  1  0.32827749  -0.01047525  0.50447492  1
  Cu  Cu93  1  0.00736002  0.33408664  0.00074430  1
  Cu  Cu94  1  0.66300217  0.32769563  0.00544025  1
  Cu  Cu95  1  0.49588015  0.16643979  0.75462495  1
  Cu  Cu96  1  -0.00430933  0.00195924  0.00140364  1
  Cu  Cu97  1  -0.00590521  0.67006895  0.00872458  1
  Cu  Cu98  1  0.33446450  0.34222304  0.49842823  1
  Cu  Cu99  1  0.16496551  0.83037577  0.74424866  1
  Cu  Cu100  1  0.16414906  0.49435939  0.75289652  1
  Cu  Cu101  1  0.33828270  -0.00041575  -0.00545683  1
  Cu  Cu102  1  0.16622314  0.17167575  0.24915481  1
  Cu  Cu103  1  0.83296087  0.49627181  0.24569105  1
  Cu  Cu104  1  0.50156179  0.16853140  0.24584469  1
  Cu  Cu105  1  0.50870012  0.83737111  0.24613091  1
  Cu  Cu106  1  0.67190347  0.67466724  0.48911541  1
  Cu  Cu107  1  0.50693738  0.83295856  0.75123378  1
  Cu  Cu108  1  -0.00256881  0.66623601  0.49349449  1
  Cu  Cu109  1  0.83271682  0.83871207  0.74758058  1
  Cu  Cu110  1  0.67213922  -0.00784975  0.00208987  1
  Cu  Cu111  1  0.66677048  -0.00211196  0.49653878  1
  Cu  Cu112  1  0.83600837  0.16875544  0.24382152  1
  Cu  Cu113  1  0.84072854  0.49938864  0.75911307  1
  Cu  Cu114  1  0.16222233  0.49642832  0.24948556  1
  Se  Se115  1  0.08322708  0.08721601  0.04766424  1
  Se  Se116  1  0.06684494  0.07225581  0.56123380  1
  Se  Se117  1  0.08666892  0.41983486  0.05600703  1
  Se  Se118  1  0.08740335  0.41524463  0.55053127  1
  Se  Se119  1  0.07317607  0.75342359  0.06944888  1
  Se  Se120  1  0.07914592  0.74743402  0.55207981  1
  Se  Se121  1  0.41933333  0.08206094  0.05225937  1
  Se  Se122  1  0.40438679  0.07363947  0.56490483  1
  Se  Se123  1  0.40895879  0.40940300  0.05935753  1
  Se  Se124  1  0.41467299  0.41726498  0.56177538  1
  Se  Se125  1  0.42067282  0.75272180  0.04397170  1
  Se  Se126  1  0.41823094  0.74905165  0.55222319  1
  Se  Se127  1  0.75126470  0.07786923  0.06064406  1
  Se  Se128  1  0.74173087  0.07931327  0.55934292  1
  Se  Se129  1  0.74914575  0.41292107  0.05197444  1
  Se  Se130  1  0.74840041  0.40959686  0.55525011  1
  Se  Se131  1  0.75939586  0.75500468  0.05840503  1
  Se  Se132  1  0.75954434  0.75421155  0.54197550  1
  Se  Se133  1  0.24352606  0.24777526  0.05329457  1
  Se  Se134  1  0.25875175  0.25680257  0.55813145  1
  Se  Se135  1  0.24702363  0.58593557  0.04718773  1
  Se  Se136  1  0.24909516  0.57964843  0.55692574  1
  Se  Se137  1  0.25946059  0.92510892  0.06218273  1
  Se  Se138  1  0.24347969  0.91040109  0.55865338  1
  Se  Se139  1  0.58077197  0.24098835  0.05372623  1
  Se  Se140  1  0.59439716  0.26364833  0.55506558  1
  Se  Se141  1  0.58948191  0.58555303  0.05494070  1
  Se  Se142  1  0.59650243  0.59515855  0.55426559  1
  Se  Se143  1  0.58870490  0.91073794  0.05721915  1
  Se  Se144  1  0.57992473  0.91735093  0.54991853  1
  Se  Se145  1  0.92200428  0.25531577  0.06010517  1
  Se  Se146  1  0.92424452  0.25046882  0.55993781  1
  Se  Se147  1  0.91563887  0.58179472  0.06154929  1
  Se  Se148  1  0.92457636  0.59011747  0.56371449  1
  Se  Se149  1  0.91837321  0.91877026  0.05897375  1
  Se  Se150  1  0.89744322  0.91198788  0.55412203  1
  Se  Se151  1  0.08086062  0.24626534  0.43771261  1
  Se  Se152  1  0.08076207  0.24769396  0.94191703  1
  Se  Se153  1  0.08300334  0.57629125  0.44986136  1
  Se  Se154  1  0.08238529  0.59081911  0.95609453  1
  Se  Se155  1  0.08773528  0.90804657  0.44918432  1
  Se  Se156  1  0.07941726  0.91963720  0.94171230  1
  Se  Se157  1  0.41477912  0.25948712  0.44078069  1
  Se  Se158  1  0.41507616  0.24896541  0.95228858  1
  Se  Se159  1  0.40966862  0.59455091  0.43438386  1
  Se  Se160  1  0.40698141  0.58344247  0.93207604  1
  Se  Se161  1  0.41710539  0.91405287  0.45030129  1
  Se  Se162  1  0.42397617  0.91236883  0.94926042  1
  Se  Se163  1  0.74536546  0.25926742  0.44271232  1
  Se  Se164  1  0.74487529  0.25396525  0.93993689  1
  Se  Se165  1  0.75322380  0.59384625  0.43124943  1
  Se  Se166  1  0.75998568  0.56730620  0.96011540  1
  Se  Se167  1  0.75010739  0.92008236  0.43914584  1
  Se  Se168  1  0.75815029  0.91951102  0.94274043  1
  Se  Se169  1  0.25546781  0.07447095  0.44341399  1
  Se  Se170  1  0.24696163  0.08165133  0.94926607  1
  Se  Se171  1  0.24732628  0.42126547  0.44632159  1
  Se  Se172  1  0.24549721  0.42085030  0.94468475  1
  Se  Se173  1  0.24658089  0.74899433  0.45229139  1
  Se  Se174  1  0.25685513  0.74963329  0.93702710  1
  Se  Se175  1  0.58668448  0.08407632  0.44055805  1
  Se  Se176  1  0.58885587  0.07938105  0.95111903  1
  Se  Se177  1  0.59328355  0.41508677  0.44050435  1
  Se  Se178  1  0.58803406  0.40579181  0.93816866  1
  Se  Se179  1  0.58118001  0.75857952  0.44381556  1
  Se  Se180  1  0.60210855  0.73063055  0.94034906  1
  Se  Se181  1  0.92673791  0.06947061  0.43979837  1
  Se  Se182  1  0.92841344  0.07951745  0.93102570  1
  Se  Se183  1  0.92291198  0.40678320  0.44017140  1
  Se  Se184  1  0.91961449  0.41742061  0.95206857  1
  Se  Se185  1  0.91566514  0.74779494  0.43836696  1
  Se  Se186  1  0.91506106  0.75751178  0.95621767  1
  Se  Se187  1  0.25268811  0.25458688  0.29960245  1
  Se  Se188  1  0.25091369  0.25392972  0.80604271  1
  Se  Se189  1  0.24097219  0.58023836  0.31086869  1
  Se  Se190  1  0.24735706  0.58241688  0.80219424  1
  Se  Se191  1  0.25027379  0.90837548  0.30983367  1
  Se  Se192  1  0.24174742  0.90908716  0.81057086  1
  Se  Se193  1  0.58402194  0.25204553  0.30210470  1
  Se  Se194  1  0.57920946  0.24365928  0.81584739  1
  Se  Se195  1  0.57571427  0.58017731  0.29876718  1
  Se  Se196  1  0.57344124  0.56994678  0.80690258  1
  Se  Se197  1  0.58689481  0.92254099  0.30151773  1
  Se  Se198  1  0.58713662  0.91758276  0.80533803  1
  Se  Se199  1  0.91977072  0.25083059  0.29850801  1
  Se  Se200  1  0.90236831  0.24540342  0.79982339  1
  Se  Se201  1  0.91691741  0.57780340  0.30002896  1
  Se  Se202  1  0.90600215  0.58613015  0.82408799  1
  Se  Se203  1  0.91552603  0.90746346  0.30003571  1
  Se  Se204  1  0.91936354  0.91797747  0.80066104  1
  Se  Se205  1  0.08791756  0.08201708  0.30143238  1
  Se  Se206  1  0.07502115  0.07373051  0.79821124  1
  Se  Se207  1  0.08074117  0.41337387  0.30536971  1
  Se  Se208  1  0.07679163  0.41961724  0.80931264  1
  Se  Se209  1  0.08192961  0.74633468  0.30617862  1
  Se  Se210  1  0.08939339  0.75643008  0.81395826  1
  Se  Se211  1  0.42583469  0.09369713  0.31452618  1
  Se  Se212  1  0.41757890  0.08726179  0.81793069  1
  Se  Se213  1  0.41264004  0.41548104  0.29642226  1
  Se  Se214  1  0.41847722  0.41188908  0.79615668  1
  Se  Se215  1  0.41894863  0.75957775  0.30241516  1
  Se  Se216  1  0.41893296  0.74972626  0.79911287  1
  Se  Se217  1  0.75409202  0.08681163  0.30127217  1
  Se  Se218  1  0.74827589  0.08408607  0.79562812  1
  Se  Se219  1  0.74790845  0.41442957  0.30016109  1
  Se  Se220  1  0.75226635  0.42416408  0.81612488  1
  Se  Se221  1  0.72368055  0.72906317  0.30378386  1
  Se  Se222  1  0.75998487  0.75532919  0.81164067  1
  Se  Se223  1  0.24447314  0.08960228  0.18731144  1
  Se  Se224  1  0.23468976  0.09409029  0.69694939  1
  Se  Se225  1  0.24861114  0.41573896  0.19662305  1
  Se  Se226  1  0.24792519  0.41571159  0.69540718  1
  Se  Se227  1  0.24169389  0.75527593  0.19068153  1
  Se  Se228  1  0.25035658  0.74384058  0.69820376  1
  Se  Se229  1  0.58567059  0.08137108  0.19834753  1
  Se  Se230  1  0.58038528  0.08349434  0.70235488  1
  Se  Se231  1  0.58589956  0.41268856  0.19281851  1
  Se  Se232  1  0.58089937  0.42745197  0.69084124  1
  Se  Se233  1  0.58703168  0.74846708  0.19469013  1
  Se  Se234  1  0.58435691  0.75687066  0.68495670  1
  Se  Se235  1  0.92085460  0.08249823  0.19548086  1
  Se  Se236  1  0.90378951  0.08993447  0.70099618  1
  Se  Se237  1  0.92080694  0.41172541  0.19742328  1
  Se  Se238  1  0.92225694  0.41762467  0.70410071  1
  Se  Se239  1  0.91472770  0.74273870  0.20568426  1
  Se  Se240  1  0.91430845  0.75534588  0.69033319  1
  Se  Se241  1  0.08048853  0.25213871  0.19531957  1
  Se  Se242  1  0.08082755  0.25535145  0.70047460  1
  Se  Se243  1  0.08107378  0.58390708  0.19889420  1
  Se  Se244  1  0.08570104  0.57922963  0.69223011  1
  Se  Se245  1  0.08391707  0.92115279  0.20023898  1
  Se  Se246  1  0.07820632  0.91217695  0.69492546  1
  Se  Se247  1  0.41378236  0.24907788  0.19530408  1
  Se  Se248  1  0.41646987  0.25318243  0.70214574  1
  Se  Se249  1  0.42412869  0.57722941  0.17830608  1
  Se  Se250  1  0.42550416  0.58223703  0.70069833  1
  Se  Se251  1  0.42220565  0.91469557  0.18856108  1
  Se  Se252  1  0.42059456  0.91078088  0.69137105  1
  Se  Se253  1  0.74841144  0.25266396  0.19545487  1
  Se  Se254  1  0.75472996  0.24749966  0.68766747  1
  Se  Se255  1  0.74747274  0.58038253  0.19556320  1
  Se  Se256  1  0.76125978  0.57927145  0.69777936  1
  Se  Se257  1  0.74438538  0.92222838  0.20386442  1
  Se  Se258  1  0.74023437  0.91368585  0.69516626  1
