# generated using pymatgen
data_In86Cu29Se144
_symmetry_space_group_name_H-M   'P 1'
_cell_length_a   17.57872710
_cell_length_b   17.58079582
_cell_length_c   23.43904877
_cell_angle_alpha   89.95621927
_cell_angle_beta   89.99042329
_cell_angle_gamma   90.01028823
_symmetry_Int_Tables_number   1
_chemical_formula_structural   In86Cu29Se144
_chemical_formula_sum   'In86 Cu29 Se144'
_cell_volume   7243.78908765
_cell_formula_units_Z   1
loop_
 _symmetry_equiv_pos_site_id
 _symmetry_equiv_pos_as_xyz
  1  'x, y, z'
loop_
 _atom_site_type_symbol
 _atom_site_label
 _atom_site_symmetry_multiplicity
 _atom_site_fract_x
 _atom_site_fract_y
 _atom_site_fract_z
 _atom_site_occupancy
  In  In0  1  -0.00744682  0.15435433  0.11383948  1
  In  In1  1  0.00305356  0.14863047  0.62881842  1
  In  In2  1  0.00883698  0.50726546  0.12751787  1
  In  In3  1  0.01872639  0.51758675  0.61611358  1
  In  In4  1  0.00725488  0.83028207  0.13229541  1
  In  In5  1  -0.00485542  0.83582975  0.63737799  1
  In  In6  1  0.32974037  0.17681438  0.12581250  1
  In  In7  1  0.33320904  0.16480556  0.62512756  1
  In  In8  1  0.33270290  0.49670313  0.13152697  1
  In  In9  1  0.31768276  0.50943740  0.63962362  1
  In  In10  1  0.32583816  0.83135085  0.11971267  1
  In  In11  1  0.33112704  0.82903172  0.63140886  1
  In  In12  1  0.66441134  0.14302446  0.12109692  1
  In  In13  1  0.65997823  0.17800182  0.62627268  1
  In  In14  1  0.67860462  0.50750608  0.12963396  1
  In  In15  1  0.66299452  0.48721161  0.62057678  1
  In  In16  1  0.64879865  0.84750563  0.13929564  1
  In  In17  1  0.66456511  0.83538188  0.61561958  1
  In  In18  1  0.17049306  0.01625443  0.37687801  1
  In  In19  1  0.17903039  -0.00129038  0.86959043  1
  In  In20  1  0.17870469  0.32813249  0.38627760  1
  In  In21  1  0.16800648  0.32720241  0.87312120  1
  In  In22  1  0.15968335  0.66440009  0.37279367  1
  In  In23  1  0.19114591  0.69406486  0.84552612  1
  In  In24  1  0.51055362  -0.01429232  0.38913265  1
  In  In25  1  0.48480631  0.00201360  0.87596148  1
  In  In26  1  0.47875163  0.33588473  0.37467257  1
  In  In27  1  0.49666103  0.32456348  0.86532741  1
  In  In28  1  0.50875440  0.68504713  0.36150624  1
  In  In29  1  0.49682363  0.68158712  0.87922249  1
  In  In30  1  0.82406436  -0.01054674  0.36661438  1
  In  In31  1  0.85239908  -0.01030101  0.87447823  1
  In  In32  1  0.84766162  0.33398315  0.37966645  1
  In  In33  1  0.82223109  0.33410525  0.86968211  1
  In  In34  1  0.83620132  0.67186040  0.38046152  1
  In  In35  1  0.83938875  0.67212172  0.87383793  1
  In  In36  1  0.01246384  0.16539515  0.37607949  1
  In  In37  1  0.01688480  0.15280103  0.87976330  1
  In  In38  1  -0.00324138  0.50822379  0.38850011  1
  In  In39  1  0.00811387  0.51870636  0.86712484  1
  In  In40  1  -0.00702027  0.82516719  0.37132384  1
  In  In41  1  0.03659313  0.86366104  0.83281718  1
  In  In42  1  0.32379998  0.16839827  0.38574484  1
  In  In43  1  0.33104857  0.16063269  0.87066447  1
  In  In44  1  0.32717654  0.50033919  0.37407630  1
  In  In45  1  0.32359788  0.50115254  0.86008825  1
  In  In46  1  0.35839322  0.83626871  0.37692124  1
  In  In47  1  0.33425521  0.83692990  0.87280965  1
  In  In48  1  0.66757426  0.14744253  0.37111874  1
  In  In49  1  0.65897932  0.17271361  0.87570054  1
  In  In50  1  0.66632289  0.51693164  0.37730002  1
  In  In51  1  0.67795896  0.49491908  0.87105902  1
  In  In52  1  0.66699646  0.83824115  0.37498067  1
  In  In53  1  0.66513880  0.82718989  0.88166034  1
  In  In54  1  0.16106482  -0.00949226  0.11788326  1
  In  In55  1  0.15679330  -0.00054741  0.63173677  1
  In  In56  1  0.17863333  0.32769154  0.12020209  1
  In  In57  1  0.17956957  0.34392432  0.62319538  1
  In  In58  1  0.15891275  0.67068411  0.13167205  1
  In  In59  1  0.17459249  0.66856300  0.63965360  1
  In  In60  1  0.51130766  -0.00829895  0.12874386  1
  In  In61  1  0.48125288  -0.01453802  0.60592619  1
  In  In62  1  0.48712043  0.32465506  0.12890422  1
  In  In63  1  0.49829100  0.32526833  0.62774785  1
  In  In64  1  0.48101699  0.68484130  0.13974376  1
  In  In65  1  0.48570589  0.66925216  0.62233726  1
  In  In66  1  0.82737738  0.00178157  0.12676084  1
  In  In67  1  0.84485281  -0.00685254  0.62955848  1
  In  In68  1  0.84568974  0.33091518  0.12117405  1
  In  In69  1  0.82132842  0.33326509  0.62364086  1
  In  In70  1  0.83359231  0.66909488  0.13577093  1
  In  In71  1  0.84687627  0.67921617  0.61488450  1
  In  In72  1  0.49512667  0.15873553  0.00169755  1
  In  In73  1  0.16847111  0.83648761  0.50538265  1
  In  In74  1  0.83392333  0.83785857  0.00025420  1
  In  In75  1  0.16646932  0.49812639  -0.00495434  1
  In  In76  1  0.49702424  0.50092577  0.00518611  1
  In  In77  1  0.66781846  0.66264690  0.75330649  1
  In  In78  1  0.66374708  0.33349696  0.24711826  1
  In  In79  1  0.00001377  0.33755351  0.75115436  1
  In  In80  1  0.83306171  0.16256643  0.50322485  1
  In  In81  1  0.49548196  0.50224061  0.49677642  1
  In  In82  1  0.83885445  0.49863840  -0.00762935  1
  In  In83  1  0.33556058  -0.00002464  0.25629583  1
  In  In84  1  0.66580231  0.00454505  0.74759711  1
  In  In85  1  0.00656314  0.33514817  0.25139368  1
  Cu  Cu86  1  0.32819293  0.67084372  -0.00255742  1
  Cu  Cu87  1  0.00347150  0.66706882  0.49976220  1
  Cu  Cu88  1  0.66579327  -0.00208335  0.49784301  1
  Cu  Cu89  1  0.00536912  0.33477302  0.50337232  1
  Cu  Cu90  1  0.16627948  0.50178782  0.25253201  1
  Cu  Cu91  1  0.83641574  0.16507080  0.74786689  1
  Cu  Cu92  1  0.83847664  0.83134209  0.25290141  1
  Cu  Cu93  1  0.32911750  -0.00678775  -0.00206207  1
  Cu  Cu94  1  0.00992494  -0.00428318  -0.00843751  1
  Cu  Cu95  1  0.66074018  0.67440860  0.00739525  1
  Cu  Cu96  1  0.49414488  0.50331313  0.25561255  1
  Cu  Cu97  1  0.49373920  0.16424495  0.25084435  1
  Cu  Cu98  1  0.49555854  0.83457513  0.74888966  1
  Cu  Cu99  1  0.66681327  0.33377832  0.50038410  1
  Cu  Cu100  1  0.83373392  0.15781356  0.24315218  1
  Cu  Cu101  1  0.33039805  0.66982106  0.50270595  1
  Cu  Cu102  1  0.66472954  0.32712761  -0.00485795  1
  Cu  Cu103  1  -0.00092475  -0.00529399  0.50351193  1
  Cu  Cu104  1  0.67017454  0.67006569  0.49435706  1
  Cu  Cu105  1  0.33310912  0.33429285  0.50542186  1
  Cu  Cu106  1  0.17035891  0.16697223  0.74976569  1
  Cu  Cu107  1  -0.00079591  0.32382361  -0.00576719  1
  Cu  Cu108  1  0.16955918  0.83336383  0.24901540  1
  Cu  Cu109  1  0.50022397  0.49681295  0.74477031  1
  Cu  Cu110  1  0.83621292  0.50923545  0.26136720  1
  Cu  Cu111  1  0.82624270  0.49283609  0.74180901  1
  Cu  Cu112  1  0.16657461  0.16714316  0.25322123  1
  Cu  Cu113  1  0.49375109  0.16308240  0.74751843  1
  Cu  Cu114  1  0.00352307  0.67912760  0.00033302  1
  Se  Se115  1  0.08814988  0.08183495  0.04882035  1
  Se  Se116  1  0.08403872  0.07941887  0.55305796  1
  Se  Se117  1  0.07247486  0.40816682  0.05694105  1
  Se  Se118  1  0.09061973  0.41872565  0.55373389  1
  Se  Se119  1  0.08839661  0.75534726  0.05725286  1
  Se  Se120  1  0.07962321  0.74589444  0.56496846  1
  Se  Se121  1  0.40623215  0.06990194  0.06473908  1
  Se  Se122  1  0.43397090  0.10607167  0.55633887  1
  Se  Se123  1  0.40369114  0.40505598  0.05614899  1
  Se  Se124  1  0.40960968  0.42025720  0.56454411  1
  Se  Se125  1  0.41481197  0.74867921  0.05318707  1
  Se  Se126  1  0.41229877  0.75707039  0.55334793  1
  Se  Se127  1  0.75927412  0.08525232  0.05144354  1
  Se  Se128  1  0.74272753  0.07408686  0.56500020  1
  Se  Se129  1  0.74422638  0.41034052  0.05490437  1
  Se  Se130  1  0.75230741  0.41816758  0.54829131  1
  Se  Se131  1  0.74862257  0.74861746  0.06459782  1
  Se  Se132  1  0.75115242  0.75294532  0.55033808  1
  Se  Se133  1  0.24900405  0.24249339  0.04901158  1
  Se  Se134  1  0.24832485  0.24860683  0.55594248  1
  Se  Se135  1  0.25367892  0.58742113  0.05958047  1
  Se  Se136  1  0.24999160  0.59126820  0.56197512  1
  Se  Se137  1  0.24303185  0.90905387  0.04815514  1
  Se  Se138  1  0.25667036  0.92737168  0.56334402  1
  Se  Se139  1  0.58716892  0.25386460  0.06137400  1
  Se  Se140  1  0.58077051  0.25307946  0.55137172  1
  Se  Se141  1  0.58541328  0.58970479  0.06619843  1
  Se  Se142  1  0.58814095  0.59260789  0.55721405  1
  Se  Se143  1  0.58591516  0.91506890  0.05433781  1
  Se  Se144  1  0.57941822  0.91035181  0.54509426  1
  Se  Se145  1  0.91294793  0.24549503  0.04802532  1
  Se  Se146  1  0.92529312  0.25222702  0.56332162  1
  Se  Se147  1  0.92335827  0.59228288  0.05610166  1
  Se  Se148  1  0.91712283  0.58092308  0.55045934  1
  Se  Se149  1  0.93017527  0.92289313  0.05951746  1
  Se  Se150  1  0.91913986  0.90994644  0.55721851  1
  Se  Se151  1  0.08406893  0.24878097  0.44883908  1
  Se  Se152  1  0.09132512  0.24629269  0.94577597  1
  Se  Se153  1  0.09265872  0.58424905  0.45190394  1
  Se  Se154  1  0.08486941  0.59885548  0.94126867  1
  Se  Se155  1  0.07893366  0.91981763  0.43883211  1
  Se  Se156  1  0.08527106  0.91278887  0.93135118  1
  Se  Se157  1  0.41477828  0.25186386  0.45041068  1
  Se  Se158  1  0.41192110  0.25335367  0.94170386  1
  Se  Se159  1  0.41289052  0.59733684  0.43721818  1
  Se  Se160  1  0.40689388  0.58588739  0.93956406  1
  Se  Se161  1  0.40088128  0.93329579  0.45115414  1
  Se  Se162  1  0.41725348  0.91220856  0.94762940  1
  Se  Se163  1  0.74478841  0.25142522  0.43803446  1
  Se  Se164  1  0.75117692  0.24788596  0.94290115  1
  Se  Se165  1  0.75579659  0.58238167  0.44887109  1
  Se  Se166  1  0.73967913  0.59568144  0.94440594  1
  Se  Se167  1  0.75354056  0.91675493  0.44669223  1
  Se  Se168  1  0.74382113  0.92846436  0.94035392  1
  Se  Se169  1  0.24220314  0.08714995  0.45492405  1
  Se  Se170  1  0.25216039  0.08211524  0.94448075  1
  Se  Se171  1  0.25362934  0.42252654  0.45145040  1
  Se  Se172  1  0.26166551  0.41114705  0.93947110  1
  Se  Se173  1  0.25480661  0.75033024  0.43895649  1
  Se  Se174  1  0.24727277  0.74942388  0.93856524  1
  Se  Se175  1  0.58461594  0.08779711  0.44974685  1
  Se  Se176  1  0.58774544  0.07263471  0.94198213  1
  Se  Se177  1  0.58702921  0.41061178  0.43620897  1
  Se  Se178  1  0.58626717  0.41213992  0.93921639  1
  Se  Se179  1  0.58281941  0.75132761  0.44311758  1
  Se  Se180  1  0.57799648  0.75562280  0.95327249  1
  Se  Se181  1  0.92012486  0.07526870  0.43972915  1
  Se  Se182  1  0.92075711  0.08052553  0.94520326  1
  Se  Se183  1  0.91748895  0.41620380  0.45344333  1
  Se  Se184  1  0.92974558  0.40997372  0.93146062  1
  Se  Se185  1  0.91919854  0.75392373  0.45090523  1
  Se  Se186  1  0.92615919  0.75663988  0.93783247  1
  Se  Se187  1  0.24902422  0.24814593  0.30881905  1
  Se  Se188  1  0.25255732  0.24996309  0.80307755  1
  Se  Se189  1  0.24879431  0.58657539  0.30501409  1
  Se  Se190  1  0.25014045  0.58360942  0.78924527  1
  Se  Se191  1  0.24413752  0.90955649  0.31595369  1
  Se  Se192  1  0.24666497  0.90536212  0.79957720  1
  Se  Se193  1  0.57632787  0.24627083  0.31122493  1
  Se  Se194  1  0.58320667  0.24477406  0.79775098  1
  Se  Se195  1  0.58469334  0.58445055  0.30194205  1
  Se  Se196  1  0.57306460  0.57521727  0.81352029  1
  Se  Se197  1  0.57775841  0.91624144  0.30806526  1
  Se  Se198  1  0.57807067  0.91142446  0.80988152  1
  Se  Se199  1  0.91075406  0.23889397  0.30482065  1
  Se  Se200  1  0.91654345  0.24150547  0.81199466  1
  Se  Se201  1  0.92369553  0.58800139  0.31299618  1
  Se  Se202  1  0.89896990  0.57286502  0.80517541  1
  Se  Se203  1  0.92211882  0.91873797  0.30259200  1
  Se  Se204  1  0.91013462  0.91476278  0.79246926  1
  Se  Se205  1  0.08185127  0.08118331  0.30152391  1
  Se  Se206  1  0.08887048  0.08021502  0.80130095  1
  Se  Se207  1  0.08979173  0.42182979  0.31724354  1
  Se  Se208  1  0.09521433  0.42721676  0.80592941  1
  Se  Se209  1  0.08373199  0.75100003  0.30293512  1
  Se  Se210  1  0.05566636  0.72166274  0.80949469  1
  Se  Se211  1  0.42150784  0.08849032  0.31920785  1
  Se  Se212  1  0.41150514  0.07755890  0.79972371  1
  Se  Se213  1  0.40703012  0.41764568  0.30134894  1
  Se  Se214  1  0.41771774  0.41610072  0.80187588  1
  Se  Se215  1  0.40761525  0.74845816  0.29798932  1
  Se  Se216  1  0.41598953  0.74867908  0.80307442  1
  Se  Se217  1  0.74770831  0.07678312  0.29600043  1
  Se  Se218  1  0.75658941  0.08796232  0.81205958  1
  Se  Se219  1  0.75621655  0.41824431  0.31222365  1
  Se  Se220  1  0.74271934  0.41005229  0.79494957  1
  Se  Se221  1  0.75400627  0.75235211  0.31008453  1
  Se  Se222  1  0.75533488  0.76165934  0.80621859  1
  Se  Se223  1  0.24465026  0.08461559  0.19167967  1
  Se  Se224  1  0.24909213  0.08201715  0.69402177  1
  Se  Se225  1  0.24203291  0.41523737  0.19548485  1
  Se  Se226  1  0.25427495  0.40819805  0.70363483  1
  Se  Se227  1  0.25119579  0.75035284  0.19480392  1
  Se  Se228  1  0.23969113  0.76794881  0.70533231  1
  Se  Se229  1  0.58029142  0.08279740  0.19992655  1
  Se  Se230  1  0.57127536  0.08320968  0.68464608  1
  Se  Se231  1  0.57181702  0.42645606  0.18878828  1
  Se  Se232  1  0.58314521  0.41224173  0.69394921  1
  Se  Se233  1  0.59707547  0.73322587  0.19527566  1
  Se  Se234  1  0.57875048  0.75400329  0.69108351  1
  Se  Se235  1  0.92212962  0.07794578  0.19250931  1
  Se  Se236  1  0.91980896  0.07632603  0.70230468  1
  Se  Se237  1  0.90916118  0.42799354  0.19546331  1
  Se  Se238  1  0.91557689  0.42221443  0.68309744  1
  Se  Se239  1  0.92311791  0.74779958  0.20036734  1
  Se  Se240  1  0.91451063  0.74176324  0.69864249  1
  Se  Se241  1  0.08650613  0.24197409  0.18755998  1
  Se  Se242  1  0.08699122  0.24568483  0.68978116  1
  Se  Se243  1  0.07981661  0.58576706  0.20272386  1
  Se  Se244  1  0.08200801  0.58445655  0.69991106  1
  Se  Se245  1  0.08731249  0.92035063  0.19839832  1
  Se  Se246  1  0.08543062  0.91163746  0.70343918  1
  Se  Se247  1  0.40822716  0.24977460  0.20314156  1
  Se  Se248  1  0.41067745  0.25097854  0.69773253  1
  Se  Se249  1  0.40897848  0.58346657  0.19986208  1
  Se  Se250  1  0.41843686  0.58705722  0.69793439  1
  Se  Se251  1  0.41793121  0.90895562  0.19245752  1
  Se  Se252  1  0.41832693  0.91999892  0.69314823  1
  Se  Se253  1  0.75561318  0.24505661  0.18683819  1
  Se  Se254  1  0.75103601  0.24740047  0.69697044  1
  Se  Se255  1  0.75079640  0.58634514  0.20478564  1
  Se  Se256  1  0.75054410  0.57980209  0.68348392  1
  Se  Se257  1  0.75525716  0.91402410  0.19774572  1
  Se  Se258  1  0.75100482  0.90635114  0.69183092  1
