# generated using pymatgen
data_In86Cu29Se144
_symmetry_space_group_name_H-M   'P 1'
_cell_length_a   17.56378663
_cell_length_b   17.56202286
_cell_length_c   23.41923874
_cell_angle_alpha   89.98574538
_cell_angle_beta   90.01343725
_cell_angle_gamma   89.99403074
_symmetry_Int_Tables_number   1
_chemical_formula_structural   In86Cu29Se144
_chemical_formula_sum   'In86 Cu29 Se144'
_cell_volume   7223.79539743
_cell_formula_units_Z   1
loop_
 _symmetry_equiv_pos_site_id
 _symmetry_equiv_pos_as_xyz
  1  'x, y, z'
loop_
 _atom_site_type_symbol
 _atom_site_label
 _atom_site_symmetry_multiplicity
 _atom_site_fract_x
 _atom_site_fract_y
 _atom_site_fract_z
 _atom_site_occupancy
  In  In0  1  0.01079041  0.18354314  0.13299094  1
  In  In1  1  0.01643006  0.15727575  0.62443121  1
  In  In2  1  -0.01019311  0.49472679  0.12600306  1
  In  In3  1  0.00495195  0.50968879  0.61278195  1
  In  In4  1  0.00925966  0.82564032  0.13252961  1
  In  In5  1  -0.01498407  0.83060482  0.61692206  1
  In  In6  1  0.34215344  0.16123284  0.12689858  1
  In  In7  1  0.31558137  0.15937634  0.62150378  1
  In  In8  1  0.36799793  0.47876359  0.16557175  1
  In  In9  1  0.33099881  0.52357410  0.61440196  1
  In  In10  1  0.34544123  0.81872902  0.12989892  1
  In  In11  1  0.33931082  0.82820465  0.61954537  1
  In  In12  1  0.65162057  0.17511697  0.13200828  1
  In  In13  1  0.65904599  0.16899668  0.63110054  1
  In  In14  1  0.66258587  0.50052235  0.12625212  1
  In  In15  1  0.67034933  0.50075186  0.62736547  1
  In  In16  1  0.65337495  0.84370760  0.13169821  1
  In  In17  1  0.66665707  0.82634822  0.63046139  1
  In  In18  1  0.18475486  0.00015028  0.39066524  1
  In  In19  1  0.16794948  -0.01649298  0.86572311  1
  In  In20  1  0.16747248  0.33634135  0.36659400  1
  In  In21  1  0.17140884  0.32904453  0.87298833  1
  In  In22  1  0.18977484  0.65358036  0.40158390  1
  In  In23  1  0.18155983  0.67894417  0.85711732  1
  In  In24  1  0.49378226  -0.01323892  0.37919021  1
  In  In25  1  0.50218150  0.00202354  0.87362465  1
  In  In26  1  0.49756721  0.34753998  0.35309689  1
  In  In27  1  0.50710907  0.32192732  0.88636728  1
  In  In28  1  0.50174741  0.66573706  0.36636578  1
  In  In29  1  0.49873042  0.66209802  0.87763176  1
  In  In30  1  0.81936374  -0.00358749  0.37947223  1
  In  In31  1  0.81846191  0.01125979  0.87359218  1
  In  In32  1  0.84149650  0.34047099  0.37033825  1
  In  In33  1  0.83503746  0.35342636  0.88151999  1
  In  In34  1  0.81863520  0.66899566  0.38405165  1
  In  In35  1  0.82341146  0.65273451  0.86923414  1
  In  In36  1  0.01456943  0.18181383  0.36844438  1
  In  In37  1  -0.00022719  0.15522788  0.87328841  1
  In  In38  1  0.00717915  0.48869022  0.37945588  1
  In  In39  1  -0.00751848  0.49731161  0.87479689  1
  In  In40  1  -0.00084655  0.82329802  0.38687294  1
  In  In41  1  0.01565363  0.82827610  0.86656241  1
  In  In42  1  0.31485351  0.17488946  0.37731911  1
  In  In43  1  0.34517553  0.17484912  0.87447884  1
  In  In44  1  0.32698220  0.49897614  0.35568319  1
  In  In45  1  0.33539466  0.51463563  0.87290406  1
  In  In46  1  0.36120854  0.81753304  0.40713399  1
  In  In47  1  0.36786031  0.85315538  0.83925736  1
  In  In48  1  0.66641301  0.16747916  0.36528351  1
  In  In49  1  0.65217950  0.15546558  0.86443793  1
  In  In50  1  0.66390613  0.51276563  0.36381592  1
  In  In51  1  0.66855031  0.49887644  0.87926648  1
  In  In52  1  0.66020550  0.82932972  0.37887536  1
  In  In53  1  0.63248816  0.80650227  0.84629098  1
  In  In54  1  0.18083635  0.00364723  0.13073911  1
  In  In55  1  0.18948470  0.00613128  0.60440142  1
  In  In56  1  0.17416657  0.33440760  0.15717668  1
  In  In57  1  0.16466160  0.33208479  0.61437967  1
  In  In58  1  0.18346708  0.66350202  0.13458388  1
  In  In59  1  0.16335752  0.66218496  0.61328549  1
  In  In60  1  0.50377187  0.01094448  0.11630710  1
  In  In61  1  0.50846535  -0.02188859  0.63775463  1
  In  In62  1  0.50666919  0.33302099  0.12398089  1
  In  In63  1  0.50591154  0.34560954  0.62558660  1
  In  In64  1  0.50063856  0.66848222  0.12621735  1
  In  In65  1  0.48582919  0.68860269  0.64784174  1
  In  In66  1  0.82644949  -0.01843610  0.12775577  1
  In  In67  1  0.83195978  -0.00801019  0.62200987  1
  In  In68  1  0.81549707  0.34748637  0.13657829  1
  In  In69  1  0.82122158  0.33455644  0.62097552  1
  In  In70  1  0.83181922  0.64610839  0.11977465  1
  In  In71  1  0.83124343  0.66699751  0.62607602  1
  In  In72  1  0.82109453  0.82521655  -0.01280334  1
  In  In73  1  0.81425703  0.17683082  0.00891923  1
  In  In74  1  -0.00251390  0.33746064  0.74172814  1
  In  In75  1  0.84412169  0.16689276  0.50188963  1
  In  In76  1  0.50079174  0.50946196  0.49537400  1
  In  In77  1  0.49129225  0.16318652  0.49795927  1
  In  In78  1  0.17672656  0.16917073  0.00243690  1
  In  In79  1  0.00096265  0.66186296  0.25326513  1
  In  In80  1  0.17648438  0.82398688  -0.00259424  1
  In  In81  1  0.17169925  0.50526713  0.00570932  1
  In  In82  1  -0.00500903  0.00347104  0.26697303  1
  In  In83  1  0.33778320  0.33318529  0.74964974  1
  In  In84  1  0.33451879  0.00599267  0.25643593  1
  In  In85  1  0.00131381  -0.00639446  0.74335270  1
  Cu  Cu86  1  0.00160227  0.33886266  0.00633324  1
  Cu  Cu87  1  0.66445156  0.66593084  -0.00248023  1
  Cu  Cu88  1  0.82916269  0.17566533  0.75011161  1
  Cu  Cu89  1  0.00527881  0.65915657  -0.00698036  1
  Cu  Cu90  1  0.34651493  0.66805038  0.00023151  1
  Cu  Cu91  1  0.66348583  -0.00931786  0.50290216  1
  Cu  Cu92  1  0.65893192  0.66995605  0.50400995  1
  Cu  Cu93  1  0.83164933  0.50026291  0.25021534  1
  Cu  Cu94  1  0.50174889  0.83344222  0.25493837  1
  Cu  Cu95  1  0.00311175  0.00384799  0.50054938  1
  Cu  Cu96  1  0.00551143  0.33735093  0.49343291  1
  Cu  Cu97  1  0.49403037  0.16001657  0.74837543  1
  Cu  Cu98  1  0.16866088  0.50136076  0.73842823  1
  Cu  Cu99  1  -0.00745604  0.00104627  0.00645780  1
  Cu  Cu100  1  0.33873786  0.34330798  0.01128184  1
  Cu  Cu101  1  0.67059481  0.33932546  0.49463069  1
  Cu  Cu102  1  0.65439932  -0.00121564  -0.00288935  1
  Cu  Cu103  1  0.66560957  0.33760507  0.00547742  1
  Cu  Cu104  1  0.33013290  0.33747057  0.49036561  1
  Cu  Cu105  1  0.34066272  -0.00799206  -0.00914549  1
  Cu  Cu106  1  -0.01546570  0.66418947  0.50133363  1
  Cu  Cu107  1  0.83101667  0.50788701  0.75194394  1
  Cu  Cu108  1  0.17001536  0.83891238  0.26431439  1
  Cu  Cu109  1  0.83306218  0.83418516  0.74519222  1
  Cu  Cu110  1  0.83419967  0.15492310  0.24938569  1
  Cu  Cu111  1  0.50159512  0.16824348  0.24761493  1
  Cu  Cu112  1  0.16447354  0.82517328  0.73330697  1
  Cu  Cu113  1  0.81701693  0.82346568  0.25387705  1
  Cu  Cu114  1  0.51219770  0.49836339  0.75338335  1
  Se  Se115  1  0.07954435  0.07814333  0.06246603  1
  Se  Se116  1  0.09158648  0.08887122  0.54581830  1
  Se  Se117  1  0.09043657  0.40723656  0.06757270  1
  Se  Se118  1  0.08758925  0.42156274  0.54832819  1
  Se  Se119  1  0.08246070  0.73554284  0.05838929  1
  Se  Se120  1  0.07123726  0.74700120  0.55173664  1
  Se  Se121  1  0.41126659  0.08390038  0.04812979  1
  Se  Se122  1  0.42345740  0.07738432  0.57229129  1
  Se  Se123  1  0.41679593  0.42660943  0.06757864  1
  Se  Se124  1  0.40974725  0.41312326  0.55474769  1
  Se  Se125  1  0.42738126  0.75686860  0.05126780  1
  Se  Se126  1  0.42231009  0.73698209  0.55659978  1
  Se  Se127  1  0.73662791  0.07072993  0.06293425  1
  Se  Se128  1  0.74114529  0.08298883  0.55678072  1
  Se  Se129  1  0.75160760  0.42170116  0.05456858  1
  Se  Se130  1  0.74870617  0.42263621  0.55097355  1
  Se  Se131  1  0.74321563  0.74588143  0.06270960  1
  Se  Se132  1  0.74778814  0.74974938  0.55660517  1
  Se  Se133  1  0.25251612  0.26461025  0.06883263  1
  Se  Se134  1  0.25406370  0.25243351  0.54863497  1
  Se  Se135  1  0.26771240  0.58840305  0.06207850  1
  Se  Se136  1  0.23995584  0.57816540  0.54034231  1
  Se  Se137  1  0.26182704  0.92039473  0.05911216  1
  Se  Se138  1  0.24107136  0.89043568  0.54775693  1
  Se  Se139  1  0.58217847  0.24619745  0.05081497  1
  Se  Se140  1  0.58868808  0.25865135  0.55282317  1
  Se  Se141  1  0.58324996  0.58581814  0.05662264  1
  Se  Se142  1  0.57889747  0.59298625  0.56733775  1
  Se  Se143  1  0.57593883  0.91233192  0.05234300  1
  Se  Se144  1  0.58319270  0.90778800  0.55797621  1
  Se  Se145  1  0.91667502  0.25954028  0.06425590  1
  Se  Se146  1  0.93265505  0.25944129  0.56253224  1
  Se  Se147  1  0.92293443  0.57812583  0.04860195  1
  Se  Se148  1  0.90153525  0.57836576  0.55253291  1
  Se  Se149  1  0.92127629  0.90570701  0.05803608  1
  Se  Se150  1  0.91237264  0.92212882  0.54664867  1
  Se  Se151  1  0.09238647  0.25402719  0.44440058  1
  Se  Se152  1  0.07438235  0.25582930  0.94346198  1
  Se  Se153  1  0.07255639  0.58707053  0.44680011  1
  Se  Se154  1  0.09232208  0.58885239  0.93151746  1
  Se  Se155  1  0.08121737  0.92055934  0.44345336  1
  Se  Se156  1  0.07636456  0.92189124  0.94618247  1
  Se  Se157  1  0.42061268  0.26547732  0.43326611  1
  Se  Se158  1  0.41101253  0.25239873  0.95422657  1
  Se  Se159  1  0.40491644  0.58647275  0.43337368  1
  Se  Se160  1  0.42217572  0.57472167  0.94970525  1
  Se  Se161  1  0.42113392  0.92883499  0.46252638  1
  Se  Se162  1  0.41861614  0.90823465  0.93526472  1
  Se  Se163  1  0.74846020  0.25076797  0.44021275  1
  Se  Se164  1  0.73764890  0.25834546  0.93456216  1
  Se  Se165  1  0.73411244  0.58042942  0.44798321  1
  Se  Se166  1  0.75270801  0.58150397  0.95009366  1
  Se  Se167  1  0.74755152  0.90866746  0.44954087  1
  Se  Se168  1  0.73172854  0.92021828  0.93424624  1
  Se  Se169  1  0.27229472  0.08193960  0.45531137  1
  Se  Se170  1  0.25238667  0.07193237  0.93564984  1
  Se  Se171  1  0.25323725  0.42143772  0.43346513  1
  Se  Se172  1  0.25822295  0.41005874  0.94174869  1
  Se  Se173  1  0.23429522  0.77662949  0.45413096  1
  Se  Se174  1  0.26824771  0.74499338  0.93490207  1
  Se  Se175  1  0.59294796  0.07970088  0.44160239  1
  Se  Se176  1  0.57684264  0.09025267  0.94608987  1
  Se  Se177  1  0.58464892  0.41192530  0.43477420  1
  Se  Se178  1  0.58212893  0.41837596  0.94842366  1
  Se  Se179  1  0.57444370  0.74418343  0.44435503  1
  Se  Se180  1  0.58475915  0.75056109  0.94250456  1
  Se  Se181  1  0.92691520  0.08144983  0.43336094  1
  Se  Se182  1  0.91240617  0.08266767  0.94967710  1
  Se  Se183  1  0.91183314  0.41787948  0.44852854  1
  Se  Se184  1  0.91965933  0.42467884  0.95482300  1
  Se  Se185  1  0.90219003  0.75267258  0.45134231  1
  Se  Se186  1  0.92719494  0.74311952  0.93468811  1
  Se  Se187  1  0.26790327  0.26722485  0.30152956  1
  Se  Se188  1  0.24293831  0.23843835  0.80314670  1
  Se  Se189  1  0.23765220  0.59920527  0.30747493  1
  Se  Se190  1  0.25420202  0.58001278  0.79427301  1
  Se  Se191  1  0.26066319  0.90945629  0.32057498  1
  Se  Se192  1  0.24488363  0.90840278  0.79134803  1
  Se  Se193  1  0.58689069  0.25387262  0.29803824  1
  Se  Se194  1  0.57226593  0.24971994  0.80243353  1
  Se  Se195  1  0.56379270  0.57093612  0.29562180  1
  Se  Se196  1  0.58943090  0.58367173  0.80936599  1
  Se  Se197  1  0.58346362  0.91828274  0.30835992  1
  Se  Se198  1  0.59042106  0.93173332  0.80143730  1
  Se  Se199  1  0.91055530  0.24175892  0.30503874  1
  Se  Se200  1  0.91258757  0.24928979  0.81162641  1
  Se  Se201  1  0.90759385  0.57911277  0.31545662  1
  Se  Se202  1  0.92298995  0.58486241  0.80295055  1
  Se  Se203  1  0.90417304  0.90028395  0.31262228  1
  Se  Se204  1  0.90899391  0.91318493  0.81216510  1
  Se  Se205  1  0.10361402  0.08302880  0.31385315  1
  Se  Se206  1  0.09210393  0.08777028  0.80216412  1
  Se  Se207  1  0.06991627  0.40826133  0.30164072  1
  Se  Se208  1  0.09327786  0.42306737  0.80477110  1
  Se  Se209  1  0.08825926  0.75058044  0.31517337  1
  Se  Se210  1  0.08233952  0.74504615  0.79043746  1
  Se  Se211  1  0.42560767  0.09687126  0.31706992  1
  Se  Se212  1  0.41080808  0.08197448  0.80507101  1
  Se  Se213  1  0.43105905  0.44485275  0.28625706  1
  Se  Se214  1  0.42640749  0.41964680  0.81321292  1
  Se  Se215  1  0.41171569  0.76207060  0.31232824  1
  Se  Se216  1  0.40298249  0.72094617  0.80369649  1
  Se  Se217  1  0.74845435  0.07542572  0.30294617  1
  Se  Se218  1  0.74571051  0.08500211  0.79571254  1
  Se  Se219  1  0.74884193  0.41724259  0.30548259  1
  Se  Se220  1  0.75251203  0.41989268  0.80561822  1
  Se  Se221  1  0.73675545  0.74014162  0.30808209  1
  Se  Se222  1  0.75588923  0.74971252  0.80224704  1
  Se  Se223  1  0.24130213  0.10190429  0.20114078  1
  Se  Se224  1  0.24195781  0.07648900  0.69276314  1
  Se  Se225  1  0.24219231  0.43713819  0.21426389  1
  Se  Se226  1  0.25065869  0.41945079  0.68313552  1
  Se  Se227  1  0.24802467  0.76147160  0.20166705  1
  Se  Se228  1  0.24999366  0.73973877  0.68326424  1
  Se  Se229  1  0.58060276  0.07738520  0.19725896  1
  Se  Se230  1  0.58319169  0.07967913  0.69768120  1
  Se  Se231  1  0.59703874  0.40394645  0.19325147  1
  Se  Se232  1  0.59236991  0.41279928  0.69845590  1
  Se  Se233  1  0.58251930  0.75032436  0.19902418  1
  Se  Se234  1  0.58620729  0.75693484  0.70871173  1
  Se  Se235  1  0.91628434  0.08033012  0.18668607  1
  Se  Se236  1  0.90913671  0.09466776  0.68993051  1
  Se  Se237  1  0.91682942  0.41392736  0.20119650  1
  Se  Se238  1  0.90660801  0.42863619  0.68593446  1
  Se  Se239  1  0.90536199  0.75161707  0.19284106  1
  Se  Se240  1  0.91730006  0.75005288  0.69474782  1
  Se  Se241  1  0.08369547  0.24608052  0.21393246  1
  Se  Se242  1  0.09699608  0.24491061  0.69419291  1
  Se  Se243  1  0.08763692  0.57351631  0.19029786  1
  Se  Se244  1  0.08146428  0.58355375  0.68921301  1
  Se  Se245  1  0.09065693  0.91711131  0.20091631  1
  Se  Se246  1  0.08807259  0.91379879  0.67602820  1
  Se  Se247  1  0.41908015  0.24995945  0.19271589  1
  Se  Se248  1  0.42230775  0.24334862  0.68398819  1
  Se  Se249  1  0.38791325  0.62111842  0.18911162  1
  Se  Se250  1  0.42320291  0.56838397  0.69364338  1
  Se  Se251  1  0.42529255  0.91841185  0.19301427  1
  Se  Se252  1  0.41032477  0.90515258  0.69949378  1
  Se  Se253  1  0.75183186  0.24101732  0.19655330  1
  Se  Se254  1  0.74542972  0.25568416  0.69471367  1
  Se  Se255  1  0.74874254  0.58361021  0.19683092  1
  Se  Se256  1  0.74615147  0.58867611  0.69730065  1
  Se  Se257  1  0.74211685  0.91703632  0.20324958  1
  Se  Se258  1  0.74989265  0.91995495  0.69463724  1
