# generated using pymatgen
data_In86Cu29Se144
_symmetry_space_group_name_H-M   'P 1'
_cell_length_a   17.57683935
_cell_length_b   17.57467435
_cell_length_c   23.44246400
_cell_angle_alpha   90.01404020
_cell_angle_beta   90.00309669
_cell_angle_gamma   89.98765736
_symmetry_Int_Tables_number   1
_chemical_formula_structural   In86Cu29Se144
_chemical_formula_sum   'In86 Cu29 Se144'
_cell_volume   7241.54616831
_cell_formula_units_Z   1
loop_
 _symmetry_equiv_pos_site_id
 _symmetry_equiv_pos_as_xyz
  1  'x, y, z'
loop_
 _atom_site_type_symbol
 _atom_site_label
 _atom_site_symmetry_multiplicity
 _atom_site_fract_x
 _atom_site_fract_y
 _atom_site_fract_z
 _atom_site_occupancy
  In  In0  1  0.00839533  0.16016808  0.13151832  1
  In  In1  1  0.00609692  0.17614390  0.62070572  1
  In  In2  1  -0.01479344  0.48955386  0.10935478  1
  In  In3  1  -0.01936299  0.49407373  0.62706852  1
  In  In4  1  0.01014501  0.84092044  0.12951592  1
  In  In5  1  0.00836485  0.82364011  0.61886547  1
  In  In6  1  0.34369968  0.18103413  0.11519485  1
  In  In7  1  0.32309618  0.17525121  0.63006006  1
  In  In8  1  0.33437985  0.50214001  0.12253099  1
  In  In9  1  0.32991208  0.50159458  0.63536810  1
  In  In10  1  0.33401684  0.81840920  0.12656111  1
  In  In11  1  0.34000429  0.83097641  0.62569232  1
  In  In12  1  0.66994101  0.18529647  0.12360553  1
  In  In13  1  0.67730833  0.16121962  0.61892015  1
  In  In14  1  0.65259287  0.48191832  0.11130095  1
  In  In15  1  0.68375225  0.48828928  0.64300315  1
  In  In16  1  0.65843783  0.83871152  0.12566008  1
  In  In17  1  0.64127850  0.83343529  0.62250485  1
  In  In18  1  0.16173217  0.01234471  0.38490943  1
  In  In19  1  0.18072426  -0.00630360  0.87829187  1
  In  In20  1  0.15687152  0.32754505  0.36682660  1
  In  In21  1  0.16811306  0.33319001  0.87703666  1
  In  In22  1  0.17854192  0.66582389  0.37794597  1
  In  In23  1  0.16888981  0.64758225  0.87936241  1
  In  In24  1  0.48855836  -0.00649795  0.37550944  1
  In  In25  1  0.49015110  0.01562569  0.88426123  1
  In  In26  1  0.50075515  0.33801716  0.35791755  1
  In  In27  1  0.49809241  0.33462299  0.87460365  1
  In  In28  1  0.50233522  0.66955719  0.37807421  1
  In  In29  1  0.49873895  0.66464004  0.87599744  1
  In  In30  1  0.85129173  0.00449581  0.37231500  1
  In  In31  1  0.83177489  0.01466907  0.87514587  1
  In  In32  1  0.83393734  0.33177351  0.37938769  1
  In  In33  1  0.85025878  0.34996109  0.85597551  1
  In  In34  1  0.81875551  0.66087284  0.38175837  1
  In  In35  1  0.82156445  0.66193446  0.87099022  1
  In  In36  1  0.00286131  0.17218623  0.37478876  1
  In  In37  1  -0.00663856  0.17902541  0.88008656  1
  In  In38  1  -0.00616724  0.47512105  0.37051585  1
  In  In39  1  0.01322687  0.49315873  0.88784778  1
  In  In40  1  0.00193344  0.85154634  0.37615484  1
  In  In41  1  0.00578844  0.83151305  0.87668376  1
  In  In42  1  0.32476912  0.17050468  0.37492596  1
  In  In43  1  0.33110288  0.17006742  0.87589219  1
  In  In44  1  0.33785417  0.50126372  0.36236679  1
  In  In45  1  0.33282650  0.49832264  0.87439964  1
  In  In46  1  0.33857460  0.81910809  0.38953557  1
  In  In47  1  0.34359293  0.84439291  0.86843370  1
  In  In48  1  0.66522964  0.18344323  0.37400186  1
  In  In49  1  0.65213337  0.17523284  0.87845339  1
  In  In50  1  0.67301269  0.50226861  0.37733102  1
  In  In51  1  0.66816249  0.49425586  0.87391175  1
  In  In52  1  0.65835603  0.82291038  0.38167997  1
  In  In53  1  0.66281292  0.81659381  0.87027913  1
  In  In54  1  0.15140185  0.01057144  0.12620262  1
  In  In55  1  0.17653526  0.00856473  0.62197768  1
  In  In56  1  0.16830839  0.33447803  0.12059908  1
  In  In57  1  0.17129704  0.32569089  0.62894514  1
  In  In58  1  0.17947590  0.66963737  0.12400258  1
  In  In59  1  0.17289778  0.67526968  0.62096749  1
  In  In60  1  0.49514172  -0.00555244  0.11372240  1
  In  In61  1  0.50215307  -0.02088109  0.62096904  1
  In  In62  1  0.50260524  0.34208077  0.12313901  1
  In  In63  1  0.49497917  0.33908057  0.63470574  1
  In  In64  1  0.47995988  0.64639252  0.10874635  1
  In  In65  1  0.49366197  0.67062233  0.63582346  1
  In  In66  1  0.85190143  0.01655852  0.12872639  1
  In  In67  1  0.81254967  0.01038810  0.61564398  1
  In  In68  1  0.82299893  0.33949133  0.13406325  1
  In  In69  1  0.83620973  0.33319905  0.62620266  1
  In  In70  1  0.83740499  0.64454859  0.12133175  1
  In  In71  1  0.83276127  0.64858329  0.62899301  1
  In  In72  1  0.00377671  0.66273471  0.24517823  1
  In  In73  1  0.83140634  0.17145625  0.00321520  1
  In  In74  1  0.00208225  0.00349990  0.75027169  1
  In  In75  1  0.00682148  0.65467054  0.75441317  1
  In  In76  1  0.50120190  0.50583664  0.50213059  1
  In  In77  1  0.50211628  0.16086868  0.49746371  1
  In  In78  1  0.82762187  0.82547714  0.00201380  1
  In  In79  1  0.67313830  0.00884875  0.25469851  1
  In  In80  1  0.65662918  0.00019525  0.74192274  1
  In  In81  1  0.16672146  0.49969528  0.50191117  1
  In  In82  1  0.83548936  0.83432292  0.49997360  1
  In  In83  1  0.16847698  0.83411089  0.00506059  1
  In  In84  1  0.32454381  0.00416479  0.25733203  1
  In  In85  1  0.65763105  0.66245540  0.25364575  1
  Cu  Cu86  1  0.00559465  0.00685046  0.50064966  1
  Cu  Cu87  1  0.33294194  0.33572236  -0.00282243  1
  Cu  Cu88  1  0.67075131  0.33575691  0.50351800  1
  Cu  Cu89  1  0.50079869  0.50161684  0.75734372  1
  Cu  Cu90  1  0.83101023  0.49383045  0.25179825  1
  Cu  Cu91  1  0.50652960  0.17267145  0.24062168  1
  Cu  Cu92  1  0.49537051  0.83175399  0.75260389  1
  Cu  Cu93  1  0.66818117  0.33660466  -0.00348683  1
  Cu  Cu94  1  0.00350131  0.66026296  0.50073439  1
  Cu  Cu95  1  0.32705234  0.33073825  0.49882859  1
  Cu  Cu96  1  -0.00441636  0.32754203  0.49736579  1
  Cu  Cu97  1  0.17116163  0.49807294  0.24445882  1
  Cu  Cu98  1  0.00235896  0.33139805  -0.00008245  1
  Cu  Cu99  1  0.16992259  0.83705687  0.25155913  1
  Cu  Cu100  1  0.49237957  0.82633123  0.25083512  1
  Cu  Cu101  1  0.83953957  0.83812419  0.25100176  1
  Cu  Cu102  1  0.17973680  0.83200943  0.74679649  1
  Cu  Cu103  1  0.16760648  0.16905335  0.75222204  1
  Cu  Cu104  1  0.33373227  -0.00703512  0.50246042  1
  Cu  Cu105  1  0.49176033  0.16879266  0.75405878  1
  Cu  Cu106  1  0.33066758  0.00551141  0.00007634  1
  Cu  Cu107  1  0.66244869  0.66020815  -0.00677294  1
  Cu  Cu108  1  0.66253259  0.66263338  0.50711098  1
  Cu  Cu109  1  0.16701039  0.17382511  0.25010631  1
  Cu  Cu110  1  0.66373769  -0.00535595  -0.00136992  1
  Cu  Cu111  1  0.16441968  0.49303515  0.75364083  1
  Cu  Cu112  1  0.33420574  0.66687963  -0.00290114  1
  Cu  Cu113  1  0.82945713  0.17223921  0.74473820  1
  Cu  Cu114  1  0.83424204  0.83040866  0.74840797  1
  Se  Se115  1  0.08124630  0.08958067  0.05152908  1
  Se  Se116  1  0.08890257  0.08876911  0.55577529  1
  Se  Se117  1  0.08718650  0.41821118  0.04959754  1
  Se  Se118  1  0.07493795  0.40886761  0.56014168  1
  Se  Se119  1  0.07399965  0.74271674  0.05992361  1
  Se  Se120  1  0.08849716  0.74706240  0.54659958  1
  Se  Se121  1  0.41967520  0.08755224  0.04983209  1
  Se  Se122  1  0.41107698  0.07894854  0.56281898  1
  Se  Se123  1  0.41624381  0.41838382  0.05231664  1
  Se  Se124  1  0.40608266  0.41205507  0.55788874  1
  Se  Se125  1  0.41655160  0.75469864  0.04846418  1
  Se  Se126  1  0.43435542  0.75809541  0.55948886  1
  Se  Se127  1  0.74279209  0.07336254  0.06122113  1
  Se  Se128  1  0.74446945  0.08753407  0.53887701  1
  Se  Se129  1  0.75745476  0.41416167  0.05131126  1
  Se  Se130  1  0.75095398  0.41934031  0.55877564  1
  Se  Se131  1  0.73660483  0.73500500  0.06320245  1
  Se  Se132  1  0.74694637  0.74599921  0.56428212  1
  Se  Se133  1  0.24839365  0.25069420  0.04901075  1
  Se  Se134  1  0.24544523  0.24727195  0.55192591  1
  Se  Se135  1  0.25060077  0.58485280  0.05106910  1
  Se  Se136  1  0.26370451  0.58805106  0.55581528  1
  Se  Se137  1  0.25712817  0.92596900  0.06684018  1
  Se  Se138  1  0.25048955  0.91247393  0.55848245  1
  Se  Se139  1  0.58393994  0.25575048  0.05190735  1
  Se  Se140  1  0.58206719  0.25955628  0.56022597  1
  Se  Se141  1  0.57902589  0.57607077  0.04633243  1
  Se  Se142  1  0.59014293  0.58141259  0.57200456  1
  Se  Se143  1  0.58003946  0.90853531  0.04857303  1
  Se  Se144  1  0.60432221  0.93513351  0.54952564  1
  Se  Se145  1  0.92178245  0.25714623  0.06454222  1
  Se  Se146  1  0.91164895  0.24683865  0.55382943  1
  Se  Se147  1  0.91837476  0.58651029  0.04286643  1
  Se  Se148  1  0.91540639  0.58170789  0.55191314  1
  Se  Se149  1  0.92000395  0.91920179  0.05772826  1
  Se  Se150  1  0.92437255  0.92721278  0.56222987  1
  Se  Se151  1  0.08869297  0.25121249  0.44673033  1
  Se  Se152  1  0.08618246  0.24854029  0.94753778  1
  Se  Se153  1  0.07415870  0.57962227  0.43401568  1
  Se  Se154  1  0.08013219  0.59066561  0.95381786  1
  Se  Se155  1  0.08682602  0.91783716  0.45125349  1
  Se  Se156  1  0.07670390  0.92521060  0.94543845  1
  Se  Se157  1  0.41723340  0.26008618  0.43917144  1
  Se  Se158  1  0.41687871  0.25053466  0.94461426  1
  Se  Se159  1  0.40560643  0.58778901  0.44219658  1
  Se  Se160  1  0.41618876  0.58087163  0.94444585  1
  Se  Se161  1  0.42132187  0.91215186  0.45141732  1
  Se  Se162  1  0.41389742  0.91975884  0.94801252  1
  Se  Se163  1  0.74987382  0.25002231  0.44953893  1
  Se  Se164  1  0.75194917  0.25966300  0.93524697  1
  Se  Se165  1  0.74648826  0.57873200  0.45520225  1
  Se  Se166  1  0.75049280  0.57832613  0.94481198  1
  Se  Se167  1  0.75052560  0.91954548  0.43364390  1
  Se  Se168  1  0.74455765  0.92038593  0.93611605  1
  Se  Se169  1  0.25844370  0.08470755  0.44979369  1
  Se  Se170  1  0.24745920  0.08733543  0.94698202  1
  Se  Se171  1  0.25330974  0.41357487  0.43595520  1
  Se  Se172  1  0.24816839  0.41982374  0.94532351  1
  Se  Se173  1  0.24058352  0.75061562  0.45351602  1
  Se  Se174  1  0.25515197  0.75066811  0.93723789  1
  Se  Se175  1  0.58966486  0.07537726  0.43261546  1
  Se  Se176  1  0.58443549  0.08738338  0.95117696  1
  Se  Se177  1  0.58412242  0.40776958  0.44183148  1
  Se  Se178  1  0.58028847  0.41751295  0.94472752  1
  Se  Se179  1  0.57922196  0.74627994  0.45455710  1
  Se  Se180  1  0.58053867  0.75053271  0.94651095  1
  Se  Se181  1  0.92197494  0.08776290  0.44631414  1
  Se  Se182  1  0.92497610  0.07585986  0.94828140  1
  Se  Se183  1  0.91239424  0.41841724  0.45153476  1
  Se  Se184  1  0.91468584  0.40976647  0.94499556  1
  Se  Se185  1  0.92501846  0.74274741  0.43765146  1
  Se  Se186  1  0.91931678  0.74230532  0.93832305  1
  Se  Se187  1  0.25454131  0.25479322  0.30158718  1
  Se  Se188  1  0.25081977  0.25343439  0.80529099  1
  Se  Se189  1  0.24625021  0.58527432  0.30077933  1
  Se  Se190  1  0.24879921  0.58011484  0.80235521  1
  Se  Se191  1  0.24518870  0.91014442  0.32017077  1
  Se  Se192  1  0.25480311  0.92212761  0.79991444  1
  Se  Se193  1  0.59000836  0.25403527  0.29534046  1
  Se  Se194  1  0.57990742  0.25150758  0.80195976  1
  Se  Se195  1  0.56930210  0.56802782  0.31005836  1
  Se  Se196  1  0.58612957  0.58500318  0.80820223  1
  Se  Se197  1  0.57821011  0.90777964  0.30566235  1
  Se  Se198  1  0.57494066  0.91685410  0.81272262  1
  Se  Se199  1  0.93854980  0.27651128  0.31314807  1
  Se  Se200  1  0.92133814  0.24506754  0.79784477  1
  Se  Se201  1  0.90777182  0.58101211  0.30993292  1
  Se  Se202  1  0.91693511  0.57052614  0.81497688  1
  Se  Se203  1  0.92523516  0.92248179  0.29821971  1
  Se  Se204  1  0.90781211  0.91166481  0.81001342  1
  Se  Se205  1  0.08965740  0.08761748  0.30700384  1
  Se  Se206  1  0.08898413  0.08880728  0.81481775  1
  Se  Se207  1  0.08441380  0.41661508  0.29576974  1
  Se  Se208  1  0.08020916  0.41411453  0.80836619  1
  Se  Se209  1  0.08581681  0.75562814  0.31025421  1
  Se  Se210  1  0.09742650  0.75472020  0.80804409  1
  Se  Se211  1  0.42729779  0.09651708  0.30546675  1
  Se  Se212  1  0.41132507  0.08223367  0.80567266  1
  Se  Se213  1  0.40694398  0.40997920  0.29498814  1
  Se  Se214  1  0.41406108  0.41518114  0.80456487  1
  Se  Se215  1  0.41368970  0.74720938  0.30994444  1
  Se  Se216  1  0.41395722  0.74562402  0.80531002  1
  Se  Se217  1  0.76329244  0.09866644  0.31115478  1
  Se  Se218  1  0.74717655  0.09254971  0.80343157  1
  Se  Se219  1  0.74868407  0.41471965  0.30924387  1
  Se  Se220  1  0.73312558  0.39949138  0.80354044  1
  Se  Se221  1  0.75592547  0.75833946  0.30696186  1
  Se  Se222  1  0.74881358  0.74634066  0.79780230  1
  Se  Se223  1  0.24898505  0.09493933  0.18879452  1
  Se  Se224  1  0.25005277  0.08382606  0.69972350  1
  Se  Se225  1  0.25326484  0.41482840  0.19012644  1
  Se  Se226  1  0.24924668  0.41168421  0.69833501  1
  Se  Se227  1  0.25031635  0.74926744  0.20140922  1
  Se  Se228  1  0.25789466  0.74396640  0.69487036  1
  Se  Se229  1  0.57879892  0.08220729  0.18481902  1
  Se  Se230  1  0.56781940  0.09397125  0.68450601  1
  Se  Se231  1  0.59345137  0.41154334  0.19475445  1
  Se  Se232  1  0.58124482  0.41675891  0.70229226  1
  Se  Se233  1  0.57152494  0.74934996  0.18840252  1
  Se  Se234  1  0.58461753  0.75067694  0.70269387  1
  Se  Se235  1  0.92201577  0.09008407  0.20512928  1
  Se  Se236  1  0.90668313  0.08482432  0.68721577  1
  Se  Se237  1  0.91916648  0.42143369  0.19416937  1
  Se  Se238  1  0.91295618  0.41246371  0.70094422  1
  Se  Se239  1  0.90789172  0.75262031  0.18708254  1
  Se  Se240  1  0.91966952  0.75134327  0.69260818  1
  Se  Se241  1  0.08601419  0.25567297  0.19353459  1
  Se  Se242  1  0.08190860  0.24944554  0.69828816  1
  Se  Se243  1  0.08773012  0.57378001  0.18209726  1
  Se  Se244  1  0.09272847  0.57201211  0.68418286  1
  Se  Se245  1  0.08638206  0.92222981  0.20162312  1
  Se  Se246  1  0.08964863  0.90855284  0.69126115  1
  Se  Se247  1  0.41906262  0.25524048  0.19159809  1
  Se  Se248  1  0.40992698  0.25316845  0.69849341  1
  Se  Se249  1  0.41063873  0.58965162  0.19312348  1
  Se  Se250  1  0.41496771  0.58248271  0.70241271  1
  Se  Se251  1  0.41700593  0.91569675  0.19463766  1
  Se  Se252  1  0.41659832  0.91825616  0.69817043  1
  Se  Se253  1  0.76250317  0.23594379  0.19792221  1
  Se  Se254  1  0.74330607  0.25033093  0.69070468  1
  Se  Se255  1  0.74823322  0.57345833  0.19345212  1
  Se  Se256  1  0.75407174  0.58587055  0.70717337  1
  Se  Se257  1  0.75802657  0.91546360  0.18960730  1
  Se  Se258  1  0.75405394  0.90829872  0.68739373  1
