# generated using pymatgen
data_In86Cu29Se144
_symmetry_space_group_name_H-M   'P 1'
_cell_length_a   17.58440140
_cell_length_b   17.58351660
_cell_length_c   23.44928148
_cell_angle_alpha   89.99555089
_cell_angle_beta   89.97478844
_cell_angle_gamma   90.01359715
_symmetry_Int_Tables_number   1
_chemical_formula_structural   In86Cu29Se144
_chemical_formula_sum   'In86 Cu29 Se144'
_cell_volume   7250.41405457
_cell_formula_units_Z   1
loop_
 _symmetry_equiv_pos_site_id
 _symmetry_equiv_pos_as_xyz
  1  'x, y, z'
loop_
 _atom_site_type_symbol
 _atom_site_label
 _atom_site_symmetry_multiplicity
 _atom_site_fract_x
 _atom_site_fract_y
 _atom_site_fract_z
 _atom_site_occupancy
  In  In0  1  0.00794332  0.17301497  0.12968020  1
  In  In1  1  0.01369602  0.17399552  0.62105298  1
  In  In2  1  0.00079103  0.49918127  0.12406114  1
  In  In3  1  -0.01634391  0.50342059  0.62809848  1
  In  In4  1  -0.01464974  0.82182455  0.11374848  1
  In  In5  1  -0.00823917  0.84592229  0.62030680  1
  In  In6  1  0.34849105  0.16850325  0.12316807  1
  In  In7  1  0.32503613  0.16782092  0.61557882  1
  In  In8  1  0.33494430  0.49625897  0.12707993  1
  In  In9  1  0.35199208  0.49713483  0.62418956  1
  In  In10  1  0.31840453  0.83391236  0.12404533  1
  In  In11  1  0.34301188  0.83020839  0.63681166  1
  In  In12  1  0.65377480  0.17701123  0.13348195  1
  In  In13  1  0.66865397  0.18547101  0.62539763  1
  In  In14  1  0.65479154  0.48911024  0.11493606  1
  In  In15  1  0.66437225  0.49953487  0.62289813  1
  In  In16  1  0.68030270  0.82286978  0.12426457  1
  In  In17  1  0.67550863  0.82022194  0.63037273  1
  In  In18  1  0.17755310  0.00531663  0.37623462  1
  In  In19  1  0.16443259  -0.01911583  0.87864211  1
  In  In20  1  0.16312524  0.33108326  0.37169319  1
  In  In21  1  0.16923373  0.35138182  0.87956714  1
  In  In22  1  0.16833014  0.67019276  0.36559301  1
  In  In23  1  0.17117770  0.65881826  0.88315909  1
  In  In24  1  0.51129111  0.00420739  0.37300644  1
  In  In25  1  0.50084545  0.01895823  0.87644657  1
  In  In26  1  0.49908031  0.33141352  0.37555140  1
  In  In27  1  0.50065727  0.32749981  0.88442565  1
  In  In28  1  0.48553720  0.67019640  0.37157951  1
  In  In29  1  0.49468336  0.65406794  0.87045044  1
  In  In30  1  0.82018400  0.00602423  0.37682236  1
  In  In31  1  0.83612046  -0.00990822  0.87854150  1
  In  In32  1  0.83987832  0.34153510  0.36835722  1
  In  In33  1  0.84322757  0.34684981  0.85981490  1
  In  In34  1  0.83710507  0.65340422  0.38002885  1
  In  In35  1  0.82590898  0.66610749  0.87289560  1
  In  In36  1  -0.00430264  0.18424178  0.37573543  1
  In  In37  1  -0.00849756  0.16899469  0.87329506  1
  In  In38  1  -0.00768166  0.49282313  0.36867238  1
  In  In39  1  0.00011748  0.49997420  0.87863785  1
  In  In40  1  0.00195670  0.81830200  0.37300345  1
  In  In41  1  0.00159687  0.83298301  0.88608203  1
  In  In42  1  0.32128771  0.18328717  0.39299621  1
  In  In43  1  0.34926205  0.17456023  0.87537975  1
  In  In44  1  0.34165629  0.50554997  0.37101316  1
  In  In45  1  0.32451917  0.50184361  0.88647521  1
  In  In46  1  0.34500321  0.82595068  0.36811020  1
  In  In47  1  0.32557923  0.82048011  0.87185113  1
  In  In48  1  0.65596683  0.16322736  0.37255378  1
  In  In49  1  0.65156540  0.17637021  0.87599217  1
  In  In50  1  0.67361378  0.49003897  0.37839670  1
  In  In51  1  0.66908044  0.49537879  0.87336859  1
  In  In52  1  0.66550760  0.84677993  0.37103662  1
  In  In53  1  0.68737268  0.82622736  0.87349721  1
  In  In54  1  0.17199951  -0.00359600  0.11911860  1
  In  In55  1  0.16358432  0.01634625  0.62528955  1
  In  In56  1  0.16146283  0.34322553  0.13126028  1
  In  In57  1  0.17202908  0.32284838  0.62397978  1
  In  In58  1  0.16484148  0.66077843  0.12487743  1
  In  In59  1  0.17104032  0.67749750  0.62854577  1
  In  In60  1  0.49807562  0.01379452  0.12522616  1
  In  In61  1  0.48780554  -0.00300602  0.62678849  1
  In  In62  1  0.49954470  0.33653983  0.12656721  1
  In  In63  1  0.50211744  0.34679195  0.60962614  1
  In  In64  1  0.50218326  0.64796733  0.12477057  1
  In  In65  1  0.51429159  0.66091655  0.63355939  1
  In  In66  1  0.82979853  -0.01876955  0.12366334  1
  In  In67  1  0.84585394  -0.01025408  0.61992710  1
  In  In68  1  0.82301397  0.34085156  0.13037493  1
  In  In69  1  0.81594880  0.35612208  0.64460400  1
  In  In70  1  0.84157426  0.66887334  0.11738041  1
  In  In71  1  0.82300117  0.65730973  0.62057300  1
  In  In72  1  0.33807870  0.00164979  0.24950495  1
  In  In73  1  -0.00541792  0.00168709  0.24800077  1
  In  In74  1  0.16587354  0.49798011  0.49283552  1
  In  In75  1  0.66698445  0.00222681  0.75474348  1
  In  In76  1  0.83564981  0.17115897  0.50331830  1
  In  In77  1  0.66312605  0.66342367  0.24561561  1
  In  In78  1  0.50304974  0.83389809  0.49481494  1
  In  In79  1  0.33726271  0.33800951  0.74889293  1
  In  In80  1  0.16142864  0.84067909  0.49934901  1
  In  In81  1  0.00279562  0.00081134  0.75229370  1
  In  In82  1  0.50201954  0.83123492  -0.00008600  1
  In  In83  1  0.17032034  0.16612444  0.00719866  1
  In  In84  1  -0.00617639  0.66648661  0.75492266  1
  In  In85  1  0.82985418  0.16376133  -0.00377467  1
  Cu  Cu86  1  0.00324434  0.65818891  -0.00047994  1
  Cu  Cu87  1  0.66640852  0.33670412  0.00189449  1
  Cu  Cu88  1  0.33399362  -0.00056546  0.00006119  1
  Cu  Cu89  1  0.83211821  0.82842100  0.24535477  1
  Cu  Cu90  1  0.32968641  0.00675650  0.50436191  1
  Cu  Cu91  1  -0.01289689  0.66486032  0.49779271  1
  Cu  Cu92  1  0.83511051  0.50419152  0.24698251  1
  Cu  Cu93  1  0.50044400  0.49281897  0.24729770  1
  Cu  Cu94  1  0.50088837  0.83250906  0.75487839  1
  Cu  Cu95  1  0.66866577  0.00151295  -0.00255520  1
  Cu  Cu96  1  0.66746222  0.66260008  0.50466232  1
  Cu  Cu97  1  0.16003204  0.82659478  0.24327070  1
  Cu  Cu98  1  0.66842179  -0.00263102  0.49981951  1
  Cu  Cu99  1  0.32806428  0.66275999  0.00147609  1
  Cu  Cu100  1  0.16782627  0.17603617  0.25160704  1
  Cu  Cu101  1  0.17388681  0.16754106  0.74571156  1
  Cu  Cu102  1  0.66602959  0.33655831  0.49920022  1
  Cu  Cu103  1  0.16819254  0.50522563  0.75839291  1
  Cu  Cu104  1  0.67336205  0.66280720  -0.00165158  1
  Cu  Cu105  1  0.33677635  0.66319821  0.49994427  1
  Cu  Cu106  1  0.16984502  0.50058384  0.24951500  1
  Cu  Cu107  1  0.50047502  0.17199095  0.25238698  1
  Cu  Cu108  1  -0.00473837  0.33815651  0.49922477  1
  Cu  Cu109  1  0.83393851  0.17036571  0.75016836  1
  Cu  Cu110  1  0.50606330  0.50062399  0.74988468  1
  Cu  Cu111  1  0.17715960  0.83123828  0.75321857  1
  Cu  Cu112  1  0.49676813  0.17195687  0.74962336  1
  Cu  Cu113  1  -0.00213268  0.33682525  0.00019853  1
  Cu  Cu114  1  0.82550215  0.16722637  0.25445095  1
  Se  Se115  1  0.07102760  0.07517255  0.05845838  1
  Se  Se116  1  0.07171117  0.07487479  0.55352033  1
  Se  Se117  1  0.08411708  0.41574125  0.05409734  1
  Se  Se118  1  0.07771130  0.41613917  0.56096789  1
  Se  Se119  1  0.08305133  0.74408975  0.05422634  1
  Se  Se120  1  0.07258092  0.74188514  0.55653161  1
  Se  Se121  1  0.41901906  0.08443116  0.04852819  1
  Se  Se122  1  0.42025541  0.08455775  0.55481733  1
  Se  Se123  1  0.43566075  0.43533960  0.05990304  1
  Se  Se124  1  0.40337804  0.41289585  0.54495123  1
  Se  Se125  1  0.41129139  0.74273604  0.06076640  1
  Se  Se126  1  0.41664090  0.74536774  0.55958200  1
  Se  Se127  1  0.74198163  0.08169752  0.06389799  1
  Se  Se128  1  0.74412482  0.07822855  0.56362900  1
  Se  Se129  1  0.75503338  0.41876065  0.05110646  1
  Se  Se130  1  0.75093191  0.41478489  0.55575732  1
  Se  Se131  1  0.75620093  0.75017412  0.04791415  1
  Se  Se132  1  0.75153715  0.75148265  0.55124867  1
  Se  Se133  1  0.25644094  0.25890867  0.06442091  1
  Se  Se134  1  0.24982178  0.25533413  0.54753343  1
  Se  Se135  1  0.24910695  0.57758544  0.05719253  1
  Se  Se136  1  0.25121025  0.58874789  0.55880489  1
  Se  Se137  1  0.24833398  0.91413080  0.04721878  1
  Se  Se138  1  0.25878969  0.91757623  0.56449761  1
  Se  Se139  1  0.58297931  0.25283063  0.05534279  1
  Se  Se140  1  0.58405988  0.24986548  0.55001880  1
  Se  Se141  1  0.58331067  0.58266173  0.04693765  1
  Se  Se142  1  0.57836633  0.58188887  0.55369177  1
  Se  Se143  1  0.59042840  0.92179730  0.06127501  1
  Se  Se144  1  0.59039285  0.91775072  0.56358194  1
  Se  Se145  1  0.91898377  0.25342883  0.05917137  1
  Se  Se146  1  0.91573837  0.26498415  0.56631309  1
  Se  Se147  1  0.91667547  0.57658416  0.05163514  1
  Se  Se148  1  0.90961245  0.57760183  0.55096851  1
  Se  Se149  1  0.91455050  0.91782459  0.04942875  1
  Se  Se150  1  0.91863824  0.91737282  0.54300359  1
  Se  Se151  1  0.08122609  0.25613393  0.44767480  1
  Se  Se152  1  0.07802916  0.25264843  0.94288735  1
  Se  Se153  1  0.07553491  0.59321413  0.43747408  1
  Se  Se154  1  0.08828094  0.57377599  0.94874946  1
  Se  Se155  1  0.07455412  0.92513530  0.43425062  1
  Se  Se156  1  0.08430252  0.91338134  0.95372780  1
  Se  Se157  1  0.43802596  0.23329221  0.44538315  1
  Se  Se158  1  0.41355699  0.25178593  0.95324212  1
  Se  Se159  1  0.42112172  0.58301198  0.44655249  1
  Se  Se160  1  0.41669648  0.58475100  0.94863005  1
  Se  Se161  1  0.40561259  0.92594942  0.44073024  1
  Se  Se162  1  0.41412750  0.92061207  0.93733436  1
  Se  Se163  1  0.74702622  0.25565601  0.43784722  1
  Se  Se164  1  0.74726038  0.26027994  0.93774101  1
  Se  Se165  1  0.74875058  0.57834449  0.44849461  1
  Se  Se166  1  0.75305660  0.57771049  0.94345139  1
  Se  Se167  1  0.75002809  0.91443703  0.44680322  1
  Se  Se168  1  0.75116070  0.91449391  0.94899099  1
  Se  Se169  1  0.24140789  0.08698816  0.45371151  1
  Se  Se170  1  0.25507895  0.08071107  0.93799491  1
  Se  Se171  1  0.25944627  0.41074260  0.43745244  1
  Se  Se172  1  0.25749310  0.40727430  0.95426865  1
  Se  Se173  1  0.25648090  0.74722268  0.44260784  1
  Se  Se174  1  0.24754634  0.75089398  0.95007785  1
  Se  Se175  1  0.58496325  0.08187346  0.44939144  1
  Se  Se176  1  0.58453855  0.08926384  0.95073126  1
  Se  Se177  1  0.58078636  0.41761278  0.44530606  1
  Se  Se178  1  0.58354121  0.41891104  0.94596636  1
  Se  Se179  1  0.59255372  0.74032370  0.43731439  1
  Se  Se180  1  0.59091074  0.74311511  0.93802121  1
  Se  Se181  1  0.92142728  0.08246237  0.43905127  1
  Se  Se182  1  0.92852215  0.07209141  0.94463063  1
  Se  Se183  1  0.91220082  0.42075863  0.44541651  1
  Se  Se184  1  0.91294612  0.41404267  0.94364152  1
  Se  Se185  1  0.91006544  0.75238900  0.44381022  1
  Se  Se186  1  0.91854294  0.73820281  0.94311908  1
  Se  Se187  1  0.25535133  0.25025883  0.30738202  1
  Se  Se188  1  0.24566637  0.24991061  0.81090370  1
  Se  Se189  1  0.25332390  0.58425201  0.30333335  1
  Se  Se190  1  0.25498997  0.58462087  0.80969657  1
  Se  Se191  1  0.24084499  0.90677624  0.30434615  1
  Se  Se192  1  0.25586564  0.91941782  0.80546282  1
  Se  Se193  1  0.58706233  0.25583405  0.30334662  1
  Se  Se194  1  0.57640463  0.25756837  0.80300675  1
  Se  Se195  1  0.57802744  0.57482591  0.31038461  1
  Se  Se196  1  0.58916396  0.58359312  0.80383086  1
  Se  Se197  1  0.56501659  0.90395167  0.30468767  1
  Se  Se198  1  0.57915431  0.91189441  0.81760422  1
  Se  Se199  1  0.91558409  0.25165209  0.29910809  1
  Se  Se200  1  0.92386235  0.25152688  0.79865833  1
  Se  Se201  1  0.91760781  0.58628331  0.30171449  1
  Se  Se202  1  0.90514063  0.56901268  0.80584346  1
  Se  Se203  1  0.90776783  0.91030775  0.30953896  1
  Se  Se204  1  0.91482408  0.90393174  0.80655568  1
  Se  Se205  1  0.08830623  0.09042671  0.30824262  1
  Se  Se206  1  0.09591182  0.08994420  0.81167358  1
  Se  Se207  1  0.08491355  0.41763427  0.30358635  1
  Se  Se208  1  0.08323451  0.41981053  0.80637249  1
  Se  Se209  1  0.07750234  0.74374821  0.29694793  1
  Se  Se210  1  0.09117053  0.75498120  0.81139594  1
  Se  Se211  1  0.41686691  0.09451791  0.31393825  1
  Se  Se212  1  0.41535269  0.08612272  0.80102470  1
  Se  Se213  1  0.41703736  0.41347395  0.30453530  1
  Se  Se214  1  0.42249687  0.42560468  0.81284520  1
  Se  Se215  1  0.41321663  0.74411731  0.29439117  1
  Se  Se216  1  0.41707479  0.74619692  0.80534194  1
  Se  Se217  1  0.74177663  0.08113412  0.30337315  1
  Se  Se218  1  0.75841869  0.09268383  0.81576200  1
  Se  Se219  1  0.75165692  0.42003662  0.30023803  1
  Se  Se220  1  0.73403532  0.40261495  0.80131802  1
  Se  Se221  1  0.75312341  0.74988704  0.30933475  1
  Se  Se222  1  0.75650234  0.74916106  0.79742178  1
  Se  Se223  1  0.24315582  0.09208781  0.19001660  1
  Se  Se224  1  0.25709258  0.08483489  0.69377687  1
  Se  Se225  1  0.25373029  0.41480965  0.19944827  1
  Se  Se226  1  0.24365278  0.42808731  0.69015076  1
  Se  Se227  1  0.24883513  0.74501348  0.19457248  1
  Se  Se228  1  0.25799670  0.74413594  0.70168707  1
  Se  Se229  1  0.58059952  0.08272445  0.20095479  1
  Se  Se230  1  0.57964801  0.09050182  0.69032280  1
  Se  Se231  1  0.58955217  0.41367678  0.19637336  1
  Se  Se232  1  0.57758266  0.41443828  0.68979576  1
  Se  Se233  1  0.57429300  0.75447561  0.18628258  1
  Se  Se234  1  0.58707883  0.75199135  0.70218845  1
  Se  Se235  1  0.90258621  0.09061311  0.18777015  1
  Se  Se236  1  0.91255787  0.09072690  0.68991945  1
  Se  Se237  1  0.91718484  0.41695918  0.19450637  1
  Se  Se238  1  0.93002315  0.40921051  0.70071383  1
  Se  Se239  1  0.91723396  0.74605535  0.19417941  1
  Se  Se240  1  0.91338716  0.75261981  0.68555131  1
  Se  Se241  1  0.08050352  0.25702398  0.20087587  1
  Se  Se242  1  0.08711339  0.25168756  0.69788358  1
  Se  Se243  1  0.08241077  0.58028837  0.19584203  1
  Se  Se244  1  0.08947403  0.58079957  0.69217028  1
  Se  Se245  1  0.08296621  0.91226769  0.18619814  1
  Se  Se246  1  0.09451984  0.90830008  0.69170804  1
  Se  Se247  1  0.41707547  0.25257592  0.19738722  1
  Se  Se248  1  0.42134032  0.24967203  0.68406450  1
  Se  Se249  1  0.41690569  0.58048352  0.19887009  1
  Se  Se250  1  0.41964500  0.58352644  0.69761460  1
  Se  Se251  1  0.42060319  0.91084512  0.18601034  1
  Se  Se252  1  0.41861624  0.91962556  0.70503491  1
  Se  Se253  1  0.74625332  0.25288837  0.19860170  1
  Se  Se254  1  0.74359930  0.25360389  0.70462754  1
  Se  Se255  1  0.75245196  0.57689002  0.18313708  1
  Se  Se256  1  0.74683165  0.57993934  0.69280541  1
  Se  Se257  1  0.74466068  0.91318356  0.19873475  1
  Se  Se258  1  0.75934866  0.91544072  0.69512381  1
