# generated using pymatgen
data_In86Cu29Se144
_symmetry_space_group_name_H-M   'P 1'
_cell_length_a   17.57872433
_cell_length_b   17.58017702
_cell_length_c   23.44692227
_cell_angle_alpha   89.99707717
_cell_angle_beta   90.00639115
_cell_angle_gamma   89.99621872
_symmetry_Int_Tables_number   1
_chemical_formula_structural   In86Cu29Se144
_chemical_formula_sum   'In86 Cu29 Se144'
_cell_volume   7245.96845357
_cell_formula_units_Z   1
loop_
 _symmetry_equiv_pos_site_id
 _symmetry_equiv_pos_as_xyz
  1  'x, y, z'
loop_
 _atom_site_type_symbol
 _atom_site_label
 _atom_site_symmetry_multiplicity
 _atom_site_fract_x
 _atom_site_fract_y
 _atom_site_fract_z
 _atom_site_occupancy
  In  In0  1  -0.00888695  0.17976185  0.12360348  1
  In  In1  1  -0.00154144  0.16681791  0.62677863  1
  In  In2  1  -0.01589320  0.48289296  0.12585556  1
  In  In3  1  -0.01179869  0.50859546  0.63375286  1
  In  In4  1  -0.01011469  0.84488451  0.11999429  1
  In  In5  1  -0.01075150  0.83982270  0.63057815  1
  In  In6  1  0.33601233  0.17617100  0.12508583  1
  In  In7  1  0.33486335  0.17208800  0.62253557  1
  In  In8  1  0.35248332  0.49957162  0.12054244  1
  In  In9  1  0.33752810  0.48408757  0.62485726  1
  In  In10  1  0.32912515  0.82878740  0.12545732  1
  In  In11  1  0.35610603  0.83478127  0.62983645  1
  In  In12  1  0.67510944  0.15237474  0.14134573  1
  In  In13  1  0.67530273  0.17518318  0.61966539  1
  In  In14  1  0.66806415  0.51254934  0.13623612  1
  In  In15  1  0.66629880  0.49855487  0.62302464  1
  In  In16  1  0.67687764  0.82466883  0.13091253  1
  In  In17  1  0.65312492  0.82277246  0.62057898  1
  In  In18  1  0.17750725  0.00523856  0.37878274  1
  In  In19  1  0.16621023  0.00441595  0.86372336  1
  In  In20  1  0.15410721  0.33050704  0.37776969  1
  In  In21  1  0.16211892  0.32645650  0.86492496  1
  In  In22  1  0.16955089  0.65047442  0.37325623  1
  In  In23  1  0.16608075  0.67816969  0.87245289  1
  In  In24  1  0.50709850  -0.00179791  0.38307403  1
  In  In25  1  0.50059455  0.01388564  0.86077980  1
  In  In26  1  0.52238097  0.31757453  0.38979661  1
  In  In27  1  0.51373444  0.34113399  0.86106657  1
  In  In28  1  0.50722828  0.66594449  0.37645302  1
  In  In29  1  0.49520369  0.64924666  0.87323183  1
  In  In30  1  0.81942732  0.01198814  0.38721584  1
  In  In31  1  0.84344378  -0.00430222  0.88385827  1
  In  In32  1  0.82931855  0.33380286  0.37796518  1
  In  In33  1  0.82926890  0.32833271  0.87061702  1
  In  In34  1  0.82062695  0.67412907  0.38268421  1
  In  In35  1  0.83888533  0.67396793  0.86809213  1
  In  In36  1  -0.01422244  0.17989860  0.38832504  1
  In  In37  1  -0.00979520  0.16364056  0.86835522  1
  In  In38  1  -0.00021651  0.48091464  0.37398034  1
  In  In39  1  -0.01139874  0.49446384  0.86510495  1
  In  In40  1  -0.01299960  0.82194996  0.37702186  1
  In  In41  1  -0.00474356  0.83376759  0.86826749  1
  In  In42  1  0.33735325  0.16154576  0.38728937  1
  In  In43  1  0.34370368  0.16943791  0.85451077  1
  In  In44  1  0.34036816  0.51282640  0.37109399  1
  In  In45  1  0.35673743  0.50626744  0.87573642  1
  In  In46  1  0.35411588  0.83177654  0.37750542  1
  In  In47  1  0.32731918  0.83449731  0.86919110  1
  In  In48  1  0.66756786  0.17174370  0.37672025  1
  In  In49  1  0.67093647  0.17982089  0.86898338  1
  In  In50  1  0.66724384  0.49624986  0.37965202  1
  In  In51  1  0.66050025  0.49445336  0.86939394  1
  In  In52  1  0.66637448  0.83445568  0.37826689  1
  In  In53  1  0.68304798  0.84006222  0.87205812  1
  In  In54  1  0.16468144  0.01525879  0.12362927  1
  In  In55  1  0.15679383  0.00679150  0.63068062  1
  In  In56  1  0.15743645  0.32217406  0.12492286  1
  In  In57  1  0.17578886  0.32278408  0.63105057  1
  In  In58  1  0.17426232  0.66963841  0.12707272  1
  In  In59  1  0.16117377  0.65365571  0.62722269  1
  In  In60  1  0.51411605  0.01343106  0.12801342  1
  In  In61  1  0.49311720  -0.00140157  0.62313710  1
  In  In62  1  0.50176956  0.34228888  0.12536156  1
  In  In63  1  0.50110557  0.33230916  0.62017848  1
  In  In64  1  0.50760725  0.66079822  0.13117474  1
  In  In65  1  0.51574083  0.67921262  0.61686923  1
  In  In66  1  0.82648041  -0.00844502  0.11516768  1
  In  In67  1  0.83861755  0.00862786  0.61894775  1
  In  In68  1  0.84171089  0.32871452  0.13563566  1
  In  In69  1  0.83076329  0.33299702  0.62721716  1
  In  In70  1  0.82185890  0.66316435  0.12537031  1
  In  In71  1  0.82701185  0.66532071  0.62504262  1
  In  In72  1  0.34217560  0.33623542  0.24868642  1
  In  In73  1  0.66494338  0.00048037  0.74158296  1
  In  In74  1  0.16449112  0.49296445  0.50117251  1
  In  In75  1  0.82845414  0.49727596  0.00245104  1
  In  In76  1  0.16704274  0.50002979  0.00271517  1
  In  In77  1  0.50398517  0.82978888  -0.00377856  1
  In  In78  1  0.33320221  0.66647538  0.75041481  1
  In  In79  1  0.16438720  0.83863711  0.50207547  1
  In  In80  1  0.00057541  0.00187683  0.24896038  1
  In  In81  1  0.50405986  0.16996102  -0.00325835  1
  In  In82  1  -0.00762075  0.65522969  0.24912066  1
  In  In83  1  0.15314175  0.16090493  -0.00616930  1
  In  In84  1  0.16416180  0.83273132  -0.01416477  1
  In  In85  1  0.34891773  -0.00627303  0.25948510  1
  Cu  Cu86  1  0.66675805  0.66536340  0.00422212  1
  Cu  Cu87  1  0.33466886  0.33731752  -0.00738299  1
  Cu  Cu88  1  -0.01343301  0.66501677  0.50487811  1
  Cu  Cu89  1  0.16557758  0.17043811  0.74511004  1
  Cu  Cu90  1  0.16675549  0.16778502  0.25400256  1
  Cu  Cu91  1  0.66423500  0.33617589  -0.00209569  1
  Cu  Cu92  1  0.15998032  0.49758234  0.74941947  1
  Cu  Cu93  1  0.50383556  0.49918874  0.74333769  1
  Cu  Cu94  1  0.33668740  0.33278865  0.50265133  1
  Cu  Cu95  1  -0.00094637  0.00120064  0.50649793  1
  Cu  Cu96  1  0.33988690  0.66925068  0.49779761  1
  Cu  Cu97  1  0.32993202  -0.00027526  -0.00634996  1
  Cu  Cu98  1  0.67481481  0.00152292  0.00174098  1
  Cu  Cu99  1  0.83411370  0.83139624  0.74790135  1
  Cu  Cu100  1  -0.00356707  0.32991815  0.50529285  1
  Cu  Cu101  1  0.17043927  0.82319157  0.24744171  1
  Cu  Cu102  1  0.17023516  0.49502639  0.25049586  1
  Cu  Cu103  1  0.33340336  0.00423803  0.50428155  1
  Cu  Cu104  1  0.83309994  0.16914655  0.25920940  1
  Cu  Cu105  1  -0.00067974  0.67154265  -0.00762378  1
  Cu  Cu106  1  0.50865380  0.82810172  0.25378347  1
  Cu  Cu107  1  0.16198864  0.83518076  0.74824530  1
  Cu  Cu108  1  0.66566212  -0.00088098  0.50381161  1
  Cu  Cu109  1  0.82324032  0.49814264  0.74794873  1
  Cu  Cu110  1  0.67146819  0.33516731  0.50094366  1
  Cu  Cu111  1  0.83425066  0.16550531  0.74546488  1
  Cu  Cu112  1  0.82526252  0.84028610  0.25161701  1
  Cu  Cu113  1  0.66602650  0.66392419  0.49938661  1
  Cu  Cu114  1  0.50570440  0.50207712  0.25414412  1
  Se  Se115  1  0.06299744  0.07410732  0.05635306  1
  Se  Se116  1  0.08343022  0.08603189  0.55535823  1
  Se  Se117  1  0.07314205  0.40550448  0.05402857  1
  Se  Se118  1  0.07577615  0.41169005  0.56663456  1
  Se  Se119  1  0.07934302  0.74635171  0.05723039  1
  Se  Se120  1  0.07703120  0.74240367  0.55933308  1
  Se  Se121  1  0.40959803  0.07677261  0.05663349  1
  Se  Se122  1  0.41899521  0.08853689  0.55389559  1
  Se  Se123  1  0.42174342  0.41253796  0.04801555  1
  Se  Se124  1  0.42159730  0.42006702  0.54866081  1
  Se  Se125  1  0.41595805  0.74416307  0.05974625  1
  Se  Se126  1  0.42039223  0.75423035  0.55107569  1
  Se  Se127  1  0.74829694  0.09197593  0.05657018  1
  Se  Se128  1  0.75129745  0.08608217  0.55108674  1
  Se  Se129  1  0.74038268  0.41121030  0.06516421  1
  Se  Se130  1  0.75403885  0.41799030  0.55546939  1
  Se  Se131  1  0.75262774  0.75068487  0.05275001  1
  Se  Se132  1  0.74681375  0.74904401  0.55429866  1
  Se  Se133  1  0.25364503  0.25489242  0.05031690  1
  Se  Se134  1  0.24734364  0.25115178  0.55098784  1
  Se  Se135  1  0.26129735  0.59044171  0.05680064  1
  Se  Se136  1  0.25911524  0.58797885  0.55652681  1
  Se  Se137  1  0.25026063  0.92423191  0.05588999  1
  Se  Se138  1  0.25708620  0.92009327  0.56514101  1
  Se  Se139  1  0.59230366  0.25172900  0.06231215  1
  Se  Se140  1  0.58551240  0.25048607  0.55097273  1
  Se  Se141  1  0.58700058  0.58096719  0.05808918  1
  Se  Se142  1  0.58219568  0.57983936  0.55210905  1
  Se  Se143  1  0.59028462  0.92185960  0.05879280  1
  Se  Se144  1  0.57910746  0.91733356  0.55510546  1
  Se  Se145  1  0.91089815  0.25861814  0.05447095  1
  Se  Se146  1  0.91200101  0.24667184  0.55810166  1
  Se  Se147  1  0.92578253  0.59085916  0.05770109  1
  Se  Se148  1  0.90811179  0.57691794  0.55627846  1
  Se  Se149  1  0.91600764  0.91958130  0.04607250  1
  Se  Se150  1  0.91463036  0.91355366  0.55299384  1
  Se  Se151  1  0.08514082  0.24891379  0.45365623  1
  Se  Se152  1  0.07165021  0.25983062  0.93916083  1
  Se  Se153  1  0.07080794  0.58755164  0.44446060  1
  Se  Se154  1  0.07699324  0.58662155  0.93631815  1
  Se  Se155  1  0.07257671  0.92396729  0.43788071  1
  Se  Se156  1  0.07520722  0.93089985  0.93666451  1
  Se  Se157  1  0.42103247  0.24726595  0.45153248  1
  Se  Se158  1  0.41298143  0.25455096  0.93407229  1
  Se  Se159  1  0.42133346  0.58340598  0.44604645  1
  Se  Se160  1  0.42345161  0.58241225  0.95435302  1
  Se  Se161  1  0.41669174  0.92022104  0.45089742  1
  Se  Se162  1  0.41552328  0.92467441  0.93625873  1
  Se  Se163  1  0.75349132  0.24712528  0.44941958  1
  Se  Se164  1  0.74774268  0.25325736  0.94555251  1
  Se  Se165  1  0.75108200  0.57882624  0.44937193  1
  Se  Se166  1  0.74546884  0.58811706  0.93832603  1
  Se  Se167  1  0.74919351  0.91371269  0.45073777  1
  Se  Se168  1  0.75495199  0.91406421  0.95010470  1
  Se  Se169  1  0.24554169  0.08632972  0.45445705  1
  Se  Se170  1  0.25798465  0.08590686  0.93413623  1
  Se  Se171  1  0.25884409  0.41121859  0.43698115  1
  Se  Se172  1  0.25169609  0.41459900  0.93407454  1
  Se  Se173  1  0.25169996  0.74434626  0.44003554  1
  Se  Se174  1  0.26668300  0.73764636  0.94448220  1
  Se  Se175  1  0.58760662  0.08662038  0.44799156  1
  Se  Se176  1  0.59332772  0.07597999  0.93843038  1
  Se  Se177  1  0.58290524  0.42113424  0.45387253  1
  Se  Se178  1  0.58039840  0.41604424  0.94305453  1
  Se  Se179  1  0.58321046  0.75162936  0.44761482  1
  Se  Se180  1  0.59465635  0.74258247  0.93565356  1
  Se  Se181  1  0.91435292  0.08425508  0.45265383  1
  Se  Se182  1  0.90462451  0.10118298  0.94474422  1
  Se  Se183  1  0.91640330  0.41352676  0.44898196  1
  Se  Se184  1  0.91944427  0.41054566  0.94230626  1
  Se  Se185  1  0.90751577  0.75339088  0.45296222  1
  Se  Se186  1  0.91512429  0.75484293  0.94187151  1
  Se  Se187  1  0.25179773  0.24601343  0.31185844  1
  Se  Se188  1  0.25177229  0.25426032  0.79584828  1
  Se  Se189  1  0.25286486  0.58280355  0.29788738  1
  Se  Se190  1  0.24361281  0.57430334  0.81192763  1
  Se  Se191  1  0.24582084  0.90407602  0.31079243  1
  Se  Se192  1  0.24909842  0.91655035  0.79938212  1
  Se  Se193  1  0.59947843  0.26587441  0.30535696  1
  Se  Se194  1  0.56166281  0.22470000  0.80512123  1
  Se  Se195  1  0.59058843  0.58380312  0.30809259  1
  Se  Se196  1  0.58336158  0.58279153  0.80004680  1
  Se  Se197  1  0.58262841  0.91735148  0.30867679  1
  Se  Se198  1  0.58052699  0.90923454  0.80640489  1
  Se  Se199  1  0.91879329  0.25400673  0.30805883  1
  Se  Se200  1  0.91510227  0.25281101  0.79908175  1
  Se  Se201  1  0.90872654  0.57730369  0.31871397  1
  Se  Se202  1  0.91037617  0.58240899  0.79916956  1
  Se  Se203  1  0.90838343  0.91696621  0.31184125  1
  Se  Se204  1  0.91131610  0.91976385  0.80260661  1
  Se  Se205  1  0.08547657  0.09021665  0.31490247  1
  Se  Se206  1  0.08117198  0.08891998  0.79995656  1
  Se  Se207  1  0.08582718  0.41097525  0.30033998  1
  Se  Se208  1  0.07664855  0.41250132  0.80059981  1
  Se  Se209  1  0.08642063  0.74968566  0.30832397  1
  Se  Se210  1  0.08082199  0.74996252  0.80122433  1
  Se  Se211  1  0.42904830  0.09527717  0.31265170  1
  Se  Se212  1  0.40523683  0.06886120  0.78945656  1
  Se  Se213  1  0.43028009  0.41749692  0.31491273  1
  Se  Se214  1  0.41779621  0.42012770  0.79927220  1
  Se  Se215  1  0.42113389  0.74582734  0.30425083  1
  Se  Se216  1  0.42632490  0.75519640  0.80833820  1
  Se  Se217  1  0.74815951  0.08299680  0.30729129  1
  Se  Se218  1  0.75585092  0.08355086  0.80738208  1
  Se  Se219  1  0.72450911  0.39232972  0.31222374  1
  Se  Se220  1  0.74463173  0.41129647  0.80307322  1
  Se  Se221  1  0.74823893  0.75276883  0.30603583  1
  Se  Se222  1  0.74843853  0.74935415  0.79968954  1
  Se  Se223  1  0.25312182  0.08807704  0.19837499  1
  Se  Se224  1  0.24956042  0.08791995  0.69151466  1
  Se  Se225  1  0.24729940  0.41852945  0.18407385  1
  Se  Se226  1  0.24778485  0.41887347  0.69710965  1
  Se  Se227  1  0.25939600  0.74310671  0.19922047  1
  Se  Se228  1  0.24320025  0.75614284  0.68645196  1
  Se  Se229  1  0.58113253  0.08264874  0.20821598  1
  Se  Se230  1  0.57861769  0.09492362  0.68519965  1
  Se  Se231  1  0.58384462  0.41921886  0.19645249  1
  Se  Se232  1  0.58570293  0.41218924  0.69199003  1
  Se  Se233  1  0.59053214  0.74516056  0.19794808  1
  Se  Se234  1  0.58062487  0.74937847  0.69897586  1
  Se  Se235  1  0.90704201  0.08897289  0.19169191  1
  Se  Se236  1  0.91829376  0.07920909  0.69608389  1
  Se  Se237  1  0.90852891  0.42268338  0.20573074  1
  Se  Se238  1  0.91198774  0.41582994  0.69832396  1
  Se  Se239  1  0.91160752  0.76082765  0.19386269  1
  Se  Se240  1  0.91545260  0.74470018  0.69474396  1
  Se  Se241  1  0.08061359  0.24526955  0.19879078  1
  Se  Se242  1  0.07758067  0.25366961  0.69600531  1
  Se  Se243  1  0.08862488  0.57143055  0.18643368  1
  Se  Se244  1  0.07788512  0.58667133  0.70212626  1
  Se  Se245  1  0.09549558  0.90916923  0.19003307  1
  Se  Se246  1  0.07693445  0.91924799  0.69728223  1
  Se  Se247  1  0.43278252  0.23951595  0.19473721  1
  Se  Se248  1  0.40063300  0.27150414  0.68769600  1
  Se  Se249  1  0.41863995  0.58009288  0.19852539  1
  Se  Se250  1  0.42135635  0.58152702  0.68554499  1
  Se  Se251  1  0.43079589  0.90719314  0.18831304  1
  Se  Se252  1  0.42137843  0.92206154  0.70186053  1
  Se  Se253  1  0.75141374  0.25014612  0.20137820  1
  Se  Se254  1  0.74740479  0.25091087  0.69835465  1
  Se  Se255  1  0.76328926  0.58150747  0.20299349  1
  Se  Se256  1  0.74295735  0.58456839  0.69499315  1
  Se  Se257  1  0.74719553  0.92441987  0.19456270  1
  Se  Se258  1  0.75604659  0.90961319  0.68352270  1
