# generated using pymatgen
data_In86Cu29Se144
_symmetry_space_group_name_H-M   'P 1'
_cell_length_a   17.57457813
_cell_length_b   17.57187934
_cell_length_c   23.43171534
_cell_angle_alpha   89.99047301
_cell_angle_beta   90.00516041
_cell_angle_gamma   89.97720107
_symmetry_Int_Tables_number   1
_chemical_formula_structural   In86Cu29Se144
_chemical_formula_sum   'In86 Cu29 Se144'
_cell_volume   7236.14335143
_cell_formula_units_Z   1
loop_
 _symmetry_equiv_pos_site_id
 _symmetry_equiv_pos_as_xyz
  1  'x, y, z'
loop_
 _atom_site_type_symbol
 _atom_site_label
 _atom_site_symmetry_multiplicity
 _atom_site_fract_x
 _atom_site_fract_y
 _atom_site_fract_z
 _atom_site_occupancy
  In  In0  1  -0.00287908  0.16443274  0.12791909  1
  In  In1  1  -0.02161887  0.18888246  0.64516571  1
  In  In2  1  -0.00626211  0.50900380  0.13822334  1
  In  In3  1  -0.01321805  0.48977783  0.61339149  1
  In  In4  1  0.01442015  0.82553190  0.13061507  1
  In  In5  1  0.01231214  0.84037971  0.62819581  1
  In  In6  1  0.31961704  0.17082320  0.12572288  1
  In  In7  1  0.33059550  0.17036285  0.62352487  1
  In  In8  1  0.34191588  0.50137748  0.12782606  1
  In  In9  1  0.34738139  0.50854528  0.60863870  1
  In  In10  1  0.33156107  0.83551685  0.12342819  1
  In  In11  1  0.32766047  0.81979345  0.62243865  1
  In  In12  1  0.67096933  0.15711272  0.11964134  1
  In  In13  1  0.68813598  0.16949996  0.62475787  1
  In  In14  1  0.66951147  0.50335628  0.12428719  1
  In  In15  1  0.66794564  0.50129494  0.62815728  1
  In  In16  1  0.65069169  0.82776915  0.12151114  1
  In  In17  1  0.64724870  0.83015735  0.62475402  1
  In  In18  1  0.16966743  0.00274553  0.36708542  1
  In  In19  1  0.16322044  0.01081050  0.89456759  1
  In  In20  1  0.16554578  0.36512130  0.37137529  1
  In  In21  1  0.14669058  0.32892635  0.87239238  1
  In  In22  1  0.16297033  0.64174139  0.34997887  1
  In  In23  1  0.18371962  0.66281767  0.87586247  1
  In  In24  1  0.47691511  -0.00840404  0.37239879  1
  In  In25  1  0.48667818  -0.00737629  0.88187980  1
  In  In26  1  0.50634755  0.33338643  0.38001349  1
  In  In27  1  0.51907982  0.33609754  0.87221806  1
  In  In28  1  0.50192175  0.66372957  0.37205296  1
  In  In29  1  0.49853320  0.66626171  0.87977274  1
  In  In30  1  0.84900825  0.00229171  0.37471901  1
  In  In31  1  0.85150608  0.00305079  0.87270819  1
  In  In32  1  0.83998363  0.32692086  0.38248508  1
  In  In33  1  0.83763252  0.33324722  0.87871784  1
  In  In34  1  0.82069388  0.65596094  0.36821419  1
  In  In35  1  0.81447277  0.66945365  0.87414187  1
  In  In36  1  -0.00441269  0.16572487  0.37031907  1
  In  In37  1  -0.00094092  0.16872667  0.88102909  1
  In  In38  1  -0.00212734  0.49404884  0.36937010  1
  In  In39  1  -0.00320724  0.48141747  0.87395683  1
  In  In40  1  0.01148080  0.83663787  0.36444427  1
  In  In41  1  0.00090018  0.84517320  0.87765528  1
  In  In42  1  0.33718867  0.15553290  0.36876751  1
  In  In43  1  0.32539360  0.15620419  0.88219444  1
  In  In44  1  0.33253333  0.50471696  0.37734891  1
  In  In45  1  0.33267672  0.51701145  0.87513870  1
  In  In46  1  0.33971731  0.83528112  0.37366887  1
  In  In47  1  0.34356986  0.82894616  0.89132018  1
  In  In48  1  0.67005117  0.17817619  0.37873545  1
  In  In49  1  0.67570759  0.18403735  0.86946181  1
  In  In50  1  0.65654627  0.50961297  0.38451011  1
  In  In51  1  0.66566296  0.50265096  0.87774368  1
  In  In52  1  0.66487527  0.81325734  0.37228434  1
  In  In53  1  0.66204509  0.81691383  0.87300405  1
  In  In54  1  0.16996733  -0.00158684  0.12692544  1
  In  In55  1  0.15877041  -0.00638134  0.62615994  1
  In  In56  1  0.16440717  0.31824011  0.12506126  1
  In  In57  1  0.15259765  0.32924988  0.62283456  1
  In  In58  1  0.15724129  0.67039139  0.13509044  1
  In  In59  1  0.18072673  0.67241480  0.62370607  1
  In  In60  1  0.50213343  -0.01050452  0.12393303  1
  In  In61  1  0.50237647  -0.00735800  0.61729879  1
  In  In62  1  0.48752597  0.34284295  0.12572890  1
  In  In63  1  0.50363041  0.36313900  0.62109255  1
  In  In64  1  0.49371497  0.66169826  0.13494178  1
  In  In65  1  0.49652876  0.66402116  0.62454739  1
  In  In66  1  0.83324548  0.01344664  0.12076857  1
  In  In67  1  0.83514728  0.01502494  0.62412390  1
  In  In68  1  0.83880812  0.34026733  0.11861412  1
  In  In69  1  0.82960042  0.33670731  0.62831204  1
  In  In70  1  0.84106435  0.65798069  0.13139196  1
  In  In71  1  0.83370912  0.64757766  0.62236210  1
  In  In72  1  -0.00176390  0.66566757  0.74534182  1
  In  In73  1  0.50253373  0.16682064  0.49812485  1
  In  In74  1  0.16163023  0.16899028  0.49522649  1
  In  In75  1  0.67376996  0.00261883  0.75577568  1
  In  In76  1  0.33486827  0.33784793  0.74203805  1
  In  In77  1  0.83315322  0.83257832  -0.00606837  1
  In  In78  1  0.33095927  -0.00390733  0.75946709  1
  In  In79  1  0.66081773  0.33699160  0.25297162  1
  In  In80  1  0.17280029  0.83107582  0.49350966  1
  In  In81  1  0.16306139  0.49780427  -0.00073317  1
  In  In82  1  0.32833211  0.33178026  0.25564786  1
  In  In83  1  0.50152677  0.17011892  -0.00240842  1
  In  In84  1  0.83356416  0.82644746  0.49296312  1
  In  In85  1  0.66865246  -0.00410568  0.24111513  1
  Cu  Cu86  1  0.49759244  0.83072256  0.24806248  1
  Cu  Cu87  1  0.65943823  0.66301328  0.00186275  1
  Cu  Cu88  1  0.33672341  0.66715495  0.49425219  1
  Cu  Cu89  1  0.49226171  0.82261085  0.75222026  1
  Cu  Cu90  1  0.33170864  0.33913334  0.00190390  1
  Cu  Cu91  1  0.67176695  0.33869776  0.50332050  1
  Cu  Cu92  1  0.00485409  0.00092728  0.00427789  1
  Cu  Cu93  1  0.51081025  0.16999386  0.74742262  1
  Cu  Cu94  1  0.15874338  0.16465430  0.24856948  1
  Cu  Cu95  1  0.00650519  0.65919904  0.48869220  1
  Cu  Cu96  1  0.84097700  0.83004827  0.24796849  1
  Cu  Cu97  1  0.82979399  0.49800930  0.25112010  1
  Cu  Cu98  1  0.16777690  0.50344798  0.74611929  1
  Cu  Cu99  1  -0.00035378  0.66017407  0.00794059  1
  Cu  Cu100  1  0.66897494  0.00243133  -0.00187482  1
  Cu  Cu101  1  -0.00360367  0.33808802  0.50149055  1
  Cu  Cu102  1  0.50166637  0.50815487  0.74934282  1
  Cu  Cu103  1  0.16004913  0.16288512  0.75720672  1
  Cu  Cu104  1  0.83549799  0.16874177  0.24901873  1
  Cu  Cu105  1  0.82913065  0.49603659  0.75098187  1
  Cu  Cu106  1  0.82836909  0.83413802  0.75104993  1
  Cu  Cu107  1  0.66620610  -0.00356503  0.50004689  1
  Cu  Cu108  1  0.16959811  0.83505275  0.75313615  1
  Cu  Cu109  1  -0.00298108  0.01304232  0.50239756  1
  Cu  Cu110  1  -0.00263693  0.32778030  0.00178263  1
  Cu  Cu111  1  0.33743136  0.66999888  0.00532232  1
  Cu  Cu112  1  0.17286897  0.83581291  0.24795035  1
  Cu  Cu113  1  0.66030944  0.66171110  0.50075575  1
  Cu  Cu114  1  0.66990790  0.34084070  -0.00214081  1
  Se  Se115  1  0.08452930  0.08494862  0.06021400  1
  Se  Se116  1  0.07479082  0.08940062  0.56572867  1
  Se  Se117  1  0.07476461  0.41180011  0.06261083  1
  Se  Se118  1  0.08659896  0.41938614  0.55004378  1
  Se  Se119  1  0.08603423  0.74478827  0.05443969  1
  Se  Se120  1  0.07620877  0.74320102  0.55401006  1
  Se  Se121  1  0.41573644  0.08537235  0.06245206  1
  Se  Se122  1  0.40690962  0.07679497  0.55646150  1
  Se  Se123  1  0.41613235  0.42355263  0.05037211  1
  Se  Se124  1  0.40933119  0.40541088  0.54515627  1
  Se  Se125  1  0.42171282  0.74895561  0.06131386  1
  Se  Se126  1  0.41660551  0.74904429  0.55284287  1
  Se  Se127  1  0.75449311  0.08771133  0.04485449  1
  Se  Se128  1  0.75088999  0.08233727  0.54814382  1
  Se  Se129  1  0.75195665  0.42318708  0.05378792  1
  Se  Se130  1  0.75350093  0.42292816  0.55747102  1
  Se  Se131  1  0.74787779  0.74318733  0.05846464  1
  Se  Se132  1  0.74365701  0.74408787  0.55957714  1
  Se  Se133  1  0.24866418  0.25096655  0.04890423  1
  Se  Se134  1  0.25383802  0.25886545  0.55516010  1
  Se  Se135  1  0.25128553  0.58712378  0.06045057  1
  Se  Se136  1  0.24929358  0.58837365  0.54935137  1
  Se  Se137  1  0.23989076  0.90910430  0.05616544  1
  Se  Se138  1  0.25552051  0.92414703  0.55810167  1
  Se  Se139  1  0.58935035  0.26174936  0.06091714  1
  Se  Se140  1  0.58981016  0.25540401  0.56319561  1
  Se  Se141  1  0.57809187  0.58474724  0.06104688  1
  Se  Se142  1  0.58057937  0.57886510  0.55807820  1
  Se  Se143  1  0.58540116  0.91855276  0.04884304  1
  Se  Se144  1  0.58051790  0.91052715  0.54634750  1
  Se  Se145  1  0.91368061  0.24401086  0.05563556  1
  Se  Se146  1  0.91654552  0.25447349  0.55839105  1
  Se  Se147  1  0.91627142  0.57629267  0.05726621  1
  Se  Se148  1  0.91762619  0.58486072  0.54505343  1
  Se  Se149  1  0.92116900  0.91599684  0.06066945  1
  Se  Se150  1  0.92232286  0.91806887  0.55546967  1
  Se  Se151  1  0.07648846  0.26398517  0.43605589  1
  Se  Se152  1  0.08690312  0.24698647  0.95195646  1
  Se  Se153  1  0.08928715  0.57887690  0.43411937  1
  Se  Se154  1  0.07465306  0.58757276  0.93616015  1
  Se  Se155  1  0.07623378  0.92918994  0.44330876  1
  Se  Se156  1  0.08406089  0.91111366  0.95345179  1
  Se  Se157  1  0.40597179  0.25134605  0.43978344  1
  Se  Se158  1  0.41156993  0.26204742  0.93598815  1
  Se  Se159  1  0.42257911  0.58174230  0.44498048  1
  Se  Se160  1  0.41663976  0.58286221  0.95075995  1
  Se  Se161  1  0.41368985  0.91225596  0.45027323  1
  Se  Se162  1  0.41313121  0.92264231  0.95870463  1
  Se  Se163  1  0.75189644  0.24975583  0.45250794  1
  Se  Se164  1  0.75160774  0.25169978  0.94898301  1
  Se  Se165  1  0.75210774  0.58404725  0.45019432  1
  Se  Se166  1  0.74884806  0.58484005  0.94934877  1
  Se  Se167  1  0.74455015  0.92031999  0.43396656  1
  Se  Se168  1  0.74333262  0.92286554  0.93209419  1
  Se  Se169  1  0.25539758  0.07392274  0.44411908  1
  Se  Se170  1  0.26254808  0.07653620  0.95922041  1
  Se  Se171  1  0.25658893  0.41710632  0.44653699  1
  Se  Se172  1  0.25184427  0.41057156  0.93387505  1
  Se  Se173  1  0.24937480  0.73544417  0.43073666  1
  Se  Se174  1  0.24799291  0.74696885  0.95189530  1
  Se  Se175  1  0.58744369  0.07385754  0.43525656  1
  Se  Se176  1  0.59206405  0.08198692  0.93342130  1
  Se  Se177  1  0.58261307  0.41616936  0.45121278  1
  Se  Se178  1  0.58042298  0.42176178  0.94891276  1
  Se  Se179  1  0.58036101  0.74731737  0.44703870  1
  Se  Se180  1  0.57980599  0.75201932  0.95008932  1
  Se  Se181  1  0.91383559  0.09325815  0.44727399  1
  Se  Se182  1  0.91874649  0.08180982  0.95090303  1
  Se  Se183  1  0.91498685  0.42258419  0.44611795  1
  Se  Se184  1  0.91606599  0.41762376  0.95225634  1
  Se  Se185  1  0.92744272  0.74367623  0.43100225  1
  Se  Se186  1  0.92480617  0.73753376  0.93860319  1
  Se  Se187  1  0.23391836  0.24328964  0.31506903  1
  Se  Se188  1  0.24956039  0.24600229  0.80842726  1
  Se  Se189  1  0.27796540  0.58638957  0.29360187  1
  Se  Se190  1  0.25295582  0.58539372  0.79703072  1
  Se  Se191  1  0.25505310  0.91704505  0.30419527  1
  Se  Se192  1  0.24293313  0.91035425  0.82173622  1
  Se  Se193  1  0.57167494  0.23687369  0.30619051  1
  Se  Se194  1  0.59229608  0.25743792  0.79625815  1
  Se  Se195  1  0.59577162  0.58956520  0.30563232  1
  Se  Se196  1  0.58266663  0.58724744  0.80895515  1
  Se  Se197  1  0.58163733  0.91090972  0.30794771  1
  Se  Se198  1  0.57221408  0.91168031  0.80765637  1
  Se  Se199  1  0.91485555  0.25436072  0.30347979  1
  Se  Se200  1  0.93422393  0.26460456  0.81272846  1
  Se  Se201  1  0.91484898  0.58315150  0.30267119  1
  Se  Se202  1  0.91015046  0.57989880  0.81061228  1
  Se  Se203  1  0.91911401  0.91753791  0.30129501  1
  Se  Se204  1  0.91801367  0.91216510  0.80078595  1
  Se  Se205  1  0.07691061  0.07960172  0.30308034  1
  Se  Se206  1  0.08495900  0.07934160  0.81594912  1
  Se  Se207  1  0.07908687  0.41946430  0.29425076  1
  Se  Se208  1  0.08470387  0.41953670  0.79791431  1
  Se  Se209  1  0.08751195  0.74837579  0.29676448  1
  Se  Se210  1  0.08738789  0.75093358  0.81104003  1
  Se  Se211  1  0.41458751  0.07752386  0.29733205  1
  Se  Se212  1  0.42770144  0.09524601  0.80817827  1
  Se  Se213  1  0.42655965  0.41837992  0.30970865  1
  Se  Se214  1  0.42111642  0.42364268  0.80897590  1
  Se  Se215  1  0.41758850  0.74889287  0.30501309  1
  Se  Se216  1  0.40966360  0.74809428  0.81229008  1
  Se  Se217  1  0.75303348  0.08814841  0.30774131  1
  Se  Se218  1  0.76820022  0.09579771  0.80604309  1
  Se  Se219  1  0.75261215  0.41994522  0.31593527  1
  Se  Se220  1  0.75031914  0.41709813  0.81190329  1
  Se  Se221  1  0.75218071  0.74915257  0.29774405  1
  Se  Se222  1  0.74306228  0.74705721  0.79649387  1
  Se  Se223  1  0.24840524  0.08515448  0.19846818  1
  Se  Se224  1  0.24356297  0.08872578  0.69510018  1
  Se  Se225  1  0.24389678  0.41661697  0.18798446  1
  Se  Se226  1  0.24542108  0.42527852  0.68150443  1
  Se  Se227  1  0.25319905  0.75031252  0.19481050  1
  Se  Se228  1  0.25198579  0.75028045  0.70169851  1
  Se  Se229  1  0.57535994  0.09202271  0.19054976  1
  Se  Se230  1  0.58221425  0.08311832  0.68701567  1
  Se  Se231  1  0.57158710  0.42776944  0.19441487  1
  Se  Se232  1  0.58580100  0.42030981  0.70095067  1
  Se  Se233  1  0.58460929  0.74713349  0.19866987  1
  Se  Se234  1  0.57876172  0.74432733  0.69794325  1
  Se  Se235  1  0.91477771  0.07909890  0.19803776  1
  Se  Se236  1  0.93004751  0.06840924  0.69596155  1
  Se  Se237  1  0.91161651  0.41311879  0.19790740  1
  Se  Se238  1  0.91746803  0.42066519  0.69570932  1
  Se  Se239  1  0.92450127  0.74504126  0.19595169  1
  Se  Se240  1  0.90750686  0.75738193  0.68483312  1
  Se  Se241  1  0.07636761  0.25079199  0.19818848  1
  Se  Se242  1  0.08555650  0.25460208  0.70412071  1
  Se  Se243  1  0.09229872  0.57403035  0.20262676  1
  Se  Se244  1  0.08638165  0.57931971  0.68220192  1
  Se  Se245  1  0.08420491  0.91948658  0.19838864  1
  Se  Se246  1  0.08428985  0.91977521  0.70414796  1
  Se  Se247  1  0.41987260  0.24424136  0.19266975  1
  Se  Se248  1  0.43103895  0.24721613  0.68518686  1
  Se  Se249  1  0.40144822  0.58814862  0.20479238  1
  Se  Se250  1  0.41158443  0.58070335  0.69299768  1
  Se  Se251  1  0.41666379  0.91658175  0.19533446  1
  Se  Se252  1  0.41913049  0.91053274  0.69254527  1
  Se  Se253  1  0.75073972  0.24647463  0.19034583  1
  Se  Se254  1  0.75948431  0.24611360  0.69944062  1
  Se  Se255  1  0.74838489  0.58277940  0.19765329  1
  Se  Se256  1  0.74976800  0.58471037  0.69931603  1
  Se  Se257  1  0.76012783  0.90441922  0.18260315  1
  Se  Se258  1  0.75135844  0.91133791  0.68539819  1
