# generated using pymatgen
data_In86Cu29Se144
_symmetry_space_group_name_H-M   'P 1'
_cell_length_a   17.58933175
_cell_length_b   17.58370872
_cell_length_c   23.44881172
_cell_angle_alpha   90.00042321
_cell_angle_beta   90.01463411
_cell_angle_gamma   89.98619881
_symmetry_Int_Tables_number   1
_chemical_formula_structural   In86Cu29Se144
_chemical_formula_sum   'In86 Cu29 Se144'
_cell_volume   7252.38137246
_cell_formula_units_Z   1
loop_
 _symmetry_equiv_pos_site_id
 _symmetry_equiv_pos_as_xyz
  1  'x, y, z'
loop_
 _atom_site_type_symbol
 _atom_site_label
 _atom_site_symmetry_multiplicity
 _atom_site_fract_x
 _atom_site_fract_y
 _atom_site_fract_z
 _atom_site_occupancy
  In  In0  1  0.00563629  0.17136386  0.13214623  1
  In  In1  1  -0.00067028  0.18610487  0.62429979  1
  In  In2  1  0.00170349  0.50430165  0.13267321  1
  In  In3  1  -0.00512939  0.50374616  0.61945919  1
  In  In4  1  -0.01517306  0.82614559  0.13149581  1
  In  In5  1  -0.01438116  0.83186696  0.62427819  1
  In  In6  1  0.34911346  0.15902049  0.13556121  1
  In  In7  1  0.34096139  0.15462590  0.61701024  1
  In  In8  1  0.31654104  0.51720583  0.13454156  1
  In  In9  1  0.33056990  0.49484111  0.61352134  1
  In  In10  1  0.34989687  0.81648062  0.13727579  1
  In  In11  1  0.33268652  0.82894010  0.62343564  1
  In  In12  1  0.65257659  0.16382801  0.11972128  1
  In  In13  1  0.66804994  0.16787578  0.62167549  1
  In  In14  1  0.67730983  0.51370150  0.13138025  1
  In  In15  1  0.66863191  0.49973408  0.61864701  1
  In  In16  1  0.66243945  0.83803653  0.12730004  1
  In  In17  1  0.67964762  0.81984495  0.63622956  1
  In  In18  1  0.16762852  -0.01657590  0.36738282  1
  In  In19  1  0.17708518  -0.00738671  0.87867731  1
  In  In20  1  0.17194341  0.34721090  0.37095936  1
  In  In21  1  0.16869637  0.34560337  0.87735816  1
  In  In22  1  0.15569974  0.65460290  0.36194545  1
  In  In23  1  0.14301022  0.67005117  0.87783032  1
  In  In24  1  0.50551607  -0.00099680  0.36997153  1
  In  In25  1  0.53771524  -0.02597455  0.90682596  1
  In  In26  1  0.49601191  0.34016925  0.38016885  1
  In  In27  1  0.50202359  0.32637671  0.87653405  1
  In  In28  1  0.49318613  0.66177883  0.36691612  1
  In  In29  1  0.51444510  0.66170926  0.87765372  1
  In  In30  1  0.82908467  -0.00146914  0.37916951  1
  In  In31  1  0.81244065  -0.00353723  0.87493132  1
  In  In32  1  0.84124006  0.33146169  0.37802474  1
  In  In33  1  0.83575425  0.34076914  0.85976714  1
  In  In34  1  0.82753775  0.67074839  0.38111419  1
  In  In35  1  0.83912737  0.66934207  0.87049789  1
  In  In36  1  -0.01836228  0.16624289  0.37604850  1
  In  In37  1  -0.01361428  0.16699454  0.87029734  1
  In  In38  1  0.00267301  0.51493430  0.38241291  1
  In  In39  1  0.00091723  0.50653974  0.86916137  1
  In  In40  1  -0.02109481  0.77541947  0.35063367  1
  In  In41  1  -0.00090582  0.80795460  0.87477207  1
  In  In42  1  0.33887991  0.17314878  0.36918253  1
  In  In43  1  0.35315770  0.17172209  0.87911691  1
  In  In44  1  0.33336771  0.49970873  0.37437292  1
  In  In45  1  0.32929392  0.49046129  0.88278825  1
  In  In46  1  0.30831828  0.82177997  0.34514755  1
  In  In47  1  0.33511449  0.84402083  0.87905309  1
  In  In48  1  0.67507232  0.15697957  0.38167415  1
  In  In49  1  0.66039714  0.16231980  0.86487073  1
  In  In50  1  0.66296239  0.50886110  0.37846716  1
  In  In51  1  0.67615446  0.50917162  0.85924314  1
  In  In52  1  0.68121196  0.83341454  0.36147101  1
  In  In53  1  0.67237489  0.82898746  0.87730602  1
  In  In54  1  0.17148490  0.00569447  0.13176930  1
  In  In55  1  0.16509711  -0.00889927  0.62106218  1
  In  In56  1  0.15495861  0.34989139  0.13496499  1
  In  In57  1  0.15140995  0.34091851  0.62631598  1
  In  In58  1  0.18100928  0.66171023  0.13078578  1
  In  In59  1  0.16470495  0.65389393  0.62149884  1
  In  In60  1  0.50793684  -0.00456626  0.12360420  1
  In  In61  1  0.50491564  0.01428536  0.61917780  1
  In  In62  1  0.50170829  0.32099401  0.12597435  1
  In  In63  1  0.50749795  0.33798007  0.61485643  1
  In  In64  1  0.49030191  0.67751967  0.12870754  1
  In  In65  1  0.51618108  0.67136182  0.62236356  1
  In  In66  1  0.82273021  -0.01982867  0.12327624  1
  In  In67  1  0.81900553  -0.01232137  0.61863087  1
  In  In68  1  0.84011704  0.34897729  0.13493032  1
  In  In69  1  0.83264180  0.33652791  0.61856427  1
  In  In70  1  0.80189476  0.69887304  0.17118791  1
  In  In71  1  0.83443547  0.66344294  0.62033357  1
  In  In72  1  0.15540009  0.82543481  0.48633255  1
  In  In73  1  0.33604079  0.32923574  0.75587773  1
  In  In74  1  0.16766880  0.17410850  0.50098722  1
  In  In75  1  0.50414740  0.83743023  0.48908427  1
  In  In76  1  0.33832177  -0.00134244  0.75921099  1
  In  In77  1  0.82688575  0.16400189  0.00245376  1
  In  In78  1  -0.00796069  -0.00291030  0.74416934  1
  In  In79  1  0.16720314  0.16966076  0.01087988  1
  In  In80  1  0.17234406  0.82869736  0.00505452  1
  In  In81  1  0.84030043  0.50672586  0.00552148  1
  In  In82  1  0.33219603  0.66385942  0.75241622  1
  In  In83  1  0.49502750  0.49990694  -0.00001349  1
  In  In84  1  -0.00364259  0.00152847  0.25364122  1
  In  In85  1  0.66984344  0.33663241  0.25559068  1
  Cu  Cu86  1  0.66360097  -0.00421062  0.49802952  1
  Cu  Cu87  1  0.66826436  0.33108669  0.49718036  1
  Cu  Cu88  1  0.33748259  0.65792206  0.49322580  1
  Cu  Cu89  1  0.50466816  0.84040317  0.75424486  1
  Cu  Cu90  1  0.00359187  0.33597928  0.00344555  1
  Cu  Cu91  1  0.33650124  0.33501553  0.49328114  1
  Cu  Cu92  1  0.16811979  0.49852621  0.25512315  1
  Cu  Cu93  1  0.49623808  0.49756291  0.25376506  1
  Cu  Cu94  1  0.66859148  0.33432071  -0.00608860  1
  Cu  Cu95  1  -0.00123975  0.34230093  0.49923573  1
  Cu  Cu96  1  0.67073900  0.67539453  0.00579667  1
  Cu  Cu97  1  -0.00887914  0.00155624  0.49930052  1
  Cu  Cu98  1  0.83039276  0.17359197  0.74436687  1
  Cu  Cu99  1  -0.00858044  -0.01500877  0.00384836  1
  Cu  Cu100  1  0.34334247  0.00412526  0.00757349  1
  Cu  Cu101  1  0.32818784  0.33597707  0.00733009  1
  Cu  Cu102  1  0.50318950  0.16263881  0.24974112  1
  Cu  Cu103  1  -0.00618333  0.66043217  0.00364030  1
  Cu  Cu104  1  0.82870460  0.83021753  0.75027008  1
  Cu  Cu105  1  0.15696455  0.50004471  0.75045474  1
  Cu  Cu106  1  0.83179262  0.49925773  0.73792696  1
  Cu  Cu107  1  0.50600129  0.83527017  0.24832834  1
  Cu  Cu108  1  0.33753425  -0.00246861  0.48959811  1
  Cu  Cu109  1  0.16255933  0.16216728  0.74846232  1
  Cu  Cu110  1  0.50837318  0.16773458  0.74885443  1
  Cu  Cu111  1  0.16747976  0.17865822  0.25183407  1
  Cu  Cu112  1  0.67007977  0.66566261  0.50043185  1
  Cu  Cu113  1  0.50673569  0.50267737  0.74147530  1
  Cu  Cu114  1  0.82582382  0.16429614  0.25396255  1
  Se  Se115  1  0.06997286  0.07123583  0.05929326  1
  Se  Se116  1  0.07511265  0.07845622  0.55869403  1
  Se  Se117  1  0.07985447  0.42332158  0.05721151  1
  Se  Se118  1  0.08567671  0.42330918  0.55088997  1
  Se  Se119  1  0.07638797  0.74272920  0.06233296  1
  Se  Se120  1  0.07544198  0.74460847  0.55874324  1
  Se  Se121  1  0.42635378  0.08913360  0.05795695  1
  Se  Se122  1  0.42040041  0.08092435  0.54260715  1
  Se  Se123  1  0.41054739  0.41546679  0.06737332  1
  Se  Se124  1  0.42033131  0.41799528  0.54804073  1
  Se  Se125  1  0.40903385  0.74558302  0.05299045  1
  Se  Se126  1  0.41339373  0.74377979  0.55289026  1
  Se  Se127  1  0.73716100  0.07004831  0.05582306  1
  Se  Se128  1  0.74695933  0.08076463  0.55171601  1
  Se  Se129  1  0.74358713  0.41151371  0.05918261  1
  Se  Se130  1  0.75050664  0.41786757  0.54857551  1
  Se  Se131  1  0.75332647  0.74247017  0.07112540  1
  Se  Se132  1  0.74975027  0.75253389  0.55408499  1
  Se  Se133  1  0.25439888  0.25684165  0.07249309  1
  Se  Se134  1  0.25906019  0.26232125  0.56337527  1
  Se  Se135  1  0.24891003  0.58490981  0.05219879  1
  Se  Se136  1  0.24960292  0.58262741  0.54855564  1
  Se  Se137  1  0.25789667  0.92502912  0.06272872  1
  Se  Se138  1  0.25679399  0.91766543  0.54962611  1
  Se  Se139  1  0.58449379  0.25480511  0.04858810  1
  Se  Se140  1  0.58390118  0.24614005  0.54956135  1
  Se  Se141  1  0.58903305  0.58835527  0.05938305  1
  Se  Se142  1  0.58196013  0.58333279  0.55012031  1
  Se  Se143  1  0.57923981  0.90830813  0.05205513  1
  Se  Se144  1  0.58956680  0.91359474  0.56199881  1
  Se  Se145  1  0.92001651  0.25739251  0.06073170  1
  Se  Se146  1  0.91711237  0.25266089  0.54849100  1
  Se  Se147  1  0.91292594  0.59744135  0.07272410  1
  Se  Se148  1  0.90815856  0.57762583  0.54939094  1
  Se  Se149  1  0.90898434  0.90199264  0.05460492  1
  Se  Se150  1  0.91147911  0.91398987  0.55168587  1
  Se  Se151  1  0.07634119  0.25772354  0.43820050  1
  Se  Se152  1  0.07617312  0.24990791  0.94217701  1
  Se  Se153  1  0.09388612  0.59292832  0.44827682  1
  Se  Se154  1  0.07660847  0.57809602  0.94881758  1
  Se  Se155  1  0.06743366  0.92468051  0.43625684  1
  Se  Se156  1  0.07733339  0.91530441  0.94123705  1
  Se  Se157  1  0.41825075  0.24622174  0.44550604  1
  Se  Se158  1  0.41666034  0.26023119  0.95285952  1
  Se  Se159  1  0.42475179  0.57758784  0.44238311  1
  Se  Se160  1  0.40775344  0.59309460  0.94086808  1
  Se  Se161  1  0.40421186  0.91042491  0.42693111  1
  Se  Se162  1  0.41750093  0.91353396  0.95378304  1
  Se  Se163  1  0.75427703  0.24948333  0.44457089  1
  Se  Se164  1  0.75206827  0.25861225  0.93451155  1
  Se  Se165  1  0.75294476  0.57981650  0.44930367  1
  Se  Se166  1  0.74304028  0.58891559  0.94317210  1
  Se  Se167  1  0.74485207  0.91077638  0.44404439  1
  Se  Se168  1  0.74534855  0.91578030  0.94937578  1
  Se  Se169  1  0.24824519  0.07943393  0.43792774  1
  Se  Se170  1  0.26024704  0.08229188  0.94656063  1
  Se  Se171  1  0.24982329  0.42069401  0.44694559  1
  Se  Se172  1  0.24393377  0.41773204  0.95514793  1
  Se  Se173  1  0.26160891  0.74525523  0.43599491  1
  Se  Se174  1  0.25295212  0.74173355  0.93648190  1
  Se  Se175  1  0.58052871  0.07899800  0.44533390  1
  Se  Se176  1  0.57708549  0.10479944  0.94406093  1
  Se  Se177  1  0.58608206  0.41768029  0.44539959  1
  Se  Se178  1  0.59470920  0.42218755  0.93562161  1
  Se  Se179  1  0.59273828  0.74248316  0.43408646  1
  Se  Se180  1  0.58464458  0.74986510  0.94812424  1
  Se  Se181  1  0.90665106  0.08649373  0.44929092  1
  Se  Se182  1  0.92027582  0.07245947  0.94266993  1
  Se  Se183  1  0.91633230  0.42442543  0.44429314  1
  Se  Se184  1  0.91970652  0.41002815  0.94125628  1
  Se  Se185  1  0.90840402  0.76007633  0.44580161  1
  Se  Se186  1  0.91146685  0.74507103  0.94965245  1
  Se  Se187  1  0.25270379  0.25876494  0.30553500  1
  Se  Se188  1  0.24332239  0.23671202  0.81417298  1
  Se  Se189  1  0.25768509  0.58464940  0.30167307  1
  Se  Se190  1  0.24165594  0.57342888  0.81270064  1
  Se  Se191  1  0.26419135  0.94209172  0.29188094  1
  Se  Se192  1  0.23804857  0.90118340  0.80210935  1
  Se  Se193  1  0.58140138  0.24306558  0.31305492  1
  Se  Se194  1  0.58541418  0.25929053  0.80059224  1
  Se  Se195  1  0.58395100  0.58130386  0.30156504  1
  Se  Se196  1  0.58367430  0.58971541  0.79666018  1
  Se  Se197  1  0.58930688  0.91767858  0.30131260  1
  Se  Se198  1  0.58719020  0.91913844  0.81147818  1
  Se  Se199  1  0.91288680  0.24925416  0.30055607  1
  Se  Se200  1  0.91980969  0.25196018  0.79620028  1
  Se  Se201  1  0.94769812  0.62666889  0.31682061  1
  Se  Se202  1  0.91043543  0.57865615  0.80062149  1
  Se  Se203  1  0.91006070  0.90798941  0.31001073  1
  Se  Se204  1  0.91002552  0.90995241  0.81215091  1
  Se  Se205  1  0.08846560  0.09593549  0.31231220  1
  Se  Se206  1  0.08796018  0.08045898  0.81112284  1
  Se  Se207  1  0.07671388  0.42568419  0.30985513  1
  Se  Se208  1  0.07997037  0.41196962  0.80528821  1
  Se  Se209  1  0.11915985  0.78497264  0.31741843  1
  Se  Se210  1  0.07791476  0.74310441  0.79705850  1
  Se  Se211  1  0.41796718  0.08243153  0.30414103  1
  Se  Se212  1  0.43488532  0.08530975  0.81252654  1
  Se  Se213  1  0.41465955  0.41273722  0.30536051  1
  Se  Se214  1  0.42773543  0.42871914  0.80790790  1
  Se  Se215  1  0.41899073  0.74915300  0.29621584  1
  Se  Se216  1  0.42296773  0.75776473  0.81096376  1
  Se  Se217  1  0.74744742  0.07722730  0.30544818  1
  Se  Se218  1  0.75295547  0.08661327  0.79942954  1
  Se  Se219  1  0.75945622  0.42668064  0.31259766  1
  Se  Se220  1  0.74717508  0.41629073  0.79217544  1
  Se  Se221  1  0.74487547  0.73006496  0.29803706  1
  Se  Se222  1  0.74700904  0.74482611  0.80414379  1
  Se  Se223  1  0.24808119  0.09224650  0.19939293  1
  Se  Se224  1  0.24563101  0.08486094  0.69078838  1
  Se  Se225  1  0.25314730  0.41639726  0.20114126  1
  Se  Se226  1  0.24732989  0.42223021  0.69510444  1
  Se  Se227  1  0.24088538  0.76290460  0.19766332  1
  Se  Se228  1  0.24261888  0.75188844  0.69045662  1
  Se  Se229  1  0.58698132  0.08098698  0.19593719  1
  Se  Se230  1  0.58808922  0.08265271  0.69378181  1
  Se  Se231  1  0.57936548  0.42307634  0.19027110  1
  Se  Se232  1  0.58495002  0.41548194  0.68882891  1
  Se  Se233  1  0.58528302  0.74618638  0.19574395  1
  Se  Se234  1  0.58136612  0.75033143  0.70125794  1
  Se  Se235  1  0.90437845  0.08661048  0.18770398  1
  Se  Se236  1  0.90858088  0.09049843  0.68307392  1
  Se  Se237  1  0.92750291  0.41727190  0.20404826  1
  Se  Se238  1  0.91874063  0.41479181  0.68910992  1
  Se  Se239  1  0.93467944  0.73806811  0.21015985  1
  Se  Se240  1  0.91085558  0.74769572  0.69546652  1
  Se  Se241  1  0.07803899  0.25785392  0.20178914  1
  Se  Se242  1  0.08445734  0.25261177  0.69984767  1
  Se  Se243  1  0.09146597  0.58502788  0.19848480  1
  Se  Se244  1  0.07872098  0.58219563  0.69345041  1
  Se  Se245  1  0.08389720  0.91361312  0.19075835  1
  Se  Se246  1  0.08850600  0.90558102  0.69160796  1
  Se  Se247  1  0.42069720  0.25358025  0.20320708  1
  Se  Se248  1  0.42110076  0.24197314  0.68943908  1
  Se  Se249  1  0.41831758  0.58426156  0.19722068  1
  Se  Se250  1  0.41857589  0.57852270  0.68506699  1
  Se  Se251  1  0.42187221  0.91980279  0.19525550  1
  Se  Se252  1  0.42433649  0.91304616  0.68864759  1
  Se  Se253  1  0.75167059  0.24449480  0.18766588  1
  Se  Se254  1  0.74834677  0.25526592  0.68895806  1
  Se  Se255  1  0.77148037  0.56192166  0.20525996  1
  Se  Se256  1  0.74618345  0.58528458  0.68949586  1
  Se  Se257  1  0.75256961  0.90669847  0.20051410  1
  Se  Se258  1  0.74696341  0.92026851  0.70128481  1
