# generated using pymatgen
data_In86Cu29Se144
_symmetry_space_group_name_H-M   'P 1'
_cell_length_a   17.57380524
_cell_length_b   17.57543862
_cell_length_c   23.44169414
_cell_angle_alpha   90.01124952
_cell_angle_beta   89.97013847
_cell_angle_gamma   90.00122744
_symmetry_Int_Tables_number   1
_chemical_formula_structural   In86Cu29Se144
_chemical_formula_sum   'In86 Cu29 Se144'
_cell_volume   7240.37247724
_cell_formula_units_Z   1
loop_
 _symmetry_equiv_pos_site_id
 _symmetry_equiv_pos_as_xyz
  1  'x, y, z'
loop_
 _atom_site_type_symbol
 _atom_site_label
 _atom_site_symmetry_multiplicity
 _atom_site_fract_x
 _atom_site_fract_y
 _atom_site_fract_z
 _atom_site_occupancy
  In  In0  1  0.01415893  0.17466061  0.11992711  1
  In  In1  1  -0.00306857  0.16748544  0.62625331  1
  In  In2  1  -0.01088202  0.48909098  0.12249445  1
  In  In3  1  -0.01276751  0.50529160  0.62857711  1
  In  In4  1  -0.00786147  0.83975811  0.12096416  1
  In  In5  1  0.00375737  0.84202277  0.61960608  1
  In  In6  1  0.34955355  0.19047343  0.11579948  1
  In  In7  1  0.32620019  0.17480381  0.61921982  1
  In  In8  1  0.33225167  0.49784402  0.12088684  1
  In  In9  1  0.33739913  0.49737522  0.62692418  1
  In  In10  1  0.34168270  0.82193919  0.12678846  1
  In  In11  1  0.33678764  0.83315958  0.61762508  1
  In  In12  1  0.65790850  0.18386725  0.11867917  1
  In  In13  1  0.68061061  0.15544580  0.63755169  1
  In  In14  1  0.67817322  0.50813742  0.11134456  1
  In  In15  1  0.67513892  0.48783031  0.64390736  1
  In  In16  1  0.65433129  0.81888601  0.11505871  1
  In  In17  1  0.66638555  0.82864303  0.62710982  1
  In  In18  1  0.16038329  0.00584515  0.38503866  1
  In  In19  1  0.16928460  0.01341111  0.87217351  1
  In  In20  1  0.15858517  0.32792564  0.36584327  1
  In  In21  1  0.15096617  0.34448147  0.88284713  1
  In  In22  1  0.17976083  0.66071855  0.37278989  1
  In  In23  1  0.15837419  0.65318700  0.87829793  1
  In  In24  1  0.48809438  -0.00757308  0.37596142  1
  In  In25  1  0.51672220  -0.01245565  0.88417985  1
  In  In26  1  0.50257845  0.34616359  0.36855016  1
  In  In27  1  0.50767613  0.33442447  0.88526987  1
  In  In28  1  0.50385305  0.66542725  0.36793401  1
  In  In29  1  0.51347351  0.65830389  0.87867237  1
  In  In30  1  0.83018677  0.00113945  0.38457419  1
  In  In31  1  0.81954635  -0.00866679  0.86046171  1
  In  In32  1  0.83872255  0.32868111  0.38240700  1
  In  In33  1  0.83812344  0.33752598  0.87359333  1
  In  In34  1  0.82734153  0.66826289  0.38024535  1
  In  In35  1  0.82330783  0.67585562  0.88172881  1
  In  In36  1  -0.00323979  0.17294699  0.37995595  1
  In  In37  1  0.00282182  0.17358408  0.86842517  1
  In  In38  1  -0.00517443  0.48627714  0.36941691  1
  In  In39  1  0.00812662  0.48398403  0.88322349  1
  In  In40  1  -0.00762280  0.83943320  0.38451420  1
  In  In41  1  -0.01534915  0.82896824  0.87002039  1
  In  In42  1  0.32333497  0.15938778  0.37263069  1
  In  In43  1  0.32837205  0.16983340  0.88382871  1
  In  In44  1  0.31882016  0.49739380  0.35258947  1
  In  In45  1  0.33491961  0.49661358  0.88475197  1
  In  In46  1  0.34300133  0.82248698  0.38249497  1
  In  In47  1  0.34431909  0.84008603  0.87766300  1
  In  In48  1  0.67458105  0.17859453  0.37993833  1
  In  In49  1  0.66173696  0.16086115  0.87058816  1
  In  In50  1  0.66363491  0.51004174  0.37540760  1
  In  In51  1  0.66519605  0.50593827  0.87438096  1
  In  In52  1  0.67172318  0.82231372  0.38397244  1
  In  In53  1  0.66542823  0.83405130  0.86819479  1
  In  In54  1  0.15291647  0.00615547  0.12051019  1
  In  In55  1  0.15940573  -0.00522456  0.62025836  1
  In  In56  1  0.16930515  0.33935914  0.12501236  1
  In  In57  1  0.17058110  0.32087502  0.62398852  1
  In  In58  1  0.18536568  0.66473689  0.13067955  1
  In  In59  1  0.15488959  0.66622579  0.62203443  1
  In  In60  1  0.50818138  0.00845676  0.11502383  1
  In  In61  1  0.51503505  -0.00934061  0.63437111  1
  In  In62  1  0.49012631  0.32837793  0.11541236  1
  In  In63  1  0.51528620  0.34129545  0.63088340  1
  In  In64  1  0.50300980  0.66608351  0.12101535  1
  In  In65  1  0.50493696  0.67586995  0.63007500  1
  In  In66  1  0.84621239  -0.00369097  0.12036174  1
  In  In67  1  0.83341312  0.00182812  0.62535791  1
  In  In68  1  0.82875129  0.37081254  0.13183905  1
  In  In69  1  0.83649177  0.33490789  0.62950051  1
  In  In70  1  0.81996278  0.65340711  0.11956509  1
  In  In71  1  0.82177733  0.65568572  0.61813613  1
  In  In72  1  0.16615156  0.82970742  0.00472006  1
  In  In73  1  0.49993901  0.50630721  0.49744651  1
  In  In74  1  0.00173287  0.65908438  0.25132817  1
  In  In75  1  0.34081520  0.66067897  0.76038265  1
  In  In76  1  0.33554734  0.33386684  0.75835524  1
  In  In77  1  0.66195732  0.33945668  0.24558960  1
  In  In78  1  -0.00523780  0.66322187  0.74744102  1
  In  In79  1  0.66657831  -0.00110971  0.24121387  1
  In  In80  1  -0.00112378  0.00097634  0.25651451  1
  In  In81  1  0.15914704  0.50099304  0.48988350  1
  In  In82  1  0.50175798  0.15795592  0.50296678  1
  In  In83  1  0.83250911  0.16609248  -0.00334868  1
  In  In84  1  0.33851801  -0.00045652  0.74730667  1
  In  In85  1  0.33274403  0.00377204  0.24838148  1
  Cu  Cu86  1  0.33338665  0.66793873  0.49635840  1
  Cu  Cu87  1  -0.00397702  0.65771090  0.00013048  1
  Cu  Cu88  1  -0.00367683  -0.00323363  -0.00743017  1
  Cu  Cu89  1  0.17199266  0.83318480  0.25765409  1
  Cu  Cu90  1  0.33416414  0.32657726  0.49488129  1
  Cu  Cu91  1  0.83790025  0.17583337  0.25464542  1
  Cu  Cu92  1  0.32957918  -0.00542813  0.49982846  1
  Cu  Cu93  1  0.49498093  0.50443300  0.24110969  1
  Cu  Cu94  1  0.50475449  0.82715944  0.24914695  1
  Cu  Cu95  1  -0.00052851  0.33248614  0.50151321  1
  Cu  Cu96  1  0.17470355  0.17787578  0.24427531  1
  Cu  Cu97  1  0.49690522  0.16901693  0.75883207  1
  Cu  Cu98  1  -0.00297125  0.32803999  0.00129215  1
  Cu  Cu99  1  0.33444147  0.00347387  -0.00134057  1
  Cu  Cu100  1  0.83080481  0.83659604  0.74535130  1
  Cu  Cu101  1  0.67091100  -0.00259164  -0.00753328  1
  Cu  Cu102  1  0.66359581  0.66732848  0.50162713  1
  Cu  Cu103  1  0.66734089  -0.00394899  0.50836139  1
  Cu  Cu104  1  0.16765552  0.83111777  0.74110697  1
  Cu  Cu105  1  0.67951780  0.33200539  0.50899322  1
  Cu  Cu106  1  -0.00229157  0.00615543  0.50467722  1
  Cu  Cu107  1  0.82185585  0.81998079  0.25025756  1
  Cu  Cu108  1  0.83580010  0.49994858  0.75677682  1
  Cu  Cu109  1  0.83428595  0.17287606  0.74952890  1
  Cu  Cu110  1  0.33906575  0.66791086  0.00257509  1
  Cu  Cu111  1  -0.00661918  0.67485355  0.50222985  1
  Cu  Cu112  1  0.32704391  0.33409092  0.00183534  1
  Cu  Cu113  1  0.15438909  0.16787369  0.74933045  1
  Cu  Cu114  1  0.66999719  0.67041062  -0.00423635  1
  Se  Se115  1  0.07675330  0.08267625  0.04584989  1
  Se  Se116  1  0.08412519  0.08880103  0.55587382  1
  Se  Se117  1  0.07986196  0.41371498  0.05445737  1
  Se  Se118  1  0.07943143  0.41525644  0.56075219  1
  Se  Se119  1  0.07560541  0.73760551  0.06365990  1
  Se  Se120  1  0.08402632  0.75311698  0.55189673  1
  Se  Se121  1  0.41657809  0.08806717  0.05233072  1
  Se  Se122  1  0.41053462  0.06967870  0.56542812  1
  Se  Se123  1  0.41506468  0.42047679  0.04796113  1
  Se  Se124  1  0.41411326  0.40414867  0.55617234  1
  Se  Se125  1  0.42322583  0.75466330  0.05081232  1
  Se  Se126  1  0.41893008  0.74275466  0.55434852  1
  Se  Se127  1  0.74295455  0.07586883  0.06129104  1
  Se  Se128  1  0.74978653  0.08579772  0.55523957  1
  Se  Se129  1  0.73391812  0.39557896  0.05256226  1
  Se  Se130  1  0.75269912  0.42313596  0.56260610  1
  Se  Se131  1  0.75537409  0.75162610  0.05156664  1
  Se  Se132  1  0.74900468  0.75112484  0.55335275  1
  Se  Se133  1  0.24238194  0.24853200  0.05324747  1
  Se  Se134  1  0.24505682  0.24737280  0.54512007  1
  Se  Se135  1  0.25082218  0.58598940  0.05159171  1
  Se  Se136  1  0.25481386  0.58432830  0.55577437  1
  Se  Se137  1  0.25756326  0.92312818  0.06319446  1
  Se  Se138  1  0.24557280  0.91196775  0.55392794  1
  Se  Se139  1  0.57551297  0.25039644  0.04516671  1
  Se  Se140  1  0.59185514  0.24955871  0.56219705  1
  Se  Se141  1  0.58506539  0.58735223  0.04893923  1
  Se  Se142  1  0.59104107  0.58200443  0.56449569  1
  Se  Se143  1  0.58581102  0.91772601  0.05019284  1
  Se  Se144  1  0.58121781  0.91134392  0.55614658  1
  Se  Se145  1  0.91204120  0.25589113  0.06420916  1
  Se  Se146  1  0.91521444  0.25220158  0.55719297  1
  Se  Se147  1  0.91125241  0.57597638  0.05368052  1
  Se  Se148  1  0.91617966  0.58223051  0.55140666  1
  Se  Se149  1  0.91356970  0.91239426  0.04458099  1
  Se  Se150  1  0.91342476  0.91920601  0.55349616  1
  Se  Se151  1  0.08582703  0.25441781  0.44523516  1
  Se  Se152  1  0.08009968  0.24499857  0.94709661  1
  Se  Se153  1  0.06842742  0.59635310  0.43540964  1
  Se  Se154  1  0.08450941  0.57483760  0.95251497  1
  Se  Se155  1  0.07951078  0.91967305  0.45069164  1
  Se  Se156  1  0.08183437  0.91555975  0.93623386  1
  Se  Se157  1  0.42075992  0.25162950  0.43699032  1
  Se  Se158  1  0.41334939  0.25345270  0.94794063  1
  Se  Se159  1  0.40303361  0.58193763  0.43278571  1
  Se  Se160  1  0.41972245  0.58560384  0.94616017  1
  Se  Se161  1  0.41859107  0.91205898  0.45164838  1
  Se  Se162  1  0.42007979  0.91731013  0.95159704  1
  Se  Se163  1  0.75822105  0.24612425  0.45420452  1
  Se  Se164  1  0.74294042  0.25408389  0.93793458  1
  Se  Se165  1  0.74652563  0.58159589  0.44943585  1
  Se  Se166  1  0.75330994  0.58052629  0.94784643  1
  Se  Se167  1  0.74828534  0.91447679  0.44941168  1
  Se  Se168  1  0.75283142  0.91348673  0.93981651  1
  Se  Se169  1  0.25045784  0.08534570  0.45068554  1
  Se  Se170  1  0.24462937  0.08398760  0.95043029  1
  Se  Se171  1  0.25875464  0.41317851  0.43727705  1
  Se  Se172  1  0.24364499  0.41877997  0.94957625  1
  Se  Se173  1  0.24466421  0.75016303  0.44664727  1
  Se  Se174  1  0.25561265  0.74374134  0.93933862  1
  Se  Se175  1  0.59254016  0.07147147  0.43860799  1
  Se  Se176  1  0.58468481  0.08730510  0.94866992  1
  Se  Se177  1  0.59475372  0.40660819  0.44710623  1
  Se  Se178  1  0.57278254  0.43776607  0.94528189  1
  Se  Se179  1  0.57565728  0.74378027  0.44587121  1
  Se  Se180  1  0.58650254  0.75507196  0.94329187  1
  Se  Se181  1  0.91605821  0.08714299  0.44699005  1
  Se  Se182  1  0.91565421  0.07564729  0.93169378  1
  Se  Se183  1  0.91782772  0.41868711  0.44939032  1
  Se  Se184  1  0.91300072  0.41417863  0.95098164  1
  Se  Se185  1  0.90670403  0.75509365  0.44871155  1
  Se  Se186  1  0.91983850  0.74865809  0.94831965  1
  Se  Se187  1  0.25771782  0.25327732  0.30355671  1
  Se  Se188  1  0.23764253  0.24406922  0.81107805  1
  Se  Se189  1  0.24883992  0.59527977  0.29065777  1
  Se  Se190  1  0.24203719  0.56899378  0.80887415  1
  Se  Se191  1  0.24755768  0.91779788  0.31622113  1
  Se  Se192  1  0.24420188  0.90843935  0.80703571  1
  Se  Se193  1  0.57943179  0.24231814  0.30822619  1
  Se  Se194  1  0.58015877  0.25454044  0.80848720  1
  Se  Se195  1  0.58167126  0.57865383  0.29926061  1
  Se  Se196  1  0.59983268  0.59920978  0.80174493  1
  Se  Se197  1  0.58187750  0.91099072  0.30894099  1
  Se  Se198  1  0.58798341  0.92572044  0.80197684  1
  Se  Se199  1  0.92240797  0.25655704  0.30701767  1
  Se  Se200  1  0.91833779  0.25597102  0.80214211  1
  Se  Se201  1  0.90369692  0.57618669  0.30842118  1
  Se  Se202  1  0.91473926  0.58028603  0.81843703  1
  Se  Se203  1  0.89996393  0.90764426  0.30678609  1
  Se  Se204  1  0.91843251  0.91711353  0.79709071  1
  Se  Se205  1  0.09520035  0.09560268  0.30603116  1
  Se  Se206  1  0.07717384  0.07837342  0.80147613  1
  Se  Se207  1  0.10790689  0.44226855  0.30906083  1
  Se  Se208  1  0.07884806  0.41322280  0.80313553  1
  Se  Se209  1  0.08258200  0.75896390  0.31357384  1
  Se  Se210  1  0.09137865  0.75294817  0.80698405  1
  Se  Se211  1  0.42773857  0.09240768  0.30571554  1
  Se  Se212  1  0.41897746  0.08565153  0.81661257  1
  Se  Se213  1  0.41814269  0.41699134  0.29623224  1
  Se  Se214  1  0.42590385  0.42618586  0.81168720  1
  Se  Se215  1  0.41572028  0.74994249  0.30306265  1
  Se  Se216  1  0.43010779  0.75815366  0.81045351  1
  Se  Se217  1  0.75587568  0.08928477  0.30686143  1
  Se  Se218  1  0.74639999  0.08754419  0.79750025  1
  Se  Se219  1  0.75125302  0.41689691  0.31398508  1
  Se  Se220  1  0.74906543  0.41753997  0.80761942  1
  Se  Se221  1  0.74053525  0.74106708  0.30659287  1
  Se  Se222  1  0.75437188  0.75103052  0.80210062  1
  Se  Se223  1  0.24434081  0.08956308  0.18421614  1
  Se  Se224  1  0.24357085  0.09176938  0.69209906  1
  Se  Se225  1  0.26510303  0.40677778  0.19214569  1
  Se  Se226  1  0.24524928  0.41869084  0.69220271  1
  Se  Se227  1  0.25508668  0.75522223  0.20120652  1
  Se  Se228  1  0.25048399  0.74629580  0.69000034  1
  Se  Se229  1  0.57657840  0.09768267  0.19195975  1
  Se  Se230  1  0.57884257  0.08812430  0.70106005  1
  Se  Se231  1  0.57598461  0.42521441  0.18067078  1
  Se  Se232  1  0.57758551  0.41961886  0.70856544  1
  Se  Se233  1  0.58690095  0.74384738  0.19518385  1
  Se  Se234  1  0.59588132  0.74092786  0.70018205  1
  Se  Se235  1  0.91456747  0.09252535  0.19214852  1
  Se  Se236  1  0.91483557  0.08511166  0.69590526  1
  Se  Se237  1  0.92655405  0.41217905  0.20506404  1
  Se  Se238  1  0.91830607  0.41822930  0.70084978  1
  Se  Se239  1  0.91180014  0.75085748  0.18994779  1
  Se  Se240  1  0.91032045  0.75405545  0.68461763  1
  Se  Se241  1  0.08308656  0.25619397  0.19526843  1
  Se  Se242  1  0.07873519  0.25525165  0.69464947  1
  Se  Se243  1  0.08796408  0.57643808  0.18542656  1
  Se  Se244  1  0.09307804  0.57208597  0.69530981  1
  Se  Se245  1  0.08969702  0.90758711  0.19515252  1
  Se  Se246  1  0.08195385  0.91780607  0.69565931  1
  Se  Se247  1  0.41998812  0.25632961  0.19676315  1
  Se  Se248  1  0.42136028  0.24330647  0.69092926  1
  Se  Se249  1  0.41283358  0.58878471  0.18804462  1
  Se  Se250  1  0.42766988  0.57367648  0.69405566  1
  Se  Se251  1  0.43043130  0.91552113  0.19051734  1
  Se  Se252  1  0.42512282  0.89905659  0.69619902  1
  Se  Se253  1  0.75860934  0.24805870  0.18895107  1
  Se  Se254  1  0.74772294  0.25779732  0.69929199  1
  Se  Se255  1  0.75098730  0.57156567  0.19417897  1
  Se  Se256  1  0.75619496  0.58569712  0.70200257  1
  Se  Se257  1  0.75682232  0.90617674  0.18447741  1
  Se  Se258  1  0.74696543  0.92021027  0.69264301  1
