# generated using pymatgen
data_In86Cu29Se144
_symmetry_space_group_name_H-M   'P 1'
_cell_length_a   17.72460732
_cell_length_b   17.71902339
_cell_length_c   23.58746583
_cell_angle_alpha   90.01211451
_cell_angle_beta   90.03044113
_cell_angle_gamma   89.99934358
_symmetry_Int_Tables_number   1
_chemical_formula_structural   In86Cu29Se144
_chemical_formula_sum   'In86 Cu29 Se144'
_cell_volume   7407.94273906
_cell_formula_units_Z   1
loop_
 _symmetry_equiv_pos_site_id
 _symmetry_equiv_pos_as_xyz
  1  'x, y, z'
loop_
 _atom_site_type_symbol
 _atom_site_label
 _atom_site_symmetry_multiplicity
 _atom_site_fract_x
 _atom_site_fract_y
 _atom_site_fract_z
 _atom_site_occupancy
  In  In0  1  0.00169335  0.17365359  0.10719400  1
  In  In1  1  0.03287334  0.17840885  0.63139175  1
  In  In2  1  -0.01075146  0.47300437  0.08846842  1
  In  In3  1  0.02592296  0.47575762  0.64829525  1
  In  In4  1  0.00389634  0.82656835  0.12178807  1
  In  In5  1  0.00865167  0.81890798  0.63254551  1
  In  In6  1  0.34763349  0.16838941  0.11543481  1
  In  In7  1  0.32632061  0.15735622  0.63243362  1
  In  In8  1  0.32462077  0.49038506  0.11226579  1
  In  In9  1  0.37913772  0.46626974  0.68802784  1
  In  In10  1  0.33265734  0.84302918  0.12562406  1
  In  In11  1  0.33493209  0.83731795  0.62472631  1
  In  In12  1  0.66152353  0.16921093  0.11991751  1
  In  In13  1  0.65906356  0.17780070  0.62893024  1
  In  In14  1  0.66710982  0.50430777  0.11948878  1
  In  In15  1  0.64734023  0.49688723  0.62546942  1
  In  In16  1  0.67043931  0.83714691  0.14626799  1
  In  In17  1  0.66565897  0.84773003  0.62556880  1
  In  In18  1  0.16641875  -0.00307328  0.38723733  1
  In  In19  1  0.17247317  0.00247588  0.87692527  1
  In  In20  1  0.16861335  0.32074491  0.37720515  1
  In  In21  1  0.16990539  0.33627483  0.87157210  1
  In  In22  1  0.17389196  0.65868582  0.38084249  1
  In  In23  1  0.16630804  0.66902284  0.87366511  1
  In  In24  1  0.50410152  -0.00544941  0.38309179  1
  In  In25  1  0.50171801  0.00470986  0.86798516  1
  In  In26  1  0.48583867  0.33796575  0.38427845  1
  In  In27  1  0.50281229  0.33250471  0.86708256  1
  In  In28  1  0.49901111  0.66029420  0.37887054  1
  In  In29  1  0.48779061  0.66244866  0.86359507  1
  In  In30  1  0.81571608  -0.00998731  0.36527027  1
  In  In31  1  0.83485050  0.02057485  0.87885436  1
  In  In32  1  0.83616304  0.32785460  0.36913938  1
  In  In33  1  0.83022631  0.33964146  0.88003121  1
  In  In34  1  0.82602712  0.67690203  0.37337439  1
  In  In35  1  0.83143612  0.65374527  0.88032976  1
  In  In36  1  0.00091389  0.16336753  0.37586872  1
  In  In37  1  -0.00213532  0.18455570  0.88570311  1
  In  In38  1  0.00383962  0.49720406  0.37386258  1
  In  In39  1  -0.00575357  0.50148008  0.87715845  1
  In  In40  1  0.00752383  0.83280574  0.38243420  1
  In  In41  1  0.01501349  0.83949611  0.87447605  1
  In  In42  1  0.33215526  0.17003759  0.38059336  1
  In  In43  1  0.33485196  0.16843258  0.86692727  1
  In  In44  1  0.33612399  0.49706498  0.37510796  1
  In  In45  1  0.33764726  0.50125278  0.86837498  1
  In  In46  1  0.33379254  0.82969666  0.38385906  1
  In  In47  1  0.32454734  0.82559688  0.86595622  1
  In  In48  1  0.65899943  0.14657763  0.36638137  1
  In  In49  1  0.66368849  0.16705209  0.87388542  1
  In  In50  1  0.64582744  0.49366366  0.37162880  1
  In  In51  1  0.67616029  0.49505857  0.88258151  1
  In  In52  1  0.64710028  0.81951075  0.35799271  1
  In  In53  1  0.65453560  0.83850034  0.87386645  1
  In  In54  1  0.16703035  0.00220860  0.11612168  1
  In  In55  1  0.18184487  0.01512752  0.61610795  1
  In  In56  1  0.17820184  0.33612262  0.11107655  1
  In  In57  1  0.20175546  0.29527587  0.69416383  1
  In  In58  1  0.16645744  0.65986756  0.11339925  1
  In  In59  1  0.17235836  0.66648785  0.63102701  1
  In  In60  1  0.50292654  0.00465389  0.12722384  1
  In  In61  1  0.49887562  0.00628682  0.62061163  1
  In  In62  1  0.48973893  0.32655754  0.11730104  1
  In  In63  1  0.50029903  0.32878198  0.62279275  1
  In  In64  1  0.50960375  0.67013264  0.12738371  1
  In  In65  1  0.47142164  0.64047569  0.61409904  1
  In  In66  1  0.82230363  0.00930552  0.12337165  1
  In  In67  1  0.83058824  0.00400749  0.63176872  1
  In  In68  1  0.82398157  0.32506685  0.11175680  1
  In  In69  1  0.83667147  0.33190443  0.63268943  1
  In  In70  1  0.83054585  0.66073013  0.12533306  1
  In  In71  1  0.84098938  0.67051006  0.63188520  1
  In  In72  1  0.18442668  0.48638799  0.52181605  1
  In  In73  1  0.83249371  0.50704735  0.50502408  1
  In  In74  1  0.83347166  0.83538280  0.00913760  1
  In  In75  1  0.33240878  0.66479542  0.25505103  1
  In  In76  1  0.49729820  0.83568092  0.00522675  1
  In  In77  1  0.33797574  -0.00109441  0.25127575  1
  In  In78  1  -0.00795483  0.00092286  0.24807286  1
  In  In79  1  0.66188929  0.33330439  0.24200242  1
  In  In80  1  0.00179307  0.00828115  0.75645579  1
  In  In81  1  0.00030885  0.33490602  0.22711895  1
  In  In82  1  0.00463663  0.65691814  0.23422264  1
  In  In83  1  0.66433139  0.67544798  0.74817807  1
  In  In84  1  0.83534321  0.83004303  0.49816371  1
  In  In85  1  0.83099721  0.16251823  0.49006497  1
  Cu  Cu86  1  0.83448873  0.83649338  0.75008079  1
  Cu  Cu87  1  0.82516405  0.50856248  0.24270971  1
  Cu  Cu88  1  -0.00117801  0.32292498  0.50152306  1
  Cu  Cu89  1  0.50275098  0.16778236  0.24536526  1
  Cu  Cu90  1  0.16336780  0.48734900  0.23541887  1
  Cu  Cu91  1  0.83327785  0.17016191  0.75720779  1
  Cu  Cu92  1  0.65876764  0.67020409  0.49788751  1
  Cu  Cu93  1  0.65864748  0.33441853  0.49927220  1
  Cu  Cu94  1  0.65801667  0.66467608  0.00167760  1
  Cu  Cu95  1  0.01082899  0.65484816  0.51243004  1
  Cu  Cu96  1  0.49305191  0.50437483  0.25217180  1
  Cu  Cu97  1  0.50405926  0.84056909  0.74250849  1
  Cu  Cu98  1  0.65289902  0.32936361  -0.00567283  1
  Cu  Cu99  1  0.33153741  0.66374032  -0.00971106  1
  Cu  Cu100  1  0.16640684  0.51285881  0.75682738  1
  Cu  Cu101  1  0.66508512  0.00378308  -0.00146918  1
  Cu  Cu102  1  0.16515818  0.82816394  0.25269172  1
  Cu  Cu103  1  0.82936045  0.50288824  0.75835318  1
  Cu  Cu104  1  -0.00041676  -0.00712216  0.50462013  1
  Cu  Cu105  1  0.33190056  0.67536586  0.50093851  1
  Cu  Cu106  1  0.16873397  0.83975514  0.75065050  1
  Cu  Cu107  1  0.33402707  0.00176218  0.50296511  1
  Cu  Cu108  1  0.00720837  0.00752539  -0.00447691  1
  Cu  Cu109  1  0.34071610  0.33115116  -0.01046318  1
  Cu  Cu110  1  0.17432773  0.16600481  0.25137239  1
  Cu  Cu111  1  0.65829817  0.00147915  0.49916965  1
  Cu  Cu112  1  0.33239797  -0.00025917  -0.00385842  1
  Cu  Cu113  1  0.00485497  0.67206140  -0.00351258  1
  Cu  Cu114  1  0.50426489  0.15817042  0.74745259  1
  Se  Se115  1  0.09242549  0.08917738  0.04780529  1
  Se  Se116  1  0.07754910  0.08267408  0.55538502  1
  Se  Se117  1  0.09034678  0.39827950  0.03508672  1
  Se  Se118  1  0.07843052  0.39998466  0.56233521  1
  Se  Se119  1  0.08735523  0.75311645  0.05142170  1
  Se  Se120  1  0.08935963  0.74669645  0.55859316  1
  Se  Se121  1  0.42168640  0.07344811  0.05161074  1
  Se  Se122  1  0.41164122  0.08866438  0.55629950  1
  Se  Se123  1  0.41797490  0.41548172  0.04765845  1
  Se  Se124  1  0.41952151  0.44012400  0.58320466  1
  Se  Se125  1  0.40478831  0.74086033  0.05941089  1
  Se  Se126  1  0.41802771  0.75304756  0.55557007  1
  Se  Se127  1  0.74720326  0.08849290  0.05087810  1
  Se  Se128  1  0.74495720  0.07801199  0.55689267  1
  Se  Se129  1  0.73518863  0.40997742  0.05220005  1
  Se  Se130  1  0.74594763  0.40854435  0.55817743  1
  Se  Se131  1  0.73510666  0.74781956  0.06198805  1
  Se  Se132  1  0.74532754  0.74098469  0.55974253  1
  Se  Se133  1  0.26241112  0.24785717  0.04828145  1
  Se  Se134  1  0.22194218  0.24670293  0.59008518  1
  Se  Se135  1  0.24887717  0.58008003  0.04536113  1
  Se  Se136  1  0.26743265  0.59055918  0.56689241  1
  Se  Se137  1  0.25275613  0.91677750  0.05279173  1
  Se  Se138  1  0.25067205  0.91623184  0.55328320  1
  Se  Se139  1  0.57531057  0.24488986  0.05125344  1
  Se  Se140  1  0.58150405  0.24648782  0.55120164  1
  Se  Se141  1  0.57518819  0.58263700  0.05454166  1
  Se  Se142  1  0.58089258  0.58371623  0.55220229  1
  Se  Se143  1  0.59714561  0.91874124  0.06184207  1
  Se  Se144  1  0.58018873  0.91682741  0.55331132  1
  Se  Se145  1  0.92367458  0.26595669  0.04703448  1
  Se  Se146  1  0.91654850  0.24415850  0.55991991  1
  Se  Se147  1  0.92000159  0.59445279  0.05318051  1
  Se  Se148  1  0.92839619  0.57866999  0.57077619  1
  Se  Se149  1  0.92870972  0.93008202  0.06008190  1
  Se  Se150  1  0.91982891  0.91697523  0.56578963  1
  Se  Se151  1  0.08125718  0.24382107  0.44485489  1
  Se  Se152  1  0.08293553  0.27192708  0.94785681  1
  Se  Se153  1  0.08622842  0.57334899  0.44920341  1
  Se  Se154  1  0.08204989  0.58739250  0.94139800  1
  Se  Se155  1  0.08579332  0.91060190  0.45359022  1
  Se  Se156  1  0.08863643  0.92048481  0.94651154  1
  Se  Se157  1  0.41114857  0.25019745  0.44970627  1
  Se  Se158  1  0.42187822  0.24719300  0.93568647  1
  Se  Se159  1  0.40632668  0.58680971  0.44425509  1
  Se  Se160  1  0.41874183  0.58411755  0.94022855  1
  Se  Se161  1  0.41412699  0.91729321  0.44761924  1
  Se  Se162  1  0.41263683  0.91752110  0.93751486  1
  Se  Se163  1  0.73778596  0.25696978  0.43529769  1
  Se  Se164  1  0.74298884  0.25163190  0.94304373  1
  Se  Se165  1  0.74057936  0.58752358  0.43941215  1
  Se  Se166  1  0.74782319  0.58495613  0.95345415  1
  Se  Se167  1  0.73902489  0.91595846  0.44272203  1
  Se  Se168  1  0.74587050  0.92021630  0.94183026  1
  Se  Se169  1  0.25052645  0.08378131  0.44774656  1
  Se  Se170  1  0.25690162  0.08752457  0.94156441  1
  Se  Se171  1  0.25639895  0.40639919  0.44324452  1
  Se  Se172  1  0.25868301  0.41712768  0.93789835  1
  Se  Se173  1  0.24319269  0.75054217  0.44762873  1
  Se  Se174  1  0.24953623  0.75242546  0.94319605  1
  Se  Se175  1  0.57942626  0.08959145  0.44784318  1
  Se  Se176  1  0.58156846  0.08012453  0.94159459  1
  Se  Se177  1  0.57521248  0.42051589  0.44903500  1
  Se  Se178  1  0.57723185  0.41768225  0.94052605  1
  Se  Se179  1  0.58004770  0.75227124  0.44196588  1
  Se  Se180  1  0.58147143  0.74374189  0.94100747  1
  Se  Se181  1  0.92039140  0.06232795  0.43661488  1
  Se  Se182  1  0.91923849  0.09112432  0.94962762  1
  Se  Se183  1  0.92115448  0.40786126  0.44335824  1
  Se  Se184  1  0.90144257  0.43416364  0.94595171  1
  Se  Se185  1  0.92954553  0.73044616  0.44767882  1
  Se  Se186  1  0.92001510  0.75306273  0.94072739  1
  Se  Se187  1  0.25348348  0.24854979  0.30587516  1
  Se  Se188  1  0.25371227  0.25928270  0.79963057  1
  Se  Se189  1  0.23508592  0.56746330  0.30237781  1
  Se  Se190  1  0.25502141  0.59283882  0.80550978  1
  Se  Se191  1  0.24272557  0.91022042  0.31076651  1
  Se  Se192  1  0.25025965  0.92272246  0.80427596  1
  Se  Se193  1  0.57590796  0.24999468  0.30983117  1
  Se  Se194  1  0.58465662  0.24553858  0.80037934  1
  Se  Se195  1  0.57867830  0.58567517  0.30298007  1
  Se  Se196  1  0.58797497  0.57859472  0.80928075  1
  Se  Se197  1  0.59525850  0.93839400  0.30872771  1
  Se  Se198  1  0.58518569  0.91999260  0.80026804  1
  Se  Se199  1  0.92263633  0.24841973  0.30091074  1
  Se  Se200  1  0.91248279  0.25378794  0.81193871  1
  Se  Se201  1  0.91249437  0.57797358  0.30517893  1
  Se  Se202  1  0.91469971  0.58773782  0.80578743  1
  Se  Se203  1  0.91642637  0.90120120  0.31084188  1
  Se  Se204  1  0.90957459  0.91636319  0.81437763  1
  Se  Se205  1  0.09361756  0.08314550  0.30694139  1
  Se  Se206  1  0.08611971  0.09899417  0.81686883  1
  Se  Se207  1  0.08565099  0.41320446  0.30196663  1
  Se  Se208  1  0.08555095  0.42737298  0.80932626  1
  Se  Se209  1  0.08651910  0.74366399  0.30832033  1
  Se  Se210  1  0.08623307  0.75541745  0.80323706  1
  Se  Se211  1  0.42404449  0.09038698  0.30972184  1
  Se  Se212  1  0.41435890  0.08059387  0.79960658  1
  Se  Se213  1  0.41658142  0.41730483  0.30548536  1
  Se  Se214  1  0.40926707  0.40838295  0.79935913  1
  Se  Se215  1  0.42091752  0.75765088  0.31007592  1
  Se  Se216  1  0.42239945  0.76046510  0.79908427  1
  Se  Se217  1  0.77429020  0.10544799  0.30808217  1
  Se  Se218  1  0.74916252  0.08386044  0.80483241  1
  Se  Se219  1  0.75343201  0.42450018  0.30557928  1
  Se  Se220  1  0.74682235  0.41621766  0.80645766  1
  Se  Se221  1  0.75249362  0.75307028  0.30127292  1
  Se  Se222  1  0.75718886  0.75816687  0.81440323  1
  Se  Se223  1  0.24984538  0.08559815  0.18876010  1
  Se  Se224  1  0.24458400  0.07430792  0.70201773  1
  Se  Se225  1  0.25483757  0.40864844  0.18856591  1
  Se  Se226  1  0.23231401  0.44070475  0.68458476  1
  Se  Se227  1  0.24231281  0.75133340  0.18944394  1
  Se  Se228  1  0.25112680  0.75825836  0.69530331  1
  Se  Se229  1  0.58688814  0.08671005  0.19372560  1
  Se  Se230  1  0.58904494  0.07924324  0.69170503  1
  Se  Se231  1  0.56940034  0.42459353  0.18784017  1
  Se  Se232  1  0.59118492  0.40099692  0.69351802  1
  Se  Se233  1  0.57268234  0.75725048  0.19947621  1
  Se  Se234  1  0.57694071  0.75496354  0.68182027  1
  Se  Se235  1  0.91905315  0.09652415  0.18392289  1
  Se  Se236  1  0.91619480  0.09796574  0.69146320  1
  Se  Se237  1  0.90260188  0.42933016  0.17905730  1
  Se  Se238  1  0.90948181  0.42098001  0.70125383  1
  Se  Se239  1  0.91045835  0.75665790  0.19112700  1
  Se  Se240  1  0.91883532  0.75084546  0.70318461  1
  Se  Se241  1  0.09838605  0.23909727  0.18312251  1
  Se  Se242  1  0.05607045  0.27566313  0.70919103  1
  Se  Se243  1  0.08250513  0.56040364  0.17266214  1
  Se  Se244  1  0.08120780  0.59272182  0.70000388  1
  Se  Se245  1  0.09120323  0.91161631  0.19204983  1
  Se  Se246  1  0.08707218  0.92023561  0.69141806  1
  Se  Se247  1  0.41669769  0.24750956  0.19339867  1
  Se  Se248  1  0.42324500  0.23906218  0.69114211  1
  Se  Se249  1  0.41311202  0.57810402  0.18694612  1
  Se  Se250  1  0.42506684  0.60234365  0.71269912  1
  Se  Se251  1  0.42939893  0.90678616  0.19559151  1
  Se  Se252  1  0.41859086  0.92263434  0.69059047  1
  Se  Se253  1  0.75721648  0.24293676  0.19127610  1
  Se  Se254  1  0.75273754  0.24749588  0.69659804  1
  Se  Se255  1  0.73885611  0.58956803  0.19333966  1
  Se  Se256  1  0.75206804  0.57735780  0.69048166  1
  Se  Se257  1  0.76789482  0.91949432  0.19736842  1
  Se  Se258  1  0.75129247  0.91833618  0.69840538  1
