# generated using pymatgen
data_In86Cu29Se144
_symmetry_space_group_name_H-M   'P 1'
_cell_length_a   17.59849764
_cell_length_b   17.58985290
_cell_length_c   23.45382636
_cell_angle_alpha   89.97589409
_cell_angle_beta   89.95894415
_cell_angle_gamma   89.97751146
_symmetry_Int_Tables_number   1
_chemical_formula_structural   In86Cu29Se144
_chemical_formula_sum   'In86 Cu29 Se144'
_cell_volume   7260.24579605
_cell_formula_units_Z   1
loop_
 _symmetry_equiv_pos_site_id
 _symmetry_equiv_pos_as_xyz
  1  'x, y, z'
loop_
 _atom_site_type_symbol
 _atom_site_label
 _atom_site_symmetry_multiplicity
 _atom_site_fract_x
 _atom_site_fract_y
 _atom_site_fract_z
 _atom_site_occupancy
  In  In0  1  0.01382362  0.15198167  0.12986004  1
  In  In1  1  -0.01515810  0.15184125  0.61456212  1
  In  In2  1  -0.00689382  0.49960419  0.11783533  1
  In  In3  1  0.01858398  0.51861747  0.63470055  1
  In  In4  1  0.01310301  0.82745393  0.12458528  1
  In  In5  1  -0.00523706  0.83900138  0.62551768  1
  In  In6  1  0.31379609  0.15185350  0.10816696  1
  In  In7  1  0.33019851  0.15183114  0.62739717  1
  In  In8  1  0.32997003  0.51250587  0.11762194  1
  In  In9  1  0.34442359  0.50645414  0.62685669  1
  In  In10  1  0.33696091  0.83714369  0.11837025  1
  In  In11  1  0.33569147  0.83321046  0.62897297  1
  In  In12  1  0.66532819  0.17051137  0.12224117  1
  In  In13  1  0.65519248  0.15340951  0.61765915  1
  In  In14  1  0.67811881  0.49787014  0.12395126  1
  In  In15  1  0.66044496  0.52855628  0.62258934  1
  In  In16  1  0.65481257  0.83856025  0.12923707  1
  In  In17  1  0.66722530  0.83182770  0.61800324  1
  In  In18  1  0.16373222  -0.01333512  0.36791447  1
  In  In19  1  0.17085703  -0.00685946  0.86715900  1
  In  In20  1  0.16023609  0.34006016  0.36477160  1
  In  In21  1  0.17305461  0.32954689  0.89160721  1
  In  In22  1  0.17105633  0.68101846  0.37986103  1
  In  In23  1  0.16932084  0.66966835  0.86621334  1
  In  In24  1  0.49647995  0.00462011  0.38001142  1
  In  In25  1  0.49404564  -0.00485150  0.87033744  1
  In  In26  1  0.50691987  0.32935703  0.38165867  1
  In  In27  1  0.47998826  0.33030451  0.88103046  1
  In  In28  1  0.50563927  0.65860173  0.39805860  1
  In  In29  1  0.50603263  0.68187680  0.86614585  1
  In  In30  1  0.84786696  -0.00376879  0.38554735  1
  In  In31  1  0.82770167  -0.00933690  0.86636540  1
  In  In32  1  0.83574505  0.32130515  0.37340818  1
  In  In33  1  0.84785736  0.33409141  0.87911069  1
  In  In34  1  0.82829485  0.69148453  0.38069819  1
  In  In35  1  0.83202937  0.66654939  0.87261382  1
  In  In36  1  -0.00427731  0.15380402  0.36750698  1
  In  In37  1  0.01107692  0.16667117  0.87442942  1
  In  In38  1  0.01096730  0.50047990  0.36972510  1
  In  In39  1  0.00171376  0.50141708  0.87801810  1
  In  In40  1  -0.01339007  0.86199891  0.40582149  1
  In  In41  1  0.02102682  0.84229393  0.84955726  1
  In  In42  1  0.34861802  0.16143944  0.37407394  1
  In  In43  1  0.33920453  0.15956301  0.88190099  1
  In  In44  1  0.33839220  0.51375285  0.37834587  1
  In  In45  1  0.30728730  0.50974583  0.87098505  1
  In  In46  1  0.32574923  0.83643086  0.38914792  1
  In  In47  1  0.33026015  0.83485765  0.86676365  1
  In  In48  1  0.67163109  0.16368465  0.38450061  1
  In  In49  1  0.66083485  0.14784688  0.87153086  1
  In  In50  1  0.65640717  0.50735727  0.38018331  1
  In  In51  1  0.66659192  0.51968345  0.87488543  1
  In  In52  1  0.67444289  0.81748923  0.39153015  1
  In  In53  1  0.65670675  0.82738226  0.86786440  1
  In  In54  1  0.16904154  -0.00425769  0.12130209  1
  In  In55  1  0.16916305  -0.01603180  0.63712471  1
  In  In56  1  0.15710655  0.32239502  0.11544200  1
  In  In57  1  0.16830843  0.34086290  0.62976586  1
  In  In58  1  0.16988877  0.66995171  0.10801685  1
  In  In59  1  0.15269988  0.68974145  0.65298971  1
  In  In60  1  0.48484166  -0.01246337  0.12004794  1
  In  In61  1  0.49987626  0.00131805  0.62544073  1
  In  In62  1  0.51232950  0.32604180  0.12429018  1
  In  In63  1  0.50030089  0.33616824  0.61818820  1
  In  In64  1  0.49190025  0.67818347  0.12584339  1
  In  In65  1  0.50319001  0.67382723  0.61950966  1
  In  In66  1  0.83459174  0.00663124  0.12878938  1
  In  In67  1  0.83310909  -0.00938971  0.61932960  1
  In  In68  1  0.83058096  0.34874986  0.12323986  1
  In  In69  1  0.84422659  0.32724723  0.62221274  1
  In  In70  1  0.83863232  0.65753859  0.12689569  1
  In  In71  1  0.81138054  0.68544709  0.63177975  1
  In  In72  1  0.33312763  0.32867421  0.24134734  1
  In  In73  1  0.33243769  0.33714062  0.75826695  1
  In  In74  1  0.16461481  0.15818309  0.50431478  1
  In  In75  1  0.67081707  0.33200450  0.24933997  1
  In  In76  1  0.17942477  0.51154477  0.50492523  1
  In  In77  1  0.83688943  0.16764091  0.00261324  1
  In  In78  1  0.49818697  0.50024210  -0.00383609  1
  In  In79  1  0.67298922  -0.00718819  0.25681208  1
  In  In80  1  0.66352818  0.33173008  0.74956906  1
  In  In81  1  0.83355470  0.50097578  0.50671032  1
  In  In82  1  0.00516287  0.32984396  0.75475389  1
  In  In83  1  0.33207787  0.67614842  0.25838841  1
  In  In84  1  0.83966374  0.82660227  0.00055998  1
  In  In85  1  -0.00304582  0.67343073  0.25347252  1
  Cu  Cu86  1  0.66779085  0.33342318  0.50144755  1
  Cu  Cu87  1  0.16923066  0.16042996  0.24172494  1
  Cu  Cu88  1  0.32893535  -0.00703337  -0.00725344  1
  Cu  Cu89  1  0.49962113  0.15316972  0.24773944  1
  Cu  Cu90  1  0.66551726  0.32976534  -0.00008862  1
  Cu  Cu91  1  0.83357527  0.50020699  0.75097369  1
  Cu  Cu92  1  0.49980395  0.50599970  0.26099039  1
  Cu  Cu93  1  0.16644404  0.83868069  0.25103433  1
  Cu  Cu94  1  0.32975960  0.67012770  -0.01010701  1
  Cu  Cu95  1  0.83372865  0.50479134  0.24766060  1
  Cu  Cu96  1  0.00834967  -0.00114054  -0.00509883  1
  Cu  Cu97  1  0.50179552  0.83055896  0.25297265  1
  Cu  Cu98  1  0.50344815  0.83878800  0.74285785  1
  Cu  Cu99  1  0.85086639  0.16463306  0.25234955  1
  Cu  Cu100  1  0.82764496  0.15267239  0.74270846  1
  Cu  Cu101  1  0.00248022  0.67433561  0.51064481  1
  Cu  Cu102  1  0.00626261  0.66750251  -0.00874582  1
  Cu  Cu103  1  0.66715967  0.66785551  -0.00468420  1
  Cu  Cu104  1  0.65018150  -0.00780959  -0.00367429  1
  Cu  Cu105  1  0.33667359  0.00249356  0.50728281  1
  Cu  Cu106  1  0.50198471  0.51645106  0.74849659  1
  Cu  Cu107  1  0.49255004  0.15986196  0.75055312  1
  Cu  Cu108  1  0.15797978  0.50052488  0.24278517  1
  Cu  Cu109  1  0.00316770  0.33889820  0.00241033  1
  Cu  Cu110  1  0.16187402  0.16144179  0.74855250  1
  Cu  Cu111  1  0.33576437  0.33124112  0.49797241  1
  Cu  Cu112  1  0.00374410  0.33073289  0.49861064  1
  Cu  Cu113  1  0.83074497  0.83139304  0.74504599  1
  Cu  Cu114  1  0.66501375  0.00390524  0.50189663  1
  Se  Se115  1  0.08855634  0.08207919  0.05071427  1
  Se  Se116  1  0.07904039  0.06257550  0.55881752  1
  Se  Se117  1  0.08730054  0.42420064  0.05334226  1
  Se  Se118  1  0.07792864  0.41714095  0.55819674  1
  Se  Se119  1  0.08447612  0.75607077  0.04468770  1
  Se  Se120  1  0.08887621  0.75230415  0.56458877  1
  Se  Se121  1  0.41279530  0.07506893  0.04908905  1
  Se  Se122  1  0.42082976  0.09011206  0.55467953  1
  Se  Se123  1  0.41713277  0.41193791  0.06311581  1
  Se  Se124  1  0.41166416  0.41779129  0.55381408  1
  Se  Se125  1  0.41278744  0.74704686  0.04934138  1
  Se  Se126  1  0.42573184  0.76752632  0.55577199  1
  Se  Se127  1  0.73852880  0.07051248  0.05337398  1
  Se  Se128  1  0.75334988  0.08442878  0.55365484  1
  Se  Se129  1  0.74905540  0.41793193  0.04733250  1
  Se  Se130  1  0.74056698  0.41225897  0.56765319  1
  Se  Se131  1  0.74282266  0.74486301  0.06188666  1
  Se  Se132  1  0.74168015  0.74342493  0.54750997  1
  Se  Se133  1  0.25642108  0.26028351  0.04999894  1
  Se  Se134  1  0.25463440  0.25736749  0.56047805  1
  Se  Se135  1  0.24955721  0.58166850  0.04171294  1
  Se  Se136  1  0.24395129  0.59895514  0.57845594  1
  Se  Se137  1  0.24702929  0.91103662  0.05017141  1
  Se  Se138  1  0.25260009  0.91939071  0.55942942  1
  Se  Se139  1  0.58317116  0.24361728  0.04890567  1
  Se  Se140  1  0.58223994  0.24976405  0.55309136  1
  Se  Se141  1  0.58707178  0.58876533  0.05978969  1
  Se  Se142  1  0.56713984  0.57648635  0.54863201  1
  Se  Se143  1  0.57383047  0.90722049  0.05315488  1
  Se  Se144  1  0.58206341  0.92135697  0.55492368  1
  Se  Se145  1  0.92451623  0.25579944  0.06470728  1
  Se  Se146  1  0.91636475  0.24756834  0.54696967  1
  Se  Se147  1  0.91966720  0.59125746  0.04932906  1
  Se  Se148  1  0.92342954  0.58986903  0.56756659  1
  Se  Se149  1  0.92440712  0.92566809  0.05825369  1
  Se  Se150  1  0.91021431  0.90571782  0.54913666  1
  Se  Se151  1  0.08502229  0.25369745  0.43854579  1
  Se  Se152  1  0.07903898  0.24713206  0.95096599  1
  Se  Se153  1  0.07557426  0.59255951  0.44610358  1
  Se  Se154  1  0.09186509  0.58422866  0.94007813  1
  Se  Se155  1  0.11417723  0.90064479  0.44904802  1
  Se  Se156  1  0.08145216  0.91324097  0.93595630  1
  Se  Se157  1  0.41916557  0.24719817  0.44641980  1
  Se  Se158  1  0.41226988  0.24610957  0.95298851  1
  Se  Se159  1  0.40607698  0.58356000  0.45793136  1
  Se  Se160  1  0.41547325  0.59120744  0.93238872  1
  Se  Se161  1  0.41677036  0.92097263  0.44989029  1
  Se  Se162  1  0.41404404  0.91075217  0.93990242  1
  Se  Se163  1  0.75348911  0.25262925  0.44874251  1
  Se  Se164  1  0.74422224  0.24984797  0.93652235  1
  Se  Se165  1  0.74826894  0.59036979  0.44469696  1
  Se  Se166  1  0.75523553  0.58507447  0.94810442  1
  Se  Se167  1  0.74812472  0.92292892  0.44640011  1
  Se  Se168  1  0.74324765  0.91604754  0.94318259  1
  Se  Se169  1  0.25744487  0.07753507  0.44019798  1
  Se  Se170  1  0.24414382  0.07736034  0.94100114  1
  Se  Se171  1  0.25321645  0.40984359  0.43845405  1
  Se  Se172  1  0.27531465  0.40703664  0.94372346  1
  Se  Se173  1  0.27029968  0.72623313  0.45065551  1
  Se  Se174  1  0.24624361  0.75417380  0.93799116  1
  Se  Se175  1  0.58040476  0.08724096  0.44844364  1
  Se  Se176  1  0.57316403  0.08044023  0.94348934  1
  Se  Se177  1  0.58424061  0.41708570  0.44863639  1
  Se  Se178  1  0.59114683  0.41037956  0.93504926  1
  Se  Se179  1  0.56719167  0.76610760  0.45647005  1
  Se  Se180  1  0.58253389  0.75187631  0.94577619  1
  Se  Se181  1  0.92351542  0.09037055  0.44909893  1
  Se  Se182  1  0.91794095  0.07375310  0.93851218  1
  Se  Se183  1  0.92457422  0.41549788  0.44052489  1
  Se  Se184  1  0.91822204  0.42044198  0.94985461  1
  Se  Se185  1  0.91495344  0.75249710  0.45720524  1
  Se  Se186  1  0.93021243  0.75301735  0.93189471  1
  Se  Se187  1  0.24624953  0.23940582  0.30687891  1
  Se  Se188  1  0.24027633  0.24127382  0.81068428  1
  Se  Se189  1  0.23604848  0.57622033  0.30743011  1
  Se  Se190  1  0.26464479  0.60315699  0.79571951  1
  Se  Se191  1  0.25994504  0.90985617  0.30514689  1
  Se  Se192  1  0.23561358  0.89984847  0.79517251  1
  Se  Se193  1  0.57911793  0.23765823  0.30569400  1
  Se  Se194  1  0.56910402  0.24533922  0.81013295  1
  Se  Se195  1  0.57791220  0.59345477  0.31231775  1
  Se  Se196  1  0.59092236  0.59473876  0.80016999  1
  Se  Se197  1  0.57965851  0.90853830  0.31586027  1
  Se  Se198  1  0.58464561  0.92057672  0.80112316  1
  Se  Se199  1  0.92778805  0.25570263  0.30285220  1
  Se  Se200  1  0.90551313  0.23464700  0.80465586  1
  Se  Se201  1  0.90669406  0.58246003  0.31493400  1
  Se  Se202  1  0.91575330  0.57827466  0.80812340  1
  Se  Se203  1  0.92329349  0.91284286  0.31490107  1
  Se  Se204  1  0.91417809  0.91656519  0.79663883  1
  Se  Se205  1  0.08939350  0.08007532  0.30222924  1
  Se  Se206  1  0.07932281  0.07914012  0.80308201  1
  Se  Se207  1  0.07554285  0.41511062  0.29335199  1
  Se  Se208  1  0.09701788  0.41429946  0.81439339  1
  Se  Se209  1  0.08487484  0.76277727  0.31298151  1
  Se  Se210  1  0.06121485  0.71914551  0.79732259  1
  Se  Se211  1  0.41507942  0.07323611  0.30069473  1
  Se  Se212  1  0.40715928  0.07980690  0.80372507  1
  Se  Se213  1  0.41858310  0.41685701  0.31109694  1
  Se  Se214  1  0.42589143  0.43415417  0.81026504  1
  Se  Se215  1  0.42580060  0.75457317  0.31973744  1
  Se  Se216  1  0.41919808  0.75691019  0.79744307  1
  Se  Se217  1  0.76121153  0.09143286  0.31074062  1
  Se  Se218  1  0.74359822  0.07460716  0.79933699  1
  Se  Se219  1  0.75500345  0.42526913  0.31213138  1
  Se  Se220  1  0.75622905  0.41812691  0.81174553  1
  Se  Se221  1  0.74262925  0.75380432  0.30632885  1
  Se  Se222  1  0.75017502  0.75011276  0.80430391  1
  Se  Se223  1  0.25438691  0.07700581  0.19168122  1
  Se  Se224  1  0.24953862  0.07860908  0.69978921  1
  Se  Se225  1  0.24443520  0.42443557  0.18571248  1
  Se  Se226  1  0.24611256  0.42903836  0.69703333  1
  Se  Se227  1  0.24103416  0.75323357  0.18934297  1
  Se  Se228  1  0.24229449  0.78061237  0.70895371  1
  Se  Se229  1  0.58472783  0.07761908  0.18800790  1
  Se  Se230  1  0.58233332  0.08383333  0.69766678  1
  Se  Se231  1  0.57604188  0.42763470  0.19562343  1
  Se  Se232  1  0.57700845  0.42683670  0.69123730  1
  Se  Se233  1  0.58081642  0.74690147  0.19711495  1
  Se  Se234  1  0.58664845  0.75229618  0.69203150  1
  Se  Se235  1  0.92518279  0.07531849  0.19833599  1
  Se  Se236  1  0.91564175  0.07396898  0.69164245  1
  Se  Se237  1  0.91643201  0.42196293  0.19440983  1
  Se  Se238  1  0.91657812  0.42317825  0.69192882  1
  Se  Se239  1  0.90886183  0.76094742  0.19047959  1
  Se  Se240  1  0.91567037  0.74731567  0.69369334  1
  Se  Se241  1  0.08532761  0.24963488  0.19503155  1
  Se  Se242  1  0.08421943  0.23875597  0.68493387  1
  Se  Se243  1  0.08635396  0.59024821  0.18550662  1
  Se  Se244  1  0.08848791  0.58501730  0.71600239  1
  Se  Se245  1  0.08394007  0.91788114  0.19372780  1
  Se  Se246  1  0.06933388  0.91844124  0.70106008  1
  Se  Se247  1  0.42459142  0.23594612  0.18630527  1
  Se  Se248  1  0.41885134  0.24890297  0.69194180  1
  Se  Se249  1  0.41780172  0.57873383  0.19693250  1
  Se  Se250  1  0.41855202  0.59628901  0.69410780  1
  Se  Se251  1  0.41520555  0.90732270  0.19716522  1
  Se  Se252  1  0.41570614  0.92390832  0.69595523  1
  Se  Se253  1  0.76521114  0.23947025  0.19139153  1
  Se  Se254  1  0.75316074  0.24291748  0.68802394  1
  Se  Se255  1  0.74704426  0.58545200  0.19649090  1
  Se  Se256  1  0.74921118  0.58380877  0.69940316  1
  Se  Se257  1  0.76101792  0.90618754  0.19248484  1
  Se  Se258  1  0.74739837  0.91420860  0.69046519  1
