# generated using pymatgen
data_In86Cu29Se144
_symmetry_space_group_name_H-M   'P 1'
_cell_length_a   17.58901425
_cell_length_b   17.58948338
_cell_length_c   23.45591355
_cell_angle_alpha   90.04256957
_cell_angle_beta   90.03381719
_cell_angle_gamma   90.00454969
_symmetry_Int_Tables_number   1
_chemical_formula_structural   In86Cu29Se144
_chemical_formula_sum   'In86 Cu29 Se144'
_cell_volume   7256.82650527
_cell_formula_units_Z   1
loop_
 _symmetry_equiv_pos_site_id
 _symmetry_equiv_pos_as_xyz
  1  'x, y, z'
loop_
 _atom_site_type_symbol
 _atom_site_label
 _atom_site_symmetry_multiplicity
 _atom_site_fract_x
 _atom_site_fract_y
 _atom_site_fract_z
 _atom_site_occupancy
  In  In0  1  0.00632802  0.17243004  0.11866255  1
  In  In1  1  -0.00214707  0.16075689  0.63346369  1
  In  In2  1  -0.01219515  0.49444066  0.12694904  1
  In  In3  1  0.00483636  0.51625187  0.62803958  1
  In  In4  1  0.00288653  0.83769779  0.11233493  1
  In  In5  1  -0.00339115  0.83403905  0.63240270  1
  In  In6  1  0.32323996  0.16927461  0.13192332  1
  In  In7  1  0.34177674  0.15889842  0.63260757  1
  In  In8  1  0.33320641  0.49722744  0.12738466  1
  In  In9  1  0.33861223  0.49688262  0.62872354  1
  In  In10  1  0.33314204  0.83641423  0.12856507  1
  In  In11  1  0.33497177  0.83427315  0.63158196  1
  In  In12  1  0.67928669  0.16341253  0.12489652  1
  In  In13  1  0.65423906  0.18131481  0.63231341  1
  In  In14  1  0.65962414  0.50787819  0.13522704  1
  In  In15  1  0.66657638  0.49627773  0.61560019  1
  In  In16  1  0.66418536  0.82285184  0.12351009  1
  In  In17  1  0.67842554  0.82106813  0.63266004  1
  In  In18  1  0.17611705  -0.00623245  0.37111780  1
  In  In19  1  0.15931894  0.00043092  0.87390996  1
  In  In20  1  0.17138527  0.33352943  0.36192061  1
  In  In21  1  0.16437682  0.31604175  0.87326650  1
  In  In22  1  0.17956989  0.65451814  0.37335626  1
  In  In23  1  0.18403315  0.68486256  0.86391452  1
  In  In24  1  0.50183569  0.00882227  0.37867952  1
  In  In25  1  0.49648960  -0.00038745  0.86411155  1
  In  In26  1  0.50329959  0.33632615  0.37732170  1
  In  In27  1  0.49690510  0.33416491  0.86877887  1
  In  In28  1  0.48576200  0.64690996  0.37210870  1
  In  In29  1  0.49615317  0.66406621  0.86252645  1
  In  In30  1  0.82258488  -0.00465765  0.38086727  1
  In  In31  1  0.83375790  -0.00111829  0.87388641  1
  In  In32  1  0.83568185  0.34247313  0.37631703  1
  In  In33  1  0.82335714  0.33693064  0.87449103  1
  In  In34  1  0.82413050  0.67308331  0.38438356  1
  In  In35  1  0.83884983  0.67885416  0.86593937  1
  In  In36  1  -0.00377201  0.17067680  0.37049396  1
  In  In37  1  0.01297871  0.15355542  0.88289067  1
  In  In38  1  0.00526282  0.49076950  0.37770250  1
  In  In39  1  -0.01316738  0.50251236  0.86804024  1
  In  In40  1  -0.00589679  0.82184210  0.37537912  1
  In  In41  1  -0.00199940  0.83693078  0.87546719  1
  In  In42  1  0.34521639  0.18156165  0.36291318  1
  In  In43  1  0.30765958  0.14945641  0.85504984  1
  In  In44  1  0.34745831  0.50487555  0.37152077  1
  In  In45  1  0.33232179  0.50497950  0.86267750  1
  In  In46  1  0.33967209  0.82562759  0.36538297  1
  In  In47  1  0.32130517  0.82661636  0.87199256  1
  In  In48  1  0.64941616  0.16642133  0.38176060  1
  In  In49  1  0.67423597  0.17641013  0.87041555  1
  In  In50  1  0.66190956  0.49763831  0.38166392  1
  In  In51  1  0.66071440  0.49785769  0.86255493  1
  In  In52  1  0.67894342  0.83351508  0.37944924  1
  In  In53  1  0.66959842  0.84071401  0.86605328  1
  In  In54  1  0.17681793  0.00586693  0.11602980  1
  In  In55  1  0.17272717  -0.00087534  0.64205799  1
  In  In56  1  0.17352670  0.31631025  0.13689317  1
  In  In57  1  0.18392320  0.34018827  0.63394857  1
  In  In58  1  0.17232443  0.67804383  0.11695333  1
  In  In59  1  0.17061325  0.65211336  0.64569747  1
  In  In60  1  0.48268940  -0.00807927  0.12896449  1
  In  In61  1  0.49377044  0.01135931  0.63302142  1
  In  In62  1  0.49743747  0.33904120  0.13518117  1
  In  In63  1  0.50408430  0.33311286  0.61579056  1
  In  In64  1  0.49851562  0.67890505  0.14065879  1
  In  In65  1  0.50569118  0.66279158  0.62504886  1
  In  In66  1  0.83766892  0.00497796  0.11305090  1
  In  In67  1  0.84145572  -0.00803019  0.63549037  1
  In  In68  1  0.83941912  0.32818531  0.13391290  1
  In  In69  1  0.81565531  0.33363372  0.62210235  1
  In  In70  1  0.82335252  0.66902762  0.12254806  1
  In  In71  1  0.83193234  0.66507009  0.62273025  1
  In  In72  1  0.82282374  0.16666022  0.50034940  1
  In  In73  1  0.83017795  0.50306445  -0.00258195  1
  In  In74  1  0.16069987  0.49884428  -0.00244701  1
  In  In75  1  0.00489051  0.66057879  0.24778061  1
  In  In76  1  0.16837726  0.16536587  0.50105438  1
  In  In77  1  0.16735205  0.49958714  0.50683885  1
  In  In78  1  0.49951985  0.50540905  -0.00697711  1
  In  In79  1  0.50485292  0.82912631  0.50511408  1
  In  In80  1  0.00820698  0.00867313  0.24374725  1
  In  In81  1  0.49929714  0.83341699  0.00521867  1
  In  In82  1  0.16480431  0.82843185  0.49916750  1
  In  In83  1  0.00103967  0.32894696  0.74976628  1
  In  In84  1  0.66167172  -0.00018760  0.25068818  1
  In  In85  1  0.49987643  0.17036907  -0.00547565  1
  Cu  Cu86  1  0.33828308  0.00386642  0.50458839  1
  Cu  Cu87  1  0.82614064  0.50252338  0.25493535  1
  Cu  Cu88  1  0.50487647  0.50084156  0.73984161  1
  Cu  Cu89  1  -0.00486629  0.33558736  0.50028921  1
  Cu  Cu90  1  0.83299352  0.16217032  0.75253931  1
  Cu  Cu91  1  0.32801119  0.32651549  -0.00127326  1
  Cu  Cu92  1  0.83186838  0.82966921  0.75131890  1
  Cu  Cu93  1  -0.00575865  -0.00721510  0.50818706  1
  Cu  Cu94  1  0.17358913  0.49469853  0.24855657  1
  Cu  Cu95  1  0.83471345  0.83568594  0.25009684  1
  Cu  Cu96  1  0.17929425  0.83087444  0.24581170  1
  Cu  Cu97  1  -0.00711949  0.67190646  0.50596703  1
  Cu  Cu98  1  0.82944749  0.17901314  0.25199515  1
  Cu  Cu99  1  0.82433189  0.50038308  0.74217349  1
  Cu  Cu100  1  0.67496985  0.32917752  0.00306130  1
  Cu  Cu101  1  0.00397016  0.67400243  -0.00969891  1
  Cu  Cu102  1  0.15933627  0.83704425  0.75506939  1
  Cu  Cu103  1  0.66891756  -0.00377330  0.50737821  1
  Cu  Cu104  1  0.00131063  0.32211823  0.00550952  1
  Cu  Cu105  1  0.66604931  0.66221186  0.50217343  1
  Cu  Cu106  1  0.32602301  -0.00086105  -0.00315433  1
  Cu  Cu107  1  0.49555547  0.83759070  0.74625264  1
  Cu  Cu108  1  -0.00267802  -0.00441549  -0.00503782  1
  Cu  Cu109  1  0.50526179  0.49372194  0.25603776  1
  Cu  Cu110  1  0.49524440  0.16867346  0.25464515  1
  Cu  Cu111  1  0.66737234  0.67151392  -0.00184869  1
  Cu  Cu112  1  0.67377382  -0.00059948  -0.00545983  1
  Cu  Cu113  1  0.34040140  0.33428305  0.49529280  1
  Cu  Cu114  1  0.50462301  0.17730927  0.74781464  1
  Se  Se115  1  0.07841090  0.07750441  0.05359734  1
  Se  Se116  1  0.08015738  0.07242430  0.56199977  1
  Se  Se117  1  0.07828410  0.40854865  0.06355392  1
  Se  Se118  1  0.07721174  0.40616671  0.56541320  1
  Se  Se119  1  0.08711051  0.75309283  0.04695813  1
  Se  Se120  1  0.08317352  0.74075849  0.56602065  1
  Se  Se121  1  0.40959460  0.07923310  0.05499934  1
  Se  Se122  1  0.42118442  0.08878823  0.55476938  1
  Se  Se123  1  0.41315633  0.40730081  0.05314347  1
  Se  Se124  1  0.41453349  0.42026617  0.55327934  1
  Se  Se125  1  0.41188869  0.73801364  0.05963820  1
  Se  Se126  1  0.40658263  0.74433612  0.55957814  1
  Se  Se127  1  0.75180418  0.08849485  0.04725776  1
  Se  Se128  1  0.74653204  0.07770532  0.56924012  1
  Se  Se129  1  0.74449759  0.41804485  0.06390198  1
  Se  Se130  1  0.75080648  0.41501844  0.54684452  1
  Se  Se131  1  0.75199683  0.75472686  0.04957121  1
  Se  Se132  1  0.74952010  0.74903517  0.55234346  1
  Se  Se133  1  0.24740240  0.24670444  0.05594956  1
  Se  Se134  1  0.25956232  0.25713347  0.55800408  1
  Se  Se135  1  0.25845850  0.58480747  0.05381279  1
  Se  Se136  1  0.25391110  0.59429005  0.56215845  1
  Se  Se137  1  0.25277887  0.90983875  0.05298912  1
  Se  Se138  1  0.25192943  0.92500957  0.55908811  1
  Se  Se139  1  0.58611022  0.25671448  0.06121257  1
  Se  Se140  1  0.58763563  0.24758138  0.54973013  1
  Se  Se141  1  0.58548835  0.59412009  0.05853797  1
  Se  Se142  1  0.57783645  0.58087593  0.55066578  1
  Se  Se143  1  0.59128187  0.93014606  0.06051984  1
  Se  Se144  1  0.58775940  0.91959682  0.56949824  1
  Se  Se145  1  0.90777030  0.24769535  0.05633458  1
  Se  Se146  1  0.92257021  0.24944275  0.56019919  1
  Se  Se147  1  0.92621473  0.59483220  0.05436873  1
  Se  Se148  1  0.91538982  0.57909014  0.55424682  1
  Se  Se149  1  0.91129758  0.91281908  0.04686107  1
  Se  Se150  1  0.91238452  0.90970739  0.55916661  1
  Se  Se151  1  0.07896517  0.25877059  0.44137275  1
  Se  Se152  1  0.08842817  0.24452065  0.95152684  1
  Se  Se153  1  0.07699815  0.59447374  0.44499490  1
  Se  Se154  1  0.07687920  0.58734989  0.93249481  1
  Se  Se155  1  0.07415914  0.92324056  0.43984078  1
  Se  Se156  1  0.08520435  0.91365849  0.94552487  1
  Se  Se157  1  0.42030896  0.24605614  0.44409476  1
  Se  Se158  1  0.40489634  0.25048271  0.93344525  1
  Se  Se159  1  0.41194153  0.58016273  0.45197444  1
  Se  Se160  1  0.40588686  0.59442165  0.93838122  1
  Se  Se161  1  0.41135007  0.91746979  0.44379512  1
  Se  Se162  1  0.41338238  0.92257698  0.94031932  1
  Se  Se163  1  0.73905928  0.25970265  0.44132791  1
  Se  Se164  1  0.75556613  0.24822492  0.94756781  1
  Se  Se165  1  0.75133501  0.57942571  0.44899729  1
  Se  Se166  1  0.74035338  0.58865076  0.93478734  1
  Se  Se167  1  0.75298857  0.91343853  0.45554060  1
  Se  Se168  1  0.75103461  0.91135673  0.94190278  1
  Se  Se169  1  0.25998849  0.08003509  0.43969719  1
  Se  Se170  1  0.24623519  0.08465639  0.94266984  1
  Se  Se171  1  0.25152787  0.41133772  0.43981410  1
  Se  Se172  1  0.25579970  0.41350141  0.93789629  1
  Se  Se173  1  0.26022668  0.74259094  0.44230970  1
  Se  Se174  1  0.24919963  0.75019194  0.94840441  1
  Se  Se175  1  0.58357948  0.07765232  0.45500444  1
  Se  Se176  1  0.58877531  0.07645262  0.93693101  1
  Se  Se177  1  0.56416463  0.43175249  0.44825148  1
  Se  Se178  1  0.59391720  0.40812527  0.94248080  1
  Se  Se179  1  0.58771548  0.74166573  0.43908247  1
  Se  Se180  1  0.58330109  0.74635385  0.93667069  1
  Se  Se181  1  0.92322108  0.07722507  0.44373474  1
  Se  Se182  1  0.91408365  0.08246062  0.94526364  1
  Se  Se183  1  0.91592238  0.42249527  0.44924110  1
  Se  Se184  1  0.92558474  0.40691458  0.94529425  1
  Se  Se185  1  0.91241754  0.75569886  0.45109267  1
  Se  Se186  1  0.91117369  0.75341577  0.94380418  1
  Se  Se187  1  0.24581428  0.24315360  0.29771434  1
  Se  Se188  1  0.26427462  0.26957734  0.80162072  1
  Se  Se189  1  0.25740819  0.57940570  0.30006978  1
  Se  Se190  1  0.24462867  0.58413113  0.79830047  1
  Se  Se191  1  0.25779118  0.91551866  0.30147016  1
  Se  Se192  1  0.24763145  0.91922131  0.80577342  1
  Se  Se193  1  0.58249456  0.24922455  0.30611632  1
  Se  Se194  1  0.58858090  0.25779904  0.80351916  1
  Se  Se195  1  0.58679589  0.58152157  0.30710386  1
  Se  Se196  1  0.58491779  0.58659818  0.79567358  1
  Se  Se197  1  0.57959057  0.90964388  0.31447288  1
  Se  Se198  1  0.58267643  0.91895267  0.79804965  1
  Se  Se199  1  0.91565703  0.25730045  0.30614950  1
  Se  Se200  1  0.91288212  0.24311825  0.81418460  1
  Se  Se201  1  0.91259338  0.58160903  0.31313164  1
  Se  Se202  1  0.90656128  0.58211708  0.79818147  1
  Se  Se203  1  0.91534798  0.91831574  0.30747195  1
  Se  Se204  1  0.91475203  0.91563602  0.80379429  1
  Se  Se205  1  0.09633846  0.09319928  0.30837922  1
  Se  Se206  1  0.08938016  0.09108805  0.80295127  1
  Se  Se207  1  0.08220690  0.41954899  0.30073442  1
  Se  Se208  1  0.08676689  0.41950865  0.81176314  1
  Se  Se209  1  0.09623345  0.75452142  0.30764265  1
  Se  Se210  1  0.07646341  0.75030140  0.80560594  1
  Se  Se211  1  0.41727314  0.07700937  0.30408855  1
  Se  Se212  1  0.42102676  0.09107324  0.79896033  1
  Se  Se213  1  0.41629076  0.40994641  0.30410252  1
  Se  Se214  1  0.42273581  0.42292010  0.80031204  1
  Se  Se215  1  0.42204966  0.74149790  0.30194110  1
  Se  Se216  1  0.41299416  0.75521492  0.80192990  1
  Se  Se217  1  0.75387097  0.09215067  0.31117721  1
  Se  Se218  1  0.74728371  0.08094354  0.80573727  1
  Se  Se219  1  0.74592203  0.41838164  0.30905532  1
  Se  Se220  1  0.74857874  0.41389630  0.79895560  1
  Se  Se221  1  0.75581905  0.75271632  0.30569243  1
  Se  Se222  1  0.74179190  0.74607510  0.79927684  1
  Se  Se223  1  0.26064023  0.06542074  0.19391719  1
  Se  Se224  1  0.25058222  0.09159966  0.70206311  1
  Se  Se225  1  0.25664083  0.41047535  0.19598243  1
  Se  Se226  1  0.23667611  0.44334979  0.69893888  1
  Se  Se227  1  0.25612035  0.74081017  0.19423458  1
  Se  Se228  1  0.24553710  0.75783348  0.69910640  1
  Se  Se229  1  0.57237984  0.09094758  0.18844344  1
  Se  Se230  1  0.58660595  0.08528222  0.69998826  1
  Se  Se231  1  0.58993567  0.41239321  0.20129612  1
  Se  Se232  1  0.58603068  0.41468761  0.68791605  1
  Se  Se233  1  0.59984682  0.74626901  0.20169274  1
  Se  Se234  1  0.57895084  0.75126559  0.69566711  1
  Se  Se235  1  0.90488034  0.09273582  0.19204828  1
  Se  Se236  1  0.92049157  0.07924454  0.70390235  1
  Se  Se237  1  0.91229765  0.42012604  0.20248949  1
  Se  Se238  1  0.91130570  0.41836825  0.68717740  1
  Se  Se239  1  0.91705854  0.75741672  0.18949384  1
  Se  Se240  1  0.91298308  0.74566137  0.69568473  1
  Se  Se241  1  0.06791104  0.25382845  0.19700314  1
  Se  Se242  1  0.09724071  0.24211670  0.69231047  1
  Se  Se243  1  0.09475185  0.57361964  0.18483728  1
  Se  Se244  1  0.07062041  0.58683001  0.70914243  1
  Se  Se245  1  0.09112808  0.90716277  0.18916290  1
  Se  Se246  1  0.07666230  0.91975401  0.70069392  1
  Se  Se247  1  0.41401514  0.24966721  0.19634530  1
  Se  Se248  1  0.42118903  0.25680345  0.69072520  1
  Se  Se249  1  0.42519309  0.57211565  0.19410648  1
  Se  Se250  1  0.41740420  0.58780592  0.69492684  1
  Se  Se251  1  0.43368490  0.89251764  0.19828364  1
  Se  Se252  1  0.41036402  0.92470972  0.69832344  1
  Se  Se253  1  0.74110445  0.25492842  0.19785805  1
  Se  Se254  1  0.75307335  0.24890617  0.69931262  1
  Se  Se255  1  0.75207883  0.58909967  0.19768650  1
  Se  Se256  1  0.74291543  0.58334795  0.68777974  1
  Se  Se257  1  0.75886294  0.91800524  0.18841711  1
  Se  Se258  1  0.74807975  0.91593498  0.70041611  1
