# generated using pymatgen
data_In86Cu29Se144
_symmetry_space_group_name_H-M   'P 1'
_cell_length_a   17.60396897
_cell_length_b   17.59969648
_cell_length_c   23.46969816
_cell_angle_alpha   89.98909312
_cell_angle_beta   89.99994456
_cell_angle_gamma   89.97906674
_symmetry_Int_Tables_number   1
_chemical_formula_structural   In86Cu29Se144
_chemical_formula_sum   'In86 Cu29 Se144'
_cell_volume   7271.48712807
_cell_formula_units_Z   1
loop_
 _symmetry_equiv_pos_site_id
 _symmetry_equiv_pos_as_xyz
  1  'x, y, z'
loop_
 _atom_site_type_symbol
 _atom_site_label
 _atom_site_symmetry_multiplicity
 _atom_site_fract_x
 _atom_site_fract_y
 _atom_site_fract_z
 _atom_site_occupancy
  In  In0  1  0.00127407  0.17018070  0.12925365  1
  In  In1  1  -0.00255404  0.16273173  0.63525655  1
  In  In2  1  -0.00813239  0.48987181  0.11521052  1
  In  In3  1  -0.01362131  0.48747050  0.61561818  1
  In  In4  1  0.01855157  0.84906858  0.11075327  1
  In  In5  1  0.00968208  0.83771813  0.62798982  1
  In  In6  1  0.30967495  0.13609428  0.09291207  1
  In  In7  1  0.33434987  0.16144238  0.60878584  1
  In  In8  1  0.33349296  0.49575940  0.11942147  1
  In  In9  1  0.33955609  0.50185168  0.62471688  1
  In  In10  1  0.32781592  0.85699253  0.12521511  1
  In  In11  1  0.31482494  0.84119766  0.62770716  1
  In  In12  1  0.67027901  0.16991392  0.11765552  1
  In  In13  1  0.68865654  0.19591925  0.59116130  1
  In  In14  1  0.66770120  0.49856051  0.11750449  1
  In  In15  1  0.65726103  0.47730771  0.61568015  1
  In  In16  1  0.66859727  0.82466220  0.11879055  1
  In  In17  1  0.67136586  0.84132144  0.62550688  1
  In  In18  1  0.16094331  0.00256580  0.38226519  1
  In  In19  1  0.15658004  0.01689595  0.89493552  1
  In  In20  1  0.16351303  0.33104705  0.37776682  1
  In  In21  1  0.15712039  0.33719144  0.87890826  1
  In  In22  1  0.17389614  0.66299240  0.38243180  1
  In  In23  1  0.17242271  0.66087816  0.87806468  1
  In  In24  1  0.48852904  0.03027908  0.38501882  1
  In  In25  1  0.50410108  0.00447405  0.87890376  1
  In  In26  1  0.49947172  0.33046818  0.38537233  1
  In  In27  1  0.51361015  0.32583825  0.87768175  1
  In  In28  1  0.49697246  0.65650615  0.37688457  1
  In  In29  1  0.48031799  0.66841750  0.86872551  1
  In  In30  1  0.84674124  0.00442045  0.37659823  1
  In  In31  1  0.84331682  -0.00353675  0.87648289  1
  In  In32  1  0.84680412  0.31593613  0.39037632  1
  In  In33  1  0.83853544  0.32863533  0.87109572  1
  In  In34  1  0.82452544  0.66298379  0.37379357  1
  In  In35  1  0.83033206  0.67011612  0.87771497  1
  In  In36  1  0.00035974  0.16574587  0.37964300  1
  In  In37  1  -0.00131746  0.16785264  0.87328861  1
  In  In38  1  0.01210171  0.49002872  0.38346776  1
  In  In39  1  0.00285251  0.49258156  0.87670590  1
  In  In40  1  0.00410064  0.85573019  0.37171937  1
  In  In41  1  -0.01389672  0.85181031  0.87927865  1
  In  In42  1  0.32369052  0.15911601  0.37748433  1
  In  In43  1  0.33439479  0.16406815  0.88834271  1
  In  In44  1  0.33760566  0.49463340  0.38413055  1
  In  In45  1  0.32297644  0.51056241  0.87628781  1
  In  In46  1  0.31217737  0.83923676  0.37868728  1
  In  In47  1  0.33557651  0.82762278  0.87503234  1
  In  In48  1  0.66871085  0.17381144  0.39372793  1
  In  In49  1  0.66429447  0.17825588  0.87502269  1
  In  In50  1  0.68355538  0.47233562  0.40346497  1
  In  In51  1  0.68028979  0.48378544  0.87810078  1
  In  In52  1  0.67040916  0.83003643  0.37049019  1
  In  In53  1  0.67364881  0.84312624  0.87418406  1
  In  In54  1  0.16275520  0.00215141  0.12634268  1
  In  In55  1  0.16745176  -0.00674779  0.61520348  1
  In  In56  1  0.15249287  0.31801717  0.11738414  1
  In  In57  1  0.15140098  0.31982500  0.62080306  1
  In  In58  1  0.16780438  0.66607184  0.11851977  1
  In  In59  1  0.17002642  0.67126844  0.62186470  1
  In  In60  1  0.48396881  0.00539280  0.12428994  1
  In  In61  1  0.50415091  0.01613463  0.61190730  1
  In  In62  1  0.49441449  0.33069454  0.11791329  1
  In  In63  1  0.50288053  0.32741128  0.61816527  1
  In  In64  1  0.50797228  0.66307505  0.12215948  1
  In  In65  1  0.50241218  0.64890644  0.63172068  1
  In  In66  1  0.84957073  0.01848936  0.11440164  1
  In  In67  1  0.82643512  0.03996039  0.63573436  1
  In  In68  1  0.84117092  0.33830303  0.12109628  1
  In  In69  1  0.83510353  0.32863796  0.63095240  1
  In  In70  1  0.83205059  0.66396074  0.11133448  1
  In  In71  1  0.84627229  0.65970317  0.62745780  1
  In  In72  1  0.66494198  0.66516655  0.24370002  1
  In  In73  1  0.33053460  -0.00284067  0.74933140  1
  In  In74  1  0.49980283  0.82671836  0.50740991  1
  In  In75  1  0.00440527  0.66854389  0.75305627  1
  In  In76  1  0.67291910  -0.00024829  0.25350700  1
  In  In77  1  0.84428589  0.83521821  0.50065327  1
  In  In78  1  0.49998159  0.83385738  0.00002936  1
  In  In79  1  0.00193953  0.67161439  0.24373637  1
  In  In80  1  0.33031925  0.66890819  0.25492135  1
  In  In81  1  0.66901251  0.66003655  0.75904823  1
  In  In82  1  0.67045227  0.33428452  0.26281205  1
  In  In83  1  0.32675175  0.31995618  0.25243055  1
  In  In84  1  0.32619751  0.33570551  0.75101465  1
  In  In85  1  0.66927660  0.00735599  0.75218007  1
  Cu  Cu86  1  0.67142193  0.65726459  0.50468201  1
  Cu  Cu87  1  0.84687321  0.49459362  0.24902287  1
  Cu  Cu88  1  -0.00332325  0.00459101  0.00105904  1
  Cu  Cu89  1  0.49024634  0.84936444  0.25312273  1
  Cu  Cu90  1  0.67242570  0.33742133  -0.00143112  1
  Cu  Cu91  1  0.33290895  0.66438008  -0.00012508  1
  Cu  Cu92  1  0.16415891  0.50371267  0.75045808  1
  Cu  Cu93  1  0.00085015  0.66361081  -0.00586473  1
  Cu  Cu94  1  0.84020434  0.17226619  0.25289507  1
  Cu  Cu95  1  0.00138539  0.32978328  0.50452659  1
  Cu  Cu96  1  0.16216717  0.84360344  0.25064883  1
  Cu  Cu97  1  0.16581679  0.83844933  0.75323616  1
  Cu  Cu98  1  0.33981333  0.34464668  -0.00499062  1
  Cu  Cu99  1  0.33495672  0.66251029  0.50243377  1
  Cu  Cu100  1  0.32657896  0.33533754  0.50029990  1
  Cu  Cu101  1  0.49968308  0.17085481  0.74720060  1
  Cu  Cu102  1  0.49882419  0.49176674  0.74848252  1
  Cu  Cu103  1  -0.00209120  0.32832260  -0.00300444  1
  Cu  Cu104  1  0.82908596  0.49278881  0.74557881  1
  Cu  Cu105  1  0.00432343  0.66864960  0.49963884  1
  Cu  Cu106  1  0.66357766  0.66193418  -0.00457342  1
  Cu  Cu107  1  0.49420714  0.16304739  0.24937507  1
  Cu  Cu108  1  0.16414255  0.16132572  0.75217206  1
  Cu  Cu109  1  -0.00401976  0.00711755  0.50383268  1
  Cu  Cu110  1  0.50617846  0.49884779  0.25282096  1
  Cu  Cu111  1  0.16012909  0.48738197  0.25047768  1
  Cu  Cu112  1  0.84212425  0.84100482  0.23654046  1
  Cu  Cu113  1  0.67259696  0.00579564  -0.00496779  1
  Cu  Cu114  1  0.49356669  0.83010824  0.74436781  1
  Se  Se115  1  0.07883638  0.08546621  0.05772967  1
  Se  Se116  1  0.07993373  0.08682719  0.55993054  1
  Se  Se117  1  0.08302507  0.41309011  0.04949947  1
  Se  Se118  1  0.08640103  0.41826963  0.55259987  1
  Se  Se119  1  0.08403241  0.74480203  0.04961947  1
  Se  Se120  1  0.08319213  0.75333070  0.55509654  1
  Se  Se121  1  0.43652994  0.09558523  0.04714153  1
  Se  Se122  1  0.39640661  0.05884810  0.54536609  1
  Se  Se123  1  0.42431040  0.42516613  0.05040939  1
  Se  Se124  1  0.41301094  0.41187989  0.55638968  1
  Se  Se125  1  0.40852106  0.74609655  0.06381123  1
  Se  Se126  1  0.41061377  0.73954633  0.56927721  1
  Se  Se127  1  0.75420529  0.09015755  0.04908956  1
  Se  Se128  1  0.75107327  0.07587104  0.54712730  1
  Se  Se129  1  0.75598149  0.41946218  0.05292833  1
  Se  Se130  1  0.77131910  0.42633201  0.56082386  1
  Se  Se131  1  0.74690698  0.74843623  0.04578636  1
  Se  Se132  1  0.74916420  0.74365462  0.56044354  1
  Se  Se133  1  0.25865298  0.26267306  0.05161015  1
  Se  Se134  1  0.24462437  0.24998492  0.55184090  1
  Se  Se135  1  0.25008474  0.57994347  0.05325545  1
  Se  Se136  1  0.25109292  0.58106962  0.55728368  1
  Se  Se137  1  0.23342362  0.91079092  0.05471606  1
  Se  Se138  1  0.25851357  0.92018573  0.54730430  1
  Se  Se139  1  0.58771971  0.25551983  0.05288527  1
  Se  Se140  1  0.55405959  0.21994047  0.55382124  1
  Se  Se141  1  0.58141278  0.58051353  0.05068275  1
  Se  Se142  1  0.58222210  0.57943230  0.55630872  1
  Se  Se143  1  0.59147000  0.92743012  0.05859828  1
  Se  Se144  1  0.59725629  0.92416264  0.55199363  1
  Se  Se145  1  0.91742446  0.24737472  0.05579869  1
  Se  Se146  1  0.92152882  0.24756775  0.56195522  1
  Se  Se147  1  0.91667346  0.57995865  0.04720418  1
  Se  Se148  1  0.91739882  0.58609798  0.54957173  1
  Se  Se149  1  0.91280541  0.91499199  0.05061868  1
  Se  Se150  1  0.91733501  0.92847165  0.56741834  1
  Se  Se151  1  0.08360816  0.24841152  0.44841857  1
  Se  Se152  1  0.08472957  0.24495677  0.94625060  1
  Se  Se153  1  0.08769757  0.58285399  0.44883159  1
  Se  Se154  1  0.08486404  0.57902587  0.94316173  1
  Se  Se155  1  0.07847475  0.91781457  0.45380270  1
  Se  Se156  1  0.07994329  0.91490876  0.95104699  1
  Se  Se157  1  0.40435788  0.24969736  0.44326580  1
  Se  Se158  1  0.42059608  0.25529122  0.94592412  1
  Se  Se159  1  0.42031099  0.58014677  0.45088095  1
  Se  Se160  1  0.41684822  0.58391703  0.94508696  1
  Se  Se161  1  0.42148150  0.90995456  0.43573541  1
  Se  Se162  1  0.40911587  0.92524265  0.94360284  1
  Se  Se163  1  0.72697269  0.28462556  0.45019654  1
  Se  Se164  1  0.75282845  0.25297829  0.94408163  1
  Se  Se165  1  0.75995008  0.58108885  0.45160067  1
  Se  Se166  1  0.75054059  0.58167455  0.94292480  1
  Se  Se167  1  0.74928540  0.91770081  0.43801378  1
  Se  Se168  1  0.75440857  0.91680726  0.94628185  1
  Se  Se169  1  0.24657600  0.08090530  0.45102962  1
  Se  Se170  1  0.25867138  0.08028996  0.95749502  1
  Se  Se171  1  0.24406496  0.41792994  0.44591219  1
  Se  Se172  1  0.24848263  0.41874720  0.94228865  1
  Se  Se173  1  0.25136989  0.74798028  0.45214028  1
  Se  Se174  1  0.25284355  0.74917728  0.94551121  1
  Se  Se175  1  0.59255273  0.07678958  0.45163429  1
  Se  Se176  1  0.58639100  0.08795714  0.94359404  1
  Se  Se177  1  0.56559265  0.42413487  0.45388540  1
  Se  Se178  1  0.58455697  0.41816171  0.94703616  1
  Se  Se179  1  0.59480885  0.73908737  0.44286523  1
  Se  Se180  1  0.58572191  0.74452917  0.93394261  1
  Se  Se181  1  0.91096466  0.09036059  0.45198476  1
  Se  Se182  1  0.91565224  0.08709954  0.94521048  1
  Se  Se183  1  0.91996854  0.41621533  0.45052206  1
  Se  Se184  1  0.91533104  0.41411893  0.94411560  1
  Se  Se185  1  0.92729179  0.74549941  0.43274797  1
  Se  Se186  1  0.91759588  0.75022420  0.94316953  1
  Se  Se187  1  0.23030560  0.23261617  0.30615863  1
  Se  Se188  1  0.24578054  0.23954878  0.81284300  1
  Se  Se189  1  0.24276074  0.56747544  0.30816305  1
  Se  Se190  1  0.24894280  0.58800003  0.79923536  1
  Se  Se191  1  0.24359561  0.92420677  0.30631680  1
  Se  Se192  1  0.24108628  0.91931936  0.81693626  1
  Se  Se193  1  0.57420166  0.23838999  0.31202791  1
  Se  Se194  1  0.58531237  0.25265308  0.79831891  1
  Se  Se195  1  0.58906738  0.57474077  0.31262234  1
  Se  Se196  1  0.57488302  0.57034065  0.81397548  1
  Se  Se197  1  0.57520116  0.92012401  0.31545660  1
  Se  Se198  1  0.57177195  0.90942295  0.80508063  1
  Se  Se199  1  0.92143993  0.25327343  0.30833713  1
  Se  Se200  1  0.93088003  0.25902229  0.80248490  1
  Se  Se201  1  0.91898991  0.58146166  0.30919452  1
  Se  Se202  1  0.90654782  0.57683203  0.80641200  1
  Se  Se203  1  0.91396818  0.92132748  0.29933639  1
  Se  Se204  1  0.92083177  0.92604256  0.79814267  1
  Se  Se205  1  0.05567244  0.05805889  0.31635769  1
  Se  Se206  1  0.08643803  0.07861175  0.80994919  1
  Se  Se207  1  0.07854954  0.40838295  0.30584391  1
  Se  Se208  1  0.08431067  0.41742192  0.80274743  1
  Se  Se209  1  0.09130835  0.75414145  0.31110561  1
  Se  Se210  1  0.08719358  0.76004656  0.81610944  1
  Se  Se211  1  0.40836818  0.08437179  0.30299211  1
  Se  Se212  1  0.42130070  0.09160947  0.80741473  1
  Se  Se213  1  0.42217886  0.41673850  0.30750321  1
  Se  Se214  1  0.41829486  0.41830030  0.81378894  1
  Se  Se215  1  0.42203854  0.75884574  0.31404609  1
  Se  Se216  1  0.40687431  0.75129568  0.79595213  1
  Se  Se217  1  0.75380339  0.09857410  0.31389832  1
  Se  Se218  1  0.75898824  0.09315675  0.81288491  1
  Se  Se219  1  0.76637576  0.42438859  0.31513571  1
  Se  Se220  1  0.74968798  0.40747009  0.80020402  1
  Se  Se221  1  0.76386514  0.75930689  0.29611574  1
  Se  Se222  1  0.75979580  0.76280470  0.80317960  1
  Se  Se223  1  0.25763805  0.08385894  0.18618175  1
  Se  Se224  1  0.24682553  0.09144325  0.68896148  1
  Se  Se225  1  0.24570716  0.41559617  0.18921067  1
  Se  Se226  1  0.23745045  0.42040425  0.68712119  1
  Se  Se227  1  0.24161217  0.75800494  0.19332401  1
  Se  Se228  1  0.24411538  0.75260255  0.69838335  1
  Se  Se229  1  0.58263411  0.08854461  0.19140648  1
  Se  Se230  1  0.58082141  0.09180890  0.68830855  1
  Se  Se231  1  0.58331684  0.41726255  0.19284382  1
  Se  Se232  1  0.57795625  0.40789482  0.69339663  1
  Se  Se233  1  0.56902550  0.76546434  0.19499198  1
  Se  Se234  1  0.58351493  0.75282251  0.69164327  1
  Se  Se235  1  0.91681797  0.08499470  0.19831828  1
  Se  Se236  1  0.93285979  0.06637341  0.70620199  1
  Se  Se237  1  0.92563148  0.41062626  0.19515841  1
  Se  Se238  1  0.92098100  0.41419251  0.69777602  1
  Se  Se239  1  0.91632442  0.75651465  0.17767989  1
  Se  Se240  1  0.91239443  0.75908528  0.69449595  1
  Se  Se241  1  0.08500887  0.25011640  0.19859069  1
  Se  Se242  1  0.08205503  0.24928858  0.70229192  1
  Se  Se243  1  0.08899272  0.57328312  0.18867094  1
  Se  Se244  1  0.08188601  0.57709142  0.68608733  1
  Se  Se245  1  0.07630791  0.92093020  0.19610160  1
  Se  Se246  1  0.09132555  0.92242020  0.69529298  1
  Se  Se247  1  0.41877429  0.24130669  0.18705496  1
  Se  Se248  1  0.40979910  0.24230767  0.68938874  1
  Se  Se249  1  0.42369680  0.57882386  0.19485050  1
  Se  Se250  1  0.41362817  0.57904222  0.70262327  1
  Se  Se251  1  0.40751504  0.92964358  0.20033632  1
  Se  Se252  1  0.42581966  0.91850016  0.68372975  1
  Se  Se253  1  0.75428339  0.24796687  0.19448072  1
  Se  Se254  1  0.74644324  0.23562337  0.68618681  1
  Se  Se255  1  0.76321060  0.57320835  0.19100576  1
  Se  Se256  1  0.74912365  0.57597594  0.68844902  1
  Se  Se257  1  0.75457590  0.91749757  0.18103532  1
  Se  Se258  1  0.76036325  0.91872694  0.69180317  1
