# generated using pymatgen
data_In86Cu29Se144
_symmetry_space_group_name_H-M   'P 1'
_cell_length_a   17.57120958
_cell_length_b   17.57193740
_cell_length_c   23.43438080
_cell_angle_alpha   89.97321920
_cell_angle_beta   90.01508045
_cell_angle_gamma   90.02208170
_symmetry_Int_Tables_number   1
_chemical_formula_structural   In86Cu29Se144
_chemical_formula_sum   'In86 Cu29 Se144'
_cell_volume   7235.60240333
_cell_formula_units_Z   1
loop_
 _symmetry_equiv_pos_site_id
 _symmetry_equiv_pos_as_xyz
  1  'x, y, z'
loop_
 _atom_site_type_symbol
 _atom_site_label
 _atom_site_symmetry_multiplicity
 _atom_site_fract_x
 _atom_site_fract_y
 _atom_site_fract_z
 _atom_site_occupancy
  In  In0  1  -0.00447993  0.17795909  0.13656709  1
  In  In1  1  0.00007924  0.17601778  0.62234447  1
  In  In2  1  -0.00115359  0.49686470  0.12058001  1
  In  In3  1  -0.00997052  0.50920608  0.63513177  1
  In  In4  1  0.00478070  0.84094996  0.11812296  1
  In  In5  1  -0.01576027  0.83752770  0.62769705  1
  In  In6  1  0.33158629  0.17693242  0.13400129  1
  In  In7  1  0.31530747  0.16942935  0.62372891  1
  In  In8  1  0.32872079  0.50121322  0.12272348  1
  In  In9  1  0.33490018  0.49434825  0.62254904  1
  In  In10  1  0.32108825  0.82374010  0.11437789  1
  In  In11  1  0.35010430  0.83211937  0.62437852  1
  In  In12  1  0.66770092  0.15331328  0.12689529  1
  In  In13  1  0.67768076  0.16504230  0.63326289  1
  In  In14  1  0.67074081  0.50206908  0.11144686  1
  In  In15  1  0.68923226  0.47184498  0.65493917  1
  In  In16  1  0.67622490  0.84480595  0.11029103  1
  In  In17  1  0.67522114  0.82365826  0.63789171  1
  In  In18  1  0.16118402  0.02340171  0.36839367  1
  In  In19  1  0.16465459  -0.01471826  0.87928963  1
  In  In20  1  0.15470347  0.32167960  0.35876461  1
  In  In21  1  0.16527683  0.34690247  0.87892988  1
  In  In22  1  0.16506765  0.64552161  0.36260183  1
  In  In23  1  0.16005215  0.67037641  0.88126691  1
  In  In24  1  0.50149344  -0.01566932  0.36963444  1
  In  In25  1  0.50140838  -0.00194421  0.87334884  1
  In  In26  1  0.49767330  0.34264765  0.37513082  1
  In  In27  1  0.51209230  0.33512197  0.87226545  1
  In  In28  1  0.49749060  0.67095074  0.37115343  1
  In  In29  1  0.51554167  0.65579814  0.88091936  1
  In  In30  1  0.83784466  0.00387227  0.37321173  1
  In  In31  1  0.82297234  0.00925666  0.87928910  1
  In  In32  1  0.84280677  0.31489081  0.39437148  1
  In  In33  1  0.84013313  0.33308221  0.87456512  1
  In  In34  1  0.83993728  0.66754010  0.38556913  1
  In  In35  1  0.83358587  0.66375745  0.87693243  1
  In  In36  1  -0.00482243  0.17070538  0.37201082  1
  In  In37  1  -0.02339316  0.16929282  0.87326617  1
  In  In38  1  -0.00456519  0.48519673  0.37022728  1
  In  In39  1  -0.00165934  0.49726376  0.87723548  1
  In  In40  1  -0.01562866  0.83170144  0.37418762  1
  In  In41  1  0.00839334  0.82064093  0.88342222  1
  In  In42  1  0.31440585  0.17378944  0.37933620  1
  In  In43  1  0.34694897  0.16461228  0.87157182  1
  In  In44  1  0.30465603  0.47776330  0.34140341  1
  In  In45  1  0.33244367  0.49996559  0.88450137  1
  In  In46  1  0.33810705  0.82435759  0.36704786  1
  In  In47  1  0.32917383  0.84146990  0.88296507  1
  In  In48  1  0.69128025  0.16653363  0.37991901  1
  In  In49  1  0.69383909  0.18434477  0.85287979  1
  In  In50  1  0.67283178  0.50392801  0.38122363  1
  In  In51  1  0.66547838  0.50320439  0.87363427  1
  In  In52  1  0.66915080  0.84510389  0.37401039  1
  In  In53  1  0.66938220  0.83400214  0.87566906  1
  In  In54  1  0.16015195  -0.01834680  0.13216366  1
  In  In55  1  0.15593893  0.01733990  0.62536813  1
  In  In56  1  0.15097790  0.34799439  0.14359411  1
  In  In57  1  0.16334781  0.31511462  0.62071407  1
  In  In58  1  0.17710674  0.67757508  0.12361397  1
  In  In59  1  0.16554441  0.65147918  0.62666614  1
  In  In60  1  0.51387270  0.00537524  0.12234333  1
  In  In61  1  0.50779170  -0.00852697  0.63399518  1
  In  In62  1  0.49054677  0.33813739  0.12259270  1
  In  In63  1  0.51213016  0.34402841  0.62663400  1
  In  In64  1  0.49025979  0.65868713  0.11112346  1
  In  In65  1  0.50728782  0.67135215  0.62956699  1
  In  In66  1  0.83297796  0.00158295  0.12236869  1
  In  In67  1  0.82698081  -0.00472777  0.62303610  1
  In  In68  1  0.84451626  0.34121565  0.11928512  1
  In  In69  1  0.83000634  0.33780082  0.62734741  1
  In  In70  1  0.83352888  0.66510345  0.11400710  1
  In  In71  1  0.83174954  0.66448657  0.63151654  1
  In  In72  1  0.16163496  0.16427074  0.01004337  1
  In  In73  1  0.50303985  0.50350246  0.50142407  1
  In  In74  1  0.00695501  0.67500792  0.24026721  1
  In  In75  1  0.33088793  -0.00227357  0.24929841  1
  In  In76  1  0.50798440  0.16893419  -0.00302863  1
  In  In77  1  0.66553550  0.66996342  0.24109374  1
  In  In78  1  0.33451095  0.32944688  0.74718753  1
  In  In79  1  0.66889442  0.33150890  0.25768559  1
  In  In80  1  0.15848324  0.48590293  0.48270577  1
  In  In81  1  -0.00470134  0.00127749  0.75254226  1
  In  In82  1  0.50186547  0.16145579  0.50367828  1
  In  In83  1  0.15974794  0.83744879  0.49421945  1
  In  In84  1  0.50523119  0.82948554  0.49799884  1
  In  In85  1  0.33417174  0.66898086  0.75108512  1
  Cu  Cu86  1  0.33031588  0.34511542  0.00484554  1
  Cu  Cu87  1  0.67235946  0.33349990  -0.00864385  1
  Cu  Cu88  1  0.49996754  0.83159728  0.24141391  1
  Cu  Cu89  1  0.83616951  0.50025037  0.75643266  1
  Cu  Cu90  1  0.82588652  0.84337253  0.24782939  1
  Cu  Cu91  1  -0.00227121  0.65747020  0.00001382  1
  Cu  Cu92  1  -0.00354374  0.33697421  0.50052113  1
  Cu  Cu93  1  0.33199235  0.67028064  -0.00147672  1
  Cu  Cu94  1  -0.00578202  -0.00521191  -0.00128343  1
  Cu  Cu95  1  0.84278079  0.49258766  0.24856670  1
  Cu  Cu96  1  0.33158157  0.65184479  0.48666466  1
  Cu  Cu97  1  0.50405458  0.15810549  0.74832825  1
  Cu  Cu98  1  0.50128427  0.83451936  0.75624240  1
  Cu  Cu99  1  -0.00958316  0.66939669  0.50627461  1
  Cu  Cu100  1  0.32360621  0.00293075  0.50207595  1
  Cu  Cu101  1  0.67872653  0.66350074  0.50991374  1
  Cu  Cu102  1  0.66582130  0.66900152  -0.00659197  1
  Cu  Cu103  1  0.16419926  0.16225326  0.74823115  1
  Cu  Cu104  1  0.15541071  0.49724041  0.75319112  1
  Cu  Cu105  1  0.50167236  0.16089112  0.25100115  1
  Cu  Cu106  1  0.83600537  0.82874880  0.75583974  1
  Cu  Cu107  1  0.49622194  0.50140883  0.24180814  1
  Cu  Cu108  1  0.33369535  0.00160031  0.00214028  1
  Cu  Cu109  1  0.17079622  0.83408751  0.75757795  1
  Cu  Cu110  1  0.00034763  0.32989022  0.00287215  1
  Cu  Cu111  1  0.66998318  0.00496821  -0.00487827  1
  Cu  Cu112  1  0.67632975  0.00190135  0.49927431  1
  Cu  Cu113  1  -0.00712649  0.01377016  0.49983816  1
  Cu  Cu114  1  0.83408631  0.16507438  0.25168418  1
  Se  Se115  1  0.07059936  0.07248401  0.06560160  1
  Se  Se116  1  0.08175837  0.09403757  0.55050387  1
  Se  Se117  1  0.08645100  0.41097249  0.05607850  1
  Se  Se118  1  0.07672628  0.41669416  0.56233862  1
  Se  Se119  1  0.07778967  0.74311564  0.05565359  1
  Se  Se120  1  0.07996552  0.74461392  0.56184915  1
  Se  Se121  1  0.41054348  0.08699830  0.06047942  1
  Se  Se122  1  0.41174642  0.07027630  0.56447523  1
  Se  Se123  1  0.42120069  0.42678197  0.05195898  1
  Se  Se124  1  0.40964572  0.40390014  0.55388562  1
  Se  Se125  1  0.41817544  0.75688971  0.04745828  1
  Se  Se126  1  0.40958450  0.73138011  0.55022562  1
  Se  Se127  1  0.75174994  0.08723712  0.05150619  1
  Se  Se128  1  0.75209499  0.08750956  0.55556362  1
  Se  Se129  1  0.75513590  0.41428830  0.04920909  1
  Se  Se130  1  0.74701155  0.42611479  0.56193192  1
  Se  Se131  1  0.75169303  0.74989510  0.04721162  1
  Se  Se132  1  0.75550382  0.75478586  0.56068483  1
  Se  Se133  1  0.25221212  0.26106832  0.06228098  1
  Se  Se134  1  0.25111922  0.25177709  0.54785153  1
  Se  Se135  1  0.24926630  0.58726784  0.05353420  1
  Se  Se136  1  0.24989596  0.57747308  0.54905702  1
  Se  Se137  1  0.24467437  0.92170014  0.05277557  1
  Se  Se138  1  0.25079406  0.91710121  0.56358199  1
  Se  Se139  1  0.59508120  0.25957246  0.06066233  1
  Se  Se140  1  0.59099422  0.25252169  0.56100491  1
  Se  Se141  1  0.58359775  0.58264203  0.04635380  1
  Se  Se142  1  0.59363777  0.58496376  0.56569577  1
  Se  Se143  1  0.58196225  0.92355265  0.04590258  1
  Se  Se144  1  0.59558207  0.91770879  0.55814472  1
  Se  Se145  1  0.91862446  0.24407044  0.05547489  1
  Se  Se146  1  0.91288061  0.25567600  0.55558886  1
  Se  Se147  1  0.91229496  0.57329230  0.05069246  1
  Se  Se148  1  0.91184484  0.58189742  0.55889098  1
  Se  Se149  1  0.90904822  0.91231989  0.05246325  1
  Se  Se150  1  0.91795189  0.92224156  0.55277574  1
  Se  Se151  1  0.07749403  0.25829237  0.44047622  1
  Se  Se152  1  0.07801319  0.24921174  0.94046463  1
  Se  Se153  1  0.06738905  0.59277152  0.44001003  1
  Se  Se154  1  0.08495405  0.57753046  0.94680840  1
  Se  Se155  1  0.07060284  0.93118488  0.43778862  1
  Se  Se156  1  0.08414944  0.91155980  0.95252791  1
  Se  Se157  1  0.41476312  0.25228994  0.44211928  1
  Se  Se158  1  0.40913231  0.26261137  0.94446795  1
  Se  Se159  1  0.41235852  0.57384252  0.42855379  1
  Se  Se160  1  0.41699176  0.58679130  0.94710648  1
  Se  Se161  1  0.40381636  0.91996605  0.44429179  1
  Se  Se162  1  0.41945123  0.92319059  0.94755361  1
  Se  Se163  1  0.73903247  0.25564579  0.45758618  1
  Se  Se164  1  0.75447388  0.24595420  0.94206005  1
  Se  Se165  1  0.75677402  0.58144998  0.45074420  1
  Se  Se166  1  0.74990644  0.58060321  0.94556087  1
  Se  Se167  1  0.75617639  0.91716426  0.44380066  1
  Se  Se168  1  0.75273432  0.91488057  0.94691560  1
  Se  Se169  1  0.24127733  0.08541867  0.44948707  1
  Se  Se170  1  0.25553262  0.08409522  0.94211699  1
  Se  Se171  1  0.25837326  0.40209983  0.43136609  1
  Se  Se172  1  0.24253177  0.42430252  0.95253108  1
  Se  Se173  1  0.24916015  0.74034972  0.43668704  1
  Se  Se174  1  0.24589480  0.75367383  0.94721072  1
  Se  Se175  1  0.58724145  0.07083076  0.43825785  1
  Se  Se176  1  0.59731769  0.08919109  0.93157039  1
  Se  Se177  1  0.59464525  0.40728759  0.44574995  1
  Se  Se178  1  0.58370737  0.41777799  0.94557309  1
  Se  Se179  1  0.59919653  0.73668280  0.44188191  1
  Se  Se180  1  0.58106548  0.75652690  0.94573976  1
  Se  Se181  1  0.90927174  0.09428506  0.44404995  1
  Se  Se182  1  0.91359020  0.08311980  0.94907032  1
  Se  Se183  1  0.91354919  0.42381192  0.44926852  1
  Se  Se184  1  0.91792444  0.41391129  0.94828155  1
  Se  Se185  1  0.91251084  0.75904092  0.45415433  1
  Se  Se186  1  0.91589012  0.74526739  0.94887157  1
  Se  Se187  1  0.25564653  0.25044432  0.29806108  1
  Se  Se188  1  0.24249377  0.24366527  0.81180674  1
  Se  Se189  1  0.27063442  0.60473947  0.29419325  1
  Se  Se190  1  0.24365720  0.57588345  0.80893621  1
  Se  Se191  1  0.24093181  0.91340506  0.31370563  1
  Se  Se192  1  0.25394152  0.92020300  0.80564579  1
  Se  Se193  1  0.57987299  0.23772780  0.31676078  1
  Se  Se194  1  0.58088656  0.24905464  0.79950493  1
  Se  Se195  1  0.58092885  0.57489156  0.30428216  1
  Se  Se196  1  0.58191826  0.58130497  0.80202846  1
  Se  Se197  1  0.58462912  0.91069424  0.29698813  1
  Se  Se198  1  0.58818344  0.91871346  0.80534884  1
  Se  Se199  1  0.90815867  0.25718139  0.30589956  1
  Se  Se200  1  0.90887601  0.24837987  0.79831658  1
  Se  Se201  1  0.91427642  0.58588253  0.30536447  1
  Se  Se202  1  0.92095072  0.58469019  0.80778113  1
  Se  Se203  1  0.91561905  0.91895443  0.30142586  1
  Se  Se204  1  0.91541717  0.90873827  0.81730350  1
  Se  Se205  1  0.07422515  0.09222363  0.29820291  1
  Se  Se206  1  0.08781573  0.08800466  0.81583941  1
  Se  Se207  1  0.10999307  0.44686941  0.30884153  1
  Se  Se208  1  0.07629363  0.40973545  0.80518150  1
  Se  Se209  1  0.08837286  0.75730120  0.31230819  1
  Se  Se210  1  0.08532748  0.74855460  0.80471982  1
  Se  Se211  1  0.41853560  0.08686778  0.31431894  1
  Se  Se212  1  0.41767201  0.07812376  0.80102182  1
  Se  Se213  1  0.42201610  0.41052939  0.29560163  1
  Se  Se214  1  0.41657074  0.42154867  0.80992032  1
  Se  Se215  1  0.42069868  0.74704573  0.29581147  1
  Se  Se216  1  0.42017924  0.75435154  0.81611997  1
  Se  Se217  1  0.74875445  0.08053749  0.30220883  1
  Se  Se218  1  0.75492270  0.07506447  0.79600670  1
  Se  Se219  1  0.76195108  0.42150748  0.31394479  1
  Se  Se220  1  0.75152289  0.41721246  0.80911318  1
  Se  Se221  1  0.75645245  0.75170218  0.30820778  1
  Se  Se222  1  0.74968132  0.74658171  0.80780945  1
  Se  Se223  1  0.23905687  0.08736215  0.19149691  1
  Se  Se224  1  0.24989362  0.07979323  0.69769664  1
  Se  Se225  1  0.26744625  0.40559313  0.19391365  1
  Se  Se226  1  0.23733658  0.42070162  0.69040050  1
  Se  Se227  1  0.24534971  0.76461887  0.19671192  1
  Se  Se228  1  0.24381527  0.75772039  0.68749422  1
  Se  Se229  1  0.58743075  0.07865470  0.20145075  1
  Se  Se230  1  0.59180128  0.07725302  0.69744182  1
  Se  Se231  1  0.58726512  0.42281243  0.18924787  1
  Se  Se232  1  0.56690496  0.42654340  0.70599945  1
  Se  Se233  1  0.57926162  0.75613403  0.17729841  1
  Se  Se234  1  0.58310267  0.74810003  0.70414915  1
  Se  Se235  1  0.91364667  0.08167814  0.19522027  1
  Se  Se236  1  0.91127629  0.08897361  0.68886785  1
  Se  Se237  1  0.92654764  0.41148513  0.19589995  1
  Se  Se238  1  0.91641914  0.41569901  0.69999201  1
  Se  Se239  1  0.90163996  0.75709988  0.18845653  1
  Se  Se240  1  0.91900153  0.74808916  0.69969099  1
  Se  Se241  1  0.08713404  0.24599953  0.20596923  1
  Se  Se242  1  0.08199400  0.24910503  0.69847300  1
  Se  Se243  1  0.09344050  0.57833242  0.18667738  1
  Se  Se244  1  0.07962868  0.58914896  0.70209900  1
  Se  Se245  1  0.07380027  0.90750197  0.20087404  1
  Se  Se246  1  0.08960147  0.91113446  0.69261416  1
  Se  Se247  1  0.42670536  0.25039464  0.19818818  1
  Se  Se248  1  0.42495964  0.23921085  0.68577535  1
  Se  Se249  1  0.41589784  0.58687549  0.18964401  1
  Se  Se250  1  0.42054053  0.57539001  0.69142756  1
  Se  Se251  1  0.42034811  0.91538269  0.18317880  1
  Se  Se252  1  0.41626917  0.91419485  0.70060757  1
  Se  Se253  1  0.75528165  0.24788855  0.19002512  1
  Se  Se254  1  0.73751506  0.26782429  0.69758513  1
  Se  Se255  1  0.75975022  0.57251726  0.19052244  1
  Se  Se256  1  0.75121662  0.58733189  0.70593811  1
  Se  Se257  1  0.74257879  0.92177489  0.19091795  1
  Se  Se258  1  0.75651253  0.91488943  0.70054769  1
