# generated using pymatgen
data_In86Cu29Se144
_symmetry_space_group_name_H-M   'P 1'
_cell_length_a   17.57518687
_cell_length_b   17.57110630
_cell_length_c   23.44042475
_cell_angle_alpha   89.98367351
_cell_angle_beta   89.99298860
_cell_angle_gamma   89.98487670
_symmetry_Int_Tables_number   1
_chemical_formula_structural   In86Cu29Se144
_chemical_formula_sum   'In86 Cu29 Se144'
_cell_volume   7238.76534085
_cell_formula_units_Z   1
loop_
 _symmetry_equiv_pos_site_id
 _symmetry_equiv_pos_as_xyz
  1  'x, y, z'
loop_
 _atom_site_type_symbol
 _atom_site_label
 _atom_site_symmetry_multiplicity
 _atom_site_fract_x
 _atom_site_fract_y
 _atom_site_fract_z
 _atom_site_occupancy
  In  In0  1  0.00547831  0.16985277  0.12565037  1
  In  In1  1  0.00835385  0.17204316  0.62658160  1
  In  In2  1  -0.00480238  0.49913297  0.12689789  1
  In  In3  1  -0.00221962  0.49967749  0.62323904  1
  In  In4  1  -0.00362329  0.83852402  0.13825594  1
  In  In5  1  -0.00132622  0.82442683  0.61046034  1
  In  In6  1  0.32040498  0.16833522  0.12126809  1
  In  In7  1  0.33707485  0.18399028  0.63076269  1
  In  In8  1  0.32180409  0.49846144  0.10895317  1
  In  In9  1  0.33497124  0.50575624  0.62383706  1
  In  In10  1  0.34718495  0.82897766  0.12864120  1
  In  In11  1  0.31907898  0.80422345  0.59915426  1
  In  In12  1  0.67632413  0.16195179  0.12867140  1
  In  In13  1  0.65830352  0.16701379  0.62574289  1
  In  In14  1  0.66652920  0.49848458  0.12957090  1
  In  In15  1  0.67714266  0.51334154  0.62175421  1
  In  In16  1  0.66854426  0.82945778  0.13659291  1
  In  In17  1  0.63789044  0.80823999  0.59858669  1
  In  In18  1  0.15619070  -0.01400137  0.36377629  1
  In  In19  1  0.17169027  0.00627091  0.88079341  1
  In  In20  1  0.16166355  0.34516841  0.37605353  1
  In  In21  1  0.16392656  0.33737951  0.87361267  1
  In  In22  1  0.16210827  0.67126146  0.38248362  1
  In  In23  1  0.17553085  0.65271056  0.87628494  1
  In  In24  1  0.49569848  -0.00680117  0.36759055  1
  In  In25  1  0.49935918  -0.00602138  0.87727463  1
  In  In26  1  0.50717328  0.33832104  0.37386992  1
  In  In27  1  0.50536169  0.36491669  0.86970729  1
  In  In28  1  0.50694976  0.65663944  0.38731482  1
  In  In29  1  0.46891656  0.61507390  0.81737343  1
  In  In30  1  0.82700371  -0.00741571  0.36364973  1
  In  In31  1  0.83970264  0.01807851  0.88212923  1
  In  In32  1  0.83527449  0.34122107  0.36847082  1
  In  In33  1  0.83646771  0.33395140  0.88863079  1
  In  In34  1  0.83367476  0.66456711  0.37301897  1
  In  In35  1  0.81649511  0.66469105  0.87132952  1
  In  In36  1  0.00097708  0.16692675  0.36330411  1
  In  In37  1  -0.01896979  0.18505865  0.89474681  1
  In  In38  1  -0.00449208  0.49645367  0.37236834  1
  In  In39  1  0.01848164  0.48530494  0.88384987  1
  In  In40  1  -0.00028752  0.82530608  0.37249917  1
  In  In41  1  -0.00029874  0.83988389  0.87412521  1
  In  In42  1  0.35013052  0.16375666  0.37298219  1
  In  In43  1  0.31948525  0.16742617  0.87874928  1
  In  In44  1  0.32322667  0.51536995  0.39607989  1
  In  In45  1  0.32906730  0.49726134  0.86511440  1
  In  In46  1  0.32760164  0.83424112  0.38644093  1
  In  In47  1  0.34651668  0.82175482  0.87170094  1
  In  In48  1  0.67200360  0.17346053  0.36284773  1
  In  In49  1  0.67059545  0.19620400  0.88680293  1
  In  In50  1  0.66529607  0.50381309  0.37297676  1
  In  In51  1  0.65505795  0.50546950  0.89233695  1
  In  In52  1  0.67149084  0.83226556  0.37375901  1
  In  In53  1  0.66555087  0.81800215  0.87441902  1
  In  In54  1  0.15975983  0.00923096  0.13614191  1
  In  In55  1  0.17680667  -0.01085816  0.62344629  1
  In  In56  1  0.15925381  0.32558792  0.11770371  1
  In  In57  1  0.15506892  0.35320770  0.64274085  1
  In  In58  1  0.15935850  0.65065257  0.12174130  1
  In  In59  1  0.16730918  0.66116342  0.61945025  1
  In  In60  1  0.50745882  -0.00740355  0.13529536  1
  In  In61  1  0.50321831  0.00031599  0.62324169  1
  In  In62  1  0.49955185  0.35194693  0.12094790  1
  In  In63  1  0.45879059  0.35793552  0.65274201  1
  In  In64  1  0.50443981  0.66035230  0.12769927  1
  In  In65  1  0.49865176  0.66317677  0.62373488  1
  In  In66  1  0.83475762  0.00329408  0.13074798  1
  In  In67  1  0.84349941  -0.00624647  0.62074683  1
  In  In68  1  0.83146938  0.34007337  0.12560977  1
  In  In69  1  0.82804467  0.35060206  0.62686966  1
  In  In70  1  0.83401272  0.66090995  0.13267955  1
  In  In71  1  0.83028040  0.66277754  0.61624233  1
  In  In72  1  0.33076798  0.66821321  0.25705008  1
  In  In73  1  -0.00283970  0.00235450  0.75664402  1
  In  In74  1  0.16843578  0.15876837  0.50164532  1
  In  In75  1  0.16525089  0.83312483  -0.00484629  1
  In  In76  1  0.83238281  0.16811397  0.48882455  1
  In  In77  1  0.50412819  0.17180276  0.50729560  1
  In  In78  1  0.33189479  -0.00068497  0.74922713  1
  In  In79  1  0.49996042  0.17309599  0.00148062  1
  In  In80  1  0.00349865  0.65686751  0.74439438  1
  In  In81  1  0.66534404  0.34208690  0.75658293  1
  In  In82  1  0.50177352  0.81893272  0.00420084  1
  In  In83  1  0.82999673  0.83410316  0.01094701  1
  In  In84  1  0.33786637  0.33305349  0.24975093  1
  In  In85  1  0.66751117  -0.00258518  0.74612545  1
  Cu  Cu86  1  0.83427708  0.17657924  0.76065365  1
  Cu  Cu87  1  0.82763956  0.50123903  0.25037742  1
  Cu  Cu88  1  0.00358165  0.34043752  0.00644929  1
  Cu  Cu89  1  0.33078875  0.34381273  0.50844471  1
  Cu  Cu90  1  0.33019661  -0.00573054  0.49627462  1
  Cu  Cu91  1  0.67332765  0.66695722  0.49561678  1
  Cu  Cu92  1  0.65598699  0.65366748  -0.00150777  1
  Cu  Cu93  1  0.16081899  0.17850809  0.75474914  1
  Cu  Cu94  1  0.84254419  0.49687841  0.75150314  1
  Cu  Cu95  1  0.67370284  0.00265060  0.00279659  1
  Cu  Cu96  1  0.16743274  0.82715824  0.74398879  1
  Cu  Cu97  1  0.49608533  0.50275253  0.25397109  1
  Cu  Cu98  1  0.83854543  0.17269111  0.24371937  1
  Cu  Cu99  1  0.83571776  0.82978880  0.25275681  1
  Cu  Cu100  1  0.81931988  0.83047172  0.74435206  1
  Cu  Cu101  1  0.49921223  0.82860710  0.73415747  1
  Cu  Cu102  1  0.33475400  0.34162549  -0.00740121  1
  Cu  Cu103  1  0.66956411  0.00222575  0.48881745  1
  Cu  Cu104  1  0.65827138  0.34970621  0.50256485  1
  Cu  Cu105  1  0.00070157  -0.01648074  0.49180800  1
  Cu  Cu106  1  0.50553726  0.16504487  0.24702144  1
  Cu  Cu107  1  0.17093351  0.82990736  0.25573240  1
  Cu  Cu108  1  0.15736008  0.49478971  0.24771776  1
  Cu  Cu109  1  -0.00058023  0.65909449  0.49484537  1
  Cu  Cu110  1  0.50316993  0.83357379  0.25495787  1
  Cu  Cu111  1  0.17056041  0.16597342  0.24696811  1
  Cu  Cu112  1  -0.00155841  0.33751878  0.50177936  1
  Cu  Cu113  1  -0.00709536  0.66762880  0.00168582  1
  Cu  Cu114  1  0.32647412  -0.00020473  0.00758505  1
  Se  Se115  1  0.10060150  0.09519245  0.06033351  1
  Se  Se116  1  0.07202564  0.06573089  0.55854070  1
  Se  Se117  1  0.08773966  0.42649775  0.05698373  1
  Se  Se118  1  0.08517040  0.41508399  0.55667016  1
  Se  Se119  1  0.07198538  0.75151455  0.06011023  1
  Se  Se120  1  0.08549641  0.74248555  0.54766372  1
  Se  Se121  1  0.41829174  0.07345532  0.06298900  1
  Se  Se122  1  0.40133938  0.08036053  0.55906980  1
  Se  Se123  1  0.41880671  0.42403693  0.04623207  1
  Se  Se124  1  0.42455888  0.42081963  0.55647603  1
  Se  Se125  1  0.40481319  0.72916684  0.05727591  1
  Se  Se126  1  0.45051279  0.77442608  0.55856835  1
  Se  Se127  1  0.75704117  0.08280019  0.05622336  1
  Se  Se128  1  0.74379781  0.08086986  0.55578514  1
  Se  Se129  1  0.75959967  0.43331040  0.05870708  1
  Se  Se130  1  0.75392321  0.42548602  0.55061038  1
  Se  Se131  1  0.73339283  0.73824973  0.05946385  1
  Se  Se132  1  0.75723591  0.75376397  0.54710927  1
  Se  Se133  1  0.25541697  0.25771232  0.04890062  1
  Se  Se134  1  0.24644409  0.25792560  0.56136131  1
  Se  Se135  1  0.24524279  0.59030002  0.04641503  1
  Se  Se136  1  0.25587275  0.58473544  0.55187527  1
  Se  Se137  1  0.25239633  0.91404260  0.06575276  1
  Se  Se138  1  0.24255771  0.91046668  0.54514703  1
  Se  Se139  1  0.59049873  0.25619988  0.06388294  1
  Se  Se140  1  0.58467245  0.26929607  0.56636007  1
  Se  Se141  1  0.57616094  0.57346224  0.05685998  1
  Se  Se142  1  0.58880700  0.58835860  0.55290069  1
  Se  Se143  1  0.59351516  0.91769067  0.05810128  1
  Se  Se144  1  0.58402691  0.92907618  0.54806229  1
  Se  Se145  1  0.92163007  0.25696917  0.06066025  1
  Se  Se146  1  0.91756927  0.25331367  0.55897703  1
  Se  Se147  1  0.91281301  0.58601714  0.05778684  1
  Se  Se148  1  0.91683946  0.57888980  0.55195245  1
  Se  Se149  1  0.92776271  0.92400274  0.06069772  1
  Se  Se150  1  0.91124545  0.90917286  0.54665676  1
  Se  Se151  1  0.07557924  0.25041985  0.44339267  1
  Se  Se152  1  0.08631228  0.25776558  0.94956061  1
  Se  Se153  1  0.08206360  0.57474199  0.44230849  1
  Se  Se154  1  0.08131163  0.59032128  0.94764007  1
  Se  Se155  1  0.08993193  0.90447960  0.44178309  1
  Se  Se156  1  0.07048949  0.93075674  0.94567182  1
  Se  Se157  1  0.40908400  0.26176136  0.44717091  1
  Se  Se158  1  0.41563871  0.25839545  0.93509228  1
  Se  Se159  1  0.41647602  0.58924827  0.45776768  1
  Se  Se160  1  0.42824095  0.58127860  0.92005176  1
  Se  Se161  1  0.42284115  0.91850073  0.44559440  1
  Se  Se162  1  0.40842037  0.91957744  0.94865788  1
  Se  Se163  1  0.73508664  0.26420214  0.44205117  1
  Se  Se164  1  0.77255243  0.23526845  0.95706017  1
  Se  Se165  1  0.75313014  0.58000590  0.44282504  1
  Se  Se166  1  0.75595430  0.58282082  0.95137808  1
  Se  Se167  1  0.75623143  0.91703199  0.44249505  1
  Se  Se168  1  0.74418635  0.91747344  0.93867471  1
  Se  Se169  1  0.25536451  0.07600893  0.43368204  1
  Se  Se170  1  0.24774557  0.08634882  0.95450464  1
  Se  Se171  1  0.24206755  0.41619106  0.45162840  1
  Se  Se172  1  0.24877849  0.42241139  0.94068456  1
  Se  Se173  1  0.26573889  0.72947867  0.44716968  1
  Se  Se174  1  0.26196569  0.74342554  0.94307403  1
  Se  Se175  1  0.58741230  0.08819251  0.43518775  1
  Se  Se176  1  0.59131303  0.07846511  0.94120348  1
  Se  Se177  1  0.57605940  0.42740303  0.44455680  1
  Se  Se178  1  0.60502467  0.38774556  0.94692147  1
  Se  Se179  1  0.58883326  0.75339825  0.44537579  1
  Se  Se180  1  0.57822108  0.73132621  0.93588311  1
  Se  Se181  1  0.92667325  0.07451146  0.43604574  1
  Se  Se182  1  0.92506719  0.07766476  0.95686817  1
  Se  Se183  1  0.91342288  0.41437200  0.44508464  1
  Se  Se184  1  0.91970616  0.42354213  0.95221037  1
  Se  Se185  1  0.91689733  0.74588015  0.44341854  1
  Se  Se186  1  0.91583142  0.74890173  0.93990693  1
  Se  Se187  1  0.24643708  0.24442282  0.31286545  1
  Se  Se188  1  0.25194282  0.25432969  0.80550332  1
  Se  Se189  1  0.23979466  0.57100721  0.30954434  1
  Se  Se190  1  0.25268776  0.59057532  0.79756352  1
  Se  Se191  1  0.25952318  0.91166052  0.30605897  1
  Se  Se192  1  0.24143831  0.90650044  0.81047494  1
  Se  Se193  1  0.58013693  0.25527702  0.30053486  1
  Se  Se194  1  0.57492599  0.24690447  0.81169841  1
  Se  Se195  1  0.57889536  0.58813831  0.30512364  1
  Se  Se196  1  0.61098411  0.58133515  0.80467184  1
  Se  Se197  1  0.59079091  0.91853054  0.30364308  1
  Se  Se198  1  0.57241794  0.90349892  0.80351211  1
  Se  Se199  1  0.91784656  0.25546928  0.30150274  1
  Se  Se200  1  0.91782966  0.25886648  0.81192297  1
  Se  Se201  1  0.91507751  0.58127093  0.30307706  1
  Se  Se202  1  0.91745768  0.57872668  0.81530188  1
  Se  Se203  1  0.92293191  0.91415890  0.30273800  1
  Se  Se204  1  0.89502114  0.91066153  0.80836317  1
  Se  Se205  1  0.08462237  0.08182535  0.29842203  1
  Se  Se206  1  0.08574084  0.09316417  0.81496868  1
  Se  Se207  1  0.07611877  0.41015207  0.30110964  1
  Se  Se208  1  0.08769038  0.42070851  0.80120238  1
  Se  Se209  1  0.08651896  0.74324928  0.30434203  1
  Se  Se210  1  0.08683190  0.75369120  0.80818253  1
  Se  Se211  1  0.41941821  0.08230287  0.29800848  1
  Se  Se212  1  0.41885707  0.08609195  0.81380308  1
  Se  Se213  1  0.41043326  0.42994247  0.31599921  1
  Se  Se214  1  0.41355386  0.41381101  0.79446707  1
  Se  Se215  1  0.42427007  0.75340155  0.31618447  1
  Se  Se216  1  0.41377388  0.75109192  0.79045528  1
  Se  Se217  1  0.75482703  0.08789478  0.29811419  1
  Se  Se218  1  0.74788554  0.09326300  0.81221816  1
  Se  Se219  1  0.74267467  0.41663726  0.30248371  1
  Se  Se220  1  0.76026805  0.42486776  0.81611724  1
  Se  Se221  1  0.74997941  0.74703630  0.30368687  1
  Se  Se222  1  0.74024811  0.74385664  0.79665759  1
  Se  Se223  1  0.25930044  0.08316023  0.19898909  1
  Se  Se224  1  0.23657514  0.09394330  0.69261925  1
  Se  Se225  1  0.24544233  0.41982634  0.18922557  1
  Se  Se226  1  0.28155055  0.39427921  0.68767757  1
  Se  Se227  1  0.24247825  0.75080700  0.18862774  1
  Se  Se228  1  0.24922948  0.74846454  0.68729076  1
  Se  Se229  1  0.59142843  0.08042247  0.19731767  1
  Se  Se230  1  0.56968154  0.09275282  0.69871714  1
  Se  Se231  1  0.57792482  0.41898763  0.19984134  1
  Se  Se232  1  0.58378808  0.42968568  0.69014228  1
  Se  Se233  1  0.57812908  0.74657904  0.19827591  1
  Se  Se234  1  0.59118669  0.74491972  0.69102374  1
  Se  Se235  1  0.92282183  0.08546941  0.19565959  1
  Se  Se236  1  0.90702408  0.09383596  0.69461628  1
  Se  Se237  1  0.91442050  0.41874808  0.19879936  1
  Se  Se238  1  0.92258681  0.41381159  0.69672095  1
  Se  Se239  1  0.91803046  0.74511315  0.19976663  1
  Se  Se240  1  0.91447802  0.75728543  0.69046378  1
  Se  Se241  1  0.08753944  0.25340973  0.19748983  1
  Se  Se242  1  0.07307781  0.25665332  0.70183839  1
  Se  Se243  1  0.07713587  0.58433728  0.19807368  1
  Se  Se244  1  0.09927143  0.56614506  0.69307161  1
  Se  Se245  1  0.08727671  0.91624332  0.20319374  1
  Se  Se246  1  0.08186001  0.91030596  0.69040360  1
  Se  Se247  1  0.42487732  0.24428481  0.18526239  1
  Se  Se248  1  0.43256240  0.23172037  0.70432543  1
  Se  Se249  1  0.40882503  0.57292001  0.19137447  1
  Se  Se250  1  0.41722781  0.58674453  0.69667784  1
  Se  Se251  1  0.41741805  0.91413266  0.20118182  1
  Se  Se252  1  0.41194123  0.91083680  0.68197441  1
  Se  Se253  1  0.74942912  0.25488921  0.19578441  1
  Se  Se254  1  0.75372339  0.24629037  0.69334950  1
  Se  Se255  1  0.74214666  0.58711238  0.20014226  1
  Se  Se256  1  0.76473818  0.58256806  0.69570727  1
  Se  Se257  1  0.75456043  0.91559415  0.19803698  1
  Se  Se258  1  0.74762773  0.90983208  0.67949224  1
