# generated using pymatgen
data_In86Cu29Se144
_symmetry_space_group_name_H-M   'P 1'
_cell_length_a   17.57948075
_cell_length_b   17.57524697
_cell_length_c   23.43626845
_cell_angle_alpha   90.02828552
_cell_angle_beta   90.02662420
_cell_angle_gamma   89.98577889
_symmetry_Int_Tables_number   1
_chemical_formula_structural   In86Cu29Se144
_chemical_formula_sum   'In86 Cu29 Se144'
_cell_volume   7240.95469997
_cell_formula_units_Z   1
loop_
 _symmetry_equiv_pos_site_id
 _symmetry_equiv_pos_as_xyz
  1  'x, y, z'
loop_
 _atom_site_type_symbol
 _atom_site_label
 _atom_site_symmetry_multiplicity
 _atom_site_fract_x
 _atom_site_fract_y
 _atom_site_fract_z
 _atom_site_occupancy
  In  In0  1  0.00398747  0.17862233  0.14140751  1
  In  In1  1  0.01028785  0.17630927  0.61408770  1
  In  In2  1  -0.01003219  0.49078258  0.12069221  1
  In  In3  1  -0.00120547  0.49697133  0.62585458  1
  In  In4  1  0.00331296  0.83884660  0.12038294  1
  In  In5  1  -0.01173598  0.82939208  0.62903626  1
  In  In6  1  0.33345009  0.16413496  0.13273956  1
  In  In7  1  0.32276886  0.17692084  0.63028897  1
  In  In8  1  0.32909594  0.50795559  0.13056474  1
  In  In9  1  0.32015848  0.49819423  0.62440114  1
  In  In10  1  0.32455599  0.84101994  0.13128777  1
  In  In11  1  0.34367511  0.83106176  0.61983329  1
  In  In12  1  0.66372391  0.16969411  0.12349279  1
  In  In13  1  0.66945725  0.15655216  0.61871046  1
  In  In14  1  0.66979248  0.48502449  0.11820765  1
  In  In15  1  0.67474724  0.48856141  0.62174245  1
  In  In16  1  0.68380813  0.83215859  0.12233677  1
  In  In17  1  0.66223069  0.84610513  0.62262884  1
  In  In18  1  0.17361736  0.01504672  0.35956549  1
  In  In19  1  0.16755320  -0.01188065  0.87656426  1
  In  In20  1  0.16180599  0.33487197  0.37167215  1
  In  In21  1  0.18003056  0.34452181  0.87421174  1
  In  In22  1  0.16364907  0.64810544  0.37880202  1
  In  In23  1  0.16016824  0.66973362  0.87934242  1
  In  In24  1  0.49413543  -0.00348475  0.36641804  1
  In  In25  1  0.50113778  0.01370949  0.87709227  1
  In  In26  1  0.49351042  0.32517205  0.36390292  1
  In  In27  1  0.47963119  0.33790219  0.88312640  1
  In  In28  1  0.50576852  0.68354618  0.37759655  1
  In  In29  1  0.50248225  0.65991909  0.87471722  1
  In  In30  1  0.85062874  0.01259224  0.35879701  1
  In  In31  1  0.82609292  0.01064301  0.88604030  1
  In  In32  1  0.83715052  0.33298971  0.37201740  1
  In  In33  1  0.84192879  0.32118508  0.88443901  1
  In  In34  1  0.82974856  0.65290588  0.38303475  1
  In  In35  1  0.85318230  0.64473346  0.89145071  1
  In  In36  1  0.00189219  0.16900645  0.37062880  1
  In  In37  1  -0.01222719  0.17097708  0.87839298  1
  In  In38  1  0.01427466  0.49503929  0.38735609  1
  In  In39  1  0.00644808  0.49677330  0.87564588  1
  In  In40  1  -0.00989777  0.83770415  0.37357509  1
  In  In41  1  0.01137351  0.82514103  0.88108303  1
  In  In42  1  0.31895910  0.16549891  0.36032876  1
  In  In43  1  0.33990336  0.17543528  0.87496105  1
  In  In44  1  0.32282644  0.48645530  0.36593871  1
  In  In45  1  0.33194706  0.47343763  0.87837425  1
  In  In46  1  0.34128501  0.84512882  0.36855252  1
  In  In47  1  0.31755169  0.82950008  0.87431594  1
  In  In48  1  0.68140415  0.17877435  0.36272575  1
  In  In49  1  0.66009518  0.17795231  0.89727248  1
  In  In50  1  0.68126715  0.50053228  0.37420246  1
  In  In51  1  0.67104945  0.50432165  0.87966513  1
  In  In52  1  0.65665573  0.83087208  0.37333954  1
  In  In53  1  0.66742864  0.84323379  0.88206937  1
  In  In54  1  0.17351998  -0.00173966  0.13571429  1
  In  In55  1  0.16332802  0.01892206  0.62207754  1
  In  In56  1  0.16138574  0.33317491  0.13322748  1
  In  In57  1  0.16162167  0.33186443  0.62569337  1
  In  In58  1  0.17151772  0.67399610  0.12140456  1
  In  In59  1  0.16035872  0.64949592  0.61833596  1
  In  In60  1  0.48937325  0.01394644  0.13235208  1
  In  In61  1  0.49931543  -0.00962316  0.62101043  1
  In  In62  1  0.51054653  0.32305196  0.12605645  1
  In  In63  1  0.49569841  0.32645143  0.62853763  1
  In  In64  1  0.49370684  0.65387069  0.12744358  1
  In  In65  1  0.48709770  0.66860104  0.62096417  1
  In  In66  1  0.83451174  0.00195578  0.12772225  1
  In  In67  1  0.82550775  0.00136033  0.62021019  1
  In  In68  1  0.83355421  0.33158918  0.12308171  1
  In  In69  1  0.84567420  0.34580850  0.61642174  1
  In  In70  1  0.82541900  0.66299865  0.10951643  1
  In  In71  1  0.85093323  0.66224827  0.63020583  1
  In  In72  1  0.16730615  0.83387681  0.50265111  1
  In  In73  1  -0.00053006  0.00515961  0.75025185  1
  In  In74  1  0.66475922  0.66418492  0.25043930  1
  In  In75  1  0.16421400  0.16838157  0.01249258  1
  In  In76  1  0.66856721  0.66642562  0.76045163  1
  In  In77  1  0.66488940  0.33045485  0.75316838  1
  In  In78  1  0.49793499  0.83498099  -0.00285070  1
  In  In79  1  0.50545949  0.49577130  0.00074799  1
  In  In80  1  0.66624838  0.00512169  0.75120674  1
  In  In81  1  0.50025549  0.16637686  0.49045953  1
  In  In82  1  0.32493192  0.66127012  0.74327989  1
  In  In83  1  -0.00035584  0.66811308  0.25327131  1
  In  In84  1  0.50327597  0.50564775  0.49877807  1
  In  In85  1  0.82807782  0.82949060  0.49710301  1
  Cu  Cu86  1  0.31872132  0.33666584  0.49805108  1
  Cu  Cu87  1  0.00188552  0.00713995  0.49083824  1
  Cu  Cu88  1  0.16594617  0.83302929  0.75296259  1
  Cu  Cu89  1  -0.00266203  0.33263131  0.49664365  1
  Cu  Cu90  1  0.16780700  0.17184767  0.74948100  1
  Cu  Cu91  1  0.67346146  0.33542930  0.49234703  1
  Cu  Cu92  1  0.84354146  0.49763189  0.75307826  1
  Cu  Cu93  1  0.83428927  0.17383607  0.75061243  1
  Cu  Cu94  1  0.83125499  0.16947521  0.24610634  1
  Cu  Cu95  1  0.00271738  0.33462573  0.00380386  1
  Cu  Cu96  1  0.84227159  0.82861485  0.75984776  1
  Cu  Cu97  1  0.67130097  0.00055184  0.49326872  1
  Cu  Cu98  1  0.83634855  0.48843326  0.24777268  1
  Cu  Cu99  1  0.83353032  0.83374173  0.24520802  1
  Cu  Cu100  1  0.49849835  0.83624369  0.24875863  1
  Cu  Cu101  1  0.16182667  0.49885055  0.25079103  1
  Cu  Cu102  1  0.33559979  0.66865317  0.49673768  1
  Cu  Cu103  1  0.33689877  0.00594736  0.48906696  1
  Cu  Cu104  1  0.66731487  -0.00001423  0.00881542  1
  Cu  Cu105  1  0.32589004  0.66535218  0.00105599  1
  Cu  Cu106  1  -0.00559781  -0.00166954  0.00281758  1
  Cu  Cu107  1  0.00425422  0.66558596  0.00115474  1
  Cu  Cu108  1  0.49143868  0.83297411  0.74429887  1
  Cu  Cu109  1  0.16282092  0.49556287  0.74911616  1
  Cu  Cu110  1  0.17254904  0.83091236  0.24768501  1
  Cu  Cu111  1  0.48668658  0.16950104  0.75447863  1
  Cu  Cu112  1  0.50589498  0.16577292  0.24834976  1
  Cu  Cu113  1  0.32864056  0.00341897  0.00854147  1
  Cu  Cu114  1  0.49670085  0.49527531  0.24628594  1
  Se  Se115  1  0.07337146  0.07470728  0.06734593  1
  Se  Se116  1  0.08689708  0.08889180  0.54439060  1
  Se  Se117  1  0.08687786  0.41485500  0.05836924  1
  Se  Se118  1  0.07987817  0.41323707  0.55532999  1
  Se  Se119  1  0.08481465  0.75263055  0.05357894  1
  Se  Se120  1  0.07206027  0.74585394  0.55861644  1
  Se  Se121  1  0.41361632  0.08892625  0.05585682  1
  Se  Se122  1  0.41209297  0.08366126  0.55744062  1
  Se  Se123  1  0.41613464  0.41589827  0.06576787  1
  Se  Se124  1  0.41120659  0.40904067  0.55516992  1
  Se  Se125  1  0.40974053  0.74462044  0.05939310  1
  Se  Se126  1  0.42100538  0.75376367  0.54537340  1
  Se  Se127  1  0.75244592  0.08483293  0.05825709  1
  Se  Se128  1  0.75382504  0.08435031  0.54608383  1
  Se  Se129  1  0.76829142  0.42544832  0.05177441  1
  Se  Se130  1  0.75520066  0.41902067  0.54643994  1
  Se  Se131  1  0.74807818  0.75263242  0.04503327  1
  Se  Se132  1  0.74872822  0.74702432  0.56923812  1
  Se  Se133  1  0.25919901  0.26020095  0.06298495  1
  Se  Se134  1  0.24378991  0.24856377  0.55414673  1
  Se  Se135  1  0.24659479  0.58010873  0.05528533  1
  Se  Se136  1  0.25403856  0.58307491  0.54862688  1
  Se  Se137  1  0.24475772  0.91783215  0.05747733  1
  Se  Se138  1  0.25909514  0.93029727  0.55700227  1
  Se  Se139  1  0.59095915  0.25414630  0.04999376  1
  Se  Se140  1  0.59075332  0.25792271  0.55390541  1
  Se  Se141  1  0.59303515  0.59198656  0.05845965  1
  Se  Se142  1  0.59162737  0.59067253  0.56342892  1
  Se  Se143  1  0.58111189  0.92063376  0.06527527  1
  Se  Se144  1  0.58509539  0.92097994  0.54693466  1
  Se  Se145  1  0.92814240  0.24764910  0.06134832  1
  Se  Se146  1  0.91299368  0.24774867  0.54981506  1
  Se  Se147  1  0.91861635  0.58042137  0.05027540  1
  Se  Se148  1  0.91154955  0.57472100  0.55678090  1
  Se  Se149  1  0.91017656  0.91442474  0.05539791  1
  Se  Se150  1  0.92509721  0.92534570  0.55338804  1
  Se  Se151  1  0.08201709  0.25103171  0.44231961  1
  Se  Se152  1  0.08238783  0.25430753  0.94213047  1
  Se  Se153  1  0.08078715  0.58885951  0.45600179  1
  Se  Se154  1  0.08651565  0.57991540  0.94774787  1
  Se  Se155  1  0.08353617  0.92242630  0.43643013  1
  Se  Se156  1  0.08226655  0.91869065  0.94972651  1
  Se  Se157  1  0.40177203  0.25643876  0.43913626  1
  Se  Se158  1  0.42029910  0.24159502  0.95188008  1
  Se  Se159  1  0.41064694  0.58582885  0.43344293  1
  Se  Se160  1  0.40736218  0.58619820  0.94158665  1
  Se  Se161  1  0.42241523  0.91799883  0.44458529  1
  Se  Se162  1  0.40377520  0.92499926  0.94073034  1
  Se  Se163  1  0.75545833  0.24786966  0.44282562  1
  Se  Se164  1  0.76270015  0.24325710  0.95599006  1
  Se  Se165  1  0.73267039  0.59210822  0.45005475  1
  Se  Se166  1  0.74640946  0.58419376  0.95062396  1
  Se  Se167  1  0.75335801  0.92447874  0.43089071  1
  Se  Se168  1  0.74988158  0.91964670  0.95256717  1
  Se  Se169  1  0.24951421  0.08652486  0.43893613  1
  Se  Se170  1  0.24959447  0.08095523  0.94360531  1
  Se  Se171  1  0.24007316  0.42204588  0.44374014  1
  Se  Se172  1  0.24933744  0.41394986  0.95609829  1
  Se  Se173  1  0.25570338  0.74972332  0.43638712  1
  Se  Se174  1  0.24399924  0.75235263  0.94923850  1
  Se  Se175  1  0.59347342  0.08094409  0.43094510  1
  Se  Se176  1  0.58031633  0.07968007  0.95492964  1
  Se  Se177  1  0.58256646  0.40767021  0.43610383  1
  Se  Se178  1  0.59372529  0.40350541  0.94103873  1
  Se  Se179  1  0.59686215  0.74512079  0.44954773  1
  Se  Se180  1  0.58965969  0.73984390  0.94309691  1
  Se  Se181  1  0.91376706  0.08816178  0.44098560  1
  Se  Se182  1  0.91579458  0.08836275  0.95223156  1
  Se  Se183  1  0.91376870  0.41758363  0.44434853  1
  Se  Se184  1  0.92193590  0.41588089  0.94549994  1
  Se  Se185  1  0.92621084  0.73958077  0.44389006  1
  Se  Se186  1  0.91995165  0.75226361  0.94911261  1
  Se  Se187  1  0.24680517  0.26194815  0.29815863  1
  Se  Se188  1  0.25189435  0.25126238  0.80595950  1
  Se  Se189  1  0.24678033  0.58304982  0.30208072  1
  Se  Se190  1  0.24421030  0.57535942  0.81154104  1
  Se  Se191  1  0.25389844  0.91958375  0.29916782  1
  Se  Se192  1  0.25110046  0.91795406  0.80062611  1
  Se  Se193  1  0.58824430  0.25451878  0.29781576  1
  Se  Se194  1  0.57598509  0.24104300  0.81422479  1
  Se  Se195  1  0.57431516  0.57459454  0.31109462  1
  Se  Se196  1  0.57286084  0.56623316  0.80469390  1
  Se  Se197  1  0.58546422  0.91651743  0.30091786  1
  Se  Se198  1  0.57230356  0.90970360  0.80708150  1
  Se  Se199  1  0.91663677  0.25094827  0.30096133  1
  Se  Se200  1  0.91935991  0.25491771  0.80293981  1
  Se  Se201  1  0.91153654  0.57282459  0.30975654  1
  Se  Se202  1  0.92362739  0.58385493  0.80659570  1
  Se  Se203  1  0.92298974  0.91439165  0.29460146  1
  Se  Se204  1  0.91300485  0.92045369  0.81699750  1
  Se  Se205  1  0.06296933  0.06963027  0.30190356  1
  Se  Se206  1  0.09011041  0.09206622  0.81275660  1
  Se  Se207  1  0.07504264  0.41970909  0.30427719  1
  Se  Se208  1  0.08411803  0.41065332  0.80524227  1
  Se  Se209  1  0.09343213  0.75631525  0.31310214  1
  Se  Se210  1  0.08358501  0.74798326  0.80329713  1
  Se  Se211  1  0.41684637  0.08651158  0.30089775  1
  Se  Se212  1  0.40961981  0.07885368  0.80581258  1
  Se  Se213  1  0.41186601  0.41120951  0.29788628  1
  Se  Se214  1  0.41660629  0.41318335  0.80173384  1
  Se  Se215  1  0.41933111  0.75112440  0.30379803  1
  Se  Se216  1  0.41808759  0.75038152  0.80709541  1
  Se  Se217  1  0.74846299  0.08036926  0.29665257  1
  Se  Se218  1  0.74933243  0.10004960  0.81169655  1
  Se  Se219  1  0.74799636  0.41190412  0.30197713  1
  Se  Se220  1  0.75931431  0.41914870  0.81123182  1
  Se  Se221  1  0.76097727  0.75174222  0.30970758  1
  Se  Se222  1  0.75817719  0.75518461  0.82011608  1
  Se  Se223  1  0.24481274  0.09088893  0.20160765  1
  Se  Se224  1  0.24832572  0.08398294  0.69774236  1
  Se  Se225  1  0.24876810  0.42010627  0.19726294  1
  Se  Se226  1  0.24744128  0.41339025  0.69567153  1
  Se  Se227  1  0.25457168  0.74361393  0.19752381  1
  Se  Se228  1  0.23870495  0.75607908  0.68328562  1
  Se  Se229  1  0.58934781  0.08179405  0.19597824  1
  Se  Se230  1  0.56980478  0.09354996  0.69175116  1
  Se  Se231  1  0.58547200  0.41811019  0.19357690  1
  Se  Se232  1  0.57740982  0.42248155  0.69173839  1
  Se  Se233  1  0.57773160  0.75594002  0.18713570  1
  Se  Se234  1  0.57956516  0.75358111  0.69153080  1
  Se  Se235  1  0.91729343  0.08398863  0.19750773  1
  Se  Se236  1  0.90899337  0.09131950  0.68752097  1
  Se  Se237  1  0.92218282  0.40709621  0.19613198  1
  Se  Se238  1  0.92051799  0.41102530  0.69768983  1
  Se  Se239  1  0.90804626  0.74710363  0.18625030  1
  Se  Se240  1  0.92242668  0.74599321  0.70516885  1
  Se  Se241  1  0.11001737  0.23405222  0.20667358  1
  Se  Se242  1  0.07870637  0.24800208  0.69576907  1
  Se  Se243  1  0.08385257  0.58010724  0.18834217  1
  Se  Se244  1  0.08209004  0.58183464  0.69628438  1
  Se  Se245  1  0.08352324  0.90998047  0.19650058  1
  Se  Se246  1  0.08905459  0.91368344  0.68856199  1
  Se  Se247  1  0.42179255  0.25013143  0.19635142  1
  Se  Se248  1  0.40929699  0.25546698  0.69936719  1
  Se  Se249  1  0.41268589  0.58672879  0.20347706  1
  Se  Se250  1  0.42267469  0.57123756  0.69081325  1
  Se  Se251  1  0.41312498  0.92043455  0.19712579  1
  Se  Se252  1  0.41137912  0.91990700  0.69329860  1
  Se  Se253  1  0.74799713  0.25281362  0.19292419  1
  Se  Se254  1  0.75285022  0.24674335  0.68538291  1
  Se  Se255  1  0.75807920  0.57679703  0.19109441  1
  Se  Se256  1  0.75553095  0.57494955  0.69651224  1
  Se  Se257  1  0.74812510  0.91867780  0.19700699  1
  Se  Se258  1  0.76169334  0.90755641  0.69833204  1
