# generated using pymatgen
data_In86Cu29Se144
_symmetry_space_group_name_H-M   'P 1'
_cell_length_a   17.58756072
_cell_length_b   17.59801395
_cell_length_c   23.45607355
_cell_angle_alpha   90.01653148
_cell_angle_beta   90.00077247
_cell_angle_gamma   89.99593162
_symmetry_Int_Tables_number   1
_chemical_formula_structural   In86Cu29Se144
_chemical_formula_sum   'In86 Cu29 Se144'
_cell_volume   7259.79843291
_cell_formula_units_Z   1
loop_
 _symmetry_equiv_pos_site_id
 _symmetry_equiv_pos_as_xyz
  1  'x, y, z'
loop_
 _atom_site_type_symbol
 _atom_site_label
 _atom_site_symmetry_multiplicity
 _atom_site_fract_x
 _atom_site_fract_y
 _atom_site_fract_z
 _atom_site_occupancy
  In  In0  1  0.00561269  0.15962636  0.13208325  1
  In  In1  1  -0.00206784  0.16242541  0.62848601  1
  In  In2  1  -0.00353367  0.49677136  0.13104973  1
  In  In3  1  -0.01555134  0.50459586  0.62408673  1
  In  In4  1  -0.00582243  0.84023266  0.13712765  1
  In  In5  1  0.01093504  0.83187330  0.60676685  1
  In  In6  1  0.31586331  0.16976609  0.12357638  1
  In  In7  1  0.31178605  0.15488086  0.61866343  1
  In  In8  1  0.33801843  0.50562301  0.12141105  1
  In  In9  1  0.33448406  0.49228448  0.62026808  1
  In  In10  1  0.31942507  0.83815667  0.14386523  1
  In  In11  1  0.33100161  0.84842479  0.62635449  1
  In  In12  1  0.66470673  0.16037152  0.12881148  1
  In  In13  1  0.68637053  0.15570875  0.62072227  1
  In  In14  1  0.67982138  0.52188043  0.11442848  1
  In  In15  1  0.68115670  0.51436212  0.61606732  1
  In  In16  1  0.68237178  0.81445213  0.13877710  1
  In  In17  1  0.66343930  0.82470275  0.62383325  1
  In  In18  1  0.16704667  -0.00082438  0.37640546  1
  In  In19  1  0.16425544  0.00983424  0.86511355  1
  In  In20  1  0.15078305  0.33299289  0.37680007  1
  In  In21  1  0.16054673  0.33375933  0.88070088  1
  In  In22  1  0.16670242  0.67976302  0.36132687  1
  In  In23  1  0.15208690  0.66305545  0.88090889  1
  In  In24  1  0.49496937  -0.00958526  0.37097828  1
  In  In25  1  0.49627949  0.00792556  0.87440873  1
  In  In26  1  0.51699677  0.33894145  0.37627402  1
  In  In27  1  0.50651083  0.34237681  0.87516834  1
  In  In28  1  0.49731524  0.66100555  0.37080571  1
  In  In29  1  0.50417475  0.65777371  0.87874951  1
  In  In30  1  0.83475069  -0.00313879  0.37850489  1
  In  In31  1  0.84994541  -0.00709800  0.87243053  1
  In  In32  1  0.84138545  0.33085713  0.37830475  1
  In  In33  1  0.85289941  0.33683839  0.87372144  1
  In  In34  1  0.83744633  0.66957306  0.37027981  1
  In  In35  1  0.82495516  0.67883809  0.88098059  1
  In  In36  1  0.00366345  0.16509168  0.37751046  1
  In  In37  1  0.00897902  0.18181485  0.85458852  1
  In  In38  1  -0.01296702  0.49421998  0.36058126  1
  In  In39  1  0.00675961  0.49407679  0.88506300  1
  In  In40  1  -0.00388795  0.83673766  0.37228507  1
  In  In41  1  -0.01460221  0.83919669  0.87542635  1
  In  In42  1  0.33085806  0.14931182  0.37657997  1
  In  In43  1  0.32686564  0.15290813  0.87146318  1
  In  In44  1  0.33546304  0.51589782  0.37270234  1
  In  In45  1  0.33279934  0.49763751  0.88437821  1
  In  In46  1  0.32098052  0.82491720  0.36282393  1
  In  In47  1  0.31907094  0.84759846  0.87529147  1
  In  In48  1  0.68570742  0.15924258  0.38505398  1
  In  In49  1  0.66217182  0.16374917  0.87547120  1
  In  In50  1  0.66896101  0.50624649  0.37678243  1
  In  In51  1  0.66045124  0.51256932  0.88111751  1
  In  In52  1  0.68366866  0.84482660  0.36944140  1
  In  In53  1  0.69756183  0.83395820  0.87238968  1
  In  In54  1  0.15347712  0.00024202  0.14075510  1
  In  In55  1  0.16177307  0.00118839  0.62257312  1
  In  In56  1  0.15658631  0.32230554  0.12113405  1
  In  In57  1  0.15952731  0.31221848  0.62378163  1
  In  In58  1  0.17326558  0.66020826  0.13762349  1
  In  In59  1  0.14672565  0.67339112  0.61659345  1
  In  In60  1  0.50380285  -0.00387553  0.13119463  1
  In  In61  1  0.49673522  -0.01040205  0.62685223  1
  In  In62  1  0.48983987  0.33588188  0.12068631  1
  In  In63  1  0.49345196  0.33817697  0.61950210  1
  In  In64  1  0.50488244  0.65930628  0.13305557  1
  In  In65  1  0.51851887  0.67153629  0.62335055  1
  In  In66  1  0.84374315  -0.01199215  0.13465504  1
  In  In67  1  0.84351281  0.00859073  0.60645640  1
  In  In68  1  0.83708941  0.34902051  0.12800804  1
  In  In69  1  0.84128575  0.33747334  0.62720241  1
  In  In70  1  0.83329227  0.66309198  0.13075289  1
  In  In71  1  0.83653661  0.65895102  0.61354549  1
  In  In72  1  0.66944046  0.33034646  0.24836277  1
  In  In73  1  0.66970970  0.33951818  0.74550285  1
  In  In74  1  0.32711805  0.33061250  0.75626144  1
  In  In75  1  0.49349056  0.17334183  -0.00720789  1
  In  In76  1  0.50427891  0.17327923  0.49975816  1
  In  In77  1  0.50300581  0.82913115  0.50174261  1
  In  In78  1  -0.00885828  0.67223995  0.74991174  1
  In  In79  1  0.16239617  0.82757973  0.00686666  1
  In  In80  1  0.33261472  0.32928953  0.24174954  1
  In  In81  1  0.33450992  0.67052605  0.75609443  1
  In  In82  1  0.83418185  0.16941568  -0.00996035  1
  In  In83  1  0.67497234  -0.00282973  0.74572884  1
  In  In84  1  0.15836306  0.50767874  0.49196785  1
  In  In85  1  0.50042710  0.82500136  0.00987341  1
  Cu  Cu86  1  0.16697705  0.83846839  0.74408732  1
  Cu  Cu87  1  0.33482804  0.33615991  0.49784669  1
  Cu  Cu88  1  0.32723648  0.00521275  0.00156379  1
  Cu  Cu89  1  0.16055621  0.49301193  0.75406138  1
  Cu  Cu90  1  0.83281288  0.50505875  0.74998265  1
  Cu  Cu91  1  -0.00057031  0.33166237  0.00085043  1
  Cu  Cu92  1  0.00269821  0.00117382  0.49561407  1
  Cu  Cu93  1  0.32252847  0.33900954  0.00272425  1
  Cu  Cu94  1  0.66273873  0.34669684  0.00082775  1
  Cu  Cu95  1  0.50320632  0.83542481  0.75066978  1
  Cu  Cu96  1  0.67087124  0.66352217  0.49370698  1
  Cu  Cu97  1  0.82892274  0.83453801  0.25593789  1
  Cu  Cu98  1  0.33179119  0.67014521  0.49285554  1
  Cu  Cu99  1  0.67640092  0.34462426  0.49992578  1
  Cu  Cu100  1  0.16086143  0.49936692  0.25240593  1
  Cu  Cu101  1  0.00258563  -0.00065563  0.00777840  1
  Cu  Cu102  1  -0.00214578  0.33144366  0.50118605  1
  Cu  Cu103  1  0.50722577  0.15419070  0.25241726  1
  Cu  Cu104  1  0.67922609  -0.00995699  0.00617055  1
  Cu  Cu105  1  0.49014931  0.16644106  0.74489321  1
  Cu  Cu106  1  0.50147289  0.49780034  0.24774948  1
  Cu  Cu107  1  0.50079387  0.83027041  0.25243949  1
  Cu  Cu108  1  -0.00501442  0.65859102  0.00626059  1
  Cu  Cu109  1  0.84059595  0.15847752  0.25742430  1
  Cu  Cu110  1  0.50850169  0.51263839  0.74801654  1
  Cu  Cu111  1  0.32140842  -0.00387307  0.49823578  1
  Cu  Cu112  1  0.33196937  0.66131870  0.00844616  1
  Cu  Cu113  1  0.67037659  0.66975599  0.00530943  1
  Cu  Cu114  1  0.16630559  0.16419864  0.25248436  1
  Se  Se115  1  0.08826896  0.07984955  0.06094485  1
  Se  Se116  1  0.08091020  0.08572149  0.55360452  1
  Se  Se117  1  0.07856381  0.41517012  0.05801880  1
  Se  Se118  1  0.08095752  0.41393408  0.56087327  1
  Se  Se119  1  0.07391037  0.74003674  0.06816000  1
  Se  Se120  1  0.07832158  0.73955745  0.53585353  1
  Se  Se121  1  0.41389095  0.08200038  0.05950875  1
  Se  Se122  1  0.41234480  0.07450098  0.55435062  1
  Se  Se123  1  0.41395491  0.41818001  0.05009459  1
  Se  Se124  1  0.41883813  0.42080000  0.54674644  1
  Se  Se125  1  0.40279284  0.74580012  0.07001164  1
  Se  Se126  1  0.40741391  0.74273877  0.56367336  1
  Se  Se127  1  0.75517752  0.08026662  0.06057230  1
  Se  Se128  1  0.74665686  0.08015898  0.54097749  1
  Se  Se129  1  0.75255095  0.42022785  0.05469175  1
  Se  Se130  1  0.76232123  0.42165962  0.55563767  1
  Se  Se131  1  0.75651361  0.75028658  0.05723619  1
  Se  Se132  1  0.74610288  0.74657889  0.55317025  1
  Se  Se133  1  0.24249421  0.24713763  0.04845835  1
  Se  Se134  1  0.25161163  0.25261405  0.54919404  1
  Se  Se135  1  0.24238356  0.58184335  0.05794679  1
  Se  Se136  1  0.25361065  0.59095631  0.55758153  1
  Se  Se137  1  0.25194676  0.92284630  0.06317653  1
  Se  Se138  1  0.24229411  0.91177825  0.55324019  1
  Se  Se139  1  0.59063903  0.25566860  0.05626865  1
  Se  Se140  1  0.59828052  0.26102947  0.56120347  1
  Se  Se141  1  0.57707032  0.58872872  0.05141463  1
  Se  Se142  1  0.58386810  0.58462364  0.54931229  1
  Se  Se143  1  0.59704622  0.91358937  0.06495480  1
  Se  Se144  1  0.59181748  0.92619630  0.55554842  1
  Se  Se145  1  0.91892974  0.24988578  0.06141310  1
  Se  Se146  1  0.91755522  0.24978820  0.55836737  1
  Se  Se147  1  0.91206193  0.57739345  0.06040784  1
  Se  Se148  1  0.93727103  0.59572441  0.54743004  1
  Se  Se149  1  0.91953919  0.91323309  0.05762148  1
  Se  Se150  1  0.91911030  0.91326443  0.54341190  1
  Se  Se151  1  0.08418447  0.24807451  0.45087449  1
  Se  Se152  1  0.07369692  0.24464362  0.94281027  1
  Se  Se153  1  0.07689657  0.58991645  0.42440398  1
  Se  Se154  1  0.08512961  0.57995266  0.95547184  1
  Se  Se155  1  0.08397645  0.91509047  0.44314363  1
  Se  Se156  1  0.08058083  0.91933018  0.94311223  1
  Se  Se157  1  0.41216849  0.25765279  0.43465059  1
  Se  Se158  1  0.40026617  0.26314815  0.93424292  1
  Se  Se159  1  0.41914786  0.58437069  0.44771076  1
  Se  Se160  1  0.41523680  0.58607609  0.94840093  1
  Se  Se161  1  0.40677794  0.91411247  0.44402399  1
  Se  Se162  1  0.41236961  0.92236352  0.94798273  1
  Se  Se163  1  0.75558065  0.25469612  0.44974568  1
  Se  Se164  1  0.73775747  0.26530863  0.93731844  1
  Se  Se165  1  0.75939236  0.58308477  0.44303911  1
  Se  Se166  1  0.75193275  0.58642235  0.94866484  1
  Se  Se167  1  0.75384729  0.91359196  0.44921362  1
  Se  Se168  1  0.76510765  0.91790121  0.94712909  1
  Se  Se169  1  0.24202725  0.08783743  0.45084241  1
  Se  Se170  1  0.24305601  0.08102526  0.94472287  1
  Se  Se171  1  0.25514442  0.41485657  0.43547767  1
  Se  Se172  1  0.24012871  0.42170360  0.94777104  1
  Se  Se173  1  0.24687940  0.75096585  0.44063971  1
  Se  Se174  1  0.25755840  0.74149531  0.94317999  1
  Se  Se175  1  0.58290070  0.07561764  0.44075778  1
  Se  Se176  1  0.59306060  0.07032058  0.95041851  1
  Se  Se177  1  0.58731442  0.42297736  0.44863412  1
  Se  Se178  1  0.57629043  0.42625657  0.94822056  1
  Se  Se179  1  0.59078375  0.74669104  0.43559686  1
  Se  Se180  1  0.59305547  0.75126442  0.94105546  1
  Se  Se181  1  0.91650182  0.08555018  0.44527428  1
  Se  Se182  1  0.93331404  0.08097463  0.94074828  1
  Se  Se183  1  0.92329046  0.41870488  0.44437937  1
  Se  Se184  1  0.91437227  0.41846402  0.95278606  1
  Se  Se185  1  0.88935026  0.77720475  0.43638090  1
  Se  Se186  1  0.92279065  0.74642061  0.94790418  1
  Se  Se187  1  0.24794935  0.24659146  0.31115939  1
  Se  Se188  1  0.23453108  0.23778472  0.80834428  1
  Se  Se189  1  0.24878863  0.58320193  0.30069408  1
  Se  Se190  1  0.24069102  0.57628446  0.81131746  1
  Se  Se191  1  0.27318871  0.94343379  0.31069827  1
  Se  Se192  1  0.24835936  0.92294649  0.79826187  1
  Se  Se193  1  0.58390859  0.23606567  0.31166629  1
  Se  Se194  1  0.57269962  0.24422397  0.80344357  1
  Se  Se195  1  0.58329351  0.57825925  0.30395753  1
  Se  Se196  1  0.58988284  0.59306581  0.80289949  1
  Se  Se197  1  0.58434870  0.91428018  0.30448236  1
  Se  Se198  1  0.58412988  0.91372428  0.81458226  1
  Se  Se199  1  0.91961899  0.24763019  0.30748944  1
  Se  Se200  1  0.90482141  0.24969678  0.79659308  1
  Se  Se201  1  0.92394949  0.59663715  0.29793709  1
  Se  Se202  1  0.91405263  0.57817868  0.81576848  1
  Se  Se203  1  0.91451820  0.92261534  0.30235287  1
  Se  Se204  1  0.90685276  0.90256290  0.79724854  1
  Se  Se205  1  0.08362606  0.08187652  0.30625277  1
  Se  Se206  1  0.05055048  0.05702524  0.80657633  1
  Se  Se207  1  0.08006732  0.40927469  0.30008804  1
  Se  Se208  1  0.07792727  0.41265132  0.80874883  1
  Se  Se209  1  0.09396961  0.77831643  0.29820821  1
  Se  Se210  1  0.09077974  0.75981758  0.80849988  1
  Se  Se211  1  0.41575978  0.07879497  0.30380656  1
  Se  Se212  1  0.41415909  0.07971075  0.80046772  1
  Se  Se213  1  0.42225432  0.41550825  0.30703985  1
  Se  Se214  1  0.42408552  0.43107179  0.80435841  1
  Se  Se215  1  0.41641843  0.74485860  0.30239813  1
  Se  Se216  1  0.42303196  0.76297510  0.81731411  1
  Se  Se217  1  0.75001453  0.07959905  0.30659308  1
  Se  Se218  1  0.75660331  0.08861688  0.81140085  1
  Se  Se219  1  0.75603177  0.41862303  0.30932877  1
  Se  Se220  1  0.75298256  0.42620244  0.81252653  1
  Se  Se221  1  0.74383154  0.74489986  0.30140168  1
  Se  Se222  1  0.75920713  0.74849605  0.79760233  1
  Se  Se223  1  0.25150552  0.08377373  0.19813741  1
  Se  Se224  1  0.24671892  0.07709197  0.69497898  1
  Se  Se225  1  0.24073329  0.42209459  0.18779545  1
  Se  Se226  1  0.24137238  0.42025162  0.69066859  1
  Se  Se227  1  0.24829604  0.74507121  0.20780331  1
  Se  Se228  1  0.24305214  0.74886591  0.68838797  1
  Se  Se229  1  0.59218361  0.07434885  0.19886816  1
  Se  Se230  1  0.57856819  0.09069177  0.68792214  1
  Se  Se231  1  0.57946017  0.41794503  0.18648998  1
  Se  Se232  1  0.57877175  0.42846027  0.68516666  1
  Se  Se233  1  0.58344683  0.74425951  0.20135811  1
  Se  Se234  1  0.58592223  0.75068130  0.70109238  1
  Se  Se235  1  0.92300400  0.07701383  0.20036033  1
  Se  Se236  1  0.91067808  0.07387546  0.68944063  1
  Se  Se237  1  0.92163292  0.40989498  0.20256940  1
  Se  Se238  1  0.91790361  0.42057253  0.70042833  1
  Se  Se239  1  0.91087407  0.75169775  0.19994848  1
  Se  Se240  1  0.91530688  0.75622189  0.67916036  1
  Se  Se241  1  0.08372470  0.24916126  0.19984335  1
  Se  Se242  1  0.07994093  0.24587644  0.69855683  1
  Se  Se243  1  0.07733800  0.58359553  0.20009317  1
  Se  Se244  1  0.08767272  0.57915410  0.69359833  1
  Se  Se245  1  0.09553254  0.89719843  0.20636695  1
  Se  Se246  1  0.07937713  0.90980012  0.68639173  1
  Se  Se247  1  0.42897903  0.23241092  0.18979565  1
  Se  Se248  1  0.41217044  0.24616560  0.68551302  1
  Se  Se249  1  0.41313853  0.58044528  0.19844291  1
  Se  Se250  1  0.41916215  0.58329603  0.68853847  1
  Se  Se251  1  0.41984529  0.91692132  0.19941874  1
  Se  Se252  1  0.41606852  0.91765106  0.70147671  1
  Se  Se253  1  0.76380881  0.23753945  0.19158178  1
  Se  Se254  1  0.75817391  0.24174849  0.69494695  1
  Se  Se255  1  0.74289287  0.58602853  0.19840107  1
  Se  Se256  1  0.75551878  0.58917480  0.69314291  1
  Se  Se257  1  0.74609432  0.91974117  0.20052414  1
  Se  Se258  1  0.75744311  0.91375274  0.68003819  1
