# generated using pymatgen
data_In86Cu29Se144
_symmetry_space_group_name_H-M   'P 1'
_cell_length_a   17.56722943
_cell_length_b   17.56841008
_cell_length_c   23.42260397
_cell_angle_alpha   90.00438102
_cell_angle_beta   89.97571918
_cell_angle_gamma   90.01153330
_symmetry_Int_Tables_number   1
_chemical_formula_structural   In86Cu29Se144
_chemical_formula_sum   'In86 Cu29 Se144'
_cell_volume   7228.87740942
_cell_formula_units_Z   1
loop_
 _symmetry_equiv_pos_site_id
 _symmetry_equiv_pos_as_xyz
  1  'x, y, z'
loop_
 _atom_site_type_symbol
 _atom_site_label
 _atom_site_symmetry_multiplicity
 _atom_site_fract_x
 _atom_site_fract_y
 _atom_site_fract_z
 _atom_site_occupancy
  In  In0  1  0.01645824  0.16060807  0.13723078  1
  In  In1  1  -0.00225290  0.15437668  0.60131643  1
  In  In2  1  -0.00059640  0.50212336  0.13454329  1
  In  In3  1  0.00298717  0.51328640  0.60414030  1
  In  In4  1  -0.00860899  0.83003600  0.12150506  1
  In  In5  1  0.00722103  0.83709862  0.59479891  1
  In  In6  1  0.33039433  0.17059234  0.12449942  1
  In  In7  1  0.31921482  0.16040019  0.62147989  1
  In  In8  1  0.32981518  0.50004037  0.12954903  1
  In  In9  1  0.33977099  0.50683254  0.61110575  1
  In  In10  1  0.32381462  0.83649235  0.13049196  1
  In  In11  1  0.33553539  0.83953259  0.62222617  1
  In  In12  1  0.66385790  0.17683837  0.12457789  1
  In  In13  1  0.65835210  0.15348491  0.62351527  1
  In  In14  1  0.67976872  0.50578218  0.12319330  1
  In  In15  1  0.67888922  0.51861018  0.60280025  1
  In  In16  1  0.67159789  0.81687211  0.13073664  1
  In  In17  1  0.66812701  0.83977729  0.61822989  1
  In  In18  1  0.15306520  0.00266214  0.39307643  1
  In  In19  1  0.17588908  -0.01045850  0.88500876  1
  In  In20  1  0.17073586  0.33380496  0.36283686  1
  In  In21  1  0.17086179  0.33296049  0.88892628  1
  In  In22  1  0.16327795  0.66330611  0.37396816  1
  In  In23  1  0.16700458  0.67132593  0.88865324  1
  In  In24  1  0.48897046  -0.01297083  0.37732651  1
  In  In25  1  0.51097104  0.00158952  0.86808253  1
  In  In26  1  0.49943679  0.34618072  0.36940111  1
  In  In27  1  0.48963845  0.34195243  0.88402130  1
  In  In28  1  0.49796582  0.66667720  0.37320612  1
  In  In29  1  0.49376248  0.66480836  0.87805008  1
  In  In30  1  0.84496673  -0.00273230  0.38708484  1
  In  In31  1  0.82252633  -0.00562193  0.87210931  1
  In  In32  1  0.85550000  0.32497996  0.37182256  1
  In  In33  1  0.84259787  0.33847748  0.87976561  1
  In  In34  1  0.83764502  0.66333604  0.38086741  1
  In  In35  1  0.83650626  0.66410958  0.88178337  1
  In  In36  1  -0.00010030  0.17308942  0.37324374  1
  In  In37  1  0.00101932  0.17584577  0.87954890  1
  In  In38  1  0.00613633  0.50783196  0.37676167  1
  In  In39  1  0.00210078  0.50107706  0.89112193  1
  In  In40  1  0.01251326  0.81609618  0.39580174  1
  In  In41  1  0.00285183  0.83582086  0.88941499  1
  In  In42  1  0.31473122  0.16827305  0.36837408  1
  In  In43  1  0.33684268  0.16424390  0.88054105  1
  In  In44  1  0.33092837  0.49927732  0.36658290  1
  In  In45  1  0.33331537  0.50214611  0.88877637  1
  In  In46  1  0.34045086  0.82517296  0.38253826  1
  In  In47  1  0.32566157  0.83196039  0.87237646  1
  In  In48  1  0.68326988  0.17118848  0.37368083  1
  In  In49  1  0.67069486  0.14722803  0.87526349  1
  In  In50  1  0.65731634  0.51558473  0.38504271  1
  In  In51  1  0.66944248  0.50037678  0.88319248  1
  In  In52  1  0.68939727  0.79778363  0.40469594  1
  In  In53  1  0.66721681  0.84513921  0.87354898  1
  In  In54  1  0.15642085  -0.00026153  0.11195359  1
  In  In55  1  0.16605340  0.00359624  0.61691338  1
  In  In56  1  0.15723699  0.33112895  0.13806440  1
  In  In57  1  0.16349925  0.32761018  0.61404691  1
  In  In58  1  0.16798111  0.66916023  0.13325485  1
  In  In59  1  0.17259495  0.67382163  0.60379863  1
  In  In60  1  0.48835564  0.00339668  0.12146334  1
  In  In61  1  0.50423765  -0.01529716  0.64383082  1
  In  In62  1  0.49059084  0.32750960  0.11919391  1
  In  In63  1  0.49485920  0.34129818  0.62045907  1
  In  In64  1  0.51097342  0.65723580  0.13433840  1
  In  In65  1  0.51199680  0.67605268  0.60274246  1
  In  In66  1  0.85079353  -0.01183978  0.11991832  1
  In  In67  1  0.82239994  -0.01214960  0.61065295  1
  In  In68  1  0.82964350  0.34308413  0.13266889  1
  In  In69  1  0.84553639  0.33981644  0.61664067  1
  In  In70  1  0.83736804  0.66475457  0.13138175  1
  In  In71  1  0.84024734  0.68254223  0.59327811  1
  In  In72  1  0.67031952  -0.00679458  0.26304095  1
  In  In73  1  0.66943020  0.67124437  0.73331411  1
  In  In74  1  0.65958859  0.33042914  0.74704539  1
  In  In75  1  0.83356354  0.16886398  0.00033563  1
  In  In76  1  0.32646025  -0.00372902  0.24893591  1
  In  In77  1  0.33504994  0.32803956  0.74864272  1
  In  In78  1  -0.00134625  -0.00151113  0.74584321  1
  In  In79  1  0.00635153  0.32802264  0.75238598  1
  In  In80  1  0.50123945  0.83208784  -0.00360983  1
  In  In81  1  0.33826296  0.67233285  0.75069732  1
  In  In82  1  0.49891169  0.16754635  0.50325036  1
  In  In83  1  0.67015000  0.34227675  0.25199266  1
  In  In84  1  -0.00139230  -0.00082485  0.25784305  1
  In  In85  1  0.00033915  0.67036908  0.73571804  1
  Cu  Cu86  1  0.17180926  0.49905965  0.74894590  1
  Cu  Cu87  1  0.50458995  0.82055242  0.25798646  1
  Cu  Cu88  1  0.16633851  0.15525772  0.74631121  1
  Cu  Cu89  1  0.16214683  0.83476985  0.75183349  1
  Cu  Cu90  1  0.66484893  -0.00249355  -0.00132383  1
  Cu  Cu91  1  0.65703490  0.33647095  0.00335513  1
  Cu  Cu92  1  0.33609620  0.66531420  0.00833952  1
  Cu  Cu93  1  0.82483711  0.15656973  0.74256193  1
  Cu  Cu94  1  0.67920443  0.33541777  0.48998722  1
  Cu  Cu95  1  0.83196970  0.82435299  0.25782191  1
  Cu  Cu96  1  0.83114862  0.50855506  0.25818224  1
  Cu  Cu97  1  0.82876826  0.83326010  0.74137630  1
  Cu  Cu98  1  0.33184536  0.33789496  0.49207222  1
  Cu  Cu99  1  0.49930419  0.15976587  0.75672139  1
  Cu  Cu100  1  0.32182018  0.33976993  0.01023664  1
  Cu  Cu101  1  0.49599695  0.50188590  0.24933441  1
  Cu  Cu102  1  0.16362866  0.83538935  0.25780676  1
  Cu  Cu103  1  0.33217997  0.01027565  0.00120827  1
  Cu  Cu104  1  0.00875057  0.33792796  0.49107234  1
  Cu  Cu105  1  0.32704287  0.65804470  0.48953398  1
  Cu  Cu106  1  0.16461641  0.50460255  0.25011851  1
  Cu  Cu107  1  0.00355822  0.66294373  0.01137927  1
  Cu  Cu108  1  0.67901449  0.66260306  0.00703606  1
  Cu  Cu109  1  -0.00122120  0.33713961  0.00935160  1
  Cu  Cu110  1  0.83831541  0.50280781  0.74847678  1
  Cu  Cu111  1  0.50161745  0.16509573  0.24412114  1
  Cu  Cu112  1  0.33197380  -0.00713208  0.50190751  1
  Cu  Cu113  1  0.65977226  0.00869279  0.50166264  1
  Cu  Cu114  1  0.50510979  0.50719209  0.74604263  1
  Se  Se115  1  0.06498592  0.08165913  0.05265029  1
  Se  Se116  1  0.10817791  0.09862784  0.54484624  1
  Se  Se117  1  0.08143895  0.41749606  0.06538939  1
  Se  Se118  1  0.09097660  0.42069311  0.54748314  1
  Se  Se119  1  0.08733577  0.74988367  0.06087655  1
  Se  Se120  1  0.05817032  0.71788829  0.54331753  1
  Se  Se121  1  0.41707634  0.09255379  0.05322194  1
  Se  Se122  1  0.41547608  0.07269628  0.56278825  1
  Se  Se123  1  0.41307907  0.42141880  0.05677044  1
  Se  Se124  1  0.41924631  0.41675131  0.54514145  1
  Se  Se125  1  0.41806432  0.74822534  0.06586080  1
  Se  Se126  1  0.39970654  0.74240466  0.55260819  1
  Se  Se127  1  0.74470313  0.07514247  0.06271601  1
  Se  Se128  1  0.74878468  0.09098052  0.55061306  1
  Se  Se129  1  0.74945772  0.41147817  0.05456087  1
  Se  Se130  1  0.75837213  0.41762064  0.54865474  1
  Se  Se131  1  0.75897560  0.75029602  0.05797060  1
  Se  Se132  1  0.71819894  0.73636843  0.54933683  1
  Se  Se133  1  0.24023952  0.25431987  0.06266375  1
  Se  Se134  1  0.25544856  0.25059362  0.54843416  1
  Se  Se135  1  0.24881362  0.58671932  0.06159562  1
  Se  Se136  1  0.24419101  0.57302043  0.54345255  1
  Se  Se137  1  0.25683431  0.92090498  0.05547082  1
  Se  Se138  1  0.24391979  0.90973537  0.55268687  1
  Se  Se139  1  0.57822562  0.24537811  0.05169532  1
  Se  Se140  1  0.59591803  0.26251883  0.55582854  1
  Se  Se141  1  0.58817315  0.58411562  0.05712743  1
  Se  Se142  1  0.56519809  0.56525691  0.54401747  1
  Se  Se143  1  0.58839821  0.91842862  0.06316943  1
  Se  Se144  1  0.57778264  0.92764329  0.55778125  1
  Se  Se145  1  0.91843253  0.25361967  0.06699857  1
  Se  Se146  1  0.92250456  0.25646402  0.54561525  1
  Se  Se147  1  0.91601154  0.57947375  0.06092788  1
  Se  Se148  1  0.90162231  0.57247662  0.53867421  1
  Se  Se149  1  0.92168108  0.91212342  0.04481263  1
  Se  Se150  1  0.92555200  0.93576629  0.54302278  1
  Se  Se151  1  0.09099180  0.25388011  0.43763388  1
  Se  Se152  1  0.07937070  0.25316808  0.95235222  1
  Se  Se153  1  0.07350359  0.59909492  0.44923228  1
  Se  Se154  1  0.08948189  0.58251679  0.95547378  1
  Se  Se155  1  0.08163199  0.91295989  0.46078788  1
  Se  Se156  1  0.09322412  0.91105549  0.95306308  1
  Se  Se157  1  0.41291103  0.25094112  0.43539153  1
  Se  Se158  1  0.40409511  0.26028863  0.94930328  1
  Se  Se159  1  0.41439165  0.57755138  0.43843949  1
  Se  Se160  1  0.42204839  0.58493489  0.95313904  1
  Se  Se161  1  0.41900342  0.90898754  0.45412023  1
  Se  Se162  1  0.41105671  0.92588691  0.94050473  1
  Se  Se163  1  0.76429192  0.25026215  0.44260364  1
  Se  Se164  1  0.73791303  0.25757180  0.93891948  1
  Se  Se165  1  0.74947773  0.58678766  0.45045973  1
  Se  Se166  1  0.75819647  0.57744555  0.94989112  1
  Se  Se167  1  0.74067048  0.92563253  0.44584856  1
  Se  Se168  1  0.75079643  0.91419897  0.94858483  1
  Se  Se169  1  0.25779685  0.08075061  0.44628697  1
  Se  Se170  1  0.24503830  0.09060079  0.94805889  1
  Se  Se171  1  0.24795494  0.41741766  0.43673882  1
  Se  Se172  1  0.24272741  0.42656689  0.95472811  1
  Se  Se173  1  0.24387780  0.74950437  0.44445194  1
  Se  Se174  1  0.25923710  0.75225090  0.95111465  1
  Se  Se175  1  0.58568838  0.08349614  0.43445689  1
  Se  Se176  1  0.58088768  0.08070336  0.94718144  1
  Se  Se177  1  0.58427980  0.41209945  0.44417016  1
  Se  Se178  1  0.57849908  0.42324384  0.94835994  1
  Se  Se179  1  0.55858697  0.76278270  0.44487767  1
  Se  Se180  1  0.59844313  0.73941189  0.94201654  1
  Se  Se181  1  0.92474584  0.09053539  0.44602073  1
  Se  Se182  1  0.91721361  0.07703390  0.93686207  1
  Se  Se183  1  0.92018485  0.41953874  0.44146734  1
  Se  Se184  1  0.91297544  0.41866380  0.95524008  1
  Se  Se185  1  0.88780878  0.77510537  0.44494034  1
  Se  Se186  1  0.92223104  0.74220569  0.95024049  1
  Se  Se187  1  0.25473701  0.25315145  0.29251594  1
  Se  Se188  1  0.23782327  0.24504813  0.80824002  1
  Se  Se189  1  0.24883892  0.58873075  0.30185005  1
  Se  Se190  1  0.24701981  0.58069928  0.81200730  1
  Se  Se191  1  0.24182099  0.91532540  0.31918823  1
  Se  Se192  1  0.24672158  0.91771552  0.80331539  1
  Se  Se193  1  0.58011557  0.24169710  0.30756455  1
  Se  Se194  1  0.57391502  0.24680172  0.81601132  1
  Se  Se195  1  0.58084321  0.58153723  0.30404646  1
  Se  Se196  1  0.58733234  0.58385833  0.80666562  1
  Se  Se197  1  0.58271849  0.90033418  0.31888927  1
  Se  Se198  1  0.58404428  0.91202666  0.80020514  1
  Se  Se199  1  0.93199466  0.25325587  0.29370509  1
  Se  Se200  1  0.90175981  0.23790943  0.80443882  1
  Se  Se201  1  0.92053167  0.58996666  0.30669297  1
  Se  Se202  1  0.92224643  0.57964327  0.80896269  1
  Se  Se203  1  0.91531991  0.90194011  0.31605428  1
  Se  Se204  1  0.91376350  0.90243164  0.80668693  1
  Se  Se205  1  0.09738596  0.08756908  0.30922701  1
  Se  Se206  1  0.08508263  0.08474612  0.81203124  1
  Se  Se207  1  0.08052716  0.42284156  0.30413842  1
  Se  Se208  1  0.09227121  0.42379228  0.81340636  1
  Se  Se209  1  0.07745507  0.75217278  0.30862664  1
  Se  Se210  1  0.08419558  0.75079283  0.81043433  1
  Se  Se211  1  0.42273897  0.08617948  0.30738324  1
  Se  Se212  1  0.41132911  0.08073058  0.80865431  1
  Se  Se213  1  0.41246559  0.41290464  0.29660091  1
  Se  Se214  1  0.41944364  0.43117866  0.80521105  1
  Se  Se215  1  0.40778933  0.74533421  0.30408371  1
  Se  Se216  1  0.43176166  0.76301171  0.80757722  1
  Se  Se217  1  0.77002649  0.08580409  0.30855348  1
  Se  Se218  1  0.74513822  0.07298183  0.79780340  1
  Se  Se219  1  0.75474354  0.42507481  0.31955714  1
  Se  Se220  1  0.75674525  0.42143998  0.80567538  1
  Se  Se221  1  0.74660960  0.74385979  0.31138139  1
  Se  Se222  1  0.75748251  0.74998338  0.80579140  1
  Se  Se223  1  0.23762937  0.08282292  0.18790557  1
  Se  Se224  1  0.25005319  0.07284193  0.69432264  1
  Se  Se225  1  0.24747266  0.41779311  0.19920209  1
  Se  Se226  1  0.24939823  0.42003039  0.68592976  1
  Se  Se227  1  0.24997833  0.75485489  0.20333574  1
  Se  Se228  1  0.23655858  0.74927960  0.69010906  1
  Se  Se229  1  0.58317791  0.07990783  0.19253547  1
  Se  Se230  1  0.58584516  0.08138561  0.70235909  1
  Se  Se231  1  0.57717929  0.42180612  0.18716515  1
  Se  Se232  1  0.58540860  0.43040827  0.68375897  1
  Se  Se233  1  0.59097328  0.74254036  0.20365662  1
  Se  Se234  1  0.56863605  0.76087076  0.68644459  1
  Se  Se235  1  0.90709841  0.08485873  0.19363190  1
  Se  Se236  1  0.91122839  0.08568667  0.68181962  1
  Se  Se237  1  0.91015359  0.42252057  0.20302271  1
  Se  Se238  1  0.92618749  0.42634471  0.68987213  1
  Se  Se239  1  0.91989676  0.75140463  0.19852828  1
  Se  Se240  1  0.91123309  0.76308834  0.67598033  1
  Se  Se241  1  0.05899366  0.26415127  0.20768527  1
  Se  Se242  1  0.08492545  0.23511715  0.68571223  1
  Se  Se243  1  0.07973285  0.59066765  0.20124764  1
  Se  Se244  1  0.09628066  0.57743629  0.68330649  1
  Se  Se245  1  0.08805408  0.91320981  0.19277927  1
  Se  Se246  1  0.08227913  0.90380486  0.68378635  1
  Se  Se247  1  0.41646598  0.24844248  0.19484157  1
  Se  Se248  1  0.42708963  0.23808488  0.68858639  1
  Se  Se249  1  0.41224709  0.58673604  0.19758374  1
  Se  Se250  1  0.42595899  0.58650697  0.68482731  1
  Se  Se251  1  0.43030012  0.90625607  0.19751262  1
  Se  Se252  1  0.40033522  0.91660190  0.70142766  1
  Se  Se253  1  0.75601171  0.24047043  0.19814567  1
  Se  Se254  1  0.75499518  0.24859681  0.68440728  1
  Se  Se255  1  0.74797372  0.58617326  0.20028539  1
  Se  Se256  1  0.77039726  0.58399789  0.68092681  1
  Se  Se257  1  0.76004057  0.90978275  0.19489364  1
  Se  Se258  1  0.74670711  0.92012165  0.69161281  1
