# generated using pymatgen
data_In86Cu29Se144
_symmetry_space_group_name_H-M   'P 1'
_cell_length_a   17.58036472
_cell_length_b   17.58201618
_cell_length_c   23.43672654
_cell_angle_alpha   89.97391383
_cell_angle_beta   89.99663455
_cell_angle_gamma   89.99695454
_symmetry_Int_Tables_number   1
_chemical_formula_structural   In86Cu29Se144
_chemical_formula_sum   'In86 Cu29 Se144'
_cell_volume   7244.25054921
_cell_formula_units_Z   1
loop_
 _symmetry_equiv_pos_site_id
 _symmetry_equiv_pos_as_xyz
  1  'x, y, z'
loop_
 _atom_site_type_symbol
 _atom_site_label
 _atom_site_symmetry_multiplicity
 _atom_site_fract_x
 _atom_site_fract_y
 _atom_site_fract_z
 _atom_site_occupancy
  In  In0  1  -0.00224209  0.17010852  0.12235573  1
  In  In1  1  0.00320672  0.17570580  0.62918115  1
  In  In2  1  0.00087940  0.48677671  0.12725654  1
  In  In3  1  0.00014829  0.49738904  0.62880745  1
  In  In4  1  -0.00059076  0.84639311  0.12279724  1
  In  In5  1  -0.03359543  0.82963967  0.62659398  1
  In  In6  1  0.33491684  0.17271340  0.11858016  1
  In  In7  1  0.34479812  0.16723524  0.62708510  1
  In  In8  1  0.32399101  0.51553146  0.12820098  1
  In  In9  1  0.32289642  0.50688339  0.62780179  1
  In  In10  1  0.32578117  0.82717917  0.12866149  1
  In  In11  1  0.33865740  0.81455465  0.62330526  1
  In  In12  1  0.65751155  0.15580108  0.11708917  1
  In  In13  1  0.66591248  0.16710540  0.62752216  1
  In  In14  1  0.67802542  0.50896140  0.12747009  1
  In  In15  1  0.68380801  0.49348729  0.64366485  1
  In  In16  1  0.67699881  0.82919591  0.12850883  1
  In  In17  1  0.66841799  0.83498421  0.62932104  1
  In  In18  1  0.15667910  0.01109816  0.36695740  1
  In  In19  1  0.17567938  0.00559549  0.88045337  1
  In  In20  1  0.16027179  0.34103736  0.37221806  1
  In  In21  1  0.16706838  0.33661199  0.87818038  1
  In  In22  1  0.16340050  0.64368215  0.36961028  1
  In  In23  1  0.15239660  0.64890368  0.86714405  1
  In  In24  1  0.52582613  -0.02118953  0.39725474  1
  In  In25  1  0.51633123  -0.00260711  0.87400745  1
  In  In26  1  0.49158685  0.32564610  0.38488524  1
  In  In27  1  0.50213647  0.33080090  0.86842329  1
  In  In28  1  0.51273842  0.67705350  0.37052691  1
  In  In29  1  0.49684665  0.67074940  0.86499057  1
  In  In30  1  0.82386002  -0.00755760  0.36507803  1
  In  In31  1  0.82925089  0.00522347  0.87965121  1
  In  In32  1  0.85275552  0.33471975  0.37987122  1
  In  In33  1  0.82669442  0.32648848  0.86262279  1
  In  In34  1  0.82800510  0.67391065  0.38544232  1
  In  In35  1  0.85523740  0.67117998  0.84785390  1
  In  In36  1  0.00547180  0.17025439  0.35753271  1
  In  In37  1  -0.00747504  0.17504957  0.88222980  1
  In  In38  1  0.01095694  0.48535026  0.39923987  1
  In  In39  1  0.00836130  0.50869438  0.86776687  1
  In  In40  1  -0.01928889  0.83253395  0.37670599  1
  In  In41  1  -0.00721144  0.81425088  0.87585047  1
  In  In42  1  0.33899270  0.17366286  0.37576408  1
  In  In43  1  0.32761988  0.18117994  0.88590155  1
  In  In44  1  0.31751777  0.49602750  0.37718032  1
  In  In45  1  0.32774701  0.48981825  0.86925238  1
  In  In46  1  0.35129781  0.83531877  0.37448360  1
  In  In47  1  0.33950175  0.83253031  0.87182986  1
  In  In48  1  0.67269835  0.15105090  0.37793545  1
  In  In49  1  0.67054519  0.16531142  0.87359250  1
  In  In50  1  0.66705466  0.51821853  0.38086823  1
  In  In51  1  0.68529320  0.50775431  0.85469569  1
  In  In52  1  0.67405802  0.83192076  0.37980267  1
  In  In53  1  0.69087560  0.84366765  0.84966277  1
  In  In54  1  0.15102871  0.00896080  0.13107590  1
  In  In55  1  0.16285674  0.00924207  0.62408157  1
  In  In56  1  0.15523256  0.32509158  0.11925090  1
  In  In57  1  0.14775456  0.35479974  0.63910330  1
  In  In58  1  0.16838299  0.67178804  0.12393826  1
  In  In59  1  0.17202396  0.65244451  0.62532792  1
  In  In60  1  0.50168863  0.01295550  0.12561150  1
  In  In61  1  0.51924708  0.00761600  0.61279128  1
  In  In62  1  0.50783512  0.32357285  0.12049111  1
  In  In63  1  0.50916413  0.32192133  0.63309592  1
  In  In64  1  0.50182006  0.67159276  0.12863579  1
  In  In65  1  0.49826699  0.66698215  0.62485890  1
  In  In66  1  0.83138884  -0.00005890  0.12174376  1
  In  In67  1  0.81071606  -0.01764675  0.61826447  1
  In  In68  1  0.84934230  0.33711956  0.12361024  1
  In  In69  1  0.83887657  0.34124673  0.63674369  1
  In  In70  1  0.82030901  0.66415731  0.12386035  1
  In  In71  1  0.83579613  0.66620945  0.63559215  1
  In  In72  1  0.67219935  0.33644998  0.24835285  1
  In  In73  1  0.17158077  0.17415847  0.49210865  1
  In  In74  1  0.50363693  0.83328584  -0.00553772  1
  In  In75  1  0.33735720  0.00012716  0.24708564  1
  In  In76  1  0.83676002  0.17029211  0.50345482  1
  In  In77  1  0.16309320  0.83675902  0.00369667  1
  In  In78  1  0.16847529  0.82487858  0.49942838  1
  In  In79  1  -0.00284209  -0.00095096  0.74729956  1
  In  In80  1  -0.00511414  0.66483700  0.25373193  1
  In  In81  1  0.83979516  0.50059576  -0.00601459  1
  In  In82  1  0.50132055  0.48878037  -0.00728120  1
  In  In83  1  0.32735562  0.33767172  0.25349184  1
  In  In84  1  0.50095721  0.49893344  0.50518947  1
  In  In85  1  0.33882337  -0.00171616  0.75322656  1
  Cu  Cu86  1  0.33395804  0.01380071  0.00471812  1
  Cu  Cu87  1  0.33155834  0.33992863  -0.00320789  1
  Cu  Cu88  1  0.83575594  0.16478561  0.24518183  1
  Cu  Cu89  1  0.16766655  0.82763698  0.24818705  1
  Cu  Cu90  1  0.67237744  0.33476682  0.51182502  1
  Cu  Cu91  1  0.83460118  0.50792819  0.25497773  1
  Cu  Cu92  1  0.49316660  0.49784513  0.74406781  1
  Cu  Cu93  1  0.66554676  0.67064117  -0.00407647  1
  Cu  Cu94  1  0.67168128  -0.00115909  -0.00545330  1
  Cu  Cu95  1  0.17221507  0.49944246  0.75118329  1
  Cu  Cu96  1  -0.00463654  0.66683103  0.50656862  1
  Cu  Cu97  1  0.32244584  0.66242311  -0.00390865  1
  Cu  Cu98  1  0.33559361  0.66193510  0.49891450  1
  Cu  Cu99  1  0.34005853  -0.00517463  0.50303316  1
  Cu  Cu100  1  0.16686276  0.17821863  0.75755355  1
  Cu  Cu101  1  0.50315479  0.16582937  0.75107714  1
  Cu  Cu102  1  0.83212356  0.15839799  0.75064760  1
  Cu  Cu103  1  0.32837201  0.33112891  0.50533512  1
  Cu  Cu104  1  0.51151408  0.82985833  0.25506920  1
  Cu  Cu105  1  0.67557304  0.67015773  0.50839038  1
  Cu  Cu106  1  -0.00442064  0.00272785  0.00302429  1
  Cu  Cu107  1  0.67286932  0.32750790  -0.00735343  1
  Cu  Cu108  1  0.50340659  0.15966034  0.25551007  1
  Cu  Cu109  1  0.49901995  0.50910325  0.25051436  1
  Cu  Cu110  1  -0.00917219  0.00261618  0.49377572  1
  Cu  Cu111  1  0.00207900  0.33000067  -0.00221459  1
  Cu  Cu112  1  0.15944881  0.82338092  0.74433303  1
  Cu  Cu113  1  0.83033379  0.83912351  0.25163534  1
  Cu  Cu114  1  0.49772505  0.83309220  0.74568571  1
  Se  Se115  1  0.08266132  0.08581404  0.05255848  1
  Se  Se116  1  0.07289734  0.08278377  0.55146490  1
  Se  Se117  1  0.08169423  0.41760532  0.05034032  1
  Se  Se118  1  0.08401328  0.42157115  0.55595452  1
  Se  Se119  1  0.06963982  0.74399985  0.05668858  1
  Se  Se120  1  0.07592907  0.74915100  0.56638537  1
  Se  Se121  1  0.42480831  0.09296941  0.05318290  1
  Se  Se122  1  0.41727112  0.08394871  0.55500473  1
  Se  Se123  1  0.40935551  0.41444344  0.06449922  1
  Se  Se124  1  0.41188451  0.40867621  0.56528298  1
  Se  Se125  1  0.40677653  0.74386056  0.05322464  1
  Se  Se126  1  0.42123581  0.74494168  0.54811342  1
  Se  Se127  1  0.75097842  0.08356079  0.05049421  1
  Se  Se128  1  0.73774383  0.07795773  0.55017544  1
  Se  Se129  1  0.74452836  0.41141910  0.05646255  1
  Se  Se130  1  0.75404410  0.41762988  0.56405267  1
  Se  Se131  1  0.74917691  0.75092352  0.05121905  1
  Se  Se132  1  0.75756657  0.75148435  0.56338901  1
  Se  Se133  1  0.25101022  0.25456692  0.05209574  1
  Se  Se134  1  0.24709381  0.25410296  0.56816286  1
  Se  Se135  1  0.24048790  0.58329741  0.05192441  1
  Se  Se136  1  0.24931673  0.57873267  0.54791563  1
  Se  Se137  1  0.25577934  0.92926493  0.06324745  1
  Se  Se138  1  0.25405232  0.92105285  0.56222974  1
  Se  Se139  1  0.58582343  0.24835787  0.04689429  1
  Se  Se140  1  0.58457715  0.24859464  0.55564583  1
  Se  Se141  1  0.58716318  0.58729071  0.05407680  1
  Se  Se142  1  0.59661760  0.58167016  0.56445557  1
  Se  Se143  1  0.58885573  0.92255606  0.05823049  1
  Se  Se144  1  0.58449765  0.90536350  0.55323623  1
  Se  Se145  1  0.91430377  0.24985695  0.04966558  1
  Se  Se146  1  0.92624095  0.26407037  0.55928098  1
  Se  Se147  1  0.92104607  0.58605997  0.06350759  1
  Se  Se148  1  0.91543870  0.58480917  0.56347437  1
  Se  Se149  1  0.91166450  0.91464107  0.05042660  1
  Se  Se150  1  0.91085726  0.92063577  0.54997397  1
  Se  Se151  1  0.06940423  0.25559238  0.43950587  1
  Se  Se152  1  0.08926616  0.24683853  0.94659192  1
  Se  Se153  1  0.08591891  0.58994591  0.45457764  1
  Se  Se154  1  0.07313395  0.58755053  0.94643045  1
  Se  Se155  1  0.08009242  0.92225001  0.44082210  1
  Se  Se156  1  0.07316340  0.92289550  0.93815557  1
  Se  Se157  1  0.41238375  0.24522439  0.45588321  1
  Se  Se158  1  0.42282066  0.26032685  0.94758668  1
  Se  Se159  1  0.41713549  0.58384308  0.43637990  1
  Se  Se160  1  0.41237891  0.58826771  0.93979492  1
  Se  Se161  1  0.42204899  0.90587597  0.45508759  1
  Se  Se162  1  0.40751321  0.93012831  0.94266949  1
  Se  Se163  1  0.74446665  0.25878942  0.44048576  1
  Se  Se164  1  0.75901910  0.24593294  0.94140810  1
  Se  Se165  1  0.75428721  0.58253773  0.45506963  1
  Se  Se166  1  0.74696106  0.58958907  0.93706781  1
  Se  Se167  1  0.75434191  0.92211916  0.44438009  1
  Se  Se168  1  0.74674468  0.90920027  0.93998176  1
  Se  Se169  1  0.25927798  0.07007141  0.44009736  1
  Se  Se170  1  0.24637490  0.09199044  0.95167309  1
  Se  Se171  1  0.24598260  0.40915823  0.44816713  1
  Se  Se172  1  0.24686944  0.42448321  0.94763213  1
  Se  Se173  1  0.25742692  0.74116447  0.43437086  1
  Se  Se174  1  0.24878221  0.74978026  0.93697074  1
  Se  Se175  1  0.56901820  0.10219413  0.44538619  1
  Se  Se176  1  0.58601859  0.08431730  0.94539724  1
  Se  Se177  1  0.59338492  0.40928285  0.44397887  1
  Se  Se178  1  0.60234856  0.41516688  0.93193152  1
  Se  Se179  1  0.59118267  0.74546175  0.44843732  1
  Se  Se180  1  0.59266344  0.75017818  0.93075061  1
  Se  Se181  1  0.91955165  0.08655752  0.43159068  1
  Se  Se182  1  0.91345202  0.08585437  0.94788344  1
  Se  Se183  1  0.89782688  0.43031629  0.45487472  1
  Se  Se184  1  0.92309680  0.40658902  0.93328341  1
  Se  Se185  1  0.91391832  0.75410683  0.45497694  1
  Se  Se186  1  0.90538877  0.73379483  0.93930991  1
  Se  Se187  1  0.23908403  0.23980982  0.30827007  1
  Se  Se188  1  0.25542556  0.25710827  0.80833061  1
  Se  Se189  1  0.25424581  0.57723046  0.29988588  1
  Se  Se190  1  0.25542931  0.58574469  0.80344868  1
  Se  Se191  1  0.24668112  0.90953193  0.30970672  1
  Se  Se192  1  0.23654296  0.90726567  0.80479917  1
  Se  Se193  1  0.58042522  0.24955947  0.31082456  1
  Se  Se194  1  0.58922492  0.24844131  0.80308194  1
  Se  Se195  1  0.58867307  0.58636436  0.30251253  1
  Se  Se196  1  0.57393513  0.57730049  0.80255134  1
  Se  Se197  1  0.58883690  0.91590680  0.30991133  1
  Se  Se198  1  0.58260316  0.91723878  0.79705165  1
  Se  Se199  1  0.91193898  0.25445576  0.29832991  1
  Se  Se200  1  0.91908359  0.24209925  0.80045602  1
  Se  Se201  1  0.91385849  0.57926692  0.32158218  1
  Se  Se202  1  0.90075744  0.54934346  0.79701306  1
  Se  Se203  1  0.92123055  0.92002629  0.29979318  1
  Se  Se204  1  0.91286095  0.91213095  0.81143304  1
  Se  Se205  1  0.08223388  0.08193317  0.29090016  1
  Se  Se206  1  0.08837833  0.08700559  0.81031253  1
  Se  Se207  1  0.07697469  0.42876792  0.31084607  1
  Se  Se208  1  0.08821683  0.41622535  0.80473936  1
  Se  Se209  1  0.08694726  0.75612360  0.31465910  1
  Se  Se210  1  0.07859591  0.74452500  0.80219038  1
  Se  Se211  1  0.42542271  0.07920976  0.31592240  1
  Se  Se212  1  0.42140007  0.09140610  0.81560423  1
  Se  Se213  1  0.42772282  0.42305058  0.31150114  1
  Se  Se214  1  0.41610848  0.41291558  0.80204768  1
  Se  Se215  1  0.41959773  0.74862842  0.30136309  1
  Se  Se216  1  0.41041384  0.75183019  0.79706057  1
  Se  Se217  1  0.74860262  0.08451780  0.29770181  1
  Se  Se218  1  0.74802551  0.07716304  0.80369976  1
  Se  Se219  1  0.75437059  0.42453143  0.31485911  1
  Se  Se220  1  0.74545431  0.40474980  0.79210775  1
  Se  Se221  1  0.75503349  0.75073837  0.30736325  1
  Se  Se222  1  0.73450686  0.72214831  0.79683636  1
  Se  Se223  1  0.24830608  0.09463255  0.19171259  1
  Se  Se224  1  0.24249935  0.09191836  0.69780072  1
  Se  Se225  1  0.23966460  0.41986848  0.18861201  1
  Se  Se226  1  0.25663751  0.41388218  0.69938988  1
  Se  Se227  1  0.25193528  0.74293391  0.19968814  1
  Se  Se228  1  0.24859904  0.74511318  0.69258373  1
  Se  Se229  1  0.58801077  0.08225978  0.19892864  1
  Se  Se230  1  0.58333320  0.08173422  0.69592494  1
  Se  Se231  1  0.57558140  0.42659165  0.18881495  1
  Se  Se232  1  0.58353409  0.41336766  0.69949571  1
  Se  Se233  1  0.59031322  0.74778341  0.19543165  1
  Se  Se234  1  0.58041327  0.74880796  0.69396426  1
  Se  Se235  1  0.91702232  0.08132612  0.18973232  1
  Se  Se236  1  0.90657732  0.08313051  0.68205591  1
  Se  Se237  1  0.91270006  0.42060755  0.20145207  1
  Se  Se238  1  0.90877339  0.43466214  0.70525052  1
  Se  Se239  1  0.90973067  0.75636195  0.19027786  1
  Se  Se240  1  0.92259719  0.74278627  0.70678953  1
  Se  Se241  1  0.07307111  0.25575052  0.19338167  1
  Se  Se242  1  0.07820485  0.25442547  0.70317652  1
  Se  Se243  1  0.08592867  0.58036783  0.19163300  1
  Se  Se244  1  0.08603932  0.58087354  0.69732257  1
  Se  Se245  1  0.08370557  0.91301448  0.19848921  1
  Se  Se246  1  0.08534883  0.90790853  0.68371072  1
  Se  Se247  1  0.42495888  0.24473869  0.19722750  1
  Se  Se248  1  0.41577641  0.24914482  0.70160532  1
  Se  Se249  1  0.41629721  0.58866832  0.19467429  1
  Se  Se250  1  0.41299324  0.58590693  0.69308222  1
  Se  Se251  1  0.43046562  0.90532137  0.18945479  1
  Se  Se252  1  0.42116092  0.91562662  0.68386851  1
  Se  Se253  1  0.75412868  0.24511453  0.18404075  1
  Se  Se254  1  0.75471624  0.24536120  0.69399093  1
  Se  Se255  1  0.74843868  0.58920887  0.20339293  1
  Se  Se256  1  0.73157472  0.60733987  0.70385324  1
  Se  Se257  1  0.74865470  0.92185146  0.19573498  1
  Se  Se258  1  0.75314395  0.91082178  0.70225784  1
