# generated using pymatgen
data_In86Cu29Se144
_symmetry_space_group_name_H-M   'P 1'
_cell_length_a   17.57459420
_cell_length_b   17.57485795
_cell_length_c   23.43528504
_cell_angle_alpha   90.00268216
_cell_angle_beta   89.97296203
_cell_angle_gamma   89.98957666
_symmetry_Int_Tables_number   1
_chemical_formula_structural   In86Cu29Se144
_chemical_formula_sum   'In86 Cu29 Se144'
_cell_volume   7238.47891167
_cell_formula_units_Z   1
loop_
 _symmetry_equiv_pos_site_id
 _symmetry_equiv_pos_as_xyz
  1  'x, y, z'
loop_
 _atom_site_type_symbol
 _atom_site_label
 _atom_site_symmetry_multiplicity
 _atom_site_fract_x
 _atom_site_fract_y
 _atom_site_fract_z
 _atom_site_occupancy
  In  In0  1  -0.00554542  0.14545775  0.12287751  1
  In  In1  1  -0.01876536  0.16968894  0.62450773  1
  In  In2  1  -0.00222594  0.50381047  0.12672958  1
  In  In3  1  0.00849679  0.50853511  0.61907253  1
  In  In4  1  0.01084190  0.84852867  0.12021443  1
  In  In5  1  -0.00004506  0.82372414  0.63375879  1
  In  In6  1  0.34378942  0.18024987  0.10728885  1
  In  In7  1  0.36107288  0.16608954  0.62085144  1
  In  In8  1  0.35769071  0.49759442  0.12513914  1
  In  In9  1  0.32668785  0.49391079  0.62310045  1
  In  In10  1  0.31577257  0.83346743  0.13040828  1
  In  In11  1  0.33064578  0.84169444  0.60460141  1
  In  In12  1  0.66681341  0.16904979  0.13906484  1
  In  In13  1  0.66645488  0.16696592  0.62561923  1
  In  In14  1  0.65750043  0.50465636  0.13108776  1
  In  In15  1  0.65560423  0.49096933  0.61558806  1
  In  In16  1  0.67872631  0.83000108  0.13775800  1
  In  In17  1  0.67347512  0.85055778  0.62310551  1
  In  In18  1  0.15383773  -0.00554860  0.37069095  1
  In  In19  1  0.15601087  0.00191815  0.87507932  1
  In  In20  1  0.17786558  0.33759083  0.37872312  1
  In  In21  1  0.16702359  0.31807521  0.87527584  1
  In  In22  1  0.17299287  0.66647912  0.37837550  1
  In  In23  1  0.16678934  0.68158898  0.87787593  1
  In  In24  1  0.51390798  -0.01380858  0.38939307  1
  In  In25  1  0.51717151  0.00651889  0.87268433  1
  In  In26  1  0.51160877  0.32193842  0.38507914  1
  In  In27  1  0.50109535  0.33074663  0.87529237  1
  In  In28  1  0.50098756  0.66659364  0.37691817  1
  In  In29  1  0.48795825  0.65544369  0.88019815  1
  In  In30  1  0.84016572  0.00441643  0.36051342  1
  In  In31  1  0.82415051  -0.01072449  0.86731440  1
  In  In32  1  0.82524590  0.34409723  0.38337512  1
  In  In33  1  0.82020716  0.33700961  0.87293892  1
  In  In34  1  0.81727364  0.66950261  0.37294621  1
  In  In35  1  0.84687816  0.66540606  0.87155750  1
  In  In36  1  -0.00080279  0.14846491  0.37028461  1
  In  In37  1  0.01316132  0.15679068  0.87316907  1
  In  In38  1  0.00276987  0.50233887  0.38557214  1
  In  In39  1  -0.01446882  0.50383469  0.87010369  1
  In  In40  1  -0.00417637  0.84688987  0.37154368  1
  In  In41  1  -0.00191762  0.83719886  0.87274219  1
  In  In42  1  0.33912967  0.17608415  0.37679664  1
  In  In43  1  0.32955121  0.17699356  0.88206456  1
  In  In44  1  0.32916496  0.50575971  0.38410692  1
  In  In45  1  0.35092416  0.49528550  0.87942129  1
  In  In46  1  0.34400330  0.83265541  0.38126718  1
  In  In47  1  0.32631045  0.82201277  0.87888538  1
  In  In48  1  0.67062603  0.16478825  0.37204437  1
  In  In49  1  0.66019356  0.16646212  0.87597774  1
  In  In50  1  0.66313047  0.49717012  0.37842429  1
  In  In51  1  0.66187474  0.48805033  0.87494562  1
  In  In52  1  0.66792703  0.82435577  0.36360935  1
  In  In53  1  0.66492115  0.84808230  0.87308407  1
  In  In54  1  0.16246942  -0.00552700  0.11889208  1
  In  In55  1  0.16699978  -0.01571249  0.62241966  1
  In  In56  1  0.19009904  0.32805130  0.11865991  1
  In  In57  1  0.16797958  0.34637545  0.62833108  1
  In  In58  1  0.16174081  0.68806806  0.13301922  1
  In  In59  1  0.16413569  0.66716199  0.62164606  1
  In  In60  1  0.50286782  0.01292365  0.12333117  1
  In  In61  1  0.50647067  0.01289691  0.60964809  1
  In  In62  1  0.51568220  0.34263655  0.10976824  1
  In  In63  1  0.50347750  0.33301975  0.62752588  1
  In  In64  1  0.50889933  0.66266485  0.13464658  1
  In  In65  1  0.49203321  0.66369947  0.61301424  1
  In  In66  1  0.85156190  -0.01144623  0.14739419  1
  In  In67  1  0.82153964  0.00254238  0.63430658  1
  In  In68  1  0.80750011  0.32309937  0.12767977  1
  In  In69  1  0.82174711  0.32084592  0.61704996  1
  In  In70  1  0.81611419  0.66894890  0.12999304  1
  In  In71  1  0.84982506  0.67453911  0.62260609  1
  In  In72  1  0.34060381  0.33537906  0.24895864  1
  In  In73  1  0.32809625  0.66365535  0.75137599  1
  In  In74  1  0.67420757  0.67263762  0.74312058  1
  In  In75  1  -0.00503444  0.33154386  0.75069560  1
  In  In76  1  0.82737046  0.16392035  0.00219107  1
  In  In77  1  0.33653564  0.00313017  0.74208004  1
  In  In78  1  0.82802815  0.50348438  0.00366190  1
  In  In79  1  -0.00592105  0.32648477  0.24670763  1
  In  In80  1  0.16484260  0.16813506  0.49874560  1
  In  In81  1  0.17213389  0.50246734  -0.00063059  1
  In  In82  1  0.33570453  0.00170429  0.24844157  1
  In  In83  1  0.83359989  0.83396293  0.49682077  1
  In  In84  1  -0.00902403  0.67507008  0.25842654  1
  In  In85  1  0.49813124  0.83733347  -0.00255551  1
  Cu  Cu86  1  0.16687463  0.50271127  0.74603135  1
  Cu  Cu87  1  -0.00277676  0.33497082  0.50309470  1
  Cu  Cu88  1  0.50355243  0.16598964  0.25331839  1
  Cu  Cu89  1  0.00044197  -0.00584864  -0.00013744  1
  Cu  Cu90  1  0.50323349  0.83849174  0.74475799  1
  Cu  Cu91  1  0.66311507  0.32992549  0.50077952  1
  Cu  Cu92  1  -0.00609612  -0.00154870  0.49748966  1
  Cu  Cu93  1  0.16432192  0.15922520  0.24128029  1
  Cu  Cu94  1  0.50635617  0.49255364  0.74983544  1
  Cu  Cu95  1  0.32907011  0.00279508  -0.00022626  1
  Cu  Cu96  1  0.66252460  0.66436135  0.49394544  1
  Cu  Cu97  1  0.66288434  0.66686457  0.00721042  1
  Cu  Cu98  1  0.00215410  0.32691361  0.00179798  1
  Cu  Cu99  1  0.33332687  0.66629453  0.00737080  1
  Cu  Cu100  1  0.17420233  0.16486900  0.75113391  1
  Cu  Cu101  1  0.00792292  0.66707422  0.50128076  1
  Cu  Cu102  1  0.33797534  0.33670661  0.50290763  1
  Cu  Cu103  1  0.67261969  0.00663516  0.49787452  1
  Cu  Cu104  1  0.50437348  0.50018836  0.25545646  1
  Cu  Cu105  1  0.67522066  0.00147881  0.00195262  1
  Cu  Cu106  1  0.16191660  0.83202618  0.74922899  1
  Cu  Cu107  1  0.81885553  0.49378224  0.25290290  1
  Cu  Cu108  1  0.00023116  0.68111887  -0.00139487  1
  Cu  Cu109  1  0.49865164  0.83002239  0.25416190  1
  Cu  Cu110  1  0.82577581  0.16080448  0.74960403  1
  Cu  Cu111  1  0.83274998  0.49938353  0.74480054  1
  Cu  Cu112  1  0.50732706  0.17119137  0.74838063  1
  Cu  Cu113  1  0.33649980  0.66913145  0.49797994  1
  Cu  Cu114  1  0.16894891  0.50596200  0.25827298  1
  Se  Se115  1  0.08398820  0.08159167  0.04953578  1
  Se  Se116  1  0.07235316  0.08035759  0.55957705  1
  Se  Se117  1  0.07864687  0.41171945  0.06070786  1
  Se  Se118  1  0.08587748  0.41609043  0.55319750  1
  Se  Se119  1  0.08791981  0.75677204  0.05280260  1
  Se  Se120  1  0.08240958  0.75612869  0.55637804  1
  Se  Se121  1  0.42057582  0.08139894  0.04743842  1
  Se  Se122  1  0.40056727  0.06899433  0.54548069  1
  Se  Se123  1  0.39090732  0.38568330  0.06056360  1
  Se  Se124  1  0.42052314  0.41844538  0.55869017  1
  Se  Se125  1  0.41594058  0.74920806  0.06456195  1
  Se  Se126  1  0.42228671  0.75690860  0.54516221  1
  Se  Se127  1  0.75112163  0.07421263  0.07003912  1
  Se  Se128  1  0.75404083  0.08473949  0.55746440  1
  Se  Se129  1  0.73402279  0.41218344  0.05607397  1
  Se  Se130  1  0.74980556  0.41528657  0.55059824  1
  Se  Se131  1  0.74650877  0.75352387  0.05555186  1
  Se  Se132  1  0.74221583  0.74296162  0.55737486  1
  Se  Se133  1  0.24174382  0.24018852  0.04169388  1
  Se  Se134  1  0.25524952  0.25497050  0.56265490  1
  Se  Se135  1  0.25255827  0.58804177  0.06941546  1
  Se  Se136  1  0.25468258  0.58806348  0.55676805  1
  Se  Se137  1  0.25112120  0.91428318  0.05141486  1
  Se  Se138  1  0.23810907  0.91777339  0.54179977  1
  Se  Se139  1  0.58652642  0.23357960  0.06051840  1
  Se  Se140  1  0.58071538  0.24725141  0.55651284  1
  Se  Se141  1  0.57828634  0.58268257  0.05644725  1
  Se  Se142  1  0.57970177  0.58162725  0.54873415  1
  Se  Se143  1  0.59100912  0.91895873  0.06050020  1
  Se  Se144  1  0.58954886  0.91920033  0.54880548  1
  Se  Se145  1  0.91783838  0.25634425  0.06420830  1
  Se  Se146  1  0.91123563  0.24634385  0.54685219  1
  Se  Se147  1  0.92265862  0.59784287  0.05881763  1
  Se  Se148  1  0.91892331  0.58569572  0.55103102  1
  Se  Se149  1  0.91172640  0.92247554  0.05840144  1
  Se  Se150  1  0.91819649  0.92026110  0.56303960  1
  Se  Se151  1  0.07359247  0.25658357  0.43655446  1
  Se  Se152  1  0.08158104  0.24419897  0.94666550  1
  Se  Se153  1  0.09223843  0.58283042  0.44894599  1
  Se  Se154  1  0.07209451  0.58811716  0.94141754  1
  Se  Se155  1  0.07963617  0.91560689  0.44724138  1
  Se  Se156  1  0.08549048  0.91198375  0.94560709  1
  Se  Se157  1  0.41797634  0.24809712  0.45246005  1
  Se  Se158  1  0.43518436  0.23379717  0.94344456  1
  Se  Se159  1  0.42126835  0.58316517  0.44853618  1
  Se  Se160  1  0.41560481  0.57938285  0.95745726  1
  Se  Se161  1  0.40838243  0.92785783  0.45110383  1
  Se  Se162  1  0.40936552  0.92696636  0.93412568  1
  Se  Se163  1  0.74727892  0.24884630  0.44559918  1
  Se  Se164  1  0.73860127  0.26079986  0.94733905  1
  Se  Se165  1  0.75073628  0.58107397  0.44578438  1
  Se  Se166  1  0.74219746  0.59260492  0.93895133  1
  Se  Se167  1  0.74643068  0.92231190  0.43523165  1
  Se  Se168  1  0.75203471  0.91462313  0.94743867  1
  Se  Se169  1  0.24810535  0.08165040  0.43318825  1
  Se  Se170  1  0.24694898  0.08079875  0.94008446  1
  Se  Se171  1  0.24929785  0.41832016  0.45291551  1
  Se  Se172  1  0.25583487  0.40801546  0.94029434  1
  Se  Se173  1  0.25177855  0.75285093  0.44680915  1
  Se  Se174  1  0.24890423  0.74894584  0.95505385  1
  Se  Se175  1  0.58563727  0.09032472  0.44695443  1
  Se  Se176  1  0.58803826  0.08246817  0.95099091  1
  Se  Se177  1  0.58039139  0.41869924  0.45110852  1
  Se  Se178  1  0.56928288  0.42747230  0.94445033  1
  Se  Se179  1  0.58708689  0.75512936  0.44124660  1
  Se  Se180  1  0.58764867  0.74292880  0.93820186  1
  Se  Se181  1  0.91126787  0.07877868  0.44228177  1
  Se  Se182  1  0.91945671  0.07706332  0.94063664  1
  Se  Se183  1  0.91545051  0.42107251  0.45054792  1
  Se  Se184  1  0.92055609  0.40780070  0.94408734  1
  Se  Se185  1  0.92446601  0.74103837  0.43743807  1
  Se  Se186  1  0.91277924  0.75585555  0.94346433  1
  Se  Se187  1  0.24095473  0.24189247  0.30257962  1
  Se  Se188  1  0.25488908  0.25049413  0.80207136  1
  Se  Se189  1  0.25644112  0.58556267  0.30797458  1
  Se  Se190  1  0.24275722  0.57451511  0.81690510  1
  Se  Se191  1  0.25028881  0.91103858  0.30917317  1
  Se  Se192  1  0.24965842  0.91022664  0.80601404  1
  Se  Se193  1  0.58519877  0.25252750  0.30536095  1
  Se  Se194  1  0.58901625  0.25417049  0.80363541  1
  Se  Se195  1  0.58690774  0.58510956  0.30808239  1
  Se  Se196  1  0.57928930  0.58509234  0.80525792  1
  Se  Se197  1  0.57950491  0.91697959  0.30544297  1
  Se  Se198  1  0.58533298  0.92147824  0.79752677  1
  Se  Se199  1  0.91065238  0.24823285  0.31649364  1
  Se  Se200  1  0.90704473  0.23929259  0.81278278  1
  Se  Se201  1  0.90789504  0.56911441  0.31016625  1
  Se  Se202  1  0.91718546  0.58462182  0.79418823  1
  Se  Se203  1  0.91019073  0.90691931  0.29612955  1
  Se  Se204  1  0.93222156  0.93454686  0.80610271  1
  Se  Se205  1  0.08224435  0.07744186  0.29553035  1
  Se  Se206  1  0.08602341  0.07974143  0.79604633  1
  Se  Se207  1  0.08636634  0.41884106  0.30889052  1
  Se  Se208  1  0.08828599  0.42217399  0.81037621  1
  Se  Se209  1  0.09164917  0.75867804  0.31049040  1
  Se  Se210  1  0.08114158  0.74828385  0.80433388  1
  Se  Se211  1  0.42497286  0.08582094  0.31364729  1
  Se  Se212  1  0.42329612  0.08936718  0.80691900  1
  Se  Se213  1  0.42405055  0.41968222  0.31690747  1
  Se  Se214  1  0.41858630  0.41416105  0.80321041  1
  Se  Se215  1  0.41562073  0.74814101  0.30743941  1
  Se  Se216  1  0.42626047  0.75726780  0.80632060  1
  Se  Se217  1  0.73491509  0.06959834  0.30162069  1
  Se  Se218  1  0.74187095  0.08256046  0.80698913  1
  Se  Se219  1  0.73982452  0.40950025  0.30703828  1
  Se  Se220  1  0.74850085  0.42042753  0.79979605  1
  Se  Se221  1  0.76440054  0.75772788  0.29621194  1
  Se  Se222  1  0.75599070  0.75737498  0.81087787  1
  Se  Se223  1  0.25574909  0.09265816  0.18118985  1
  Se  Se224  1  0.24675335  0.09213478  0.68066489  1
  Se  Se225  1  0.24556929  0.42771693  0.19308889  1
  Se  Se226  1  0.25428173  0.41657259  0.70155226  1
  Se  Se227  1  0.25763390  0.74257276  0.20397800  1
  Se  Se228  1  0.25089308  0.76155549  0.68857148  1
  Se  Se229  1  0.58296165  0.07735158  0.20197788  1
  Se  Se230  1  0.57986079  0.08123879  0.69141320  1
  Se  Se231  1  0.57747585  0.41327947  0.19570940  1
  Se  Se232  1  0.59159829  0.41267294  0.69641673  1
  Se  Se233  1  0.58746199  0.74931547  0.20164610  1
  Se  Se234  1  0.57535765  0.75376150  0.68305618  1
  Se  Se235  1  0.91586110  0.09568531  0.20584735  1
  Se  Se236  1  0.91522024  0.08301804  0.69820178  1
  Se  Se237  1  0.90214154  0.42248606  0.18874423  1
  Se  Se238  1  0.91281403  0.41827982  0.68354484  1
  Se  Se239  1  0.91653258  0.75533123  0.18339799  1
  Se  Se240  1  0.90850110  0.75326570  0.70234602  1
  Se  Se241  1  0.09101664  0.24742720  0.18254236  1
  Se  Se242  1  0.08824407  0.24311460  0.68982129  1
  Se  Se243  1  0.08498595  0.58089890  0.19745850  1
  Se  Se244  1  0.08434230  0.58702650  0.69486903  1
  Se  Se245  1  0.09606313  0.91379951  0.19543045  1
  Se  Se246  1  0.08114595  0.91804064  0.69647199  1
  Se  Se247  1  0.42713535  0.24393573  0.18960887  1
  Se  Se248  1  0.41814022  0.25234473  0.69846730  1
  Se  Se249  1  0.41981760  0.58221076  0.20197288  1
  Se  Se250  1  0.42430311  0.57734513  0.69343036  1
  Se  Se251  1  0.42588170  0.90929970  0.18753939  1
  Se  Se252  1  0.42224842  0.91143066  0.68098636  1
  Se  Se253  1  0.75618027  0.24230843  0.20846001  1
  Se  Se254  1  0.74838388  0.25027248  0.69688661  1
  Se  Se255  1  0.74225277  0.58398738  0.20063353  1
  Se  Se256  1  0.75486419  0.57714220  0.68085026  1
  Se  Se257  1  0.73490113  0.93574963  0.20149794  1
  Se  Se258  1  0.75200656  0.90979564  0.70261000  1
