# generated using pymatgen
data_In86Cu29Se144
_symmetry_space_group_name_H-M   'P 1'
_cell_length_a   17.57439691
_cell_length_b   17.56902926
_cell_length_c   23.42664102
_cell_angle_alpha   90.01390611
_cell_angle_beta   90.01930862
_cell_angle_gamma   89.95944656
_symmetry_Int_Tables_number   1
_chemical_formula_structural   In86Cu29Se144
_chemical_formula_sum   'In86 Cu29 Se144'
_cell_volume   7233.32656906
_cell_formula_units_Z   1
loop_
 _symmetry_equiv_pos_site_id
 _symmetry_equiv_pos_as_xyz
  1  'x, y, z'
loop_
 _atom_site_type_symbol
 _atom_site_label
 _atom_site_symmetry_multiplicity
 _atom_site_fract_x
 _atom_site_fract_y
 _atom_site_fract_z
 _atom_site_occupancy
  In  In0  1  -0.00853552  0.16249286  0.13204907  1
  In  In1  1  0.00351518  0.16241387  0.61920348  1
  In  In2  1  0.01185308  0.50437912  0.11504689  1
  In  In3  1  -0.01783594  0.50030545  0.61879487  1
  In  In4  1  0.02663060  0.81814727  0.15106628  1
  In  In5  1  0.00936658  0.84342895  0.62645729  1
  In  In6  1  0.32142477  0.16778865  0.14420893  1
  In  In7  1  0.33581311  0.18180891  0.62257277  1
  In  In8  1  0.33046876  0.50110016  0.12295096  1
  In  In9  1  0.33049021  0.48233388  0.62228185  1
  In  In10  1  0.32864902  0.82873283  0.12788607  1
  In  In11  1  0.33337679  0.82035787  0.62334612  1
  In  In12  1  0.68875762  0.17044301  0.12757149  1
  In  In13  1  0.66465399  0.14918898  0.62940432  1
  In  In14  1  0.65817022  0.49433161  0.11646351  1
  In  In15  1  0.67159900  0.50323425  0.62312331  1
  In  In16  1  0.64801714  0.83334177  0.12191314  1
  In  In17  1  0.66091744  0.84279845  0.62990881  1
  In  In18  1  0.16946105  0.00974636  0.36933999  1
  In  In19  1  0.15686171  -0.00010519  0.87996521  1
  In  In20  1  0.16062080  0.29491472  0.36584640  1
  In  In21  1  0.16905902  0.34075043  0.86831840  1
  In  In22  1  0.17120957  0.67680292  0.35388262  1
  In  In23  1  0.17955531  0.66034562  0.89507614  1
  In  In24  1  0.48838250  -0.00512280  0.37603839  1
  In  In25  1  0.49839754  -0.01031128  0.87438130  1
  In  In26  1  0.50438418  0.33812853  0.36811761  1
  In  In27  1  0.50363603  0.34669754  0.87308318  1
  In  In28  1  0.49203685  0.66979876  0.37993508  1
  In  In29  1  0.50408444  0.65950699  0.88201306  1
  In  In30  1  0.85256241  0.01929060  0.37873714  1
  In  In31  1  0.84178096  0.00954509  0.86937462  1
  In  In32  1  0.83915457  0.34222526  0.38707306  1
  In  In33  1  0.84037864  0.32201539  0.87931290  1
  In  In34  1  0.83892568  0.65214912  0.37202253  1
  In  In35  1  0.82093699  0.66712783  0.87339740  1
  In  In36  1  0.01026666  0.17215901  0.40001891  1
  In  In37  1  -0.00834935  0.15847402  0.86962999  1
  In  In38  1  -0.00797932  0.49255008  0.37449913  1
  In  In39  1  0.00686609  0.49167282  0.87967855  1
  In  In40  1  0.01773952  0.84742923  0.35810233  1
  In  In41  1  0.00197901  0.84482586  0.87708055  1
  In  In42  1  0.32217566  0.15465766  0.35649050  1
  In  In43  1  0.31954460  0.16908432  0.87232053  1
  In  In44  1  0.33799967  0.50559489  0.36722940  1
  In  In45  1  0.33985929  0.49674553  0.88307157  1
  In  In46  1  0.33302417  0.84151013  0.36435478  1
  In  In47  1  0.34265949  0.82124987  0.89884848  1
  In  In48  1  0.66774314  0.18560547  0.37381618  1
  In  In49  1  0.68356584  0.17449302  0.87175863  1
  In  In50  1  0.67442256  0.48714148  0.38163304  1
  In  In51  1  0.65738273  0.50722116  0.88085498  1
  In  In52  1  0.66082934  0.82298012  0.37918963  1
  In  In53  1  0.66082194  0.82524331  0.86635284  1
  In  In54  1  0.18107694  -0.01633828  0.15276354  1
  In  In55  1  0.14766643  0.00512691  0.62649248  1
  In  In56  1  0.16147305  0.34350503  0.12543435  1
  In  In57  1  0.17337415  0.32096552  0.62566902  1
  In  In58  1  0.17545806  0.66440731  0.12521880  1
  In  In59  1  0.16250729  0.67061849  0.62396492  1
  In  In60  1  0.49378924  -0.01623045  0.12274274  1
  In  In61  1  0.51389367  0.00324760  0.62391499  1
  In  In62  1  0.49271483  0.34514383  0.13031687  1
  In  In63  1  0.48216977  0.32960167  0.62389928  1
  In  In64  1  0.47677467  0.65087774  0.10784237  1
  In  In65  1  0.50831300  0.67178635  0.61974098  1
  In  In66  1  0.84409730  0.01062416  0.12156681  1
  In  In67  1  0.83214838  0.00694769  0.62448676  1
  In  In68  1  0.82805376  0.32343333  0.11977276  1
  In  In69  1  0.84721651  0.33397264  0.61179113  1
  In  In70  1  0.84925030  0.66403039  0.12387669  1
  In  In71  1  0.82800308  0.65291109  0.62334750  1
  In  In72  1  0.66868469  0.65918504  0.25018402  1
  In  In73  1  -0.00417753  0.67059530  0.74793977  1
  In  In74  1  0.50408135  0.16689181  0.00144317  1
  In  In75  1  0.50072739  0.16835989  0.49905337  1
  In  In76  1  0.33724115  0.65951547  0.76295391  1
  In  In77  1  0.15709846  0.16948314  0.01056761  1
  In  In78  1  0.00081314  0.32834916  0.25196076  1
  In  In79  1  0.33035128  0.00065482  0.75643826  1
  In  In80  1  0.66739404  0.00203578  0.24652886  1
  In  In81  1  0.16554014  0.49487209  0.49208499  1
  In  In82  1  0.83555710  0.83328822  -0.00013200  1
  In  In83  1  0.17222453  0.84275693  0.48493110  1
  In  In84  1  0.66539079  0.33318234  0.74916784  1
  In  In85  1  0.83554810  0.83471909  0.49828507  1
  Cu  Cu86  1  0.49578986  0.50418989  0.75482476  1
  Cu  Cu87  1  0.33018197  -0.00417520  0.49379146  1
  Cu  Cu88  1  0.83610999  0.84119176  0.24886241  1
  Cu  Cu89  1  -0.00330652  0.33176698  -0.00006479  1
  Cu  Cu90  1  0.33013243  -0.00170983  0.01107330  1
  Cu  Cu91  1  0.66121592  0.66074603  0.49860870  1
  Cu  Cu92  1  0.66335409  -0.00682585  0.50151899  1
  Cu  Cu93  1  0.00277041  0.66334745  0.00632497  1
  Cu  Cu94  1  0.50541260  0.16625541  0.25086564  1
  Cu  Cu95  1  0.00276485  -0.00522742  0.00535991  1
  Cu  Cu96  1  0.50211209  0.50122893  0.24364628  1
  Cu  Cu97  1  0.83983295  0.49338827  0.25080651  1
  Cu  Cu98  1  0.66675457  0.33903709  0.50139567  1
  Cu  Cu99  1  0.83082018  0.49368152  0.74668176  1
  Cu  Cu100  1  0.15940280  0.16874541  0.74898523  1
  Cu  Cu101  1  0.49200103  0.82643232  0.24684767  1
  Cu  Cu102  1  0.83147305  0.84125083  0.75128288  1
  Cu  Cu103  1  0.33707675  0.34052008  0.00047491  1
  Cu  Cu104  1  0.16400667  0.83506287  0.75972694  1
  Cu  Cu105  1  0.34175056  0.66026260  0.49805990  1
  Cu  Cu106  1  0.67377393  0.00161300  -0.00018890  1
  Cu  Cu107  1  -0.00070528  0.67006240  0.49081103  1
  Cu  Cu108  1  0.33432846  0.33272838  0.49317134  1
  Cu  Cu109  1  0.66923718  0.33608387  -0.00148682  1
  Cu  Cu110  1  0.15987698  0.48623400  0.74921132  1
  Cu  Cu111  1  0.83842096  0.16625469  0.74493152  1
  Cu  Cu112  1  0.66629716  0.66704787  -0.00321732  1
  Cu  Cu113  1  0.50636446  0.83799295  0.74813368  1
  Cu  Cu114  1  0.17119116  0.49850565  0.24485788  1
  Se  Se115  1  0.08213319  0.06995148  0.07018846  1
  Se  Se116  1  0.09935356  0.09524103  0.54987035  1
  Se  Se117  1  0.08741321  0.41390386  0.04643323  1
  Se  Se118  1  0.08284196  0.41571255  0.56330603  1
  Se  Se119  1  0.07975657  0.74813179  0.06223402  1
  Se  Se120  1  0.07959574  0.75050846  0.55000043  1
  Se  Se121  1  0.40749504  0.08733027  0.06589867  1
  Se  Se122  1  0.40944776  0.07504323  0.55780540  1
  Se  Se123  1  0.42128785  0.42287362  0.05297531  1
  Se  Se124  1  0.41658206  0.41511256  0.54742789  1
  Se  Se125  1  0.43251086  0.77363652  0.05977895  1
  Se  Se126  1  0.41837887  0.74934557  0.55171965  1
  Se  Se127  1  0.75580066  0.08533928  0.05138701  1
  Se  Se128  1  0.74430295  0.07973558  0.55244091  1
  Se  Se129  1  0.75375233  0.41746125  0.05326734  1
  Se  Se130  1  0.75322097  0.42011516  0.55437189  1
  Se  Se131  1  0.74359770  0.74357175  0.06151195  1
  Se  Se132  1  0.74233915  0.74518153  0.55773309  1
  Se  Se133  1  0.26051053  0.25681334  0.06104528  1
  Se  Se134  1  0.25199311  0.24951596  0.54720816  1
  Se  Se135  1  0.24990034  0.58156133  0.05266627  1
  Se  Se136  1  0.25397286  0.58841102  0.55820324  1
  Se  Se137  1  0.24288162  0.92041201  0.06427981  1
  Se  Se138  1  0.25335068  0.92113527  0.56211693  1
  Se  Se139  1  0.59082365  0.25673204  0.06285686  1
  Se  Se140  1  0.59034365  0.25542235  0.56308468  1
  Se  Se141  1  0.58134641  0.58255780  0.04819518  1
  Se  Se142  1  0.58055596  0.57670115  0.55398621  1
  Se  Se143  1  0.58367879  0.92090983  0.04744804  1
  Se  Se144  1  0.57854731  0.91083729  0.55195698  1
  Se  Se145  1  0.92118243  0.24451849  0.05544939  1
  Se  Se146  1  0.90472422  0.22665983  0.54943128  1
  Se  Se147  1  0.91378095  0.57677659  0.04938919  1
  Se  Se148  1  0.91576973  0.59120548  0.54684171  1
  Se  Se149  1  0.92736898  0.90955036  0.06589400  1
  Se  Se150  1  0.92716125  0.92551504  0.55532604  1
  Se  Se151  1  0.07654174  0.28356869  0.45383495  1
  Se  Se152  1  0.07787035  0.25192966  0.93782047  1
  Se  Se153  1  0.08582773  0.59545808  0.43191017  1
  Se  Se154  1  0.08222965  0.57795375  0.95023646  1
  Se  Se155  1  0.07162572  0.93455368  0.44118706  1
  Se  Se156  1  0.08697497  0.91231072  0.95247611  1
  Se  Se157  1  0.41212012  0.24844009  0.43232754  1
  Se  Se158  1  0.41066405  0.25447377  0.94010082  1
  Se  Se159  1  0.42033035  0.57300722  0.44556020  1
  Se  Se160  1  0.39401119  0.60708173  0.94271418  1
  Se  Se161  1  0.41265490  0.90801224  0.44513342  1
  Se  Se162  1  0.41861521  0.92541535  0.95370300  1
  Se  Se163  1  0.74892733  0.25450308  0.44912854  1
  Se  Se164  1  0.75346433  0.24760305  0.95126417  1
  Se  Se165  1  0.75012352  0.58487665  0.44421219  1
  Se  Se166  1  0.75163948  0.58233414  0.94709600  1
  Se  Se167  1  0.74630087  0.92400446  0.43524282  1
  Se  Se168  1  0.74852076  0.92031832  0.93552689  1
  Se  Se169  1  0.25517820  0.08560099  0.44110529  1
  Se  Se170  1  0.25267271  0.07964713  0.94960084  1
  Se  Se171  1  0.25316283  0.40792510  0.42965034  1
  Se  Se172  1  0.24731161  0.41410552  0.94474451  1
  Se  Se173  1  0.25820971  0.73796288  0.43726905  1
  Se  Se174  1  0.23528858  0.76498228  0.95835601  1
  Se  Se175  1  0.58916432  0.07662028  0.43658876  1
  Se  Se176  1  0.59342400  0.08081878  0.93735238  1
  Se  Se177  1  0.57812907  0.41464432  0.44673017  1
  Se  Se178  1  0.58029834  0.41850678  0.94979919  1
  Se  Se179  1  0.57787343  0.74893751  0.45025635  1
  Se  Se180  1  0.58510934  0.75350439  0.94438262  1
  Se  Se181  1  0.90665043  0.10172241  0.46059578  1
  Se  Se182  1  0.92281954  0.07734055  0.94770173  1
  Se  Se183  1  0.91957724  0.42745245  0.45511784  1
  Se  Se184  1  0.91430379  0.41544838  0.94568843  1
  Se  Se185  1  0.92451923  0.75409572  0.42990495  1
  Se  Se186  1  0.92519905  0.74023735  0.93949422  1
  Se  Se187  1  0.26821042  0.26548783  0.29624515  1
  Se  Se188  1  0.24625614  0.25137616  0.79991326  1
  Se  Se189  1  0.25547756  0.58406947  0.29545647  1
  Se  Se190  1  0.23520124  0.57093725  0.81069577  1
  Se  Se191  1  0.22084513  0.89825673  0.30834406  1
  Se  Se192  1  0.25139519  0.90575984  0.82066704  1
  Se  Se193  1  0.58703138  0.25522841  0.29819045  1
  Se  Se194  1  0.57631974  0.24424172  0.81019765  1
  Se  Se195  1  0.57876461  0.57457922  0.31290981  1
  Se  Se196  1  0.58256647  0.58654427  0.80489217  1
  Se  Se197  1  0.57833776  0.90525351  0.30500629  1
  Se  Se198  1  0.58777756  0.92251703  0.80156222  1
  Se  Se199  1  0.91715232  0.24751460  0.32073764  1
  Se  Se200  1  0.91790599  0.25050232  0.80145921  1
  Se  Se201  1  0.92429817  0.57961360  0.29950562  1
  Se  Se202  1  0.91072270  0.57641722  0.80800532  1
  Se  Se203  1  0.91214944  0.92543833  0.30595472  1
  Se  Se204  1  0.92070805  0.91818648  0.80320404  1
  Se  Se205  1  0.08559271  0.11034002  0.31795003  1
  Se  Se206  1  0.08493339  0.08017587  0.80471544  1
  Se  Se207  1  0.09504613  0.41926489  0.31028930  1
  Se  Se208  1  0.07082298  0.40860805  0.80110286  1
  Se  Se209  1  0.07071100  0.74376520  0.29198508  1
  Se  Se210  1  0.08905039  0.74560951  0.81637949  1
  Se  Se211  1  0.42330224  0.07669483  0.29919882  1
  Se  Se212  1  0.42212371  0.09236792  0.81240228  1
  Se  Se213  1  0.41943609  0.41890664  0.29953303  1
  Se  Se214  1  0.41159161  0.41894964  0.80462301  1
  Se  Se215  1  0.41298256  0.74419413  0.30457681  1
  Se  Se216  1  0.42492672  0.76209418  0.81183241  1
  Se  Se217  1  0.75146879  0.09009541  0.31086901  1
  Se  Se218  1  0.75328023  0.08586159  0.79991466  1
  Se  Se219  1  0.75830499  0.41440359  0.30846084  1
  Se  Se220  1  0.75248417  0.42041585  0.81369583  1
  Se  Se221  1  0.75848947  0.75640751  0.30764057  1
  Se  Se222  1  0.75133101  0.74968008  0.79826477  1
  Se  Se223  1  0.24935174  0.08327365  0.21480543  1
  Se  Se224  1  0.24534099  0.08861159  0.69056218  1
  Se  Se225  1  0.25421966  0.41300619  0.19368775  1
  Se  Se226  1  0.24991772  0.40977529  0.69639530  1
  Se  Se227  1  0.24148966  0.75478911  0.19783320  1
  Se  Se228  1  0.24226511  0.75195667  0.70074404  1
  Se  Se229  1  0.57773013  0.08841563  0.18234589  1
  Se  Se230  1  0.57359091  0.08685275  0.70090033  1
  Se  Se231  1  0.59028728  0.41725954  0.19606084  1
  Se  Se232  1  0.57244816  0.42300748  0.69053639  1
  Se  Se233  1  0.57249902  0.74242155  0.19059420  1
  Se  Se234  1  0.58447218  0.74874504  0.69533371  1
  Se  Se235  1  0.89896927  0.09386092  0.20114499  1
  Se  Se236  1  0.92241364  0.08125945  0.69286014  1
  Se  Se237  1  0.91963443  0.41916057  0.18528976  1
  Se  Se238  1  0.91459077  0.41327980  0.69245129  1
  Se  Se239  1  0.91357330  0.74772368  0.20032009  1
  Se  Se240  1  0.90623738  0.76038300  0.68502895  1
  Se  Se241  1  0.09459852  0.24092520  0.19167836  1
  Se  Se242  1  0.07832369  0.24988575  0.69211740  1
  Se  Se243  1  0.08519820  0.57995235  0.19180452  1
  Se  Se244  1  0.08665402  0.57432303  0.68962818  1
  Se  Se245  1  0.05140534  0.94865356  0.19705189  1
  Se  Se246  1  0.08440707  0.91765901  0.70349593  1
  Se  Se247  1  0.42198929  0.25019636  0.19715270  1
  Se  Se248  1  0.41731274  0.24637989  0.69896038  1
  Se  Se249  1  0.41472928  0.58396971  0.19378018  1
  Se  Se250  1  0.41623404  0.57881390  0.68794958  1
  Se  Se251  1  0.41108757  0.91697031  0.19855581  1
  Se  Se252  1  0.41690135  0.91106634  0.69017755  1
  Se  Se253  1  0.75591549  0.25504636  0.20073771  1
  Se  Se254  1  0.75646244  0.24771058  0.68589491  1
  Se  Se255  1  0.75940279  0.57265121  0.18842995  1
  Se  Se256  1  0.74696834  0.58199632  0.69920951  1
  Se  Se257  1  0.75225360  0.90859838  0.18411529  1
  Se  Se258  1  0.75021596  0.92318220  0.69380145  1
