# generated using pymatgen
data_In86Cu29Se144
_symmetry_space_group_name_H-M   'P 1'
_cell_length_a   17.58404329
_cell_length_b   17.58574269
_cell_length_c   23.44727378
_cell_angle_alpha   90.00932582
_cell_angle_beta   90.00833049
_cell_angle_gamma   89.98354040
_symmetry_Int_Tables_number   1
_chemical_formula_structural   In86Cu29Se144
_chemical_formula_sum   'In86 Cu29 Se144'
_cell_volume   7250.56390878
_cell_formula_units_Z   1
loop_
 _symmetry_equiv_pos_site_id
 _symmetry_equiv_pos_as_xyz
  1  'x, y, z'
loop_
 _atom_site_type_symbol
 _atom_site_label
 _atom_site_symmetry_multiplicity
 _atom_site_fract_x
 _atom_site_fract_y
 _atom_site_fract_z
 _atom_site_occupancy
  In  In0  1  -0.01047776  0.17434262  0.14148716  1
  In  In1  1  -0.00329525  0.16389941  0.60908400  1
  In  In2  1  -0.02984594  0.52813711  0.16701845  1
  In  In3  1  -0.00719824  0.49025573  0.61329066  1
  In  In4  1  -0.00346934  0.83314981  0.12938330  1
  In  In5  1  0.00110199  0.83829486  0.61792084  1
  In  In6  1  0.34331367  0.17543028  0.12976866  1
  In  In7  1  0.34959825  0.17685392  0.61484653  1
  In  In8  1  0.32999025  0.49744849  0.13046158  1
  In  In9  1  0.33213156  0.49967318  0.62029069  1
  In  In10  1  0.32803602  0.83440303  0.11596663  1
  In  In11  1  0.33203806  0.83693223  0.62596145  1
  In  In12  1  0.66704080  0.15296818  0.14109333  1
  In  In13  1  0.64677915  0.14255796  0.59397972  1
  In  In14  1  0.66260146  0.49458455  0.12507310  1
  In  In15  1  0.67185775  0.50922721  0.61632483  1
  In  In16  1  0.67885559  0.83032411  0.12143753  1
  In  In17  1  0.66756995  0.82102778  0.63416007  1
  In  In18  1  0.15922417  0.00698667  0.38181825  1
  In  In19  1  0.15622023  -0.00276735  0.87419813  1
  In  In20  1  0.16642924  0.33201280  0.37785061  1
  In  In21  1  0.17155978  0.32698468  0.87213258  1
  In  In22  1  0.15549331  0.67497353  0.38054866  1
  In  In23  1  0.17761727  0.66360842  0.87324145  1
  In  In24  1  0.53010494  0.01319610  0.36856960  1
  In  In25  1  0.50057291  -0.02001449  0.86808452  1
  In  In26  1  0.50576779  0.32934414  0.37440201  1
  In  In27  1  0.49788511  0.34612895  0.87158151  1
  In  In28  1  0.49318674  0.66615735  0.37834317  1
  In  In29  1  0.52523171  0.70461183  0.82825982  1
  In  In30  1  0.82901226  -0.00218128  0.37962577  1
  In  In31  1  0.81379005  -0.00730557  0.86917521  1
  In  In32  1  0.82882488  0.33722332  0.36786500  1
  In  In33  1  0.84086691  0.33724838  0.87778743  1
  In  In34  1  0.84658570  0.65553831  0.37637816  1
  In  In35  1  0.80716129  0.68943224  0.90312257  1
  In  In36  1  -0.00022746  0.16512053  0.37317500  1
  In  In37  1  0.00280107  0.17495766  0.87465531  1
  In  In38  1  -0.00245683  0.50252543  0.36942997  1
  In  In39  1  -0.01184924  0.49443358  0.87842678  1
  In  In40  1  -0.00569115  0.83234067  0.37365474  1
  In  In41  1  0.00114469  0.82564566  0.88682672  1
  In  In42  1  0.32464437  0.17372032  0.38634287  1
  In  In43  1  0.33298955  0.17494438  0.86522047  1
  In  In44  1  0.34608117  0.48421162  0.38717209  1
  In  In45  1  0.33994223  0.50867302  0.86160734  1
  In  In46  1  0.33314853  0.82328122  0.37817020  1
  In  In47  1  0.34526999  0.82138660  0.88578194  1
  In  In48  1  0.66511589  0.16910374  0.38039598  1
  In  In49  1  0.67222778  0.15666546  0.86667209  1
  In  In50  1  0.68632826  0.48501081  0.38073964  1
  In  In51  1  0.65914585  0.51838240  0.88221277  1
  In  In52  1  0.67187178  0.86525999  0.37334948  1
  In  In53  1  0.66813854  0.83320135  0.87556711  1
  In  In54  1  0.16155625  -0.01400424  0.12606073  1
  In  In55  1  0.16755432  -0.00429184  0.61167977  1
  In  In56  1  0.16763033  0.33735665  0.13697961  1
  In  In57  1  0.17511616  0.34201147  0.61027140  1
  In  In58  1  0.15886019  0.66299667  0.12528716  1
  In  In59  1  0.17364618  0.67209983  0.61798706  1
  In  In60  1  0.52025690  -0.01075419  0.13917371  1
  In  In61  1  0.50383827  0.00917842  0.62807931  1
  In  In62  1  0.50983752  0.31718959  0.14975472  1
  In  In63  1  0.48783903  0.32069651  0.61850151  1
  In  In64  1  0.50525916  0.67005617  0.11880869  1
  In  In65  1  0.51253981  0.66280881  0.63230791  1
  In  In66  1  0.83699774  -0.00435137  0.13396948  1
  In  In67  1  0.80638633  -0.02267881  0.59729338  1
  In  In68  1  0.81960302  0.35087117  0.14961315  1
  In  In69  1  0.83174370  0.33583659  0.61335237  1
  In  In70  1  0.83506608  0.67753986  0.12063790  1
  In  In71  1  0.82422756  0.65796470  0.62017404  1
  In  In72  1  0.49473639  0.50597037  0.00415418  1
  In  In73  1  0.66091667  0.32925811  0.74587378  1
  In  In74  1  0.33140382  0.66138191  0.25371551  1
  In  In75  1  0.49724029  0.83574143  0.49844161  1
  In  In76  1  0.67050091  0.66910300  0.25113124  1
  In  In77  1  0.00188914  0.33610023  0.75103910  1
  In  In78  1  0.33021524  0.00511584  0.25434072  1
  In  In79  1  0.83643026  0.16165273  -0.00297913  1
  In  In80  1  0.16537756  0.15897490  -0.00141660  1
  In  In81  1  0.50084476  0.15982625  0.00861695  1
  In  In82  1  0.16281967  0.50103836  0.00133610  1
  In  In83  1  0.33778735  0.00314219  0.74609524  1
  In  In84  1  -0.00428413  0.00486762  0.75000278  1
  In  In85  1  -0.00328622  0.65974316  0.74739799  1
  Cu  Cu86  1  0.17386076  0.49638962  0.25995350  1
  Cu  Cu87  1  0.83120066  0.83685186  0.25025785  1
  Cu  Cu88  1  -0.00410486  0.34382557  0.01611314  1
  Cu  Cu89  1  -0.00348627  0.66708349  0.49983012  1
  Cu  Cu90  1  0.00019045  -0.00282495  0.49238761  1
  Cu  Cu91  1  0.66855625  0.33919383  0.49492804  1
  Cu  Cu92  1  -0.00072207  0.33444406  0.48788235  1
  Cu  Cu93  1  0.17390702  0.83138775  0.74892297  1
  Cu  Cu94  1  0.33441424  -0.00509063  0.49742751  1
  Cu  Cu95  1  0.33638774  0.33819245  0.00167608  1
  Cu  Cu96  1  0.66308793  -0.00958268  0.00111740  1
  Cu  Cu97  1  0.17409040  0.50096961  0.73963710  1
  Cu  Cu98  1  0.49211498  0.49308120  0.74284495  1
  Cu  Cu99  1  0.15724016  0.83201966  0.25245304  1
  Cu  Cu100  1  0.67496764  0.33494880  0.01001000  1
  Cu  Cu101  1  -0.00340727  -0.00648133  0.00482609  1
  Cu  Cu102  1  0.33459182  -0.00748868  0.00018712  1
  Cu  Cu103  1  0.50472794  0.49556384  0.25826083  1
  Cu  Cu104  1  0.82953943  0.16069848  0.26040074  1
  Cu  Cu105  1  -0.00182016  0.66710170  0.01305963  1
  Cu  Cu106  1  0.32903521  0.66023809  0.49878210  1
  Cu  Cu107  1  0.66736170  0.67269859  0.49776806  1
  Cu  Cu108  1  0.82163843  0.50672697  0.75136579  1
  Cu  Cu109  1  0.17540871  0.17963710  0.73832885  1
  Cu  Cu110  1  0.16710693  0.16584535  0.25869218  1
  Cu  Cu111  1  0.33848413  0.67413714  -0.00712577  1
  Cu  Cu112  1  0.82697858  0.16091012  0.73442703  1
  Cu  Cu113  1  0.33422687  0.33384591  0.49906582  1
  Cu  Cu114  1  0.82890875  0.83291076  0.74860720  1
  Se  Se115  1  0.07010758  0.08229184  0.06295501  1
  Se  Se116  1  0.08496420  0.08068725  0.54598845  1
  Se  Se117  1  0.07959565  0.42268018  0.07134461  1
  Se  Se118  1  0.08135020  0.41624991  0.54529448  1
  Se  Se119  1  0.08446184  0.75347363  0.05937472  1
  Se  Se120  1  0.08185954  0.74978197  0.55331979  1
  Se  Se121  1  0.40967715  0.06863238  0.06675378  1
  Se  Se122  1  0.41851299  0.07555064  0.55193445  1
  Se  Se123  1  0.41872685  0.40660608  0.06742905  1
  Se  Se124  1  0.41750402  0.41737660  0.55243857  1
  Se  Se125  1  0.41862669  0.75167145  0.05340205  1
  Se  Se126  1  0.41268375  0.74060232  0.55927982  1
  Se  Se127  1  0.74233328  0.07680069  0.05905679  1
  Se  Se128  1  0.77680980  0.10701488  0.55242145  1
  Se  Se129  1  0.75813723  0.41683925  0.06155420  1
  Se  Se130  1  0.75187038  0.42418141  0.54781361  1
  Se  Se131  1  0.74639376  0.74336181  0.04851150  1
  Se  Se132  1  0.74894686  0.75296693  0.55556963  1
  Se  Se133  1  0.25256596  0.25538691  0.05683041  1
  Se  Se134  1  0.25092426  0.24410716  0.54884670  1
  Se  Se135  1  0.26234292  0.59209120  0.05658741  1
  Se  Se136  1  0.24381022  0.57743565  0.55052656  1
  Se  Se137  1  0.24129862  0.91547163  0.04915840  1
  Se  Se138  1  0.25300560  0.90832685  0.54902130  1
  Se  Se139  1  0.59370871  0.25275163  0.06622533  1
  Se  Se140  1  0.58167535  0.25749127  0.54600449  1
  Se  Se141  1  0.59904871  0.59290074  0.05243152  1
  Se  Se142  1  0.58212555  0.59053169  0.55065272  1
  Se  Se143  1  0.58176624  0.91039431  0.05843131  1
  Se  Se144  1  0.58749912  0.91490402  0.56397317  1
  Se  Se145  1  0.91295186  0.25386561  0.06413006  1
  Se  Se146  1  0.91760129  0.25562795  0.54618888  1
  Se  Se147  1  0.92458230  0.57880148  0.06854020  1
  Se  Se148  1  0.91216602  0.58214168  0.55154791  1
  Se  Se149  1  0.91143316  0.91517857  0.05921797  1
  Se  Se150  1  0.91830338  0.91181759  0.54536218  1
  Se  Se151  1  0.08452752  0.24436999  0.44419021  1
  Se  Se152  1  0.07411916  0.26660720  0.94955618  1
  Se  Se153  1  0.07748986  0.58290627  0.44432713  1
  Se  Se154  1  0.07106502  0.59300207  0.94125093  1
  Se  Se155  1  0.08383660  0.90945289  0.44362192  1
  Se  Se156  1  0.08428063  0.91685958  0.94867287  1
  Se  Se157  1  0.42079818  0.25196693  0.44743135  1
  Se  Se158  1  0.41505658  0.25489233  0.94370844  1
  Se  Se159  1  0.42052998  0.58185576  0.44996462  1
  Se  Se160  1  0.41501249  0.59089066  0.93532394  1
  Se  Se161  1  0.41637244  0.92641031  0.43183686  1
  Se  Se162  1  0.42407793  0.91417179  0.94883281  1
  Se  Se163  1  0.75387686  0.25573399  0.44322672  1
  Se  Se164  1  0.74075624  0.25466231  0.94055221  1
  Se  Se165  1  0.75056514  0.58742582  0.44534054  1
  Se  Se166  1  0.77152629  0.55894643  0.94452315  1
  Se  Se167  1  0.74873217  0.92227451  0.45549273  1
  Se  Se168  1  0.75279658  0.91282213  0.94894171  1
  Se  Se169  1  0.24738992  0.08135803  0.45110793  1
  Se  Se170  1  0.26264973  0.07590046  0.93689762  1
  Se  Se171  1  0.24538960  0.41598638  0.45003051  1
  Se  Se172  1  0.25750830  0.41579775  0.93918680  1
  Se  Se173  1  0.24828338  0.74932056  0.44849931  1
  Se  Se174  1  0.24182300  0.75165888  0.94740276  1
  Se  Se175  1  0.58758255  0.08485948  0.45287876  1
  Se  Se176  1  0.58816212  0.07584267  0.94142342  1
  Se  Se177  1  0.58139186  0.42179131  0.44319423  1
  Se  Se178  1  0.58930687  0.40918544  0.94884681  1
  Se  Se179  1  0.59148601  0.75347562  0.43523950  1
  Se  Se180  1  0.58023565  0.73545900  0.92715688  1
  Se  Se181  1  0.91694377  0.08425129  0.44338604  1
  Se  Se182  1  0.92634145  0.07139705  0.93406053  1
  Se  Se183  1  0.91384864  0.41926053  0.43813682  1
  Se  Se184  1  0.91305158  0.41679425  0.95394730  1
  Se  Se185  1  0.91370137  0.75010293  0.44589513  1
  Se  Se186  1  0.91711463  0.75285049  0.95906378  1
  Se  Se187  1  0.25144164  0.24983638  0.30830662  1
  Se  Se188  1  0.25539696  0.25995757  0.79600156  1
  Se  Se189  1  0.25119024  0.57638948  0.32183571  1
  Se  Se190  1  0.24985888  0.58772514  0.79593551  1
  Se  Se191  1  0.24227805  0.90875607  0.31139264  1
  Se  Se192  1  0.24809944  0.91544181  0.81008781  1
  Se  Se193  1  0.59660926  0.25695536  0.30655461  1
  Se  Se194  1  0.57324091  0.24306871  0.81138400  1
  Se  Se195  1  0.58306415  0.57980917  0.31488287  1
  Se  Se196  1  0.57709411  0.57010530  0.79969831  1
  Se  Se197  1  0.57817732  0.91316022  0.29703880  1
  Se  Se198  1  0.60222701  0.92463316  0.80309537  1
  Se  Se199  1  0.91633167  0.24810320  0.30497781  1
  Se  Se200  1  0.90313428  0.23852922  0.80154156  1
  Se  Se201  1  0.91795620  0.58333772  0.29623239  1
  Se  Se202  1  0.90471561  0.58222329  0.81261575  1
  Se  Se203  1  0.91301255  0.91941824  0.30665894  1
  Se  Se204  1  0.91484653  0.90506616  0.81045004  1
  Se  Se205  1  0.08205204  0.07819811  0.30422402  1
  Se  Se206  1  0.09567536  0.10141599  0.80168985  1
  Se  Se207  1  0.08559675  0.41425102  0.30743957  1
  Se  Se208  1  0.09423667  0.43068503  0.80820909  1
  Se  Se209  1  0.07597088  0.74585131  0.30382392  1
  Se  Se210  1  0.08698302  0.75545242  0.80685660  1
  Se  Se211  1  0.41662122  0.09039338  0.31789212  1
  Se  Se212  1  0.42914248  0.08973267  0.80833235  1
  Se  Se213  1  0.41690960  0.41323653  0.30692153  1
  Se  Se214  1  0.41040953  0.40988492  0.79727529  1
  Se  Se215  1  0.42557775  0.75751628  0.30354059  1
  Se  Se216  1  0.39334014  0.75045590  0.79765308  1
  Se  Se217  1  0.74299726  0.07851836  0.31054511  1
  Se  Se218  1  0.74936828  0.07842769  0.79305367  1
  Se  Se219  1  0.75665681  0.42539663  0.29631085  1
  Se  Se220  1  0.74871240  0.41827755  0.81139416  1
  Se  Se221  1  0.75573148  0.75792452  0.31598423  1
  Se  Se222  1  0.75657144  0.74669624  0.80896586  1
  Se  Se223  1  0.23971422  0.09011282  0.18804712  1
  Se  Se224  1  0.24580792  0.08689490  0.68215684  1
  Se  Se225  1  0.25693294  0.41629173  0.20374220  1
  Se  Se226  1  0.25219616  0.41075446  0.68945310  1
  Se  Se227  1  0.24400537  0.75650616  0.19348463  1
  Se  Se228  1  0.25206100  0.74858077  0.69303865  1
  Se  Se229  1  0.55121467  0.10733163  0.19856957  1
  Se  Se230  1  0.58906348  0.09697599  0.68848136  1
  Se  Se231  1  0.59081629  0.41748213  0.20275754  1
  Se  Se232  1  0.57833757  0.42038361  0.68144777  1
  Se  Se233  1  0.57850035  0.75608628  0.19162198  1
  Se  Se234  1  0.58147663  0.74856886  0.70632680  1
  Se  Se235  1  0.91430215  0.07980792  0.20418372  1
  Se  Se236  1  0.91101486  0.08092259  0.67963886  1
  Se  Se237  1  0.94334658  0.39145552  0.19925361  1
  Se  Se238  1  0.90493550  0.42481541  0.69496867  1
  Se  Se239  1  0.91296883  0.75044880  0.19832231  1
  Se  Se240  1  0.91244677  0.75649947  0.68838466  1
  Se  Se241  1  0.08694256  0.24961246  0.20233035  1
  Se  Se242  1  0.08314196  0.25049480  0.68225426  1
  Se  Se243  1  0.09725086  0.58367771  0.20472717  1
  Se  Se244  1  0.08420348  0.57298173  0.68315670  1
  Se  Se245  1  0.07637692  0.91897780  0.20052642  1
  Se  Se246  1  0.09182901  0.91397401  0.69283029  1
  Se  Se247  1  0.40190183  0.25825155  0.20772568  1
  Se  Se248  1  0.41949602  0.24346673  0.69657380  1
  Se  Se249  1  0.43065956  0.57679370  0.19320456  1
  Se  Se250  1  0.41463797  0.58219514  0.69032691  1
  Se  Se251  1  0.41164618  0.90944812  0.19223244  1
  Se  Se252  1  0.42984954  0.90823533  0.69326901  1
  Se  Se253  1  0.74912486  0.24277412  0.20337660  1
  Se  Se254  1  0.74996979  0.24808258  0.68059349  1
  Se  Se255  1  0.75527498  0.58022859  0.18847519  1
  Se  Se256  1  0.74072954  0.58857642  0.69587408  1
  Se  Se257  1  0.74375018  0.91687903  0.19768021  1
  Se  Se258  1  0.75335408  0.91816690  0.69119202  1
