# generated using pymatgen
data_In86Cu29Se144
_symmetry_space_group_name_H-M   'P 1'
_cell_length_a   17.57656840
_cell_length_b   17.57154451
_cell_length_c   23.43269813
_cell_angle_alpha   89.99202242
_cell_angle_beta   90.01169707
_cell_angle_gamma   90.01600101
_symmetry_Int_Tables_number   1
_chemical_formula_structural   In86Cu29Se144
_chemical_formula_sum   'In86 Cu29 Se144'
_cell_volume   7237.12865279
_cell_formula_units_Z   1
loop_
 _symmetry_equiv_pos_site_id
 _symmetry_equiv_pos_as_xyz
  1  'x, y, z'
loop_
 _atom_site_type_symbol
 _atom_site_label
 _atom_site_symmetry_multiplicity
 _atom_site_fract_x
 _atom_site_fract_y
 _atom_site_fract_z
 _atom_site_occupancy
  In  In0  1  -0.00020927  0.16438852  0.12624336  1
  In  In1  1  0.00665328  0.17297950  0.62532234  1
  In  In2  1  -0.00170750  0.49925332  0.12202441  1
  In  In3  1  -0.00984119  0.49704261  0.63195519  1
  In  In4  1  -0.00402885  0.82732495  0.12859860  1
  In  In5  1  -0.00196226  0.84291410  0.62018290  1
  In  In6  1  0.32281307  0.17570668  0.12751429  1
  In  In7  1  0.34143656  0.18066900  0.62185949  1
  In  In8  1  0.33167474  0.50302275  0.12346350  1
  In  In9  1  0.35484178  0.49216546  0.64477004  1
  In  In10  1  0.32634308  0.83546341  0.13357783  1
  In  In11  1  0.34761957  0.80961754  0.63193979  1
  In  In12  1  0.67982402  0.16405289  0.12169814  1
  In  In13  1  0.67279858  0.16985805  0.63111299  1
  In  In14  1  0.66783523  0.50337371  0.11856286  1
  In  In15  1  0.63482617  0.53267130  0.66191120  1
  In  In16  1  0.66691848  0.81680477  0.12794397  1
  In  In17  1  0.65162289  0.81622024  0.59869610  1
  In  In18  1  0.16197049  -0.00089783  0.36301854  1
  In  In19  1  0.16210046  0.00600154  0.89069456  1
  In  In20  1  0.16890376  0.33761526  0.36705449  1
  In  In21  1  0.16383660  0.34080308  0.87573345  1
  In  In22  1  0.16657085  0.66852858  0.36534135  1
  In  In23  1  0.17975117  0.65340666  0.89678153  1
  In  In24  1  0.48847200  -0.00376384  0.37624728  1
  In  In25  1  0.50716199  -0.00662980  0.87595315  1
  In  In26  1  0.49986046  0.34944931  0.37318855  1
  In  In27  1  0.51654472  0.36198208  0.85567595  1
  In  In28  1  0.50644977  0.66727717  0.37192338  1
  In  In29  1  0.47260480  0.63872899  0.84471269  1
  In  In30  1  0.82662618  -0.02511462  0.35713400  1
  In  In31  1  0.84250945  -0.00896939  0.88406530  1
  In  In32  1  0.83717884  0.32712097  0.36994343  1
  In  In33  1  0.83685310  0.33252568  0.88306255  1
  In  In34  1  0.83509469  0.68219456  0.35666178  1
  In  In35  1  0.82780445  0.67083082  0.88407768  1
  In  In36  1  -0.00967829  0.16708656  0.35168620  1
  In  In37  1  -0.00714557  0.17494994  0.88783344  1
  In  In38  1  -0.00103328  0.50296487  0.35807947  1
  In  In39  1  0.01513853  0.48379935  0.88698996  1
  In  In40  1  -0.01649565  0.82509462  0.34920976  1
  In  In41  1  0.00003774  0.83490998  0.88780274  1
  In  In42  1  0.32693921  0.16518553  0.36627565  1
  In  In43  1  0.31936319  0.17721814  0.88487622  1
  In  In44  1  0.36417033  0.52163497  0.34591275  1
  In  In45  1  0.32883600  0.50187158  0.87186890  1
  In  In46  1  0.33207719  0.83417247  0.37142465  1
  In  In47  1  0.33576597  0.81086128  0.87852016  1
  In  In48  1  0.67185990  0.16485755  0.37658245  1
  In  In49  1  0.66521380  0.18103930  0.88052221  1
  In  In50  1  0.64581597  0.50627489  0.37626947  1
  In  In51  1  0.66447852  0.50833731  0.87641227  1
  In  In52  1  0.68144104  0.82327161  0.38332139  1
  In  In53  1  0.66990936  0.82460398  0.87333589  1
  In  In54  1  0.16548454  -0.00009273  0.12486411  1
  In  In55  1  0.15860638  0.00261233  0.62567540  1
  In  In56  1  0.17004754  0.33278876  0.11506359  1
  In  In57  1  0.16945736  0.34747376  0.64278719  1
  In  In58  1  0.16592360  0.66316536  0.12402354  1
  In  In59  1  0.17682319  0.67226399  0.63040976  1
  In  In60  1  0.49870189  -0.01424571  0.13151029  1
  In  In61  1  0.51381600  -0.01782237  0.62328749  1
  In  In62  1  0.48426428  0.34315506  0.12877472  1
  In  In63  1  0.49369156  0.34674986  0.63949256  1
  In  In64  1  0.50109135  0.64883178  0.13741326  1
  In  In65  1  0.50369566  0.67149803  0.62391329  1
  In  In66  1  0.84852900  0.00743623  0.12144950  1
  In  In67  1  0.83789582  -0.00517184  0.61592464  1
  In  In68  1  0.83651136  0.33573280  0.12063107  1
  In  In69  1  0.82253881  0.33931817  0.63992450  1
  In  In70  1  0.83068720  0.66936296  0.12433126  1
  In  In71  1  0.82436397  0.66534613  0.62318426  1
  In  In72  1  0.17344688  0.49904682  0.50004099  1
  In  In73  1  -0.00294867  0.00429974  0.74564076  1
  In  In74  1  0.16930121  0.83283372  0.49902619  1
  In  In75  1  0.49830857  0.17645336  0.00392639  1
  In  In76  1  0.66846007  0.34037744  0.24416362  1
  In  In77  1  0.49918485  0.16358843  0.49634486  1
  In  In78  1  0.67324014  -0.00056738  0.74527223  1
  In  In79  1  0.16735999  0.16656493  0.50041078  1
  In  In80  1  0.00704025  0.65592835  0.75878174  1
  In  In81  1  0.82419370  0.49812002  0.50209895  1
  In  In82  1  0.50266375  0.82213967  -0.00187420  1
  In  In83  1  0.83188775  0.16224760  0.49645768  1
  In  In84  1  0.66671616  -0.00398252  0.25136620  1
  In  In85  1  0.32780339  0.00893871  0.74786724  1
  Cu  Cu86  1  0.33618536  -0.01325329  0.50020710  1
  Cu  Cu87  1  -0.00607776  0.66836111  0.00638955  1
  Cu  Cu88  1  0.65740825  0.34210932  0.50840094  1
  Cu  Cu89  1  0.34775152  0.65482529  0.50072778  1
  Cu  Cu90  1  -0.01360526  -0.01417285  0.48655033  1
  Cu  Cu91  1  0.16965252  0.17006290  0.24008285  1
  Cu  Cu92  1  0.16539306  0.83007322  0.24441374  1
  Cu  Cu93  1  0.33218390  -0.00044853  0.00730993  1
  Cu  Cu94  1  0.00442229  -0.00359908  0.00878931  1
  Cu  Cu95  1  0.67767637  -0.00264396  0.00146655  1
  Cu  Cu96  1  0.33712727  0.34195267  -0.00390580  1
  Cu  Cu97  1  0.33769538  0.34772614  0.49963888  1
  Cu  Cu98  1  0.00366899  0.33203635  0.00386956  1
  Cu  Cu99  1  0.83275904  0.17414126  0.76161096  1
  Cu  Cu100  1  0.82879470  0.50373565  0.24126269  1
  Cu  Cu101  1  0.48939768  0.17226327  0.75448444  1
  Cu  Cu102  1  0.00027594  0.32969135  0.49696349  1
  Cu  Cu103  1  0.49186510  0.82867803  0.25158602  1
  Cu  Cu104  1  0.49863796  0.16822767  0.25090753  1
  Cu  Cu105  1  0.83735518  0.49140987  0.76025083  1
  Cu  Cu106  1  0.16493481  0.49097485  0.23884281  1
  Cu  Cu107  1  0.83115698  0.82223019  0.74793610  1
  Cu  Cu108  1  0.17685316  0.82807847  0.76379742  1
  Cu  Cu109  1  -0.00551618  0.67307755  0.48635120  1
  Cu  Cu110  1  0.66875976  0.33910722  -0.00326635  1
  Cu  Cu111  1  0.66038027  0.66129158  0.00121401  1
  Cu  Cu112  1  0.15786975  0.18111916  0.75788503  1
  Cu  Cu113  1  0.33748701  0.66428644  0.00207479  1
  Cu  Cu114  1  0.66692682  0.65972080  0.50101802  1
  Se  Se115  1  0.08701527  0.08630517  0.05547259  1
  Se  Se116  1  0.06451384  0.06933067  0.54984902  1
  Se  Se117  1  0.08529000  0.42148902  0.05200910  1
  Se  Se118  1  0.07637373  0.41089810  0.55996964  1
  Se  Se119  1  0.08201272  0.74934786  0.05768273  1
  Se  Se120  1  0.07609992  0.73953561  0.55665680  1
  Se  Se121  1  0.41744541  0.07719982  0.06374339  1
  Se  Se122  1  0.40952949  0.07348039  0.56073920  1
  Se  Se123  1  0.41881008  0.42447972  0.05138489  1
  Se  Se124  1  0.42041806  0.42130068  0.56019433  1
  Se  Se125  1  0.41480876  0.74320346  0.06644258  1
  Se  Se126  1  0.42306104  0.75061153  0.54888708  1
  Se  Se127  1  0.75898302  0.08464642  0.05133507  1
  Se  Se128  1  0.73635018  0.07683679  0.55689079  1
  Se  Se129  1  0.75226932  0.41889575  0.05312097  1
  Se  Se130  1  0.73801235  0.41854092  0.56960769  1
  Se  Se131  1  0.74488223  0.74727608  0.05079254  1
  Se  Se132  1  0.75929080  0.74484523  0.54407571  1
  Se  Se133  1  0.25769589  0.25136100  0.04650049  1
  Se  Se134  1  0.25180111  0.26774083  0.55731345  1
  Se  Se135  1  0.24829816  0.58258114  0.05209243  1
  Se  Se136  1  0.26250279  0.58463747  0.56351880  1
  Se  Se137  1  0.25053022  0.91299015  0.05811190  1
  Se  Se138  1  0.25673111  0.91693995  0.56838930  1
  Se  Se139  1  0.59175236  0.26337478  0.06485549  1
  Se  Se140  1  0.58156050  0.25213670  0.56378061  1
  Se  Se141  1  0.57317570  0.58132304  0.05437585  1
  Se  Se142  1  0.58901970  0.57875475  0.56159710  1
  Se  Se143  1  0.59165849  0.91953932  0.05771664  1
  Se  Se144  1  0.58638674  0.92184614  0.54138691  1
  Se  Se145  1  0.91831806  0.24805166  0.05478206  1
  Se  Se146  1  0.91487402  0.25767520  0.55957658  1
  Se  Se147  1  0.91067939  0.58232459  0.05638288  1
  Se  Se148  1  0.92574152  0.58986603  0.55447199  1
  Se  Se149  1  0.91694550  0.91083727  0.05513016  1
  Se  Se150  1  0.90831544  0.90477616  0.54535431  1
  Se  Se151  1  0.07707681  0.24941898  0.43542739  1
  Se  Se152  1  0.08941735  0.25218520  0.94814943  1
  Se  Se153  1  0.07745066  0.58567027  0.43723760  1
  Se  Se154  1  0.07780648  0.58312015  0.95551945  1
  Se  Se155  1  0.07787303  0.91143922  0.43207974  1
  Se  Se156  1  0.08817502  0.91254991  0.95514404  1
  Se  Se157  1  0.40619410  0.25461424  0.43990257  1
  Se  Se158  1  0.42233237  0.26541256  0.93534489  1
  Se  Se159  1  0.42380144  0.57580287  0.43886733  1
  Se  Se160  1  0.41641857  0.58742182  0.93931516  1
  Se  Se161  1  0.41737075  0.90503210  0.44597886  1
  Se  Se162  1  0.41094625  0.92145088  0.94434188  1
  Se  Se163  1  0.73888648  0.26606554  0.44640456  1
  Se  Se164  1  0.75324691  0.24772950  0.95266993  1
  Se  Se165  1  0.74935730  0.58995888  0.43312261  1
  Se  Se166  1  0.75002188  0.58027289  0.95052113  1
  Se  Se167  1  0.74950544  0.92855209  0.44195369  1
  Se  Se168  1  0.74892775  0.90864984  0.94367204  1
  Se  Se169  1  0.25541611  0.06971374  0.44185603  1
  Se  Se170  1  0.25106593  0.08700170  0.95559899  1
  Se  Se171  1  0.26083256  0.41991426  0.43255457  1
  Se  Se172  1  0.24813746  0.42279191  0.94538705  1
  Se  Se173  1  0.25733970  0.73341508  0.44429790  1
  Se  Se174  1  0.25077925  0.75563205  0.95850496  1
  Se  Se175  1  0.59133159  0.07241806  0.44043324  1
  Se  Se176  1  0.58996833  0.07781865  0.94704904  1
  Se  Se177  1  0.57572811  0.42193796  0.45129207  1
  Se  Se178  1  0.58208090  0.41937107  0.94438069  1
  Se  Se179  1  0.58668922  0.74575872  0.44566839  1
  Se  Se180  1  0.58142295  0.73213044  0.93319635  1
  Se  Se181  1  0.91846447  0.07967491  0.42928560  1
  Se  Se182  1  0.92048266  0.07741278  0.95122198  1
  Se  Se183  1  0.92220463  0.41528855  0.43943215  1
  Se  Se184  1  0.91699056  0.41643408  0.95328472  1
  Se  Se185  1  0.91417410  0.75705384  0.43345494  1
  Se  Se186  1  0.91187120  0.75318085  0.95194646  1
  Se  Se187  1  0.24945109  0.25169678  0.29919825  1
  Se  Se188  1  0.25080065  0.25608162  0.80761554  1
  Se  Se189  1  0.24085856  0.57463483  0.29988177  1
  Se  Se190  1  0.25160691  0.60144882  0.81107032  1
  Se  Se191  1  0.24816574  0.91244240  0.30110023  1
  Se  Se192  1  0.24867957  0.92026087  0.81910047  1
  Se  Se193  1  0.58139416  0.24601877  0.31003428  1
  Se  Se194  1  0.58268710  0.24726775  0.80464350  1
  Se  Se195  1  0.57727227  0.58081267  0.29847165  1
  Se  Se196  1  0.58812505  0.57704598  0.79502245  1
  Se  Se197  1  0.57606418  0.90759310  0.31104427  1
  Se  Se198  1  0.58127851  0.90909421  0.80280688  1
  Se  Se199  1  0.92202763  0.26965480  0.29294318  1
  Se  Se200  1  0.92211572  0.25376922  0.81049721  1
  Se  Se201  1  0.91375672  0.58761024  0.29477412  1
  Se  Se202  1  0.91461929  0.57398634  0.82111826  1
  Se  Se203  1  0.93444195  0.93867093  0.28905789  1
  Se  Se204  1  0.91371984  0.90478792  0.80472333  1
  Se  Se205  1  0.08673383  0.08662806  0.29429230  1
  Se  Se206  1  0.08500033  0.08739865  0.81220376  1
  Se  Se207  1  0.08095966  0.41188809  0.29725059  1
  Se  Se208  1  0.08276688  0.41944908  0.80360283  1
  Se  Se209  1  0.08106604  0.74256816  0.29419370  1
  Se  Se210  1  0.08894344  0.75268143  0.82010887  1
  Se  Se211  1  0.41701744  0.08177301  0.30391537  1
  Se  Se212  1  0.41798774  0.08970704  0.81757886  1
  Se  Se213  1  0.40446661  0.39570485  0.29856423  1
  Se  Se214  1  0.40970094  0.42341050  0.79831974  1
  Se  Se215  1  0.41106874  0.74440000  0.30632040  1
  Se  Se216  1  0.43204549  0.76913912  0.80374114  1
  Se  Se217  1  0.75955366  0.09390486  0.30444073  1
  Se  Se218  1  0.75707382  0.08357008  0.81660549  1
  Se  Se219  1  0.75409929  0.42985277  0.31192988  1
  Se  Se220  1  0.75077134  0.41475238  0.81575383  1
  Se  Se221  1  0.74328831  0.76313197  0.29542416  1
  Se  Se222  1  0.75098403  0.74090405  0.80381420  1
  Se  Se223  1  0.25379904  0.07961036  0.19360820  1
  Se  Se224  1  0.23426642  0.10258693  0.69016056  1
  Se  Se225  1  0.25196779  0.41034757  0.18832402  1
  Se  Se226  1  0.25608949  0.42339211  0.70815236  1
  Se  Se227  1  0.24957833  0.74191567  0.19701415  1
  Se  Se228  1  0.25594245  0.74688156  0.70542604  1
  Se  Se229  1  0.57862449  0.09186586  0.18983657  1
  Se  Se230  1  0.56922084  0.09024326  0.69371077  1
  Se  Se231  1  0.57269223  0.43014695  0.19295389  1
  Se  Se232  1  0.60379057  0.39923596  0.69995774  1
  Se  Se233  1  0.57683571  0.74872469  0.19744576  1
  Se  Se234  1  0.59905886  0.75137103  0.68631761  1
  Se  Se235  1  0.91986920  0.08289179  0.19815232  1
  Se  Se236  1  0.90202916  0.09655300  0.69003352  1
  Se  Se237  1  0.91333234  0.41837462  0.19290943  1
  Se  Se238  1  0.92002583  0.41072580  0.70403741  1
  Se  Se239  1  0.91031744  0.74822154  0.19671573  1
  Se  Se240  1  0.92284216  0.74945672  0.69055290  1
  Se  Se241  1  0.08757902  0.25330274  0.18703370  1
  Se  Se242  1  0.07587849  0.25855670  0.69823677  1
  Se  Se243  1  0.08115734  0.58040450  0.19260437  1
  Se  Se244  1  0.09464799  0.57372273  0.69131497  1
  Se  Se245  1  0.08307668  0.91503864  0.19256765  1
  Se  Se246  1  0.09483139  0.90289951  0.69849460  1
  Se  Se247  1  0.41571428  0.24830392  0.19552389  1
  Se  Se248  1  0.40680858  0.25634527  0.70153178  1
  Se  Se249  1  0.39997408  0.58549887  0.20093892  1
  Se  Se250  1  0.42120140  0.59988384  0.69950240  1
  Se  Se251  1  0.41069889  0.91804381  0.20279417  1
  Se  Se252  1  0.42140508  0.91397670  0.69552801  1
  Se  Se253  1  0.76014657  0.24316630  0.19513071  1
  Se  Se254  1  0.74399611  0.24966349  0.70674572  1
  Se  Se255  1  0.74246608  0.58596837  0.19169304  1
  Se  Se256  1  0.76520123  0.58002034  0.70085538  1
  Se  Se257  1  0.75278331  0.91606642  0.18372242  1
  Se  Se258  1  0.75996377  0.90737006  0.68600656  1
