# generated using pymatgen
data_In86Cu29Se144
_symmetry_space_group_name_H-M   'P 1'
_cell_length_a   17.59383620
_cell_length_b   17.59104183
_cell_length_c   23.45707178
_cell_angle_alpha   89.98646860
_cell_angle_beta   90.01811530
_cell_angle_gamma   90.01078179
_symmetry_Int_Tables_number   1
_chemical_formula_structural   In86Cu29Se144
_chemical_formula_sum   'In86 Cu29 Se144'
_cell_volume   7259.82013485
_cell_formula_units_Z   1
loop_
 _symmetry_equiv_pos_site_id
 _symmetry_equiv_pos_as_xyz
  1  'x, y, z'
loop_
 _atom_site_type_symbol
 _atom_site_label
 _atom_site_symmetry_multiplicity
 _atom_site_fract_x
 _atom_site_fract_y
 _atom_site_fract_z
 _atom_site_occupancy
  In  In0  1  0.00131618  0.16690312  0.12185536  1
  In  In1  1  -0.01251365  0.16288716  0.62926424  1
  In  In2  1  -0.00069870  0.49640147  0.11029052  1
  In  In3  1  0.00717079  0.51436031  0.62147740  1
  In  In4  1  0.00586036  0.81982617  0.12436425  1
  In  In5  1  0.00081293  0.83005438  0.62356981  1
  In  In6  1  0.34941406  0.15812212  0.13139701  1
  In  In7  1  0.32702578  0.16013769  0.62537471  1
  In  In8  1  0.33336989  0.50317508  0.12963162  1
  In  In9  1  0.33941235  0.50874391  0.61174180  1
  In  In10  1  0.32377966  0.83308810  0.13705156  1
  In  In11  1  0.34826057  0.84955099  0.60528527  1
  In  In12  1  0.64360184  0.18946448  0.13499084  1
  In  In13  1  0.67464511  0.17009105  0.62867137  1
  In  In14  1  0.66005246  0.50150806  0.11922435  1
  In  In15  1  0.67091499  0.50038414  0.62289118  1
  In  In16  1  0.66892936  0.82794277  0.13554802  1
  In  In17  1  0.65163407  0.81522856  0.61642375  1
  In  In18  1  0.18467478  -0.01775982  0.38351070  1
  In  In19  1  0.16398425  -0.01188809  0.86701798  1
  In  In20  1  0.18177879  0.33562654  0.36929188  1
  In  In21  1  0.17169104  0.33595965  0.88119391  1
  In  In22  1  0.16929362  0.66711011  0.37494840  1
  In  In23  1  0.16933085  0.67569186  0.87784091  1
  In  In24  1  0.48422662  -0.01951668  0.36912885  1
  In  In25  1  0.50340610  0.01210712  0.87448065  1
  In  In26  1  0.51349509  0.35208034  0.36575979  1
  In  In27  1  0.51088781  0.33392665  0.88939210  1
  In  In28  1  0.49897325  0.66581234  0.37586852  1
  In  In29  1  0.50384639  0.65421575  0.87722574  1
  In  In30  1  0.81840794  0.00065775  0.37542648  1
  In  In31  1  0.83516400  -0.01464596  0.87059305  1
  In  In32  1  0.82187225  0.35088846  0.37993731  1
  In  In33  1  0.82572457  0.36055222  0.88583502  1
  In  In34  1  0.82338586  0.67512759  0.38255477  1
  In  In35  1  0.82348316  0.64967049  0.86376525  1
  In  In36  1  -0.00262551  0.16908577  0.37341517  1
  In  In37  1  0.00782599  0.16104986  0.87048634  1
  In  In38  1  -0.00793905  0.50935412  0.38099665  1
  In  In39  1  -0.00763536  0.51207092  0.87886679  1
  In  In40  1  0.00500936  0.82602956  0.38456171  1
  In  In41  1  0.00732453  0.83391637  0.86503037  1
  In  In42  1  0.33620266  0.16538631  0.36646282  1
  In  In43  1  0.34581656  0.16802467  0.87597426  1
  In  In44  1  0.33433459  0.50340395  0.37250190  1
  In  In45  1  0.33922593  0.49690575  0.88637723  1
  In  In46  1  0.33673027  0.83496922  0.37618467  1
  In  In47  1  0.32433147  0.82542847  0.87435230  1
  In  In48  1  0.66251748  0.16676007  0.36786321  1
  In  In49  1  0.65053555  0.17352931  0.88080154  1
  In  In50  1  0.65731005  0.49963967  0.37646402  1
  In  In51  1  0.66718111  0.50236172  0.87616844  1
  In  In52  1  0.66114741  0.82906221  0.37655404  1
  In  In53  1  0.67249277  0.82833472  0.87321064  1
  In  In54  1  0.18259538  -0.00477292  0.12812149  1
  In  In55  1  0.18513724  -0.02257138  0.63297525  1
  In  In56  1  0.16835009  0.35032909  0.12492609  1
  In  In57  1  0.16154547  0.34338645  0.62297948  1
  In  In58  1  0.17426011  0.67239479  0.12146270  1
  In  In59  1  0.16537832  0.66598617  0.61913817  1
  In  In60  1  0.49375796  0.00318424  0.13056683  1
  In  In61  1  0.49459773  -0.01819850  0.62458197  1
  In  In62  1  0.50169991  0.33571521  0.12412900  1
  In  In63  1  0.50767896  0.34841665  0.61918897  1
  In  In64  1  0.50858166  0.65230696  0.13267260  1
  In  In65  1  0.51092801  0.67518933  0.62197893  1
  In  In66  1  0.82774005  -0.01331876  0.12706035  1
  In  In67  1  0.84439165  0.00015600  0.62810675  1
  In  In68  1  0.81417280  0.34230752  0.11519497  1
  In  In69  1  0.81203255  0.34076134  0.63022734  1
  In  In70  1  0.82885271  0.65399019  0.12349029  1
  In  In71  1  0.83092657  0.66577699  0.62278477  1
  In  In72  1  0.16209627  0.16808285  0.49631213  1
  In  In73  1  0.66760610  -0.00417815  0.74731415  1
  In  In74  1  0.50061222  0.16637301  0.49646627  1
  In  In75  1  -0.00315929  0.33317123  0.75679757  1
  In  In76  1  0.33762559  0.33058885  0.75664925  1
  In  In77  1  -0.00298086  0.33478093  0.24333437  1
  In  In78  1  0.83556233  0.82433608  0.00109311  1
  In  In79  1  0.00323154  0.00241902  0.25109774  1
  In  In80  1  0.17202659  0.16929133  -0.00368114  1
  In  In81  1  0.00037799  0.66583498  0.25447909  1
  In  In82  1  0.83507886  0.16836923  0.50146977  1
  In  In83  1  0.82693266  0.16900263  0.00181691  1
  In  In84  1  0.49746562  0.82306850  -0.00177454  1
  In  In85  1  0.34011616  0.67248584  0.74879102  1
  Cu  Cu86  1  -0.00310602  0.66785804  0.50260860  1
  Cu  Cu87  1  0.00520828  -0.00519840  0.50773252  1
  Cu  Cu88  1  0.82264831  0.17227779  0.24741031  1
  Cu  Cu89  1  0.17725823  0.16113479  0.25081525  1
  Cu  Cu90  1  0.50208384  0.16723917  0.24909706  1
  Cu  Cu91  1  0.81495348  0.49879705  0.24775434  1
  Cu  Cu92  1  0.33098334  0.66323354  0.00622451  1
  Cu  Cu93  1  0.66462010  0.66065576  0.49834538  1
  Cu  Cu94  1  0.16834793  0.82940693  0.74619546  1
  Cu  Cu95  1  0.83211302  0.50387098  0.74966446  1
  Cu  Cu96  1  0.33464897  0.34096237  0.49290326  1
  Cu  Cu97  1  0.50010403  0.82954351  0.25340142  1
  Cu  Cu98  1  0.49872458  0.17022552  0.75315276  1
  Cu  Cu99  1  0.33507057  -0.00413232  0.00688632  1
  Cu  Cu100  1  0.00676222  0.66937786  -0.00561897  1
  Cu  Cu101  1  0.82579725  0.83337670  0.25730987  1
  Cu  Cu102  1  0.65909953  0.00543669  0.00652135  1
  Cu  Cu103  1  0.33510023  0.33632356  0.00586523  1
  Cu  Cu104  1  0.82969278  0.16789565  0.75326055  1
  Cu  Cu105  1  0.66395318  -0.01062849  0.49687353  1
  Cu  Cu106  1  0.83739960  0.82580560  0.74569243  1
  Cu  Cu107  1  0.17223064  0.50491603  0.74671097  1
  Cu  Cu108  1  0.00922549  -0.00543734  -0.00905383  1
  Cu  Cu109  1  0.16379666  0.15210856  0.74726115  1
  Cu  Cu110  1  0.33051724  0.66486794  0.49381026  1
  Cu  Cu111  1  0.49842976  0.50320030  0.24925645  1
  Cu  Cu112  1  0.51444941  0.50128888  0.74965719  1
  Cu  Cu113  1  -0.00158481  0.34843165  0.50235284  1
  Cu  Cu114  1  0.16716058  0.50403869  0.25059716  1
  Se  Se115  1  0.08260579  0.07383490  0.05650701  1
  Se  Se116  1  0.08053559  0.08143166  0.56518758  1
  Se  Se117  1  0.08343413  0.40928701  0.04903205  1
  Se  Se118  1  0.08791033  0.42747059  0.55262216  1
  Se  Se119  1  0.08818537  0.75107151  0.05016096  1
  Se  Se120  1  0.08381096  0.75189190  0.55190860  1
  Se  Se121  1  0.42110514  0.08178764  0.05300155  1
  Se  Se122  1  0.41208330  0.07692907  0.55730550  1
  Se  Se123  1  0.41503131  0.42124290  0.05945248  1
  Se  Se124  1  0.42047553  0.41915318  0.54790113  1
  Se  Se125  1  0.41041037  0.74398585  0.06714973  1
  Se  Se126  1  0.41622170  0.74131761  0.55152633  1
  Se  Se127  1  0.74269191  0.08023940  0.06666127  1
  Se  Se128  1  0.74209459  0.07197668  0.55728359  1
  Se  Se129  1  0.75856804  0.44131227  0.04737876  1
  Se  Se130  1  0.74887882  0.41635733  0.55139365  1
  Se  Se131  1  0.73856821  0.74093366  0.05756526  1
  Se  Se132  1  0.74851372  0.74652394  0.55093858  1
  Se  Se133  1  0.25750137  0.25120391  0.06476448  1
  Se  Se134  1  0.25687532  0.26104987  0.55614069  1
  Se  Se135  1  0.24596935  0.57720483  0.05621036  1
  Se  Se136  1  0.24537710  0.58275482  0.54846483  1
  Se  Se137  1  0.25249242  0.90946925  0.05563112  1
  Se  Se138  1  0.24436865  0.91586417  0.54528098  1
  Se  Se139  1  0.58046188  0.25465526  0.05118101  1
  Se  Se140  1  0.59321490  0.25289713  0.55682639  1
  Se  Se141  1  0.57164843  0.58045307  0.05085747  1
  Se  Se142  1  0.58173461  0.58040718  0.55544536  1
  Se  Se143  1  0.58579788  0.91368942  0.06186161  1
  Se  Se144  1  0.57838870  0.91091103  0.55100726  1
  Se  Se145  1  0.92084377  0.25888481  0.05889367  1
  Se  Se146  1  0.92197212  0.26396370  0.56197810  1
  Se  Se147  1  0.92068466  0.59244969  0.05064654  1
  Se  Se148  1  0.91326978  0.58179653  0.55287949  1
  Se  Se149  1  0.92831360  0.92140715  0.05665949  1
  Se  Se150  1  0.91466471  0.91484058  0.55566547  1
  Se  Se151  1  0.07277029  0.26596436  0.43958851  1
  Se  Se152  1  0.07193426  0.25540496  0.94312054  1
  Se  Se153  1  0.08114167  0.58941282  0.44435607  1
  Se  Se154  1  0.09052795  0.58429701  0.94259415  1
  Se  Se155  1  0.08539961  0.91659061  0.44841914  1
  Se  Se156  1  0.08884790  0.90734323  0.94113863  1
  Se  Se157  1  0.41418544  0.25859651  0.43511949  1
  Se  Se158  1  0.41455342  0.25281961  0.94887159  1
  Se  Se159  1  0.41724985  0.58033123  0.44475913  1
  Se  Se160  1  0.41778466  0.58644035  0.95159035  1
  Se  Se161  1  0.41734259  0.91216251  0.45069336  1
  Se  Se162  1  0.41274378  0.92094070  0.93988102  1
  Se  Se163  1  0.74096294  0.25219713  0.44256770  1
  Se  Se164  1  0.73850356  0.26274510  0.94546962  1
  Se  Se165  1  0.74831714  0.57870279  0.44441473  1
  Se  Se166  1  0.76434880  0.57217945  0.94434390  1
  Se  Se167  1  0.75147557  0.90962502  0.44513631  1
  Se  Se168  1  0.74119322  0.92477246  0.94782087  1
  Se  Se169  1  0.26337749  0.08298444  0.44570671  1
  Se  Se170  1  0.25773411  0.07274258  0.93931985  1
  Se  Se171  1  0.24631747  0.42246049  0.44303070  1
  Se  Se172  1  0.25001800  0.41664285  0.95166315  1
  Se  Se173  1  0.24856671  0.75194046  0.44363724  1
  Se  Se174  1  0.25258130  0.75030739  0.95166288  1
  Se  Se175  1  0.58697170  0.07224614  0.43682247  1
  Se  Se176  1  0.57721188  0.08695883  0.95184398  1
  Se  Se177  1  0.58150743  0.41570170  0.44889673  1
  Se  Se178  1  0.56978169  0.44199184  0.94728946  1
  Se  Se179  1  0.58082213  0.74741867  0.44754642  1
  Se  Se180  1  0.59737490  0.73879386  0.94423803  1
  Se  Se181  1  0.92657077  0.07348470  0.44346315  1
  Se  Se182  1  0.91894926  0.07423447  0.94083610  1
  Se  Se183  1  0.91048725  0.42447353  0.44839994  1
  Se  Se184  1  0.93366261  0.41253322  0.94666518  1
  Se  Se185  1  0.91289660  0.75192275  0.44977915  1
  Se  Se186  1  0.92131255  0.74332700  0.93288719  1
  Se  Se187  1  0.25688988  0.25283811  0.29869961  1
  Se  Se188  1  0.23851719  0.23721356  0.80879927  1
  Se  Se189  1  0.24934408  0.58677122  0.30388749  1
  Se  Se190  1  0.25507958  0.57722962  0.81047211  1
  Se  Se191  1  0.26032808  0.92106451  0.30386088  1
  Se  Se192  1  0.25388257  0.91064895  0.80046326  1
  Se  Se193  1  0.58379332  0.25354631  0.30094393  1
  Se  Se194  1  0.57711142  0.25596471  0.80734757  1
  Se  Se195  1  0.58203738  0.58491439  0.30472471  1
  Se  Se196  1  0.59156020  0.58896542  0.80299047  1
  Se  Se197  1  0.58505114  0.91486351  0.30459596  1
  Se  Se198  1  0.57730654  0.91102605  0.81008741  1
  Se  Se199  1  0.90487115  0.24962132  0.30855795  1
  Se  Se200  1  0.90412427  0.24767095  0.81802547  1
  Se  Se201  1  0.90000398  0.57754803  0.30622367  1
  Se  Se202  1  0.92392353  0.58466971  0.79739102  1
  Se  Se203  1  0.91333806  0.91188237  0.31220410  1
  Se  Se204  1  0.91761377  0.91362321  0.79801732  1
  Se  Se205  1  0.09562455  0.08840023  0.31403069  1
  Se  Se206  1  0.07839427  0.07298285  0.80092921  1
  Se  Se207  1  0.08161112  0.42450937  0.30930768  1
  Se  Se208  1  0.09491302  0.42380987  0.80853325  1
  Se  Se209  1  0.09059090  0.76278080  0.30525409  1
  Se  Se210  1  0.08842086  0.74382210  0.80020996  1
  Se  Se211  1  0.42099078  0.08138867  0.30212897  1
  Se  Se212  1  0.41563968  0.08301986  0.80187741  1
  Se  Se213  1  0.41355092  0.41890863  0.30155396  1
  Se  Se214  1  0.42815784  0.42532521  0.80986420  1
  Se  Se215  1  0.41562627  0.74775768  0.30678328  1
  Se  Se216  1  0.43004417  0.75653837  0.81259339  1
  Se  Se217  1  0.74768190  0.08318806  0.30131370  1
  Se  Se218  1  0.74885741  0.08846485  0.81516759  1
  Se  Se219  1  0.73794050  0.41407670  0.30371542  1
  Se  Se220  1  0.74961458  0.42016924  0.80332733  1
  Se  Se221  1  0.74360197  0.74534214  0.30583994  1
  Se  Se222  1  0.75115042  0.74942354  0.80167203  1
  Se  Se223  1  0.25964260  0.07811376  0.19764664  1
  Se  Se224  1  0.25547297  0.07597581  0.69775197  1
  Se  Se225  1  0.25049712  0.41802797  0.20014586  1
  Se  Se226  1  0.25466697  0.42332270  0.69080360  1
  Se  Se227  1  0.24237716  0.74405414  0.20095769  1
  Se  Se228  1  0.25253726  0.75604426  0.68399638  1
  Se  Se229  1  0.58540469  0.08123548  0.19630399  1
  Se  Se230  1  0.57472759  0.08834778  0.68905435  1
  Se  Se231  1  0.58200655  0.42127854  0.19355731  1
  Se  Se232  1  0.59097325  0.41402863  0.69515246  1
  Se  Se233  1  0.58260882  0.74541499  0.19993737  1
  Se  Se234  1  0.58109491  0.75172594  0.69923883  1
  Se  Se235  1  0.90719837  0.09176198  0.19108227  1
  Se  Se236  1  0.91412346  0.08311548  0.70405372  1
  Se  Se237  1  0.90606946  0.42799406  0.18847536  1
  Se  Se238  1  0.91525593  0.42211985  0.69020714  1
  Se  Se239  1  0.90563178  0.75606896  0.19418637  1
  Se  Se240  1  0.92035238  0.74365519  0.69159666  1
  Se  Se241  1  0.09450103  0.24003504  0.19165719  1
  Se  Se242  1  0.09006387  0.24442663  0.69209842  1
  Se  Se243  1  0.08115730  0.57482408  0.18862521  1
  Se  Se244  1  0.08844344  0.58776918  0.69563319  1
  Se  Se245  1  0.08881180  0.90939769  0.19216970  1
  Se  Se246  1  0.08140597  0.91430371  0.69510033  1
  Se  Se247  1  0.41989139  0.25364952  0.19662007  1
  Se  Se248  1  0.42313418  0.24768017  0.68652812  1
  Se  Se249  1  0.41085086  0.58788571  0.20088848  1
  Se  Se250  1  0.42514079  0.57434541  0.69116018  1
  Se  Se251  1  0.41812714  0.91350908  0.19789539  1
  Se  Se252  1  0.40982239  0.90930097  0.69445014  1
  Se  Se253  1  0.74774022  0.26095194  0.19321564  1
  Se  Se254  1  0.74519699  0.25198165  0.70379144  1
  Se  Se255  1  0.73862872  0.58635178  0.19362727  1
  Se  Se256  1  0.74872547  0.58529390  0.69410255  1
  Se  Se257  1  0.74592100  0.91867992  0.20261574  1
  Se  Se258  1  0.75383736  0.90567659  0.68579884  1
