# generated using pymatgen
data_In86Cu29Se144
_symmetry_space_group_name_H-M   'P 1'
_cell_length_a   17.60375884
_cell_length_b   17.60256371
_cell_length_c   23.47449946
_cell_angle_alpha   90.03038461
_cell_angle_beta   90.01034452
_cell_angle_gamma   90.00141805
_symmetry_Int_Tables_number   1
_chemical_formula_structural   In86Cu29Se144
_chemical_formula_sum   'In86 Cu29 Se144'
_cell_volume   7274.07220792
_cell_formula_units_Z   1
loop_
 _symmetry_equiv_pos_site_id
 _symmetry_equiv_pos_as_xyz
  1  'x, y, z'
loop_
 _atom_site_type_symbol
 _atom_site_label
 _atom_site_symmetry_multiplicity
 _atom_site_fract_x
 _atom_site_fract_y
 _atom_site_fract_z
 _atom_site_occupancy
  In  In0  1  0.00488596  0.16026409  0.11994927  1
  In  In1  1  0.00370305  0.16306482  0.62742361  1
  In  In2  1  0.02154043  0.50173211  0.12033466  1
  In  In3  1  -0.00778154  0.49347658  0.62680633  1
  In  In4  1  0.00875998  0.82647170  0.13058486  1
  In  In5  1  0.00882740  0.83195942  0.62498673  1
  In  In6  1  0.34203420  0.16537323  0.12687726  1
  In  In7  1  0.33373661  0.16592706  0.62404008  1
  In  In8  1  0.32393416  0.50261541  0.13154569  1
  In  In9  1  0.33069060  0.48295253  0.62459666  1
  In  In10  1  0.33423790  0.84196252  0.12050766  1
  In  In11  1  0.34748819  0.85023625  0.61620034  1
  In  In12  1  0.65635013  0.17439846  0.13442184  1
  In  In13  1  0.64668545  0.15234810  0.60178389  1
  In  In14  1  0.65194607  0.49665324  0.13107477  1
  In  In15  1  0.66173772  0.50441076  0.61782873  1
  In  In16  1  0.65036573  0.87001653  0.15172974  1
  In  In17  1  0.65763191  0.84866820  0.62593929  1
  In  In18  1  0.17411539  -0.00708473  0.38047785  1
  In  In19  1  0.16901829  0.00651402  0.87749871  1
  In  In20  1  0.16439485  0.31713524  0.37445893  1
  In  In21  1  0.16538294  0.32467533  0.88113068  1
  In  In22  1  0.18783633  0.68359721  0.35790835  1
  In  In23  1  0.16412470  0.66513797  0.88426666  1
  In  In24  1  0.49870017  -0.00006073  0.37027420  1
  In  In25  1  0.49457934  0.00052172  0.87920985  1
  In  In26  1  0.49954909  0.32919982  0.38002872  1
  In  In27  1  0.48158100  0.32137481  0.86756621  1
  In  In28  1  0.47896872  0.68173240  0.38281680  1
  In  In29  1  0.50421737  0.68366748  0.87809050  1
  In  In30  1  0.82902015  0.01726258  0.38153473  1
  In  In31  1  0.83737853  -0.00814526  0.86026396  1
  In  In32  1  0.82166971  0.32510422  0.37626532  1
  In  In33  1  0.83043961  0.31816254  0.86918850  1
  In  In34  1  0.84096508  0.65944645  0.36973552  1
  In  In35  1  0.83405857  0.66685342  0.87450344  1
  In  In36  1  0.00531139  0.16174639  0.38603776  1
  In  In37  1  0.01340580  0.17486666  0.86368127  1
  In  In38  1  -0.00665620  0.50834659  0.37102650  1
  In  In39  1  0.01532572  0.49022073  0.88309417  1
  In  In40  1  0.01945845  0.83874318  0.37084492  1
  In  In41  1  0.00348583  0.84575385  0.86920382  1
  In  In42  1  0.33268029  0.16589483  0.37359384  1
  In  In43  1  0.32815684  0.15773375  0.88248590  1
  In  In44  1  0.34161942  0.50705107  0.36974446  1
  In  In45  1  0.32848028  0.48194084  0.87527931  1
  In  In46  1  0.33655415  0.83759798  0.36832021  1
  In  In47  1  0.30903866  0.86771481  0.90615114  1
  In  In48  1  0.66507528  0.16755819  0.37980643  1
  In  In49  1  0.66382926  0.15189368  0.87529705  1
  In  In50  1  0.66228165  0.47698926  0.37370127  1
  In  In51  1  0.65688810  0.50563781  0.87727674  1
  In  In52  1  0.64124551  0.83189355  0.36628044  1
  In  In53  1  0.65378427  0.84412340  0.87916556  1
  In  In54  1  0.19554203  0.02380812  0.09758374  1
  In  In55  1  0.17158903  0.00224271  0.62459042  1
  In  In56  1  0.16903832  0.34420764  0.11522892  1
  In  In57  1  0.17974783  0.31788776  0.63564250  1
  In  In58  1  0.17322213  0.66815785  0.12315536  1
  In  In59  1  0.16041545  0.67682919  0.62271266  1
  In  In60  1  0.49179507  0.00422472  0.12423673  1
  In  In61  1  0.49761665  0.00744463  0.62588832  1
  In  In62  1  0.50628083  0.32459553  0.13679526  1
  In  In63  1  0.48062442  0.30909021  0.60004688  1
  In  In64  1  0.48152044  0.66978939  0.13416467  1
  In  In65  1  0.50154523  0.67055014  0.61267180  1
  In  In66  1  0.82617140  -0.01182010  0.13036423  1
  In  In67  1  0.81324046  0.00936857  0.63711168  1
  In  In68  1  0.82504842  0.32315706  0.12810889  1
  In  In69  1  0.84601060  0.33076412  0.63009999  1
  In  In70  1  0.84181559  0.69090860  0.13304240  1
  In  In71  1  0.83379431  0.65859939  0.61997887  1
  In  In72  1  0.66746074  0.67653386  0.75355610  1
  In  In73  1  0.33481802  0.67266952  0.75455724  1
  In  In74  1  0.83554946  0.49563533  0.49836229  1
  In  In75  1  0.49081550  0.49924853  0.00038922  1
  In  In76  1  -0.00009752  0.66781493  0.74266323  1
  In  In77  1  0.00334887  -0.00756381  0.24634443  1
  In  In78  1  0.82980697  0.83749701  0.50271294  1
  In  In79  1  0.84151102  0.16244657  -0.00330165  1
  In  In80  1  0.16810793  0.50407876  0.49953778  1
  In  In81  1  0.66854729  0.65813895  0.25789343  1
  In  In82  1  0.00137196  0.33527394  0.24864881  1
  In  In83  1  0.83599028  0.83479881  -0.00045407  1
  In  In84  1  0.66293558  0.32727718  0.74209194  1
  In  In85  1  0.83334459  0.50147043  -0.00439448  1
  Cu  Cu86  1  0.16668838  0.48703249  0.75318524  1
  Cu  Cu87  1  0.00142634  0.00113340  0.50454446  1
  Cu  Cu88  1  0.00518739  0.66285676  0.00675236  1
  Cu  Cu89  1  0.33297040  0.32643644  0.00088737  1
  Cu  Cu90  1  0.50148206  0.49012583  0.25581107  1
  Cu  Cu91  1  0.83553768  0.16402494  0.74509887  1
  Cu  Cu92  1  0.17586830  0.84207450  0.75048976  1
  Cu  Cu93  1  0.16905955  0.50321171  0.24530956  1
  Cu  Cu94  1  0.83597911  0.49499204  0.75319796  1
  Cu  Cu95  1  0.33266327  0.00385585  0.49737816  1
  Cu  Cu96  1  0.00653026  0.32970128  0.50382528  1
  Cu  Cu97  1  0.49884835  0.16411047  0.25489486  1
  Cu  Cu98  1  0.65525562  0.32957639  0.00635288  1
  Cu  Cu99  1  0.33146012  0.67264663  0.49342294  1
  Cu  Cu100  1  0.82627476  0.16468030  0.25402998  1
  Cu  Cu101  1  0.17088773  0.16403187  0.75409808  1
  Cu  Cu102  1  0.66248142  0.68129503  0.00960055  1
  Cu  Cu103  1  0.33257194  0.66335529  0.00617401  1
  Cu  Cu104  1  0.01407557  0.67636166  0.49290035  1
  Cu  Cu105  1  0.49699600  0.85018402  0.75345935  1
  Cu  Cu106  1  0.17198022  0.83998112  0.24030024  1
  Cu  Cu107  1  0.83975375  0.50377820  0.24956881  1
  Cu  Cu108  1  0.17361852  0.16136109  0.24696246  1
  Cu  Cu109  1  0.49351575  0.49714297  0.74360245  1
  Cu  Cu110  1  0.00737196  0.00070904  -0.00463169  1
  Cu  Cu111  1  0.33222005  0.33089989  0.49835168  1
  Cu  Cu112  1  0.66007490  0.66512467  0.49294655  1
  Cu  Cu113  1  0.65591245  -0.00259651  0.49673438  1
  Cu  Cu114  1  0.66090006  0.00801500  0.00542455  1
  Se  Se115  1  0.08508685  0.09288927  0.04357242  1
  Se  Se116  1  0.08645216  0.08439438  0.55598836  1
  Se  Se117  1  0.07491436  0.41079143  0.04664421  1
  Se  Se118  1  0.08486955  0.41138618  0.56301244  1
  Se  Se119  1  0.08617303  0.75142064  0.05585226  1
  Se  Se120  1  0.09066592  0.75987379  0.54898701  1
  Se  Se121  1  0.40902559  0.07928825  0.05218536  1
  Se  Se122  1  0.41626992  0.08563877  0.55254422  1
  Se  Se123  1  0.41117176  0.40683050  0.06435479  1
  Se  Se124  1  0.41368445  0.42109959  0.54696107  1
  Se  Se125  1  0.41675112  0.74766859  0.05545257  1
  Se  Se126  1  0.41599987  0.75413675  0.54894003  1
  Se  Se127  1  0.74905219  0.08298705  0.06338872  1
  Se  Se128  1  0.74966332  0.07196836  0.54904437  1
  Se  Se129  1  0.73849083  0.41436471  0.05812496  1
  Se  Se130  1  0.75055558  0.40884312  0.56097055  1
  Se  Se131  1  0.74284772  0.76046293  0.06749000  1
  Se  Se132  1  0.73779562  0.74074062  0.55891603  1
  Se  Se133  1  0.25165101  0.24743888  0.05936996  1
  Se  Se134  1  0.24933717  0.24959165  0.55384225  1
  Se  Se135  1  0.24868031  0.57619867  0.05399247  1
  Se  Se136  1  0.25912739  0.59312759  0.56139688  1
  Se  Se137  1  0.24546523  0.90541280  0.04488740  1
  Se  Se138  1  0.25009231  0.91910573  0.55114192  1
  Se  Se139  1  0.57451437  0.24483222  0.05821144  1
  Se  Se140  1  0.59540553  0.26371424  0.54184564  1
  Se  Se141  1  0.58193488  0.59147976  0.06062001  1
  Se  Se142  1  0.57929021  0.58039074  0.54671687  1
  Se  Se143  1  0.58652431  0.91982937  0.06111077  1
  Se  Se144  1  0.57321250  0.91748892  0.55346382  1
  Se  Se145  1  0.92222264  0.25927608  0.05794622  1
  Se  Se146  1  0.92227465  0.24967198  0.55805587  1
  Se  Se147  1  0.91436781  0.59155770  0.06323686  1
  Se  Se148  1  0.93491053  0.59224186  0.54978332  1
  Se  Se149  1  0.92781458  0.92523538  0.05940058  1
  Se  Se150  1  0.91823504  0.92406290  0.56498662  1
  Se  Se151  1  0.08966948  0.24556150  0.45218656  1
  Se  Se152  1  0.07781737  0.24257828  0.94664370  1
  Se  Se153  1  0.08850868  0.59380975  0.43166970  1
  Se  Se154  1  0.08621851  0.57868983  0.95276596  1
  Se  Se155  1  0.08342083  0.91867309  0.44965709  1
  Se  Se156  1  0.08633410  0.91319223  0.94325013  1
  Se  Se157  1  0.41407523  0.24518052  0.44619706  1
  Se  Se158  1  0.41687557  0.24561688  0.94750279  1
  Se  Se159  1  0.41474070  0.58072744  0.44882122  1
  Se  Se160  1  0.40697857  0.59075275  0.93498305  1
  Se  Se161  1  0.41387706  0.92001679  0.44103452  1
  Se  Se162  1  0.44187262  0.89314047  0.94492194  1
  Se  Se163  1  0.76054047  0.23664270  0.44826534  1
  Se  Se164  1  0.73925527  0.25369548  0.94534942  1
  Se  Se165  1  0.74472457  0.58589912  0.43807042  1
  Se  Se166  1  0.73492868  0.60018816  0.94660309  1
  Se  Se167  1  0.73757552  0.91738520  0.43725997  1
  Se  Se168  1  0.74671505  0.93205924  0.94492625  1
  Se  Se169  1  0.24750000  0.08732137  0.44532086  1
  Se  Se170  1  0.25601852  0.07020283  0.95398252  1
  Se  Se171  1  0.25218611  0.41143261  0.43766401  1
  Se  Se172  1  0.24837585  0.41217996  0.95020687  1
  Se  Se173  1  0.25021131  0.75715433  0.44056195  1
  Se  Se174  1  0.24986943  0.74513143  0.95022234  1
  Se  Se175  1  0.57572706  0.08330596  0.44312549  1
  Se  Se176  1  0.57823088  0.08650338  0.94961735  1
  Se  Se177  1  0.59074639  0.40318990  0.45021557  1
  Se  Se178  1  0.58130025  0.40687201  0.93955904  1
  Se  Se179  1  0.57731126  0.75403371  0.44645706  1
  Se  Se180  1  0.58160754  0.76007067  0.95270940  1
  Se  Se181  1  0.91711655  0.08532349  0.45381154  1
  Se  Se182  1  0.92369262  0.07279074  0.93277364  1
  Se  Se183  1  0.92948830  0.40603011  0.43919225  1
  Se  Se184  1  0.91513547  0.40272464  0.93977509  1
  Se  Se185  1  0.92162043  0.74977507  0.43922303  1
  Se  Se186  1  0.92864576  0.74124228  0.94177649  1
  Se  Se187  1  0.24997612  0.24899560  0.30176735  1
  Se  Se188  1  0.25028089  0.24646825  0.81178385  1
  Se  Se189  1  0.25733572  0.58235211  0.29781773  1
  Se  Se190  1  0.24203593  0.57644571  0.80928589  1
  Se  Se191  1  0.24769183  0.92087595  0.30189219  1
  Se  Se192  1  0.25546677  0.91968444  0.81117534  1
  Se  Se193  1  0.58222282  0.24778571  0.30849599  1
  Se  Se194  1  0.57876303  0.23923994  0.80671285  1
  Se  Se195  1  0.57445463  0.57503918  0.31818849  1
  Se  Se196  1  0.56808575  0.58030051  0.80499347  1
  Se  Se197  1  0.57058441  0.91532185  0.29518903  1
  Se  Se198  1  0.58633442  0.92796632  0.80527060  1
  Se  Se199  1  0.91782157  0.24044140  0.30932862  1
  Se  Se200  1  0.91706951  0.24926647  0.79824272  1
  Se  Se201  1  0.92561446  0.59024038  0.29491527  1
  Se  Se202  1  0.91796975  0.57628471  0.81097308  1
  Se  Se203  1  0.91440369  0.92058645  0.31827606  1
  Se  Se204  1  0.91858301  0.90673975  0.79465741  1
  Se  Se205  1  0.08798296  0.08752103  0.30791065  1
  Se  Se206  1  0.08478045  0.07609803  0.80140430  1
  Se  Se207  1  0.09191339  0.42514266  0.30943721  1
  Se  Se208  1  0.08311504  0.40791515  0.80821734  1
  Se  Se209  1  0.08867331  0.75635179  0.29523663  1
  Se  Se210  1  0.09690102  0.75125640  0.80379679  1
  Se  Se211  1  0.41007282  0.08138032  0.30315878  1
  Se  Se212  1  0.41091649  0.08010171  0.81102874  1
  Se  Se213  1  0.41557179  0.40869877  0.30830748  1
  Se  Se214  1  0.41349978  0.41582357  0.79971803  1
  Se  Se215  1  0.40696743  0.74228255  0.30103315  1
  Se  Se216  1  0.41808779  0.76751567  0.81259850  1
  Se  Se217  1  0.74327201  0.08209258  0.30628441  1
  Se  Se218  1  0.75300145  0.08563590  0.80301443  1
  Se  Se219  1  0.76033128  0.41884844  0.30336536  1
  Se  Se220  1  0.74751420  0.42253040  0.81121017  1
  Se  Se221  1  0.75470396  0.75612524  0.31339166  1
  Se  Se222  1  0.75691827  0.76416239  0.81361794  1
  Se  Se223  1  0.25243657  0.07866403  0.19063118  1
  Se  Se224  1  0.25223923  0.08421699  0.69524641  1
  Se  Se225  1  0.24575576  0.40981044  0.19619729  1
  Se  Se226  1  0.25631741  0.40971781  0.70171984  1
  Se  Se227  1  0.25542389  0.75270620  0.19059423  1
  Se  Se228  1  0.25084404  0.75980653  0.68789616  1
  Se  Se229  1  0.57932448  0.08193270  0.19701696  1
  Se  Se230  1  0.59295070  0.08402659  0.68862910  1
  Se  Se231  1  0.58940712  0.40965726  0.20540064  1
  Se  Se232  1  0.57593138  0.42149619  0.68481366  1
  Se  Se233  1  0.58152012  0.74819319  0.19615149  1
  Se  Se234  1  0.56756363  0.75655279  0.69528321  1
  Se  Se235  1  0.90980291  0.09158856  0.19170705  1
  Se  Se236  1  0.91948506  0.07788389  0.69517888  1
  Se  Se237  1  0.91374331  0.42390109  0.18446318  1
  Se  Se238  1  0.92238958  0.41379111  0.70280836  1
  Se  Se239  1  0.91852288  0.76777726  0.20466135  1
  Se  Se240  1  0.90318628  0.75442735  0.68752932  1
  Se  Se241  1  0.08970148  0.24209520  0.19033435  1
  Se  Se242  1  0.08430451  0.24592638  0.70002780  1
  Se  Se243  1  0.08623669  0.58829689  0.19430708  1
  Se  Se244  1  0.09544107  0.57138474  0.69026490  1
  Se  Se245  1  0.10212736  0.92773628  0.17844343  1
  Se  Se246  1  0.08906562  0.91569813  0.69339495  1
  Se  Se247  1  0.41483030  0.24885638  0.20213564  1
  Se  Se248  1  0.41889417  0.25338317  0.68813688  1
  Se  Se249  1  0.41887421  0.57116778  0.20015922  1
  Se  Se250  1  0.41805610  0.58418194  0.68613474  1
  Se  Se251  1  0.41832687  0.91481571  0.19338292  1
  Se  Se252  1  0.41229508  0.92697411  0.69668775  1
  Se  Se253  1  0.74529051  0.25255973  0.20283377  1
  Se  Se254  1  0.75193882  0.23767058  0.68326279  1
  Se  Se255  1  0.75826755  0.57918706  0.18596348  1
  Se  Se256  1  0.75514995  0.57532362  0.69574508  1
  Se  Se257  1  0.76414075  0.91380417  0.21083547  1
  Se  Se258  1  0.74899529  0.90550882  0.69803881  1
