# generated using pymatgen
data_In86Cu29Se144
_symmetry_space_group_name_H-M   'P 1'
_cell_length_a   17.58073413
_cell_length_b   17.58282221
_cell_length_c   23.43323086
_cell_angle_alpha   89.97726192
_cell_angle_beta   89.98705116
_cell_angle_gamma   89.99004715
_symmetry_Int_Tables_number   1
_chemical_formula_structural   In86Cu29Se144
_chemical_formula_sum   'In86 Cu29 Se144'
_cell_volume   7243.65421028
_cell_formula_units_Z   1
loop_
 _symmetry_equiv_pos_site_id
 _symmetry_equiv_pos_as_xyz
  1  'x, y, z'
loop_
 _atom_site_type_symbol
 _atom_site_label
 _atom_site_symmetry_multiplicity
 _atom_site_fract_x
 _atom_site_fract_y
 _atom_site_fract_z
 _atom_site_occupancy
  In  In0  1  0.00106248  0.16647288  0.11148174  1
  In  In1  1  0.00538505  0.15327653  0.63994433  1
  In  In2  1  0.01002081  0.50616734  0.12550217  1
  In  In3  1  -0.00539808  0.50528308  0.63459288  1
  In  In4  1  -0.00954540  0.82664311  0.11610347  1
  In  In5  1  -0.00359510  0.83151431  0.63262250  1
  In  In6  1  0.34025814  0.17635551  0.11390890  1
  In  In7  1  0.34001879  0.16566937  0.63456577  1
  In  In8  1  0.33721446  0.49631222  0.13369725  1
  In  In9  1  0.33981162  0.50047819  0.63668349  1
  In  In10  1  0.32437512  0.83580477  0.12517074  1
  In  In11  1  0.34345967  0.82268006  0.63169648  1
  In  In12  1  0.67300751  0.17904756  0.10733377  1
  In  In13  1  0.65452263  0.15627176  0.63150336  1
  In  In14  1  0.66058668  0.50393485  0.12801596  1
  In  In15  1  0.67282671  0.50984502  0.62480456  1
  In  In16  1  0.67047195  0.82276206  0.12312731  1
  In  In17  1  0.67293239  0.83612002  0.63116171  1
  In  In18  1  0.17807195  0.00233095  0.38315291  1
  In  In19  1  0.16635011  0.00103275  0.87117691  1
  In  In20  1  0.17184137  0.31723248  0.37809007  1
  In  In21  1  0.15865763  0.32398017  0.86910985  1
  In  In22  1  0.16108061  0.66463042  0.37153410  1
  In  In23  1  0.17987572  0.68108384  0.87006407  1
  In  In24  1  0.50599825  -0.00214266  0.38872000  1
  In  In25  1  0.52058350  0.02737932  0.84960559  1
  In  In26  1  0.49109699  0.32598306  0.36925425  1
  In  In27  1  0.48887299  0.33583971  0.87206364  1
  In  In28  1  0.50618573  0.67227463  0.37207199  1
  In  In29  1  0.51420790  0.66917755  0.85977200  1
  In  In30  1  0.81821125  -0.00368998  0.38117212  1
  In  In31  1  0.83726456  -0.00278796  0.86597244  1
  In  In32  1  0.83390178  0.34591301  0.37203017  1
  In  In33  1  0.82451981  0.29174130  0.86735060  1
  In  In34  1  0.83606110  0.67109840  0.37121207  1
  In  In35  1  0.85072964  0.68634838  0.85686079  1
  In  In36  1  0.00609793  0.17566903  0.37998983  1
  In  In37  1  -0.00015759  0.16349080  0.86805312  1
  In  In38  1  -0.01013928  0.50912188  0.37414338  1
  In  In39  1  0.00051505  0.49914089  0.87146402  1
  In  In40  1  -0.00345039  0.81712310  0.38341301  1
  In  In41  1  0.00007051  0.83951645  0.87049517  1
  In  In42  1  0.33345830  0.16584649  0.37981712  1
  In  In43  1  0.33397761  0.16395982  0.87058242  1
  In  In44  1  0.33027656  0.49855588  0.37033823  1
  In  In45  1  0.34441381  0.50172231  0.86186793  1
  In  In46  1  0.34634185  0.83314950  0.37968811  1
  In  In47  1  0.33335601  0.83424149  0.87215648  1
  In  In48  1  0.65380054  0.16295181  0.37526891  1
  In  In49  1  0.67644786  0.16219911  0.88368941  1
  In  In50  1  0.66699526  0.49706614  0.36722501  1
  In  In51  1  0.65910932  0.50641637  0.87200582  1
  In  In52  1  0.68398959  0.81217289  0.39817672  1
  In  In53  1  0.69126087  0.84924961  0.85282938  1
  In  In54  1  0.16837395  -0.00143306  0.10943702  1
  In  In55  1  0.15984402  0.01026246  0.63216707  1
  In  In56  1  0.17349716  0.33499927  0.12171255  1
  In  In57  1  0.18250380  0.32464505  0.63227484  1
  In  In58  1  0.15877802  0.67172298  0.12879728  1
  In  In59  1  0.16355979  0.67212393  0.63175541  1
  In  In60  1  0.49102698  0.00544161  0.11831150  1
  In  In61  1  0.50288848  0.00145117  0.63733109  1
  In  In62  1  0.50033275  0.32692052  0.12933268  1
  In  In63  1  0.50300237  0.31035363  0.62973432  1
  In  In64  1  0.50413494  0.66233090  0.13263011  1
  In  In65  1  0.49804016  0.66940876  0.62454960  1
  In  In66  1  0.82999986  0.00114136  0.11082096  1
  In  In67  1  0.85380873  -0.02298768  0.65982049  1
  In  In68  1  0.82734885  0.32449150  0.11684945  1
  In  In69  1  0.83652067  0.33757963  0.63147746  1
  In  In70  1  0.82703684  0.67372285  0.12680648  1
  In  In71  1  0.82867258  0.68630420  0.63584153  1
  In  In72  1  0.49947039  0.49834657  -0.00519106  1
  In  In73  1  0.83192451  0.49939025  -0.00082512  1
  In  In74  1  0.49943065  0.84081900  -0.00681619  1
  In  In75  1  0.33399909  -0.00219249  0.24892582  1
  In  In76  1  0.50157428  0.50304887  0.50719986  1
  In  In77  1  0.16795664  0.49956283  0.00085474  1
  In  In78  1  0.83425344  0.50546126  0.50135691  1
  In  In79  1  0.16512266  0.49895836  0.49510298  1
  In  In80  1  0.66328347  0.33722758  0.75072424  1
  In  In81  1  0.16215649  0.84144219  0.51105886  1
  In  In82  1  0.00125945  0.34283013  0.24940139  1
  In  In83  1  -0.00067752  -0.00292906  0.24675811  1
  In  In84  1  0.65803370  -0.00316969  0.25038172  1
  In  In85  1  0.82558546  0.15869970  0.51110782  1
  Cu  Cu86  1  0.50611185  0.82446308  0.25741873  1
  Cu  Cu87  1  0.49596238  0.50137703  0.25257083  1
  Cu  Cu88  1  0.32931167  0.66868133  0.50335246  1
  Cu  Cu89  1  0.00009067  0.00047788  -0.01057858  1
  Cu  Cu90  1  0.66470801  -0.00651415  0.51355822  1
  Cu  Cu91  1  0.16998933  0.16636040  0.75302494  1
  Cu  Cu92  1  0.16943503  0.50468854  0.24966123  1
  Cu  Cu93  1  0.17322731  0.16736494  0.25010873  1
  Cu  Cu94  1  0.67630932  0.67698778  -0.00693166  1
  Cu  Cu95  1  -0.00726737  0.32374661  -0.01151562  1
  Cu  Cu96  1  -0.00755061  -0.00003288  0.51350869  1
  Cu  Cu97  1  0.34254962  0.31661105  0.50469568  1
  Cu  Cu98  1  0.66861219  -0.00177444  -0.01484673  1
  Cu  Cu99  1  0.83727186  0.49666800  0.75232706  1
  Cu  Cu100  1  0.83431596  0.82837909  0.25219820  1
  Cu  Cu101  1  0.49308109  0.82802580  0.74530588  1
  Cu  Cu102  1  0.82640845  0.17317939  0.23953487  1
  Cu  Cu103  1  0.66114848  0.32548725  0.49888632  1
  Cu  Cu104  1  0.32580276  0.32740102  -0.00631740  1
  Cu  Cu105  1  0.49931176  0.17146892  0.24708993  1
  Cu  Cu106  1  0.82479262  0.50409882  0.24780248  1
  Cu  Cu107  1  0.16620009  0.83561680  0.75059802  1
  Cu  Cu108  1  0.16221121  0.82530925  0.24798116  1
  Cu  Cu109  1  0.33289646  0.67158555  -0.00252130  1
  Cu  Cu110  1  0.16626392  0.50322983  0.75066379  1
  Cu  Cu111  1  0.01222769  0.32715836  0.50796146  1
  Cu  Cu112  1  0.33790157  0.01062657  0.50856463  1
  Cu  Cu113  1  0.33422015  0.00172171  -0.01186686  1
  Cu  Cu114  1  0.00355669  0.67836779  -0.00411355  1
  Se  Se115  1  0.08367441  0.08328307  0.04525082  1
  Se  Se116  1  0.07959454  0.08643507  0.55755639  1
  Se  Se117  1  0.06912833  0.40489086  0.05273618  1
  Se  Se118  1  0.08400770  0.41503432  0.56610004  1
  Se  Se119  1  0.09001630  0.75453292  0.05281429  1
  Se  Se120  1  0.07201676  0.74171337  0.55775961  1
  Se  Se121  1  0.41412625  0.08433791  0.04636130  1
  Se  Se122  1  0.42475168  0.08623546  0.56389418  1
  Se  Se123  1  0.40446272  0.41128885  0.05469746  1
  Se  Se124  1  0.41294814  0.40683674  0.56259830  1
  Se  Se125  1  0.41772086  0.74629205  0.05940518  1
  Se  Se126  1  0.41673248  0.75065906  0.55219773  1
  Se  Se127  1  0.74791370  0.08357596  0.04368635  1
  Se  Se128  1  0.75029703  0.06509178  0.57544911  1
  Se  Se129  1  0.73464846  0.41370425  0.05568317  1
  Se  Se130  1  0.74261261  0.40628705  0.55612661  1
  Se  Se131  1  0.75888098  0.75667786  0.04949232  1
  Se  Se132  1  0.74939749  0.75276699  0.55834289  1
  Se  Se133  1  0.24142329  0.24755401  0.04918564  1
  Se  Se134  1  0.25408088  0.24062927  0.55903824  1
  Se  Se135  1  0.25956130  0.58902710  0.06070460  1
  Se  Se136  1  0.25244094  0.58478228  0.56135436  1
  Se  Se137  1  0.25870170  0.91608767  0.04684313  1
  Se  Se138  1  0.25888438  0.92614898  0.56721048  1
  Se  Se139  1  0.56084604  0.24001831  0.05377615  1
  Se  Se140  1  0.58520716  0.23974315  0.55423911  1
  Se  Se141  1  0.59133852  0.59693499  0.05095193  1
  Se  Se142  1  0.59738745  0.59859816  0.55319347  1
  Se  Se143  1  0.59461515  0.92569858  0.05778513  1
  Se  Se144  1  0.57750376  0.91398465  0.56559234  1
  Se  Se145  1  0.91031250  0.24557692  0.04752287  1
  Se  Se146  1  0.92244205  0.25138399  0.56289364  1
  Se  Se147  1  0.92661759  0.59228482  0.05563835  1
  Se  Se148  1  0.91838988  0.59334249  0.56399595  1
  Se  Se149  1  0.91907720  0.91916458  0.04843362  1
  Se  Se150  1  0.91147111  0.91845476  0.56736902  1
  Se  Se151  1  0.09222392  0.24340528  0.45357326  1
  Se  Se152  1  0.08352600  0.24263061  0.94205928  1
  Se  Se153  1  0.06898967  0.59437274  0.44675635  1
  Se  Se154  1  0.08212072  0.59215639  0.94012552  1
  Se  Se155  1  0.07174965  0.92736678  0.44403263  1
  Se  Se156  1  0.08642959  0.91533348  0.94164194  1
  Se  Se157  1  0.42683564  0.24079259  0.44632870  1
  Se  Se158  1  0.41397164  0.24884764  0.94198337  1
  Se  Se159  1  0.40772830  0.58597392  0.44321748  1
  Se  Se160  1  0.41497966  0.59638653  0.93691643  1
  Se  Se161  1  0.41206683  0.92166623  0.45229024  1
  Se  Se162  1  0.42266232  0.93305029  0.92787926  1
  Se  Se163  1  0.75061250  0.25320661  0.43939728  1
  Se  Se164  1  0.74421046  0.25631858  0.95328421  1
  Se  Se165  1  0.74096335  0.58670668  0.43913690  1
  Se  Se166  1  0.75244728  0.59202835  0.93437808  1
  Se  Se167  1  0.75280349  0.91634195  0.45829700  1
  Se  Se168  1  0.75589056  0.91309446  0.93941440  1
  Se  Se169  1  0.25110373  0.08778871  0.45272858  1
  Se  Se170  1  0.24632359  0.08657217  0.94131870  1
  Se  Se171  1  0.26334603  0.40231126  0.44618458  1
  Se  Se172  1  0.25599347  0.41712607  0.93455977  1
  Se  Se173  1  0.24733428  0.74947918  0.44426507  1
  Se  Se174  1  0.25154253  0.75850567  0.94787051  1
  Se  Se175  1  0.59158188  0.08118816  0.45435323  1
  Se  Se176  1  0.57696639  0.08247900  0.94315323  1
  Se  Se177  1  0.58513517  0.41121342  0.44077178  1
  Se  Se178  1  0.59139643  0.40664427  0.94083104  1
  Se  Se179  1  0.56375108  0.76176805  0.44726660  1
  Se  Se180  1  0.59111119  0.75319139  0.93451837  1
  Se  Se181  1  0.92090156  0.07848866  0.44253093  1
  Se  Se182  1  0.91509129  0.08293640  0.93759982  1
  Se  Se183  1  0.93091234  0.40635789  0.44737408  1
  Se  Se184  1  0.91276774  0.40815488  0.93369312  1
  Se  Se185  1  0.90001569  0.75438214  0.44912515  1
  Se  Se186  1  0.91621685  0.75518147  0.94141605  1
  Se  Se187  1  0.25702932  0.24712373  0.30472743  1
  Se  Se188  1  0.25351076  0.25351383  0.80284807  1
  Se  Se189  1  0.25055799  0.58780131  0.30515611  1
  Se  Se190  1  0.25076635  0.58576843  0.80377123  1
  Se  Se191  1  0.24108814  0.90669493  0.30906954  1
  Se  Se192  1  0.25085681  0.91733341  0.80333582  1
  Se  Se193  1  0.58503040  0.25025993  0.30272841  1
  Se  Se194  1  0.58229795  0.24554613  0.81396721  1
  Se  Se195  1  0.58239993  0.58355103  0.30384305  1
  Se  Se196  1  0.57524702  0.56653344  0.79528411  1
  Se  Se197  1  0.58289291  0.90618796  0.31831516  1
  Se  Se198  1  0.57742881  0.90916874  0.79938326  1
  Se  Se199  1  0.91090251  0.24356823  0.30505057  1
  Se  Se200  1  0.93153792  0.25964709  0.79913173  1
  Se  Se201  1  0.91267099  0.58423940  0.29996246  1
  Se  Se202  1  0.92382325  0.58304696  0.80014419  1
  Se  Se203  1  0.90901527  0.91388412  0.31205424  1
  Se  Se204  1  0.90767781  0.90281492  0.79743419  1
  Se  Se205  1  0.09147691  0.08756112  0.30908603  1
  Se  Se206  1  0.08261083  0.07918056  0.79944638  1
  Se  Se207  1  0.09367592  0.42474799  0.31585714  1
  Se  Se208  1  0.08478383  0.41789149  0.80376544  1
  Se  Se209  1  0.07673508  0.74983505  0.30535479  1
  Se  Se210  1  0.08409563  0.75072621  0.80434690  1
  Se  Se211  1  0.42864189  0.08289700  0.30925214  1
  Se  Se212  1  0.40090345  0.07393179  0.79801975  1
  Se  Se213  1  0.41244323  0.41482251  0.30306222  1
  Se  Se214  1  0.43037353  0.42365203  0.79574031  1
  Se  Se215  1  0.41167707  0.74707189  0.30484659  1
  Se  Se216  1  0.41277536  0.74677967  0.80398200  1
  Se  Se217  1  0.75536093  0.09088857  0.30490228  1
  Se  Se218  1  0.74381783  0.08211351  0.80726955  1
  Se  Se219  1  0.74795275  0.41212899  0.29822736  1
  Se  Se220  1  0.75977456  0.41759810  0.81480380  1
  Se  Se221  1  0.74474936  0.75301883  0.30712228  1
  Se  Se222  1  0.72419309  0.71975574  0.80766696  1
  Se  Se223  1  0.24558638  0.08548241  0.18584280  1
  Se  Se224  1  0.25213525  0.08137486  0.70002902  1
  Se  Se225  1  0.24550767  0.41475920  0.19684292  1
  Se  Se226  1  0.25159579  0.41841852  0.70039639  1
  Se  Se227  1  0.25189884  0.74789703  0.19539710  1
  Se  Se228  1  0.25025349  0.74965132  0.69913490  1
  Se  Se229  1  0.57799619  0.09026564  0.18619173  1
  Se  Se230  1  0.57507057  0.09005259  0.70882489  1
  Se  Se231  1  0.57643611  0.42011128  0.19394909  1
  Se  Se232  1  0.57870460  0.42241043  0.68301175  1
  Se  Se233  1  0.58899174  0.74915173  0.19681193  1
  Se  Se234  1  0.58205744  0.74934518  0.69385915  1
  Se  Se235  1  0.90972328  0.08999380  0.18647363  1
  Se  Se236  1  0.90436163  0.09838992  0.70754553  1
  Se  Se237  1  0.90612455  0.42501101  0.18521157  1
  Se  Se238  1  0.92188514  0.41199073  0.70164074  1
  Se  Se239  1  0.91813983  0.75037731  0.19453781  1
  Se  Se240  1  0.91592304  0.75653304  0.70730107  1
  Se  Se241  1  0.08569566  0.24277664  0.19109833  1
  Se  Se242  1  0.08788320  0.25006460  0.69755178  1
  Se  Se243  1  0.08117658  0.58627467  0.20018575  1
  Se  Se244  1  0.08221034  0.58759043  0.69923035  1
  Se  Se245  1  0.09135491  0.91133491  0.18587439  1
  Se  Se246  1  0.08241367  0.91780433  0.69665975  1
  Se  Se247  1  0.40816812  0.24912342  0.19598937  1
  Se  Se248  1  0.41067637  0.25797664  0.70404851  1
  Se  Se249  1  0.41386656  0.58682406  0.19937571  1
  Se  Se250  1  0.41714099  0.59264222  0.69711626  1
  Se  Se251  1  0.43049341  0.90584580  0.19315441  1
  Se  Se252  1  0.40948098  0.91842095  0.69987733  1
  Se  Se253  1  0.74021691  0.25417714  0.18973655  1
  Se  Se254  1  0.75192606  0.24429358  0.69178298  1
  Se  Se255  1  0.74421001  0.58902592  0.19356772  1
  Se  Se256  1  0.75824750  0.58036483  0.69604165  1
  Se  Se257  1  0.75900556  0.91452310  0.19143066  1
  Se  Se258  1  0.73526580  0.92220305  0.70901932  1
