# generated using pymatgen
data_In86Cu29Se144
_symmetry_space_group_name_H-M   'P 1'
_cell_length_a   17.58727838
_cell_length_b   17.58676366
_cell_length_c   23.44712066
_cell_angle_alpha   90.00362748
_cell_angle_beta   89.98070192
_cell_angle_gamma   90.01911634
_symmetry_Int_Tables_number   1
_chemical_formula_structural   In86Cu29Se144
_chemical_formula_sum   'In86 Cu29 Se144'
_cell_volume   7252.27116308
_cell_formula_units_Z   1
loop_
 _symmetry_equiv_pos_site_id
 _symmetry_equiv_pos_as_xyz
  1  'x, y, z'
loop_
 _atom_site_type_symbol
 _atom_site_label
 _atom_site_symmetry_multiplicity
 _atom_site_fract_x
 _atom_site_fract_y
 _atom_site_fract_z
 _atom_site_occupancy
  In  In0  1  0.00829669  0.18207915  0.11010717  1
  In  In1  1  -0.00223956  0.17044300  0.62731736  1
  In  In2  1  0.01021211  0.48858240  0.13172277  1
  In  In3  1  -0.00879811  0.50082752  0.62570617  1
  In  In4  1  -0.01225810  0.83037980  0.13104447  1
  In  In5  1  0.01313508  0.83348360  0.61698902  1
  In  In6  1  0.33382550  0.16399867  0.12471910  1
  In  In7  1  0.34445152  0.17401638  0.61447655  1
  In  In8  1  0.33835052  0.50746199  0.11542607  1
  In  In9  1  0.33127043  0.48647266  0.62419931  1
  In  In10  1  0.35154256  0.82741659  0.14744319  1
  In  In11  1  0.32330893  0.85041528  0.61540894  1
  In  In12  1  0.67766067  0.17601359  0.12095445  1
  In  In13  1  0.65949790  0.16109246  0.62057095  1
  In  In14  1  0.65582339  0.50574615  0.13190994  1
  In  In15  1  0.66910130  0.50795799  0.61703421  1
  In  In16  1  0.65339199  0.82841919  0.13712663  1
  In  In17  1  0.67148547  0.82919907  0.62920826  1
  In  In18  1  0.17969761  -0.00741460  0.38884434  1
  In  In19  1  0.16777930  0.01640479  0.87240015  1
  In  In20  1  0.15387513  0.32911008  0.37217660  1
  In  In21  1  0.16927025  0.32869159  0.87245364  1
  In  In22  1  0.17803074  0.67389090  0.36468098  1
  In  In23  1  0.15922591  0.66434721  0.88563493  1
  In  In24  1  0.49757825  0.01580101  0.37047323  1
  In  In25  1  0.51182612  0.00299290  0.87354071  1
  In  In26  1  0.51806113  0.31889059  0.37775764  1
  In  In27  1  0.48950515  0.33808294  0.88363450  1
  In  In28  1  0.49459209  0.66229139  0.36991451  1
  In  In29  1  0.50426282  0.65098832  0.87639498  1
  In  In30  1  0.84249065  0.00386633  0.37967546  1
  In  In31  1  0.84360776  0.00713475  0.86246220  1
  In  In32  1  0.83315210  0.33291029  0.37849863  1
  In  In33  1  0.83786160  0.31940083  0.87734413  1
  In  In34  1  0.81310162  0.64443713  0.35828567  1
  In  In35  1  0.83031805  0.67773006  0.87344063  1
  In  In36  1  -0.00146931  0.17187481  0.38233405  1
  In  In37  1  0.00391668  0.17143096  0.86998208  1
  In  In38  1  -0.01027063  0.48544782  0.36773746  1
  In  In39  1  0.01459814  0.49068615  0.88101922  1
  In  In40  1  0.00738124  0.83507499  0.37134670  1
  In  In41  1  -0.01187421  0.83288044  0.87180451  1
  In  In42  1  0.34742180  0.15382647  0.38513454  1
  In  In43  1  0.31740809  0.17838733  0.88509284  1
  In  In44  1  0.33822390  0.51291207  0.36921929  1
  In  In45  1  0.34785643  0.49177349  0.88515496  1
  In  In46  1  0.33272260  0.82968939  0.36483048  1
  In  In47  1  0.32309268  0.83359793  0.87729015  1
  In  In48  1  0.65843437  0.17769333  0.38285639  1
  In  In49  1  0.67400728  0.15912499  0.87966466  1
  In  In50  1  0.66965825  0.49830152  0.38058708  1
  In  In51  1  0.65193722  0.49640007  0.87681452  1
  In  In52  1  0.66744647  0.81335968  0.36892645  1
  In  In53  1  0.67017274  0.83599518  0.86583336  1
  In  In54  1  0.17267946  0.01544096  0.12007635  1
  In  In55  1  0.16164448  -0.00321467  0.61605730  1
  In  In56  1  0.15905998  0.32758431  0.11953851  1
  In  In57  1  0.17570302  0.32560258  0.63355631  1
  In  In58  1  0.17939280  0.65232459  0.13434844  1
  In  In59  1  0.15536682  0.67388819  0.61694939  1
  In  In60  1  0.49073848  0.00186778  0.13158506  1
  In  In61  1  0.50028157  0.01524630  0.62240927  1
  In  In62  1  0.50472636  0.33713833  0.12492805  1
  In  In63  1  0.49630494  0.33238180  0.61847612  1
  In  In64  1  0.50479123  0.65933570  0.13483233  1
  In  In65  1  0.51349730  0.66569298  0.62034947  1
  In  In66  1  0.82476148  0.01202217  0.12514188  1
  In  In67  1  0.82379087  0.01111895  0.62909352  1
  In  In68  1  0.84207962  0.32538351  0.13079507  1
  In  In69  1  0.84080715  0.34373022  0.62356357  1
  In  In70  1  0.83023296  0.66816519  0.14294982  1
  In  In71  1  0.82898578  0.65113181  0.61564657  1
  In  In72  1  -0.00481525  0.66871317  0.74534777  1
  In  In73  1  0.49996114  0.83257662  0.01162415  1
  In  In74  1  0.16726900  0.50007387  0.49518854  1
  In  In75  1  0.67001246  0.33310974  0.75473413  1
  In  In76  1  0.83356973  0.49348111  0.00091093  1
  In  In77  1  0.82920042  0.83810211  0.00810873  1
  In  In78  1  0.49477982  0.83522328  0.49037366  1
  In  In79  1  0.66789117  -0.00429468  0.25399736  1
  In  In80  1  0.00168745  0.00353356  0.25429657  1
  In  In81  1  0.83578306  0.82890036  0.49475776  1
  In  In82  1  0.33819135  0.01097600  0.74205687  1
  In  In83  1  0.33573483  0.66496874  0.75502116  1
  In  In84  1  0.16869471  0.83439732  0.00451970  1
  In  In85  1  0.33197636  0.33163641  0.24360168  1
  Cu  Cu86  1  0.83461564  0.16537717  0.75069897  1
  Cu  Cu87  1  0.00221375  0.65733858  0.01029024  1
  Cu  Cu88  1  0.33719375  -0.00086311  0.00491792  1
  Cu  Cu89  1  0.00088822  0.66630843  0.49187527  1
  Cu  Cu90  1  0.50750908  0.83208049  0.74919440  1
  Cu  Cu91  1  0.65858221  0.66290615  0.00462250  1
  Cu  Cu92  1  -0.00038489  0.01130970  -0.00882738  1
  Cu  Cu93  1  0.33307952  0.67200311  0.49115110  1
  Cu  Cu94  1  0.82794555  0.49274022  0.25108096  1
  Cu  Cu95  1  -0.00267152  0.33331483  0.50125516  1
  Cu  Cu96  1  0.32881909  0.32968730  0.00367510  1
  Cu  Cu97  1  0.49725574  0.17305625  0.74698992  1
  Cu  Cu98  1  0.83711255  0.17308533  0.25283887  1
  Cu  Cu99  1  0.16471869  0.83751895  0.25086190  1
  Cu  Cu100  1  0.65957899  0.33577687  0.00182517  1
  Cu  Cu101  1  0.66490752  0.00087946  0.49882931  1
  Cu  Cu102  1  0.16133800  0.50072514  0.25044368  1
  Cu  Cu103  1  0.17183965  0.49405529  0.75434002  1
  Cu  Cu104  1  0.33772812  0.33552141  0.49750428  1
  Cu  Cu105  1  0.67035435  0.33288447  0.50253475  1
  Cu  Cu106  1  0.16126792  0.16899687  0.75006795  1
  Cu  Cu107  1  0.16407169  0.83816274  0.74218880  1
  Cu  Cu108  1  0.83030962  0.83573060  0.74534641  1
  Cu  Cu109  1  0.83426342  0.50375103  0.74653686  1
  Cu  Cu110  1  0.16795157  0.16705264  0.24644150  1
  Cu  Cu111  1  0.50338567  0.49398993  0.25160117  1
  Cu  Cu112  1  0.50184197  0.49731250  0.75440079  1
  Cu  Cu113  1  -0.00112959  0.01000516  0.50125985  1
  Cu  Cu114  1  0.66988260  0.01008933  -0.00196200  1
  Se  Se115  1  0.08655861  0.08606624  0.04819026  1
  Se  Se116  1  0.08142057  0.09169449  0.55580312  1
  Se  Se117  1  0.07676675  0.41277837  0.05313484  1
  Se  Se118  1  0.08197421  0.41284081  0.56104596  1
  Se  Se119  1  0.07853941  0.74619726  0.06598011  1
  Se  Se120  1  0.08478081  0.75268456  0.54072429  1
  Se  Se121  1  0.42129978  0.08328692  0.05564631  1
  Se  Se122  1  0.40436149  0.06880457  0.55193105  1
  Se  Se123  1  0.41630869  0.41140557  0.05487500  1
  Se  Se124  1  0.41821988  0.42172333  0.55006948  1
  Se  Se125  1  0.40880333  0.74059861  0.06550055  1
  Se  Se126  1  0.40851698  0.74739181  0.55969133  1
  Se  Se127  1  0.75692265  0.09189183  0.04846961  1
  Se  Se128  1  0.74847000  0.08436877  0.55142757  1
  Se  Se129  1  0.74100583  0.41258924  0.06432849  1
  Se  Se130  1  0.75288816  0.41895359  0.55472896  1
  Se  Se131  1  0.73924583  0.74255160  0.06396517  1
  Se  Se132  1  0.74033396  0.74180186  0.55260461  1
  Se  Se133  1  0.24851509  0.24404307  0.05668408  1
  Se  Se134  1  0.25204991  0.25794035  0.55353462  1
  Se  Se135  1  0.24094059  0.57911715  0.05220219  1
  Se  Se136  1  0.25676032  0.59184461  0.55750849  1
  Se  Se137  1  0.26491215  0.91428186  0.06702687  1
  Se  Se138  1  0.23883973  0.91638180  0.54321915  1
  Se  Se139  1  0.58131349  0.24807306  0.05534620  1
  Se  Se140  1  0.58252453  0.24949872  0.55306854  1
  Se  Se141  1  0.57561723  0.57997291  0.05642097  1
  Se  Se142  1  0.57125749  0.57184539  0.54983740  1
  Se  Se143  1  0.59648385  0.92783787  0.06173896  1
  Se  Se144  1  0.58722818  0.91732654  0.55845275  1
  Se  Se145  1  0.90173385  0.24395404  0.05121291  1
  Se  Se146  1  0.91393762  0.25121981  0.55657777  1
  Se  Se147  1  0.91249458  0.58622099  0.06755078  1
  Se  Se148  1  0.92358573  0.58201424  0.54844093  1
  Se  Se149  1  0.92699681  0.93252878  0.05798229  1
  Se  Se150  1  0.91751737  0.92395346  0.55859304  1
  Se  Se151  1  0.08506361  0.25227523  0.45130931  1
  Se  Se152  1  0.09681716  0.23680612  0.93997391  1
  Se  Se153  1  0.08089314  0.58592439  0.43030468  1
  Se  Se154  1  0.08379125  0.57736091  0.95446494  1
  Se  Se155  1  0.07355046  0.92156388  0.44560083  1
  Se  Se156  1  0.07725193  0.91921101  0.93793352  1
  Se  Se157  1  0.42258795  0.25049182  0.44689538  1
  Se  Se158  1  0.41529293  0.24633664  0.95092506  1
  Se  Se159  1  0.41698547  0.58352982  0.44598811  1
  Se  Se160  1  0.41602292  0.59043999  0.94894771  1
  Se  Se161  1  0.40614396  0.92706086  0.43529831  1
  Se  Se162  1  0.41355961  0.91986017  0.94146792  1
  Se  Se163  1  0.75316350  0.24845609  0.44936285  1
  Se  Se164  1  0.74326177  0.25516801  0.94659378  1
  Se  Se165  1  0.75472510  0.58355214  0.44638821  1
  Se  Se166  1  0.74444706  0.59114779  0.94248016  1
  Se  Se167  1  0.73936803  0.91876153  0.43704541  1
  Se  Se168  1  0.74818733  0.92453309  0.93911327  1
  Se  Se169  1  0.23240393  0.10738952  0.44383814  1
  Se  Se170  1  0.25041957  0.07778837  0.95063162  1
  Se  Se171  1  0.25766204  0.41162634  0.43395616  1
  Se  Se172  1  0.25141142  0.41181914  0.94377243  1
  Se  Se173  1  0.24932121  0.75510371  0.44046069  1
  Se  Se174  1  0.26094376  0.73880890  0.94947760  1
  Se  Se175  1  0.57981937  0.08390899  0.44698816  1
  Se  Se176  1  0.57892685  0.08813492  0.94812008  1
  Se  Se177  1  0.58497791  0.41259867  0.44738894  1
  Se  Se178  1  0.57570670  0.42103993  0.95117025  1
  Se  Se179  1  0.58810414  0.73683906  0.44452454  1
  Se  Se180  1  0.59024730  0.75152996  0.94213475  1
  Se  Se181  1  0.91182696  0.09108020  0.45104229  1
  Se  Se182  1  0.91367275  0.08898614  0.93735559  1
  Se  Se183  1  0.91542568  0.41836287  0.44861479  1
  Se  Se184  1  0.92633102  0.40282842  0.94602712  1
  Se  Se185  1  0.91798633  0.74013734  0.42996175  1
  Se  Se186  1  0.92403960  0.74153703  0.95071021  1
  Se  Se187  1  0.24727024  0.24488113  0.30951332  1
  Se  Se188  1  0.25293460  0.24739014  0.80077448  1
  Se  Se189  1  0.25220311  0.58254167  0.29668522  1
  Se  Se190  1  0.24362033  0.57889021  0.81571987  1
  Se  Se191  1  0.24554094  0.92204873  0.30506919  1
  Se  Se192  1  0.24627742  0.91647312  0.80245680  1
  Se  Se193  1  0.58740670  0.24189929  0.30029410  1
  Se  Se194  1  0.57635519  0.24669567  0.81361685  1
  Se  Se195  1  0.58421380  0.57663812  0.30847312  1
  Se  Se196  1  0.58851616  0.58371018  0.80071615  1
  Se  Se197  1  0.57573420  0.90825122  0.31369555  1
  Se  Se198  1  0.58619486  0.92137188  0.80047370  1
  Se  Se199  1  0.92116453  0.25247678  0.30916725  1
  Se  Se200  1  0.91775458  0.25203360  0.80003421  1
  Se  Se201  1  0.91824352  0.57711316  0.29886932  1
  Se  Se202  1  0.91488238  0.57828794  0.81349615  1
  Se  Se203  1  0.90651241  0.91066329  0.30608029  1
  Se  Se204  1  0.91983074  0.91439470  0.79648955  1
  Se  Se205  1  0.09223222  0.09024837  0.31349966  1
  Se  Se206  1  0.07948330  0.08035883  0.79925587  1
  Se  Se207  1  0.08073772  0.41121645  0.29886102  1
  Se  Se208  1  0.08305682  0.41243814  0.80356084  1
  Se  Se209  1  0.08297314  0.75029615  0.30056449  1
  Se  Se210  1  0.09153661  0.75525825  0.80686851  1
  Se  Se211  1  0.40933220  0.08624998  0.29974820  1
  Se  Se212  1  0.41915254  0.09434685  0.81235130  1
  Se  Se213  1  0.42258898  0.41321318  0.31124967  1
  Se  Se214  1  0.41651134  0.41456742  0.80551356  1
  Se  Se215  1  0.41192217  0.74130932  0.30081017  1
  Se  Se216  1  0.42547871  0.76031987  0.81314493  1
  Se  Se217  1  0.75823266  0.08985034  0.31152806  1
  Se  Se218  1  0.74578801  0.08345238  0.80097360  1
  Se  Se219  1  0.74749995  0.41204546  0.30918239  1
  Se  Se220  1  0.76018394  0.42597258  0.81429778  1
  Se  Se221  1  0.75815635  0.75367084  0.29660521  1
  Se  Se222  1  0.75017700  0.74857450  0.79826118  1
  Se  Se223  1  0.25323422  0.08257673  0.19726910  1
  Se  Se224  1  0.24204698  0.09413512  0.68467952  1
  Se  Se225  1  0.24195149  0.42335014  0.18642349  1
  Se  Se226  1  0.25640849  0.41297804  0.70099978  1
  Se  Se227  1  0.24774588  0.75023923  0.20053489  1
  Se  Se228  1  0.24676778  0.75385079  0.68855616  1
  Se  Se229  1  0.58901550  0.08748813  0.18914123  1
  Se  Se230  1  0.58143474  0.08689293  0.69782243  1
  Se  Se231  1  0.58698949  0.40991493  0.19984404  1
  Se  Se232  1  0.58167549  0.41942800  0.69102453  1
  Se  Se233  1  0.57386955  0.74929031  0.20543001  1
  Se  Se234  1  0.58591609  0.74548235  0.69575587  1
  Se  Se235  1  0.91673233  0.09416292  0.19058448  1
  Se  Se236  1  0.91755121  0.08250479  0.69595610  1
  Se  Se237  1  0.91720216  0.41450130  0.19860471  1
  Se  Se238  1  0.92015506  0.41779761  0.70022178  1
  Se  Se239  1  0.91806690  0.75054749  0.20490604  1
  Se  Se240  1  0.90787055  0.75603947  0.68097283  1
  Se  Se241  1  0.08141090  0.24688621  0.19359935  1
  Se  Se242  1  0.07867550  0.25486037  0.69788694  1
  Se  Se243  1  0.07782395  0.58632367  0.19835597  1
  Se  Se244  1  0.09488831  0.57656430  0.69260553  1
  Se  Se245  1  0.09030666  0.91774582  0.18649791  1
  Se  Se246  1  0.08003921  0.92035005  0.69109650  1
  Se  Se247  1  0.42820425  0.24055447  0.19298911  1
  Se  Se248  1  0.41556292  0.25377455  0.69177472  1
  Se  Se249  1  0.41607961  0.57196252  0.19682958  1
  Se  Se250  1  0.42153692  0.57645474  0.69147189  1
  Se  Se251  1  0.42273603  0.92424390  0.20852429  1
  Se  Se252  1  0.42452514  0.90825787  0.68887037  1
  Se  Se253  1  0.74989432  0.25212981  0.19945136  1
  Se  Se254  1  0.75417478  0.24564071  0.68921554  1
  Se  Se255  1  0.74296397  0.58037533  0.20262837  1
  Se  Se256  1  0.74903185  0.58312090  0.69361115  1
  Se  Se257  1  0.76092803  0.90921184  0.19126845  1
  Se  Se258  1  0.74521145  0.92114275  0.69548567  1
