# generated using pymatgen
data_In86Cu29Se144
_symmetry_space_group_name_H-M   'P 1'
_cell_length_a   17.57806535
_cell_length_b   17.57936602
_cell_length_c   23.43417475
_cell_angle_alpha   90.01395702
_cell_angle_beta   90.00856147
_cell_angle_gamma   90.00674781
_symmetry_Int_Tables_number   1
_chemical_formula_structural   In86Cu29Se144
_chemical_formula_sum   'In86 Cu29 Se144'
_cell_volume   7241.42316359
_cell_formula_units_Z   1
loop_
 _symmetry_equiv_pos_site_id
 _symmetry_equiv_pos_as_xyz
  1  'x, y, z'
loop_
 _atom_site_type_symbol
 _atom_site_label
 _atom_site_symmetry_multiplicity
 _atom_site_fract_x
 _atom_site_fract_y
 _atom_site_fract_z
 _atom_site_occupancy
  In  In0  1  0.00602351  0.17335513  0.12775716  1
  In  In1  1  -0.01146907  0.16440380  0.62601621  1
  In  In2  1  0.00715752  0.48986078  0.14497305  1
  In  In3  1  0.00861257  0.48749227  0.61985698  1
  In  In4  1  -0.00065050  0.83041385  0.12381361  1
  In  In5  1  0.01279706  0.83636158  0.62492879  1
  In  In6  1  0.31881440  0.15105748  0.11470794  1
  In  In7  1  0.32322726  0.16002482  0.63307379  1
  In  In8  1  0.32961603  0.49526596  0.11559469  1
  In  In9  1  0.33124167  0.50974308  0.62507748  1
  In  In10  1  0.32888362  0.85129342  0.12536035  1
  In  In11  1  0.33856160  0.82148174  0.63474666  1
  In  In12  1  0.65579122  0.14759967  0.10912827  1
  In  In13  1  0.67852905  0.15501927  0.63415980  1
  In  In14  1  0.67279459  0.51533140  0.12132638  1
  In  In15  1  0.66080153  0.50520463  0.63854959  1
  In  In16  1  0.68496261  0.83089777  0.13077472  1
  In  In17  1  0.65682017  0.84400255  0.63228637  1
  In  In18  1  0.16443076  -0.00275303  0.35635615  1
  In  In19  1  0.16126655  -0.00223580  0.88039534  1
  In  In20  1  0.16076819  0.34011461  0.36859876  1
  In  In21  1  0.16130649  0.33847667  0.88244156  1
  In  In22  1  0.15430388  0.66252916  0.36467325  1
  In  In23  1  0.16645166  0.66366693  0.88772814  1
  In  In24  1  0.49313989  -0.00993045  0.37272375  1
  In  In25  1  0.51204431  0.01298064  0.87395646  1
  In  In26  1  0.50284621  0.34450605  0.37327252  1
  In  In27  1  0.50800530  0.32027598  0.88492181  1
  In  In28  1  0.51541414  0.67211276  0.37256626  1
  In  In29  1  0.49200081  0.66480141  0.87216625  1
  In  In30  1  0.83894485  0.00684936  0.35982308  1
  In  In31  1  0.83438046  -0.00425940  0.88517719  1
  In  In32  1  0.83403880  0.32193793  0.37634244  1
  In  In33  1  0.81901151  0.32966116  0.87545381  1
  In  In34  1  0.83755095  0.66509697  0.34852518  1
  In  In35  1  0.83080267  0.69669143  0.88773803  1
  In  In36  1  -0.00621016  0.15744011  0.35909711  1
  In  In37  1  0.01203147  0.15670469  0.89102521  1
  In  In38  1  0.00863647  0.49940596  0.35246809  1
  In  In39  1  0.00732860  0.51480720  0.88254648  1
  In  In40  1  -0.01175007  0.84334361  0.35097075  1
  In  In41  1  -0.01813508  0.83734840  0.89953385  1
  In  In42  1  0.33355225  0.15564186  0.36997583  1
  In  In43  1  0.34186444  0.15633392  0.88104605  1
  In  In44  1  0.32713026  0.48924123  0.37239306  1
  In  In45  1  0.32532034  0.51236192  0.88094864  1
  In  In46  1  0.33338297  0.84249331  0.37412316  1
  In  In47  1  0.32719184  0.82647149  0.87109744  1
  In  In48  1  0.68439429  0.17506632  0.37747946  1
  In  In49  1  0.66996942  0.15927745  0.88419694  1
  In  In50  1  0.66129523  0.51241845  0.37039752  1
  In  In51  1  0.65887919  0.49384033  0.87216938  1
  In  In52  1  0.66641078  0.82742123  0.37060197  1
  In  In53  1  0.67615849  0.84409194  0.87313520  1
  In  In54  1  0.16903448  0.00447189  0.12331828  1
  In  In55  1  0.16488654  -0.00019075  0.63740945  1
  In  In56  1  0.15842701  0.33042184  0.12511976  1
  In  In57  1  0.15037884  0.34300697  0.62280900  1
  In  In58  1  0.14132486  0.65006930  0.10617733  1
  In  In59  1  0.17355888  0.66949778  0.62301158  1
  In  In60  1  0.49929739  0.00154170  0.12373976  1
  In  In61  1  0.50647127  -0.00844953  0.63238931  1
  In  In62  1  0.49447984  0.32961244  0.11370367  1
  In  In63  1  0.50266652  0.34963020  0.62771278  1
  In  In64  1  0.51724000  0.66918916  0.11886614  1
  In  In65  1  0.49213669  0.67130421  0.63409141  1
  In  In66  1  0.83478755  -0.00004313  0.12263635  1
  In  In67  1  0.82799452  0.00330143  0.63041845  1
  In  In68  1  0.85192791  0.33104633  0.13296028  1
  In  In69  1  0.84032074  0.31769567  0.62837287  1
  In  In70  1  0.82824457  0.66924710  0.13975619  1
  In  In71  1  0.82818094  0.65856173  0.62792397  1
  In  In72  1  -0.00562573  0.67398235  0.75819410  1
  In  In73  1  -0.00480842  0.32855188  0.74846349  1
  In  In74  1  0.83206244  0.49852944  0.49067874  1
  In  In75  1  0.83600757  0.83467590  0.48907208  1
  In  In76  1  0.16008153  0.16439513  0.48956203  1
  In  In77  1  0.50824223  0.84001016  0.00071804  1
  In  In78  1  0.32890920  0.67154657  0.24659940  1
  In  In79  1  0.84018556  0.49826108  0.00629050  1
  In  In80  1  0.50004398  0.50474153  0.49606641  1
  In  In81  1  0.32214382  0.32181745  0.24023798  1
  In  In82  1  0.66943546  0.33434396  0.25017040  1
  In  In83  1  0.50205206  0.16696585  0.50124354  1
  In  In84  1  0.16638114  0.83380042  0.49222667  1
  In  In85  1  0.34032872  0.33006272  0.75333308  1
  Cu  Cu86  1  0.33427770  0.00328605  -0.00322141  1
  Cu  Cu87  1  0.66565151  0.67839388  0.49947031  1
  Cu  Cu88  1  0.82525574  0.50525169  0.75544499  1
  Cu  Cu89  1  0.16791303  0.15673831  0.75970476  1
  Cu  Cu90  1  -0.00420447  0.00250395  0.49073315  1
  Cu  Cu91  1  0.33282775  0.66511982  0.50640907  1
  Cu  Cu92  1  0.50970058  0.16501163  0.75753091  1
  Cu  Cu93  1  0.66875603  0.32804728  0.00067810  1
  Cu  Cu94  1  0.50101748  0.83499265  0.75611506  1
  Cu  Cu95  1  0.16882472  0.83731919  0.23763646  1
  Cu  Cu96  1  0.83261029  0.84045611  0.75680287  1
  Cu  Cu97  1  0.50249704  0.15585238  0.24649221  1
  Cu  Cu98  1  0.31944669  0.32978812  0.49441485  1
  Cu  Cu99  1  0.33436894  0.67109327  0.00004198  1
  Cu  Cu100  1  0.82743436  0.16230631  0.24155400  1
  Cu  Cu101  1  0.33027051  0.34088239  -0.00155600  1
  Cu  Cu102  1  -0.00150461  0.65730961  0.48438574  1
  Cu  Cu103  1  0.00284673  0.33600475  0.00563134  1
  Cu  Cu104  1  -0.00121026  0.00145687  0.00952536  1
  Cu  Cu105  1  0.67977535  0.32950202  0.50869325  1
  Cu  Cu106  1  0.16039946  0.83774312  0.75759179  1
  Cu  Cu107  1  0.49986456  0.50053285  0.75495560  1
  Cu  Cu108  1  0.33748468  -0.01273853  0.50255948  1
  Cu  Cu109  1  0.83284971  0.16060502  0.75704359  1
  Cu  Cu110  1  0.67043222  0.66564692  0.00088923  1
  Cu  Cu111  1  0.16923907  0.50997284  0.75324387  1
  Cu  Cu112  1  0.50796962  0.83887600  0.24261456  1
  Cu  Cu113  1  0.50410479  0.50573096  0.24220619  1
  Cu  Cu114  1  0.67161794  0.00670564  0.50647672  1
  Se  Se115  1  0.08497463  0.08981706  0.05595402  1
  Se  Se116  1  0.07918865  0.07251198  0.55700778  1
  Se  Se117  1  0.07952875  0.42295704  0.06056877  1
  Se  Se118  1  0.08281878  0.41597645  0.54351790  1
  Se  Se119  1  0.10123718  0.77226429  0.05523873  1
  Se  Se120  1  0.07391209  0.73894867  0.54916869  1
  Se  Se121  1  0.42031109  0.08273769  0.05145321  1
  Se  Se122  1  0.40752184  0.07826363  0.56058534  1
  Se  Se123  1  0.42039295  0.42224544  0.04739777  1
  Se  Se124  1  0.40463435  0.41042902  0.55267664  1
  Se  Se125  1  0.41397872  0.75116471  0.06149205  1
  Se  Se126  1  0.41625854  0.74826206  0.55766381  1
  Se  Se127  1  0.76523219  0.09053360  0.05109635  1
  Se  Se128  1  0.75899941  0.08824835  0.55527722  1
  Se  Se129  1  0.74720834  0.40633417  0.06391451  1
  Se  Se130  1  0.74979001  0.42053800  0.56726615  1
  Se  Se131  1  0.75429270  0.74206760  0.05798317  1
  Se  Se132  1  0.74995178  0.75226039  0.56006400  1
  Se  Se133  1  0.25165682  0.25850757  0.05728184  1
  Se  Se134  1  0.24816897  0.24965895  0.55945382  1
  Se  Se135  1  0.25105910  0.58407230  0.04984607  1
  Se  Se136  1  0.24500063  0.58028960  0.55238399  1
  Se  Se137  1  0.24951098  0.92208684  0.04954593  1
  Se  Se138  1  0.24970188  0.91632124  0.56326431  1
  Se  Se139  1  0.57917911  0.24564180  0.04851369  1
  Se  Se140  1  0.58934999  0.25603612  0.56559246  1
  Se  Se141  1  0.58340815  0.57894754  0.04621984  1
  Se  Se142  1  0.59028273  0.59117337  0.55931338  1
  Se  Se143  1  0.60046256  0.92188665  0.06184435  1
  Se  Se144  1  0.58536224  0.92153180  0.55421798  1
  Se  Se145  1  0.91907770  0.25087076  0.05530378  1
  Se  Se146  1  0.93707978  0.26485820  0.55708146  1
  Se  Se147  1  0.91993678  0.58065047  0.07515224  1
  Se  Se148  1  0.92257441  0.58881332  0.55572472  1
  Se  Se149  1  0.91360188  0.91133059  0.05386324  1
  Se  Se150  1  0.92421509  0.92010119  0.55599966  1
  Se  Se151  1  0.06996401  0.25132632  0.43128762  1
  Se  Se152  1  0.08825331  0.25243275  0.95315913  1
  Se  Se153  1  0.08246855  0.57385148  0.43421095  1
  Se  Se154  1  0.08255253  0.58581564  0.95822095  1
  Se  Se155  1  0.07249634  0.91940086  0.43129270  1
  Se  Se156  1  0.08204161  0.91866126  0.95403388  1
  Se  Se157  1  0.40926375  0.25756303  0.43763006  1
  Se  Se158  1  0.41096038  0.25053190  0.94929739  1
  Se  Se159  1  0.40837551  0.59205915  0.43510337  1
  Se  Se160  1  0.41830569  0.58651950  0.94843875  1
  Se  Se161  1  0.42177637  0.90716478  0.44901686  1
  Se  Se162  1  0.41442200  0.92082082  0.93675228  1
  Se  Se163  1  0.76155704  0.24623254  0.45551102  1
  Se  Se164  1  0.75592853  0.24519061  0.95148122  1
  Se  Se165  1  0.74702184  0.60157000  0.43712472  1
  Se  Se166  1  0.75052584  0.58286284  0.93990680  1
  Se  Se167  1  0.74489446  0.93000415  0.43683612  1
  Se  Se168  1  0.76713720  0.89471828  0.95004951  1
  Se  Se169  1  0.25429970  0.06384304  0.44041757  1
  Se  Se170  1  0.24534470  0.08636643  0.94659421  1
  Se  Se171  1  0.24063540  0.41733906  0.44327794  1
  Se  Se172  1  0.24485411  0.42408700  0.94698003  1
  Se  Se173  1  0.25633676  0.73790307  0.43651910  1
  Se  Se174  1  0.25049998  0.75581059  0.94947632  1
  Se  Se175  1  0.59146201  0.08096161  0.43924340  1
  Se  Se176  1  0.58268000  0.08238634  0.95342259  1
  Se  Se177  1  0.60103354  0.40955645  0.44617095  1
  Se  Se178  1  0.58678838  0.41447117  0.94846704  1
  Se  Se179  1  0.58047492  0.75908774  0.44739183  1
  Se  Se180  1  0.59011348  0.74435174  0.93915985  1
  Se  Se181  1  0.91346718  0.08367895  0.43695449  1
  Se  Se182  1  0.91553145  0.08291440  0.95356476  1
  Se  Se183  1  0.92559421  0.41692659  0.43061279  1
  Se  Se184  1  0.92390640  0.40895567  0.93801965  1
  Se  Se185  1  0.92367545  0.74327520  0.42766605  1
  Se  Se186  1  0.94132020  0.71731741  0.95623848  1
  Se  Se187  1  0.23834116  0.23504793  0.30742903  1
  Se  Se188  1  0.24398055  0.24760969  0.81351282  1
  Se  Se189  1  0.24443007  0.57161649  0.30185948  1
  Se  Se190  1  0.24701975  0.59389288  0.80830243  1
  Se  Se191  1  0.25505328  0.91117737  0.29676600  1
  Se  Se192  1  0.24683243  0.91990762  0.80878433  1
  Se  Se193  1  0.57298251  0.24260461  0.30920357  1
  Se  Se194  1  0.59122445  0.24660202  0.81219042  1
  Se  Se195  1  0.58475895  0.59011939  0.29615906  1
  Se  Se196  1  0.58298650  0.58637788  0.80594365  1
  Se  Se197  1  0.58566191  0.91828293  0.30493150  1
  Se  Se198  1  0.58520209  0.91993927  0.80657823  1
  Se  Se199  1  0.90652286  0.24744879  0.29798285  1
  Se  Se200  1  0.91542327  0.24107276  0.81563900  1
  Se  Se201  1  0.93232343  0.59084116  0.28695896  1
  Se  Se202  1  0.90455058  0.58235825  0.81700148  1
  Se  Se203  1  0.88540007  0.90416486  0.28671952  1
  Se  Se204  1  0.91965866  0.91180588  0.81529203  1
  Se  Se205  1  0.07167643  0.06987472  0.29294894  1
  Se  Se206  1  0.07628210  0.07962595  0.80969502  1
  Se  Se207  1  0.07639114  0.39601824  0.28872527  1
  Se  Se208  1  0.08423015  0.42676835  0.80630450  1
  Se  Se209  1  0.08942332  0.76070227  0.29914211  1
  Se  Se210  1  0.08291205  0.75870220  0.82049610  1
  Se  Se211  1  0.41707708  0.07701827  0.30214064  1
  Se  Se212  1  0.41823340  0.08323362  0.80394676  1
  Se  Se213  1  0.42067205  0.42091808  0.29741197  1
  Se  Se214  1  0.42126846  0.42086945  0.81761852  1
  Se  Se215  1  0.42654337  0.75830970  0.30469856  1
  Se  Se216  1  0.41358624  0.74877774  0.80174884  1
  Se  Se217  1  0.74195157  0.08818972  0.30026501  1
  Se  Se218  1  0.75248609  0.07736697  0.81303688  1
  Se  Se219  1  0.75471989  0.42386216  0.31327212  1
  Se  Se220  1  0.74589354  0.41361836  0.80351901  1
  Se  Se221  1  0.74230552  0.74997370  0.29665317  1
  Se  Se222  1  0.75068616  0.75039430  0.80458982  1
  Se  Se223  1  0.25344814  0.08067907  0.19569929  1
  Se  Se224  1  0.25381880  0.07594752  0.70631718  1
  Se  Se225  1  0.24167376  0.42807779  0.19147570  1
  Se  Se226  1  0.24300469  0.42032617  0.69494854  1
  Se  Se227  1  0.24222226  0.75014109  0.17849295  1
  Se  Se228  1  0.23876418  0.75278208  0.69951770  1
  Se  Se229  1  0.58933601  0.07759181  0.19347451  1
  Se  Se230  1  0.58653892  0.07962550  0.69885828  1
  Se  Se231  1  0.57775245  0.41798678  0.18476626  1
  Se  Se232  1  0.58408396  0.41382751  0.70518000  1
  Se  Se233  1  0.58845604  0.75126793  0.19273830  1
  Se  Se234  1  0.58200569  0.75159209  0.69825347  1
  Se  Se235  1  0.91844161  0.08635391  0.19048952  1
  Se  Se236  1  0.91658074  0.08124259  0.69920038  1
  Se  Se237  1  0.90277225  0.42532176  0.20652080  1
  Se  Se238  1  0.90769743  0.42974460  0.69339254  1
  Se  Se239  1  0.91738886  0.75688792  0.19815190  1
  Se  Se240  1  0.90818479  0.76200613  0.68925571  1
  Se  Se241  1  0.07030717  0.26867037  0.20126337  1
  Se  Se242  1  0.09470463  0.23896624  0.69446881  1
  Se  Se243  1  0.08601304  0.59409741  0.19850677  1
  Se  Se244  1  0.08155605  0.58260990  0.69201075  1
  Se  Se245  1  0.08229345  0.92121906  0.18971298  1
  Se  Se246  1  0.07593163  0.91880838  0.70274416  1
  Se  Se247  1  0.42286431  0.23716360  0.18652534  1
  Se  Se248  1  0.43080475  0.24024266  0.69030775  1
  Se  Se249  1  0.42092871  0.58304487  0.18408475  1
  Se  Se250  1  0.41319851  0.57968441  0.69953877  1
  Se  Se251  1  0.41850107  0.92072197  0.19574831  1
  Se  Se252  1  0.41578404  0.91455157  0.69851324  1
  Se  Se253  1  0.74539797  0.24369288  0.18309368  1
  Se  Se254  1  0.75488052  0.24718114  0.70104806  1
  Se  Se255  1  0.74363750  0.58013190  0.20232316  1
  Se  Se256  1  0.74435672  0.59264158  0.70332379  1
  Se  Se257  1  0.76227675  0.91792847  0.19991117  1
  Se  Se258  1  0.74922294  0.91882000  0.69867622  1
