# generated using pymatgen
data_In86Cu29Se144
_symmetry_space_group_name_H-M   'P 1'
_cell_length_a   17.60201378
_cell_length_b   17.61054228
_cell_length_c   23.47589683
_cell_angle_alpha   90.00797746
_cell_angle_beta   89.98215431
_cell_angle_gamma   89.98523992
_symmetry_Int_Tables_number   1
_chemical_formula_structural   In86Cu29Se144
_chemical_formula_sum   'In86 Cu29 Se144'
_cell_volume   7277.08149358
_cell_formula_units_Z   1
loop_
 _symmetry_equiv_pos_site_id
 _symmetry_equiv_pos_as_xyz
  1  'x, y, z'
loop_
 _atom_site_type_symbol
 _atom_site_label
 _atom_site_symmetry_multiplicity
 _atom_site_fract_x
 _atom_site_fract_y
 _atom_site_fract_z
 _atom_site_occupancy
  In  In0  1  0.00122250  0.17121649  0.12434485  1
  In  In1  1  -0.00280365  0.18058096  0.62289608  1
  In  In2  1  0.04302234  0.46776577  0.16374463  1
  In  In3  1  0.00104784  0.50129401  0.61856446  1
  In  In4  1  0.01951975  0.82385604  0.14440405  1
  In  In5  1  0.00486717  0.81354671  0.62257071  1
  In  In6  1  0.31542618  0.19000718  0.13086440  1
  In  In7  1  0.32949430  0.16937606  0.63535735  1
  In  In8  1  0.31413973  0.49548207  0.11937686  1
  In  In9  1  0.30377176  0.52022049  0.65001596  1
  In  In10  1  0.32417232  0.84791681  0.12914977  1
  In  In11  1  0.32606514  0.83614452  0.62638704  1
  In  In12  1  0.67145354  0.16681028  0.12859690  1
  In  In13  1  0.68226524  0.17931638  0.61367039  1
  In  In14  1  0.66250826  0.49177688  0.12556675  1
  In  In15  1  0.68273752  0.48328569  0.63032426  1
  In  In16  1  0.68233469  0.83160272  0.12869691  1
  In  In17  1  0.65625004  0.83722884  0.62325953  1
  In  In18  1  0.15689861  -0.00594824  0.35797912  1
  In  In19  1  0.17025686  -0.00929775  0.88210486  1
  In  In20  1  0.16948804  0.34212219  0.36150358  1
  In  In21  1  0.16631538  0.33321929  0.87451588  1
  In  In22  1  0.16611114  0.66764960  0.37821765  1
  In  In23  1  0.16663795  0.66449803  0.87216346  1
  In  In24  1  0.49974683  -0.00083013  0.36703227  1
  In  In25  1  0.48963098  0.00954860  0.87818201  1
  In  In26  1  0.49309685  0.32300755  0.37183346  1
  In  In27  1  0.50332557  0.32712672  0.86954536  1
  In  In28  1  0.49715238  0.66525024  0.37910161  1
  In  In29  1  0.48688066  0.65641851  0.86130183  1
  In  In30  1  0.84692509  0.01335383  0.36881467  1
  In  In31  1  0.84476352  0.00999005  0.88035421  1
  In  In32  1  0.83491388  0.33678347  0.37630353  1
  In  In33  1  0.83457702  0.33154343  0.87229873  1
  In  In34  1  0.84102206  0.64895050  0.38302307  1
  In  In35  1  0.83115510  0.65635820  0.86258087  1
  In  In36  1  -0.00665737  0.16799920  0.37067191  1
  In  In37  1  -0.01079880  0.17903825  0.88741010  1
  In  In38  1  0.00361364  0.49650584  0.36912530  1
  In  In39  1  0.01759697  0.50397353  0.86327455  1
  In  In40  1  0.01604168  0.83834649  0.36574010  1
  In  In41  1  0.01026042  0.83010113  0.87934289  1
  In  In42  1  0.33383362  0.16524926  0.36737032  1
  In  In43  1  0.33268660  0.15987802  0.87307703  1
  In  In44  1  0.33290590  0.49303792  0.37874062  1
  In  In45  1  0.29763493  0.47607559  0.84550717  1
  In  In46  1  0.28858534  0.82339122  0.36220751  1
  In  In47  1  0.31898587  0.82302036  0.86603014  1
  In  In48  1  0.68807196  0.18963724  0.36174208  1
  In  In49  1  0.67486377  0.18005633  0.88018031  1
  In  In50  1  0.67807773  0.49297752  0.38300344  1
  In  In51  1  0.66281930  0.49363934  0.86498456  1
  In  In52  1  0.65741866  0.83572004  0.37620172  1
  In  In53  1  0.67332345  0.82446634  0.87504817  1
  In  In54  1  0.16037399  0.00395333  0.12699262  1
  In  In55  1  0.18012080  -0.00078075  0.62372489  1
  In  In56  1  0.17361319  0.33003144  0.12107383  1
  In  In57  1  0.14047754  0.35930468  0.65479131  1
  In  In58  1  0.15475982  0.66065855  0.11991934  1
  In  In59  1  0.16497388  0.66108142  0.61964054  1
  In  In60  1  0.49772205  0.01054784  0.13129594  1
  In  In61  1  0.49246377  -0.00330764  0.62269872  1
  In  In62  1  0.50436590  0.33154858  0.13006183  1
  In  In63  1  0.49648631  0.33690359  0.63316734  1
  In  In64  1  0.49386081  0.66050269  0.12099979  1
  In  In65  1  0.49623996  0.67100559  0.63407963  1
  In  In66  1  0.83003328  0.00756585  0.13519486  1
  In  In67  1  0.82619238  0.00503981  0.61583742  1
  In  In68  1  0.83693670  0.32642136  0.12637357  1
  In  In69  1  0.83378735  0.33889851  0.61804663  1
  In  In70  1  0.84487249  0.67625911  0.12253927  1
  In  In71  1  0.85738202  0.64443208  0.63651668  1
  In  In72  1  0.49451446  0.16923772  0.00056360  1
  In  In73  1  0.33384256  0.66349744  0.25412992  1
  In  In74  1  0.49973435  0.16476119  0.50356207  1
  In  In75  1  0.00135819  -0.00262114  0.75638680  1
  In  In76  1  0.67516353  0.66538078  0.25760167  1
  In  In77  1  0.48758904  0.49398160  -0.01303076  1
  In  In78  1  0.84551886  0.84006329  0.00465206  1
  In  In79  1  0.83393803  0.83006921  0.50378893  1
  In  In80  1  0.84389202  0.49516368  0.00898966  1
  In  In81  1  0.49554495  0.83387955  0.00606232  1
  In  In82  1  0.16704289  0.17169593  0.50186529  1
  In  In83  1  0.49375852  0.83619751  0.50094044  1
  In  In84  1  0.49466914  0.49772260  0.50458041  1
  In  In85  1  0.65854844  0.00183235  0.74583929  1
  Cu  Cu86  1  0.83234320  0.17145685  0.24937359  1
  Cu  Cu87  1  0.16856636  0.16809348  0.24561671  1
  Cu  Cu88  1  0.16436501  0.82889866  0.75088282  1
  Cu  Cu89  1  0.83669229  0.84114106  0.25579944  1
  Cu  Cu90  1  0.32447964  -0.00897250  0.49276756  1
  Cu  Cu91  1  0.00149197  0.00629220  0.00756958  1
  Cu  Cu92  1  0.67236206  0.66060045  0.51211024  1
  Cu  Cu93  1  0.67304984  0.01488693  0.49014393  1
  Cu  Cu94  1  0.50669480  0.50339199  0.74682297  1
  Cu  Cu95  1  0.31537736  0.66924420  -0.00641392  1
  Cu  Cu96  1  0.50205888  0.16356515  0.75205557  1
  Cu  Cu97  1  0.00094697  0.34004880  0.49929086  1
  Cu  Cu98  1  0.01040869  0.34114294  0.00422538  1
  Cu  Cu99  1  0.16683784  0.16358608  0.75549413  1
  Cu  Cu100  1  0.83235749  0.50063608  0.25405490  1
  Cu  Cu101  1  0.00726751  -0.00320754  0.49130243  1
  Cu  Cu102  1  0.32228620  0.00020006  0.00138762  1
  Cu  Cu103  1  0.50409690  0.16265730  0.24868601  1
  Cu  Cu104  1  0.83678653  0.49235213  0.74717331  1
  Cu  Cu105  1  0.66358273  0.66084129  -0.01062884  1
  Cu  Cu106  1  0.00341752  0.66414156  0.00019428  1
  Cu  Cu107  1  0.49649494  0.83777610  0.74779052  1
  Cu  Cu108  1  0.00525396  0.66022729  0.49801060  1
  Cu  Cu109  1  0.32241435  0.33756101  0.50772697  1
  Cu  Cu110  1  0.67441258  0.00454735  0.00835276  1
  Cu  Cu111  1  0.82901186  0.82379351  0.74899556  1
  Cu  Cu112  1  0.83300262  0.17131071  0.74799519  1
  Cu  Cu113  1  0.50497167  0.83334496  0.24854866  1
  Cu  Cu114  1  0.49958544  0.49039057  0.25212019  1
  Se  Se115  1  0.08785957  0.09142347  0.05523374  1
  Se  Se116  1  0.07681340  0.07704259  0.56095591  1
  Se  Se117  1  0.08618871  0.42486732  0.06235844  1
  Se  Se118  1  0.08922918  0.41049711  0.55845935  1
  Se  Se119  1  0.07673469  0.75568577  0.05536474  1
  Se  Se120  1  0.08760940  0.74823757  0.54702576  1
  Se  Se121  1  0.40550821  0.07824631  0.05922443  1
  Se  Se122  1  0.39862541  0.07489797  0.55466090  1
  Se  Se123  1  0.41309778  0.41019549  0.06009533  1
  Se  Se124  1  0.40283282  0.41602590  0.56755009  1
  Se  Se125  1  0.39866178  0.74102125  0.05831938  1
  Se  Se126  1  0.40929982  0.74242944  0.55905641  1
  Se  Se127  1  0.75687662  0.08771412  0.05896965  1
  Se  Se128  1  0.75817177  0.09252079  0.54408251  1
  Se  Se129  1  0.74195864  0.40659930  0.05564576  1
  Se  Se130  1  0.75141485  0.41887975  0.54774140  1
  Se  Se131  1  0.74339749  0.74066288  0.04974461  1
  Se  Se132  1  0.75050490  0.74353077  0.57022541  1
  Se  Se133  1  0.25230241  0.25319198  0.04607429  1
  Se  Se134  1  0.24552704  0.25845009  0.57031859  1
  Se  Se135  1  0.24047194  0.58288803  0.05019532  1
  Se  Se136  1  0.24721869  0.56941386  0.55726403  1
  Se  Se137  1  0.24078777  0.91726872  0.05529633  1
  Se  Se138  1  0.24529894  0.91072273  0.55040091  1
  Se  Se139  1  0.59089150  0.25504102  0.05603005  1
  Se  Se140  1  0.58485045  0.26475022  0.55586440  1
  Se  Se141  1  0.58566924  0.58394057  0.05259705  1
  Se  Se142  1  0.58494365  0.58470873  0.56774030  1
  Se  Se143  1  0.59379615  0.92091059  0.06312870  1
  Se  Se144  1  0.59301601  0.93500947  0.54995196  1
  Se  Se145  1  0.92263840  0.25709558  0.05309924  1
  Se  Se146  1  0.91753100  0.25280365  0.54918906  1
  Se  Se147  1  0.93300082  0.58544100  0.06578724  1
  Se  Se148  1  0.91490717  0.58068906  0.54778693  1
  Se  Se149  1  0.92818844  0.92392964  0.07171918  1
  Se  Se150  1  0.93009432  0.92133986  0.55968074  1
  Se  Se151  1  0.07977408  0.25829777  0.43804851  1
  Se  Se152  1  0.08629548  0.25302869  0.94906673  1
  Se  Se153  1  0.08457062  0.57684617  0.44166948  1
  Se  Se154  1  0.08375464  0.58297080  0.94257214  1
  Se  Se155  1  0.09286907  0.91753225  0.44034464  1
  Se  Se156  1  0.07648621  0.91952856  0.95055176  1
  Se  Se157  1  0.40049390  0.25374985  0.44865330  1
  Se  Se158  1  0.40754677  0.26001718  0.94063655  1
  Se  Se159  1  0.40569537  0.59318249  0.44700575  1
  Se  Se160  1  0.39923323  0.59112117  0.93646957  1
  Se  Se161  1  0.40776376  0.91625897  0.43333595  1
  Se  Se162  1  0.40528555  0.91820101  0.94220901  1
  Se  Se163  1  0.75212293  0.25398457  0.44543184  1
  Se  Se164  1  0.76666004  0.24656282  0.94746380  1
  Se  Se165  1  0.75058464  0.58071931  0.45353603  1
  Se  Se166  1  0.74915906  0.57760056  0.93926904  1
  Se  Se167  1  0.75029259  0.92217055  0.43881505  1
  Se  Se168  1  0.74524910  0.92301843  0.94307322  1
  Se  Se169  1  0.24837231  0.07950201  0.43682752  1
  Se  Se170  1  0.24711286  0.08591209  0.94494383  1
  Se  Se171  1  0.24452945  0.41096152  0.44337031  1
  Se  Se172  1  0.24646409  0.42467907  0.93925956  1
  Se  Se173  1  0.25687082  0.74205674  0.44711821  1
  Se  Se174  1  0.23669477  0.75919729  0.94382529  1
  Se  Se175  1  0.58673103  0.08843602  0.43269248  1
  Se  Se176  1  0.59184060  0.07664206  0.94363827  1
  Se  Se177  1  0.57988329  0.40769750  0.44148247  1
  Se  Se178  1  0.59274207  0.40665521  0.94177313  1
  Se  Se179  1  0.59343274  0.73938288  0.45018771  1
  Se  Se180  1  0.57762210  0.74243155  0.93844203  1
  Se  Se181  1  0.92210307  0.08497692  0.44713908  1
  Se  Se182  1  0.91447218  0.08719045  0.95640002  1
  Se  Se183  1  0.91918563  0.42158371  0.44304654  1
  Se  Se184  1  0.93024867  0.41651035  0.93873243  1
  Se  Se185  1  0.92721110  0.74884266  0.44040442  1
  Se  Se186  1  0.91558969  0.73747722  0.94011404  1
  Se  Se187  1  0.25252311  0.24972454  0.30071257  1
  Se  Se188  1  0.25146528  0.24659243  0.80720334  1
  Se  Se189  1  0.24336579  0.57099114  0.30827325  1
  Se  Se190  1  0.26091708  0.60265827  0.80019065  1
  Se  Se191  1  0.26294969  0.93319358  0.29565515  1
  Se  Se192  1  0.24425076  0.91888858  0.80189268  1
  Se  Se193  1  0.58219335  0.25246783  0.30089257  1
  Se  Se194  1  0.58976200  0.24400122  0.80369301  1
  Se  Se195  1  0.57756848  0.57461908  0.31138107  1
  Se  Se196  1  0.58968796  0.58832803  0.80049605  1
  Se  Se197  1  0.58825663  0.91641369  0.30131062  1
  Se  Se198  1  0.57564128  0.91201755  0.81319977  1
  Se  Se199  1  0.91472793  0.25559945  0.30357932  1
  Se  Se200  1  0.91894586  0.24736281  0.80443144  1
  Se  Se201  1  0.91744588  0.58451617  0.30343752  1
  Se  Se202  1  0.92070885  0.57821801  0.79872298  1
  Se  Se203  1  0.92516325  0.92238035  0.30436546  1
  Se  Se204  1  0.90483846  0.90501369  0.81211999  1
  Se  Se205  1  0.07971859  0.09202731  0.30007535  1
  Se  Se206  1  0.08418466  0.08937082  0.81851691  1
  Se  Se207  1  0.07440989  0.41140424  0.29486266  1
  Se  Se208  1  0.08772518  0.40892822  0.79836115  1
  Se  Se209  1  0.09558105  0.74857040  0.30279288  1
  Se  Se210  1  0.07916590  0.74876897  0.80437368  1
  Se  Se211  1  0.41671118  0.08175422  0.30005392  1
  Se  Se212  1  0.41564493  0.07943036  0.80018993  1
  Se  Se213  1  0.41318345  0.41313773  0.30729257  1
  Se  Se214  1  0.42862306  0.42561939  0.80898865  1
  Se  Se215  1  0.42313473  0.76006335  0.31166922  1
  Se  Se216  1  0.41301437  0.75318217  0.79898236  1
  Se  Se217  1  0.75128998  0.08246651  0.30207413  1
  Se  Se218  1  0.75568836  0.08468211  0.80593383  1
  Se  Se219  1  0.74759117  0.41722558  0.30492003  1
  Se  Se220  1  0.75209364  0.41144440  0.80173060  1
  Se  Se221  1  0.76322175  0.75663542  0.31834763  1
  Se  Se222  1  0.74315426  0.74299151  0.80064098  1
  Se  Se223  1  0.25271491  0.08517503  0.19221709  1
  Se  Se224  1  0.24799048  0.08035716  0.70016901  1
  Se  Se225  1  0.24613309  0.41730220  0.19471158  1
  Se  Se226  1  0.26555129  0.39830817  0.70296883  1
  Se  Se227  1  0.24666288  0.74802796  0.18891291  1
  Se  Se228  1  0.24395741  0.74920440  0.69086647  1
  Se  Se229  1  0.59121333  0.08127553  0.19728468  1
  Se  Se230  1  0.57884791  0.09518577  0.68069078  1
  Se  Se231  1  0.58816944  0.41326444  0.19942759  1
  Se  Se232  1  0.58802854  0.41399201  0.69844939  1
  Se  Se233  1  0.58060260  0.74762145  0.19006448  1
  Se  Se234  1  0.58406382  0.75702531  0.69692536  1
  Se  Se235  1  0.91956400  0.09052872  0.19726351  1
  Se  Se236  1  0.90989976  0.08289520  0.69088266  1
  Se  Se237  1  0.90934562  0.41922898  0.19440275  1
  Se  Se238  1  0.91964703  0.41441138  0.68864978  1
  Se  Se239  1  0.91242309  0.75287421  0.20090829  1
  Se  Se240  1  0.92227142  0.74819391  0.69935888  1
  Se  Se241  1  0.08623222  0.25256141  0.19237267  1
  Se  Se242  1  0.07826725  0.24090830  0.70217279  1
  Se  Se243  1  0.07156045  0.60220294  0.19974409  1
  Se  Se244  1  0.07509566  0.58861685  0.68837603  1
  Se  Se245  1  0.08784349  0.92489458  0.20370240  1
  Se  Se246  1  0.08583424  0.91152294  0.68953052  1
  Se  Se247  1  0.42108548  0.24794459  0.19580756  1
  Se  Se248  1  0.41886913  0.24824487  0.70019875  1
  Se  Se249  1  0.42172058  0.57045577  0.19127869  1
  Se  Se250  1  0.41657522  0.58733357  0.70217299  1
  Se  Se251  1  0.42245765  0.91436175  0.19389230  1
  Se  Se252  1  0.41312157  0.91960722  0.69367574  1
  Se  Se253  1  0.74757579  0.25494344  0.19768637  1
  Se  Se254  1  0.75373437  0.25373817  0.69120139  1
  Se  Se255  1  0.75655788  0.58069302  0.18794972  1
  Se  Se256  1  0.75163944  0.58028131  0.69713435  1
  Se  Se257  1  0.74884876  0.91704447  0.20150256  1
  Se  Se258  1  0.75776656  0.91158947  0.69105536  1
