# generated using pymatgen
data_In86Cu29Se144
_symmetry_space_group_name_H-M   'P 1'
_cell_length_a   17.57672546
_cell_length_b   17.57830036
_cell_length_c   23.44546378
_cell_angle_alpha   90.00660741
_cell_angle_beta   90.01391596
_cell_angle_gamma   90.00507252
_symmetry_Int_Tables_number   1
_chemical_formula_structural   In86Cu29Se144
_chemical_formula_sum   'In86 Cu29 Se144'
_cell_volume   7243.92025687
_cell_formula_units_Z   1
loop_
 _symmetry_equiv_pos_site_id
 _symmetry_equiv_pos_as_xyz
  1  'x, y, z'
loop_
 _atom_site_type_symbol
 _atom_site_label
 _atom_site_symmetry_multiplicity
 _atom_site_fract_x
 _atom_site_fract_y
 _atom_site_fract_z
 _atom_site_occupancy
  In  In0  1  -0.03105789  0.18512388  0.15278730  1
  In  In1  1  -0.00544450  0.17081733  0.61210295  1
  In  In2  1  0.00339435  0.49809057  0.12186951  1
  In  In3  1  -0.00791016  0.49600950  0.62438237  1
  In  In4  1  -0.01246134  0.84441923  0.13143677  1
  In  In5  1  -0.00791913  0.83663105  0.62369197  1
  In  In6  1  0.32618153  0.16662048  0.13164353  1
  In  In7  1  0.34821427  0.15824296  0.62722403  1
  In  In8  1  0.34871317  0.51671436  0.11536659  1
  In  In9  1  0.35556650  0.48152293  0.64265686  1
  In  In10  1  0.33634254  0.82704029  0.12994540  1
  In  In11  1  0.34402669  0.82837241  0.62991162  1
  In  In12  1  0.68193005  0.16773149  0.13453333  1
  In  In13  1  0.66575182  0.16773038  0.62478465  1
  In  In14  1  0.65045153  0.49145213  0.11053376  1
  In  In15  1  0.65526472  0.50913369  0.63902890  1
  In  In16  1  0.65813075  0.81775946  0.10411332  1
  In  In17  1  0.65455481  0.84876086  0.63862779  1
  In  In18  1  0.16476633  -0.00029674  0.37225184  1
  In  In19  1  0.17434465  -0.00732612  0.87420064  1
  In  In20  1  0.16901018  0.34243070  0.37179464  1
  In  In21  1  0.17889246  0.33895137  0.87456943  1
  In  In22  1  0.17216859  0.66815246  0.36062154  1
  In  In23  1  0.16355449  0.65674920  0.87633646  1
  In  In24  1  0.48450564  0.00872598  0.39344706  1
  In  In25  1  0.49632358  -0.00961514  0.86916384  1
  In  In26  1  0.50627315  0.32235569  0.38065447  1
  In  In27  1  0.50948576  0.34195548  0.86815650  1
  In  In28  1  0.49180035  0.67815363  0.38260367  1
  In  In29  1  0.50476928  0.66793832  0.87717103  1
  In  In30  1  0.84563655  0.00635652  0.37209924  1
  In  In31  1  0.82647152  0.01065037  0.88282550  1
  In  In32  1  0.80994380  0.30688696  0.34776892  1
  In  In33  1  0.81917251  0.34311697  0.88759873  1
  In  In34  1  0.82965788  0.65476939  0.36484093  1
  In  In35  1  0.80033077  0.68607409  0.90812403  1
  In  In36  1  -0.01568433  0.15227711  0.36105773  1
  In  In37  1  -0.00959997  0.15727930  0.87690418  1
  In  In38  1  -0.00018900  0.49373053  0.35697491  1
  In  In39  1  -0.00587813  0.50315715  0.88812928  1
  In  In40  1  0.00494981  0.83682511  0.36093701  1
  In  In41  1  -0.00094340  0.82382815  0.88034700  1
  In  In42  1  0.35598162  0.15732702  0.37875058  1
  In  In43  1  0.34376520  0.17247139  0.86365535  1
  In  In44  1  0.33415738  0.50351989  0.37826879  1
  In  In45  1  0.33538405  0.50436844  0.87532453  1
  In  In46  1  0.34238883  0.83829066  0.37120746  1
  In  In47  1  0.35072961  0.84074260  0.86886737  1
  In  In48  1  0.65432275  0.17597842  0.37838647  1
  In  In49  1  0.67322156  0.17332816  0.86864506  1
  In  In50  1  0.66199631  0.48907560  0.37174903  1
  In  In51  1  0.66550581  0.49868183  0.88124157  1
  In  In52  1  0.65370071  0.82509143  0.37847928  1
  In  In53  1  0.66066364  0.83394652  0.87786712  1
  In  In54  1  0.16399089  0.00058792  0.13334308  1
  In  In55  1  0.17957913  0.01521943  0.61893515  1
  In  In56  1  0.15738623  0.33351087  0.12634379  1
  In  In57  1  0.16856780  0.34737234  0.62180584  1
  In  In58  1  0.17883922  0.65792767  0.12740142  1
  In  In59  1  0.17688110  0.68405498  0.62228062  1
  In  In60  1  0.50312740  -0.00967980  0.12740964  1
  In  In61  1  0.49897811  0.00164564  0.61994464  1
  In  In62  1  0.50105236  0.35464577  0.13529917  1
  In  In63  1  0.49965432  0.33377513  0.62360960  1
  In  In64  1  0.49414656  0.65993541  0.11685761  1
  In  In65  1  0.49964956  0.66315447  0.62966424  1
  In  In66  1  0.83226260  0.00649705  0.12138910  1
  In  In67  1  0.82125175  -0.00143744  0.62405086  1
  In  In68  1  0.82593325  0.33405877  0.12798198  1
  In  In69  1  0.82979545  0.32197726  0.62425423  1
  In  In70  1  0.83462963  0.67368460  0.11318322  1
  In  In71  1  0.82520302  0.65308135  0.62847022  1
  In  In72  1  0.17480131  0.50370777  0.49119686  1
  In  In73  1  0.82633254  0.49464152  0.49032724  1
  In  In74  1  0.15898125  0.16678800  0.00575539  1
  In  In75  1  -0.00081732  0.33355104  0.74749024  1
  In  In76  1  0.17238525  0.16957399  0.49813277  1
  In  In77  1  0.17316662  0.83778846  0.48953999  1
  In  In78  1  0.33684732  0.33112025  0.25356275  1
  In  In79  1  -0.00043101  0.65926467  0.75687628  1
  In  In80  1  0.66334936  0.65951071  0.24089068  1
  In  In81  1  0.66452108  -0.00176842  0.24736815  1
  In  In82  1  0.00508588  -0.00182798  0.74794777  1
  In  In83  1  0.82426098  0.83815307  0.49976191  1
  In  In84  1  0.16383869  0.83200116  -0.00105937  1
  In  In85  1  0.50620640  0.16997030  0.00248558  1
  Cu  Cu86  1  0.00247217  0.66638204  0.00504492  1
  Cu  Cu87  1  0.33632050  0.34529553  -0.00104840  1
  Cu  Cu88  1  -0.00731429  0.32932941  0.48887441  1
  Cu  Cu89  1  0.82783422  0.82749966  0.76076091  1
  Cu  Cu90  1  0.17892539  0.17001389  0.74595472  1
  Cu  Cu91  1  0.50823384  0.82913200  0.74946103  1
  Cu  Cu92  1  0.48914788  0.83380429  0.25080481  1
  Cu  Cu93  1  0.84292352  0.50305503  0.24073636  1
  Cu  Cu94  1  0.66755063  0.33232378  0.49765871  1
  Cu  Cu95  1  -0.00266772  0.67180927  0.48772671  1
  Cu  Cu96  1  0.16597338  0.82542799  0.24547560  1
  Cu  Cu97  1  0.66784260  0.00739190  0.50474798  1
  Cu  Cu98  1  0.82765796  0.83480954  0.24137414  1
  Cu  Cu99  1  -0.01154547  0.00583433  0.00894849  1
  Cu  Cu100  1  0.34067744  0.65821452  0.50586454  1
  Cu  Cu101  1  0.17213399  0.49931766  0.24328231  1
  Cu  Cu102  1  0.66549038  -0.00128198  0.00035238  1
  Cu  Cu103  1  0.17405385  0.50512064  0.75067843  1
  Cu  Cu104  1  0.49915713  0.49954562  0.75657327  1
  Cu  Cu105  1  0.33270003  0.00129327  -0.00402020  1
  Cu  Cu106  1  0.82552402  0.16784344  0.75070540  1
  Cu  Cu107  1  0.33666839  0.66866247  -0.00171746  1
  Cu  Cu108  1  0.65442723  0.66835242  0.50884750  1
  Cu  Cu109  1  0.50437001  0.16179344  0.74485860  1
  Cu  Cu110  1  0.81696402  0.50222698  0.76467371  1
  Cu  Cu111  1  -0.00127180  0.32640673  0.00888478  1
  Cu  Cu112  1  0.66611313  0.32829648  -0.00053121  1
  Cu  Cu113  1  0.18468446  0.83798044  0.74818358  1
  Cu  Cu114  1  0.16955601  0.15605897  0.25289970  1
  Se  Se115  1  0.07101342  0.08265707  0.06832136  1
  Se  Se116  1  0.07543578  0.07400762  0.55102306  1
  Se  Se117  1  0.08684205  0.41458181  0.05123628  1
  Se  Se118  1  0.07108675  0.41409551  0.54792384  1
  Se  Se119  1  0.07988524  0.74880753  0.06644560  1
  Se  Se120  1  0.07405131  0.74793805  0.55191502  1
  Se  Se121  1  0.40932761  0.08094526  0.05926428  1
  Se  Se122  1  0.41779889  0.08333464  0.54978372  1
  Se  Se123  1  0.42570743  0.41977231  0.05324921  1
  Se  Se124  1  0.41861355  0.42134049  0.55644041  1
  Se  Se125  1  0.41495368  0.75503219  0.05344313  1
  Se  Se126  1  0.42003640  0.74619564  0.55763770  1
  Se  Se127  1  0.74317901  0.08541257  0.05483829  1
  Se  Se128  1  0.75444000  0.09023004  0.55393848  1
  Se  Se129  1  0.74988984  0.41335406  0.05267788  1
  Se  Se130  1  0.74267718  0.41621492  0.56256967  1
  Se  Se131  1  0.74948007  0.74295544  0.03903404  1
  Se  Se132  1  0.74236605  0.74637442  0.56498391  1
  Se  Se133  1  0.25904380  0.25989330  0.05652796  1
  Se  Se134  1  0.25653817  0.25561013  0.56382239  1
  Se  Se135  1  0.25044018  0.58410705  0.04814325  1
  Se  Se136  1  0.25592122  0.58277474  0.56470006  1
  Se  Se137  1  0.25229735  0.92380843  0.05842098  1
  Se  Se138  1  0.26013175  0.91770741  0.55793444  1
  Se  Se139  1  0.58906529  0.25751940  0.06850544  1
  Se  Se140  1  0.58555242  0.25192135  0.55533843  1
  Se  Se141  1  0.59916661  0.60398006  0.05209891  1
  Se  Se142  1  0.57879397  0.57640622  0.55900722  1
  Se  Se143  1  0.57627054  0.91783950  0.04905934  1
  Se  Se144  1  0.58875853  0.91685584  0.55468182  1
  Se  Se145  1  0.91362388  0.24605544  0.06211292  1
  Se  Se146  1  0.90914060  0.25202986  0.54601290  1
  Se  Se147  1  0.91879056  0.57989322  0.05341936  1
  Se  Se148  1  0.92037500  0.58969183  0.55059248  1
  Se  Se149  1  0.90726047  0.91296444  0.05382160  1
  Se  Se150  1  0.92130188  0.92893229  0.55410780  1
  Se  Se151  1  0.08118185  0.25271387  0.43434159  1
  Se  Se152  1  0.07632275  0.25636778  0.93720797  1
  Se  Se153  1  0.07643731  0.58855925  0.43173974  1
  Se  Se154  1  0.08613665  0.58357565  0.95178680  1
  Se  Se155  1  0.06847699  0.92270829  0.44086716  1
  Se  Se156  1  0.07136086  0.93184861  0.94494035  1
  Se  Se157  1  0.41883146  0.24724958  0.45017351  1
  Se  Se158  1  0.41295596  0.25716221  0.94171313  1
  Se  Se159  1  0.42148329  0.57875947  0.44783813  1
  Se  Se160  1  0.41920298  0.58409599  0.94522714  1
  Se  Se161  1  0.41957409  0.90204124  0.45077451  1
  Se  Se162  1  0.41979332  0.91771535  0.94791503  1
  Se  Se163  1  0.75208944  0.25400260  0.44127963  1
  Se  Se164  1  0.74892000  0.24107429  0.94950836  1
  Se  Se165  1  0.73408148  0.59618598  0.44174221  1
  Se  Se166  1  0.77451504  0.55232675  0.94555791  1
  Se  Se167  1  0.73767149  0.92794530  0.43575708  1
  Se  Se168  1  0.74916581  0.91709248  0.94563131  1
  Se  Se169  1  0.25834939  0.07204685  0.44248202  1
  Se  Se170  1  0.25482666  0.08702267  0.94016046  1
  Se  Se171  1  0.26513711  0.40095196  0.44644330  1
  Se  Se172  1  0.24900015  0.42452602  0.94678354  1
  Se  Se173  1  0.25855464  0.73359916  0.44051808  1
  Se  Se174  1  0.25669736  0.74952127  0.93632617  1
  Se  Se175  1  0.58302865  0.08854353  0.45029433  1
  Se  Se176  1  0.58700257  0.07926637  0.93741023  1
  Se  Se177  1  0.58328249  0.41698217  0.44713937  1
  Se  Se178  1  0.58067031  0.41241377  0.94881110  1
  Se  Se179  1  0.57563219  0.75569715  0.45540560  1
  Se  Se180  1  0.58906738  0.74439497  0.94805996  1
  Se  Se181  1  0.91536747  0.09004185  0.44543783  1
  Se  Se182  1  0.90917133  0.09124504  0.95355393  1
  Se  Se183  1  0.91616932  0.41125960  0.42789608  1
  Se  Se184  1  0.91901542  0.40944873  0.95191770  1
  Se  Se185  1  0.91063387  0.74900485  0.43283924  1
  Se  Se186  1  0.91943923  0.75274442  0.95459438  1
  Se  Se187  1  0.24813871  0.23703801  0.31372779  1
  Se  Se188  1  0.25359898  0.25684299  0.80192834  1
  Se  Se189  1  0.25612275  0.57635374  0.30105718  1
  Se  Se190  1  0.25328192  0.58951929  0.80467236  1
  Se  Se191  1  0.24182746  0.90667408  0.30785125  1
  Se  Se192  1  0.26168089  0.92373118  0.80312247  1
  Se  Se193  1  0.59261101  0.26357644  0.30293086  1
  Se  Se194  1  0.58107624  0.24683918  0.80256822  1
  Se  Se195  1  0.57734111  0.58626602  0.31346493  1
  Se  Se196  1  0.58528643  0.57955771  0.80943939  1
  Se  Se197  1  0.57362238  0.91136299  0.30908185  1
  Se  Se198  1  0.58889629  0.91674210  0.80197132  1
  Se  Se199  1  0.93837523  0.26841088  0.30433534  1
  Se  Se200  1  0.90820765  0.24782849  0.81081076  1
  Se  Se201  1  0.92205592  0.58958490  0.29495278  1
  Se  Se202  1  0.90460400  0.58250517  0.81940776  1
  Se  Se203  1  0.90942470  0.91451238  0.29948329  1
  Se  Se204  1  0.91568170  0.91128123  0.81253959  1
  Se  Se205  1  0.07996045  0.07298608  0.30004389  1
  Se  Se206  1  0.09561605  0.09340063  0.80776178  1
  Se  Se207  1  0.09069642  0.41204357  0.29395064  1
  Se  Se208  1  0.08452784  0.42881613  0.80926471  1
  Se  Se209  1  0.07810140  0.74275121  0.29618073  1
  Se  Se210  1  0.09548226  0.76084649  0.80563263  1
  Se  Se211  1  0.42529444  0.07404697  0.30557694  1
  Se  Se212  1  0.42001602  0.07995065  0.80072241  1
  Se  Se213  1  0.42474357  0.41997843  0.31333842  1
  Se  Se214  1  0.41142127  0.41504371  0.80573803  1
  Se  Se215  1  0.41164445  0.74354221  0.30262523  1
  Se  Se216  1  0.42309840  0.74742982  0.80312693  1
  Se  Se217  1  0.74795100  0.08705325  0.31179820  1
  Se  Se218  1  0.74894823  0.07784256  0.80311823  1
  Se  Se219  1  0.75819824  0.42988691  0.30108962  1
  Se  Se220  1  0.73841242  0.40662157  0.80832031  1
  Se  Se221  1  0.74911383  0.75701085  0.30435286  1
  Se  Se222  1  0.74830776  0.74378640  0.81423057  1
  Se  Se223  1  0.25588606  0.07585440  0.20030993  1
  Se  Se224  1  0.25875009  0.07995608  0.69716905  1
  Se  Se225  1  0.25584188  0.41991216  0.18420810  1
  Se  Se226  1  0.24849633  0.41204483  0.70022157  1
  Se  Se227  1  0.25493724  0.74334455  0.19785319  1
  Se  Se228  1  0.26067658  0.74480621  0.69972144  1
  Se  Se229  1  0.57374539  0.09254625  0.19137782  1
  Se  Se230  1  0.58614645  0.07851960  0.69100504  1
  Se  Se231  1  0.59037635  0.43137386  0.19971647  1
  Se  Se232  1  0.57769711  0.41392137  0.70000003  1
  Se  Se233  1  0.57474319  0.75985046  0.18901074  1
  Se  Se234  1  0.58983847  0.74228894  0.69740037  1
  Se  Se235  1  0.91214439  0.06768200  0.20147101  1
  Se  Se236  1  0.91406258  0.09308032  0.69122521  1
  Se  Se237  1  0.92229337  0.41349019  0.19095706  1
  Se  Se238  1  0.89925602  0.42838217  0.69791206  1
  Se  Se239  1  0.91016128  0.74669083  0.19220021  1
  Se  Se240  1  0.90933136  0.75338939  0.69544556  1
  Se  Se241  1  0.09206485  0.24231259  0.19761720  1
  Se  Se242  1  0.08984800  0.24157442  0.68608063  1
  Se  Se243  1  0.08572143  0.58143197  0.19237597  1
  Se  Se244  1  0.08930963  0.57880729  0.68630335  1
  Se  Se245  1  0.08196033  0.91390023  0.19854808  1
  Se  Se246  1  0.09743765  0.90940171  0.68602442  1
  Se  Se247  1  0.42705982  0.24350324  0.19149461  1
  Se  Se248  1  0.41976791  0.24933883  0.69599671  1
  Se  Se249  1  0.42364895  0.58345135  0.19443891  1
  Se  Se250  1  0.41693347  0.58674467  0.70395339  1
  Se  Se251  1  0.41028732  0.92129733  0.19653514  1
  Se  Se252  1  0.42670908  0.91462862  0.69513503  1
  Se  Se253  1  0.75997985  0.24774355  0.20477594  1
  Se  Se254  1  0.74500621  0.25294595  0.69757486  1
  Se  Se255  1  0.75710777  0.57691373  0.18098552  1
  Se  Se256  1  0.74361706  0.58937759  0.70616509  1
  Se  Se257  1  0.74152814  0.90377109  0.17957991  1
  Se  Se258  1  0.75638895  0.91680230  0.70166647  1
