# generated using pymatgen
data_In86Cu29Se144
_symmetry_space_group_name_H-M   'P 1'
_cell_length_a   17.56905221
_cell_length_b   17.56731884
_cell_length_c   23.41912167
_cell_angle_alpha   90.01036917
_cell_angle_beta   89.99569222
_cell_angle_gamma   90.02277203
_symmetry_Int_Tables_number   1
_chemical_formula_structural   In86Cu29Se144
_chemical_formula_sum   'In86 Cu29 Se144'
_cell_volume   7228.10374434
_cell_formula_units_Z   1
loop_
 _symmetry_equiv_pos_site_id
 _symmetry_equiv_pos_as_xyz
  1  'x, y, z'
loop_
 _atom_site_type_symbol
 _atom_site_label
 _atom_site_symmetry_multiplicity
 _atom_site_fract_x
 _atom_site_fract_y
 _atom_site_fract_z
 _atom_site_occupancy
  In  In0  1  -0.01099535  0.15546068  0.11720215  1
  In  In1  1  0.00200777  0.17052755  0.62577527  1
  In  In2  1  -0.00715534  0.51034689  0.12535823  1
  In  In3  1  -0.00153152  0.50084853  0.62333836  1
  In  In4  1  0.00535331  0.84979981  0.12568730  1
  In  In5  1  0.00799452  0.82195558  0.63611418  1
  In  In6  1  0.33033371  0.16656875  0.13204320  1
  In  In7  1  0.32177098  0.17908129  0.61961094  1
  In  In8  1  0.33539096  0.50427971  0.13690911  1
  In  In9  1  0.33934919  0.50668657  0.60423906  1
  In  In10  1  0.35253994  0.82013785  0.14291032  1
  In  In11  1  0.31602485  0.83255513  0.61938601  1
  In  In12  1  0.68000852  0.15980605  0.13281306  1
  In  In13  1  0.67426104  0.15182670  0.61787228  1
  In  In14  1  0.68345074  0.49712113  0.14321667  1
  In  In15  1  0.66226314  0.49544491  0.61176613  1
  In  In16  1  0.67093842  0.83043573  0.12930318  1
  In  In17  1  0.66446755  0.83188039  0.62084272  1
  In  In18  1  0.16402173  0.00029544  0.37753338  1
  In  In19  1  0.16693803  0.01470594  0.87917807  1
  In  In20  1  0.17920451  0.32665808  0.39299673  1
  In  In21  1  0.15333837  0.33884036  0.87368945  1
  In  In22  1  0.19290302  0.65086541  0.39701348  1
  In  In23  1  0.16427001  0.66913759  0.86730643  1
  In  In24  1  0.49863578  -0.01534218  0.34900095  1
  In  In25  1  0.48711425  -0.00928944  0.88005421  1
  In  In26  1  0.50625659  0.34218399  0.37066852  1
  In  In27  1  0.50822506  0.33315547  0.87317727  1
  In  In28  1  0.48288988  0.65401567  0.35805364  1
  In  In29  1  0.49877819  0.67465164  0.87577511  1
  In  In30  1  0.84371925  -0.00301218  0.36094653  1
  In  In31  1  0.83779166  -0.00737849  0.88409364  1
  In  In32  1  0.82095919  0.33985977  0.37879599  1
  In  In33  1  0.84208512  0.32413020  0.88405933  1
  In  In34  1  0.82534498  0.66088966  0.36740751  1
  In  In35  1  0.83664796  0.66120837  0.88499127  1
  In  In36  1  0.00480244  0.15876603  0.38267803  1
  In  In37  1  0.00017558  0.16831203  0.87337278  1
  In  In38  1  0.00243877  0.50012040  0.38618146  1
  In  In39  1  -0.00496037  0.49301192  0.86521190  1
  In  In40  1  0.00303329  0.84427438  0.36946802  1
  In  In41  1  -0.00777022  0.82746353  0.86982502  1
  In  In42  1  0.32436478  0.16000792  0.37078860  1
  In  In43  1  0.33163603  0.15025727  0.88009523  1
  In  In44  1  0.33851182  0.50024110  0.38190423  1
  In  In45  1  0.31775198  0.50061795  0.87117096  1
  In  In46  1  0.32268576  0.82023356  0.36292375  1
  In  In47  1  0.34134729  0.82826492  0.88135400  1
  In  In48  1  0.67008378  0.17368256  0.36792378  1
  In  In49  1  0.67306742  0.17639839  0.87888783  1
  In  In50  1  0.67017151  0.49496782  0.37141651  1
  In  In51  1  0.66547778  0.51439826  0.87799954  1
  In  In52  1  0.65870775  0.81810590  0.33820305  1
  In  In53  1  0.66239221  0.83461243  0.88960526  1
  In  In54  1  0.15821355  0.00447414  0.13480838  1
  In  In55  1  0.15601355  -0.00931375  0.61884819  1
  In  In56  1  0.18096000  0.32988688  0.13165778  1
  In  In57  1  0.16185195  0.32521481  0.61166763  1
  In  In58  1  0.17571608  0.67392137  0.13061128  1
  In  In59  1  0.16670638  0.66488776  0.62114466  1
  In  In60  1  0.51895128  -0.02097632  0.14484537  1
  In  In61  1  0.50949711  -0.00601926  0.62006098  1
  In  In62  1  0.50042942  0.33283168  0.13649892  1
  In  In63  1  0.48349045  0.33654037  0.61862905  1
  In  In64  1  0.49648543  0.68336412  0.13667756  1
  In  In65  1  0.49327055  0.65150328  0.61718123  1
  In  In66  1  0.83120987  -0.00229328  0.12728778  1
  In  In67  1  0.84133193  0.01702885  0.61754046  1
  In  In68  1  0.83585800  0.33113090  0.12306546  1
  In  In69  1  0.84420685  0.34279673  0.61847135  1
  In  In70  1  0.82488263  0.65874810  0.12210044  1
  In  In71  1  0.84341293  0.66977998  0.62456432  1
  In  In72  1  -0.00006289  0.33473040  0.25161560  1
  In  In73  1  0.67106423  -0.00109375  0.74755575  1
  In  In74  1  0.49375656  0.82472631  0.47538104  1
  In  In75  1  0.50182355  0.16856118  0.49322032  1
  In  In76  1  0.00349207  0.67256193  0.25489139  1
  In  In77  1  0.32771451  -0.00415888  0.75511831  1
  In  In78  1  0.66940675  0.66843924  0.75283514  1
  In  In79  1  0.50248500  0.15803644  0.00410469  1
  In  In80  1  0.50309650  0.50925867  0.00593243  1
  In  In81  1  0.16969003  0.83655010  0.00252238  1
  In  In82  1  0.16223782  0.50047572  0.00940844  1
  In  In83  1  0.67176132  0.33273219  0.75355536  1
  In  In84  1  0.83393768  0.83652002  0.48736669  1
  In  In85  1  0.32130749  0.33366168  0.73701458  1
  Cu  Cu86  1  0.16281439  0.16903055  0.74909001  1
  Cu  Cu87  1  0.67558994  0.33468340  0.00887003  1
  Cu  Cu88  1  0.17430095  0.50158733  0.26253195  1
  Cu  Cu89  1  0.66779296  -0.00213649  0.01197081  1
  Cu  Cu90  1  -0.00648274  0.66685473  -0.00253590  1
  Cu  Cu91  1  0.50397868  0.50354897  0.25246947  1
  Cu  Cu92  1  0.66874549  -0.00241797  0.48364704  1
  Cu  Cu93  1  0.48517340  0.49713944  0.73969202  1
  Cu  Cu94  1  0.16185928  0.50875519  0.74221083  1
  Cu  Cu95  1  0.16944293  0.83341651  0.25464710  1
  Cu  Cu96  1  0.00031204  0.66844705  0.50656312  1
  Cu  Cu97  1  -0.00152679  0.00055553  0.49927479  1
  Cu  Cu98  1  -0.00209201  0.00739297  0.00220625  1
  Cu  Cu99  1  0.49156983  0.82745892  0.75247767  1
  Cu  Cu100  1  -0.00052912  0.33050988  -0.00353738  1
  Cu  Cu101  1  0.33513282  -0.00620818  0.00955649  1
  Cu  Cu102  1  0.83915328  0.83902290  0.75460813  1
  Cu  Cu103  1  0.83773016  0.16803431  0.24701025  1
  Cu  Cu104  1  -0.00867507  0.32762396  0.50127980  1
  Cu  Cu105  1  0.16053758  0.16602174  0.25867109  1
  Cu  Cu106  1  0.32727196  0.00797689  0.49652400  1
  Cu  Cu107  1  0.33321663  0.32506852  0.00752898  1
  Cu  Cu108  1  0.16081098  0.83126024  0.74559823  1
  Cu  Cu109  1  0.83710989  0.50174089  0.74894342  1
  Cu  Cu110  1  0.66468531  0.67054711  0.00870089  1
  Cu  Cu111  1  0.48983644  0.17817118  0.25377019  1
  Cu  Cu112  1  0.84245452  0.17189437  0.74956769  1
  Cu  Cu113  1  0.67043973  0.33181072  0.49278252  1
  Cu  Cu114  1  0.66786292  0.65877158  0.49035456  1
  Se  Se115  1  0.08903951  0.08277064  0.05500334  1
  Se  Se116  1  0.08058531  0.08457504  0.55454287  1
  Se  Se117  1  0.07383576  0.40474608  0.06617113  1
  Se  Se118  1  0.07453882  0.41489651  0.55215516  1
  Se  Se119  1  0.07702937  0.74126836  0.05944439  1
  Se  Se120  1  0.08303725  0.75619410  0.55563063  1
  Se  Se121  1  0.41874551  0.07214010  0.06938041  1
  Se  Se122  1  0.41309023  0.07775709  0.55904743  1
  Se  Se123  1  0.41220732  0.41185431  0.06143482  1
  Se  Se124  1  0.42056737  0.41585322  0.54180706  1
  Se  Se125  1  0.41369619  0.74784328  0.05926591  1
  Se  Se126  1  0.41676955  0.75381048  0.55635002  1
  Se  Se127  1  0.75445086  0.08593214  0.05529059  1
  Se  Se128  1  0.74999962  0.07654185  0.54192424  1
  Se  Se129  1  0.75264183  0.42390370  0.06084797  1
  Se  Se130  1  0.75260607  0.41493850  0.54958633  1
  Se  Se131  1  0.75370502  0.75442351  0.05552810  1
  Se  Se132  1  0.74339457  0.74256109  0.55234099  1
  Se  Se133  1  0.24760152  0.24278003  0.05706189  1
  Se  Se134  1  0.25912489  0.26021514  0.54380720  1
  Se  Se135  1  0.26099464  0.59024664  0.05966310  1
  Se  Se136  1  0.24504778  0.58803734  0.54686927  1
  Se  Se137  1  0.25407990  0.91672686  0.07173623  1
  Se  Se138  1  0.24661146  0.92033012  0.54826430  1
  Se  Se139  1  0.58784408  0.25493208  0.06239116  1
  Se  Se140  1  0.59196963  0.25489635  0.55945932  1
  Se  Se141  1  0.59172938  0.58818441  0.07289520  1
  Se  Se142  1  0.58110335  0.58201601  0.54583421  1
  Se  Se143  1  0.58230838  0.91155308  0.05916256  1
  Se  Se144  1  0.58899752  0.91471314  0.54346288  1
  Se  Se145  1  0.91496425  0.24911265  0.05176987  1
  Se  Se146  1  0.91013980  0.24107837  0.55471177  1
  Se  Se147  1  0.91205121  0.58131691  0.05053094  1
  Se  Se148  1  0.91225465  0.58258676  0.55307377  1
  Se  Se149  1  0.91744709  0.92058907  0.05477072  1
  Se  Se150  1  0.92141552  0.91372715  0.55935493  1
  Se  Se151  1  0.08065819  0.24697678  0.45117430  1
  Se  Se152  1  0.08569329  0.24913174  0.94447947  1
  Se  Se153  1  0.08405222  0.58426620  0.45380504  1
  Se  Se154  1  0.07766680  0.58610549  0.94032730  1
  Se  Se155  1  0.08124901  0.91560922  0.44692468  1
  Se  Se156  1  0.07670277  0.92288287  0.94152398  1
  Se  Se157  1  0.41167022  0.25504232  0.43426291  1
  Se  Se158  1  0.41462349  0.25405217  0.94201447  1
  Se  Se159  1  0.41750549  0.59641298  0.44423509  1
  Se  Se160  1  0.40807103  0.58346104  0.93906867  1
  Se  Se161  1  0.40925222  0.93355976  0.43319606  1
  Se  Se162  1  0.41686100  0.90995096  0.95530715  1
  Se  Se163  1  0.75177089  0.24150328  0.44590476  1
  Se  Se164  1  0.75327597  0.24831030  0.95318524  1
  Se  Se165  1  0.75640265  0.57660539  0.44204359  1
  Se  Se166  1  0.74546769  0.58551899  0.95264304  1
  Se  Se167  1  0.73932976  0.91146672  0.42279774  1
  Se  Se168  1  0.75009625  0.91663856  0.95312829  1
  Se  Se169  1  0.24110028  0.09082855  0.44680057  1
  Se  Se170  1  0.25317085  0.07901218  0.95636368  1
  Se  Se171  1  0.23628488  0.43859809  0.44856717  1
  Se  Se172  1  0.25362429  0.40733041  0.94731965  1
  Se  Se173  1  0.25587909  0.76355853  0.45023151  1
  Se  Se174  1  0.25246790  0.73780380  0.94483214  1
  Se  Se175  1  0.57911501  0.07326322  0.42821429  1
  Se  Se176  1  0.59331000  0.07037959  0.93965288  1
  Se  Se177  1  0.58585074  0.41825723  0.44504112  1
  Se  Se178  1  0.59306259  0.41069588  0.94681351  1
  Se  Se179  1  0.59876135  0.74184760  0.42627861  1
  Se  Se180  1  0.57760039  0.74631412  0.95206474  1
  Se  Se181  1  0.91049015  0.07416299  0.44248009  1
  Se  Se182  1  0.91626092  0.08879708  0.94478469  1
  Se  Se183  1  0.91284154  0.41390253  0.44697764  1
  Se  Se184  1  0.92038826  0.42107427  0.94504209  1
  Se  Se185  1  0.92557916  0.73997979  0.43532516  1
  Se  Se186  1  0.91350981  0.75730780  0.94785707  1
  Se  Se187  1  0.24262284  0.25413933  0.30816609  1
  Se  Se188  1  0.24760984  0.24253851  0.81156571  1
  Se  Se189  1  0.25897682  0.58851655  0.30987856  1
  Se  Se190  1  0.24765280  0.58552927  0.79899890  1
  Se  Se191  1  0.24995345  0.92360102  0.30559004  1
  Se  Se192  1  0.23787270  0.90509143  0.81522821  1
  Se  Se193  1  0.58391876  0.25549791  0.30155264  1
  Se  Se194  1  0.57556691  0.23606767  0.80384131  1
  Se  Se195  1  0.59131944  0.58536563  0.30330778  1
  Se  Se196  1  0.56827843  0.57377858  0.80264529  1
  Se  Se197  1  0.61367062  0.94125297  0.28719020  1
  Se  Se198  1  0.57663657  0.90820660  0.80836069  1
  Se  Se199  1  0.91347466  0.24456454  0.31356636  1
  Se  Se200  1  0.92091203  0.25798336  0.80465215  1
  Se  Se201  1  0.91906827  0.57014685  0.30698152  1
  Se  Se202  1  0.91227040  0.58882707  0.80627179  1
  Se  Se203  1  0.91187629  0.89981540  0.29509683  1
  Se  Se204  1  0.91936404  0.92620620  0.80581698  1
  Se  Se205  1  0.07669199  0.07889719  0.30657747  1
  Se  Se206  1  0.08378213  0.08369281  0.80425763  1
  Se  Se207  1  0.09103191  0.41824279  0.31556451  1
  Se  Se208  1  0.08575721  0.41883794  0.79652645  1
  Se  Se209  1  0.10030803  0.74707424  0.31912050  1
  Se  Se210  1  0.07719991  0.74834620  0.80095581  1
  Se  Se211  1  0.41144081  0.08524509  0.30024986  1
  Se  Se212  1  0.42718349  0.08842832  0.80603653  1
  Se  Se213  1  0.41641976  0.42251386  0.30546761  1
  Se  Se214  1  0.41601535  0.41630020  0.80681372  1
  Se  Se215  1  0.44566490  0.78130258  0.31007208  1
  Se  Se216  1  0.40877834  0.74459176  0.80428404  1
  Se  Se217  1  0.75387933  0.08725007  0.30226948  1
  Se  Se218  1  0.75841067  0.09165877  0.80830137  1
  Se  Se219  1  0.74593949  0.40822608  0.30074521  1
  Se  Se220  1  0.75661947  0.42667742  0.81410973  1
  Se  Se221  1  0.76775302  0.74549759  0.28924351  1
  Se  Se222  1  0.75346369  0.76208474  0.81402901  1
  Se  Se223  1  0.24495167  0.08664043  0.20127614  1
  Se  Se224  1  0.24426319  0.08744156  0.69010391  1
  Se  Se225  1  0.25159006  0.41850044  0.20228513  1
  Se  Se226  1  0.24006465  0.42952163  0.67852594  1
  Se  Se227  1  0.25417676  0.74535870  0.20637352  1
  Se  Se228  1  0.24727142  0.74967104  0.69410771  1
  Se  Se229  1  0.57174123  0.10114471  0.19323390  1
  Se  Se230  1  0.57592190  0.08964763  0.69147507  1
  Se  Se231  1  0.58589780  0.41639956  0.20118691  1
  Se  Se232  1  0.57660935  0.41794595  0.68961063  1
  Se  Se233  1  0.59025366  0.75322813  0.20288255  1
  Se  Se234  1  0.57403989  0.75258024  0.68953311  1
  Se  Se235  1  0.91855875  0.08007950  0.19581556  1
  Se  Se236  1  0.92052385  0.08370312  0.69572084  1
  Se  Se237  1  0.90977040  0.42734252  0.19517835  1
  Se  Se238  1  0.91846692  0.41679305  0.69613357  1
  Se  Se239  1  0.92130297  0.75020156  0.18236766  1
  Se  Se240  1  0.91365726  0.74728627  0.70190430  1
  Se  Se241  1  0.08393879  0.24071831  0.19005886  1
  Se  Se242  1  0.08704614  0.25569490  0.69271236  1
  Se  Se243  1  0.09540016  0.57487748  0.19531171  1
  Se  Se244  1  0.07570167  0.59118192  0.69110760  1
  Se  Se245  1  0.08238444  0.91632462  0.20521516  1
  Se  Se246  1  0.07936398  0.92258287  0.69909258  1
  Se  Se247  1  0.40439285  0.25920701  0.19994883  1
  Se  Se248  1  0.42258426  0.23872275  0.69241375  1
  Se  Se249  1  0.41880026  0.58901180  0.20185780  1
  Se  Se250  1  0.40457809  0.58234373  0.68862991  1
  Se  Se251  1  0.40347365  0.93223347  0.20231501  1
  Se  Se252  1  0.41985502  0.91129033  0.68901441  1
  Se  Se253  1  0.75466466  0.25518550  0.19707465  1
  Se  Se254  1  0.75573910  0.24312006  0.68800403  1
  Se  Se255  1  0.75139568  0.59819439  0.20621801  1
  Se  Se256  1  0.75004531  0.57425976  0.68866405  1
  Se  Se257  1  0.73172607  0.93559084  0.19567383  1
  Se  Se258  1  0.76163055  0.90983910  0.68560131  1
