# generated using pymatgen
data_In86Cu29Se144
_symmetry_space_group_name_H-M   'P 1'
_cell_length_a   17.58079046
_cell_length_b   17.58378845
_cell_length_c   23.44043214
_cell_angle_alpha   89.97862165
_cell_angle_beta   89.98520281
_cell_angle_gamma   90.01423491
_symmetry_Int_Tables_number   1
_chemical_formula_structural   In86Cu29Se144
_chemical_formula_sum   'In86 Cu29 Se144'
_cell_volume   7246.30156350
_cell_formula_units_Z   1
loop_
 _symmetry_equiv_pos_site_id
 _symmetry_equiv_pos_as_xyz
  1  'x, y, z'
loop_
 _atom_site_type_symbol
 _atom_site_label
 _atom_site_symmetry_multiplicity
 _atom_site_fract_x
 _atom_site_fract_y
 _atom_site_fract_z
 _atom_site_occupancy
  In  In0  1  -0.00666206  0.16278902  0.11204909  1
  In  In1  1  0.00960588  0.17092851  0.62839529  1
  In  In2  1  -0.00768890  0.48779893  0.10923649  1
  In  In3  1  -0.00923164  0.49533588  0.62435531  1
  In  In4  1  0.00252113  0.85080058  0.12989882  1
  In  In5  1  -0.01038447  0.83978823  0.62010475  1
  In  In6  1  0.33383295  0.16490761  0.11938420  1
  In  In7  1  0.34374305  0.16294850  0.63319440  1
  In  In8  1  0.33784329  0.49820895  0.12244751  1
  In  In9  1  0.32566440  0.49147142  0.61927084  1
  In  In10  1  0.32560524  0.82462899  0.14052790  1
  In  In11  1  0.34673394  0.85948125  0.62126194  1
  In  In12  1  0.66527391  0.16568053  0.12854767  1
  In  In13  1  0.67051993  0.18211597  0.62399661  1
  In  In14  1  0.65968858  0.49203810  0.13076945  1
  In  In15  1  0.66394117  0.49358818  0.61684574  1
  In  In16  1  0.66866877  0.82958053  0.13212394  1
  In  In17  1  0.66448624  0.82593287  0.61811534  1
  In  In18  1  0.17052375  0.00118100  0.35914706  1
  In  In19  1  0.18211127  0.00896780  0.87291622  1
  In  In20  1  0.17797388  0.33868548  0.37572565  1
  In  In21  1  0.17376757  0.33006159  0.87794924  1
  In  In22  1  0.16299925  0.65618404  0.37448701  1
  In  In23  1  0.15828212  0.66749918  0.87759934  1
  In  In24  1  0.50151902  0.00440886  0.36843762  1
  In  In25  1  0.50361465  0.01322514  0.87589069  1
  In  In26  1  0.51094643  0.32614989  0.37527897  1
  In  In27  1  0.50091136  0.33316968  0.87313370  1
  In  In28  1  0.49262062  0.65275271  0.36385414  1
  In  In29  1  0.49013411  0.65906804  0.87687502  1
  In  In30  1  0.81527011  -0.01185073  0.36500422  1
  In  In31  1  0.83970989  0.00354723  0.88627493  1
  In  In32  1  0.82381853  0.34538477  0.37894353  1
  In  In33  1  0.83077427  0.33802629  0.87637232  1
  In  In34  1  0.82393561  0.66851352  0.37601757  1
  In  In35  1  0.83357577  0.66219583  0.88612921  1
  In  In36  1  0.00777726  0.16361863  0.36842376  1
  In  In37  1  -0.01498945  0.19383937  0.89760841  1
  In  In38  1  -0.00288853  0.49943601  0.38280490  1
  In  In39  1  0.02331897  0.46743107  0.90617991  1
  In  In40  1  -0.01624802  0.83019980  0.37084300  1
  In  In41  1  -0.00364212  0.82737825  0.87871673  1
  In  In42  1  0.35109097  0.15948348  0.37431849  1
  In  In43  1  0.33515707  0.16896590  0.87703694  1
  In  In44  1  0.32852192  0.50184464  0.38136087  1
  In  In45  1  0.35215652  0.49022833  0.88468615  1
  In  In46  1  0.34084268  0.84191542  0.36269115  1
  In  In47  1  0.32555537  0.83672912  0.87133009  1
  In  In48  1  0.63558018  0.14749412  0.34443709  1
  In  In49  1  0.65574787  0.17742916  0.88403581  1
  In  In50  1  0.66107222  0.49885232  0.37094670  1
  In  In51  1  0.67604120  0.49006364  0.88280963  1
  In  In52  1  0.67786411  0.83948152  0.36843100  1
  In  In53  1  0.67115469  0.84606185  0.88176605  1
  In  In54  1  0.16168778  0.00086401  0.13220460  1
  In  In55  1  0.17902871  0.01808058  0.62092165  1
  In  In56  1  0.16190221  0.33278207  0.10454959  1
  In  In57  1  0.16447607  0.33984090  0.63563174  1
  In  In58  1  0.17811114  0.66070415  0.12831290  1
  In  In59  1  0.17820527  0.65718309  0.62530403  1
  In  In60  1  0.49334088  0.01247544  0.13896950  1
  In  In61  1  0.48049993  0.00483476  0.61756274  1
  In  In62  1  0.50978325  0.33663872  0.12620127  1
  In  In63  1  0.50052538  0.33434196  0.62411775  1
  In  In64  1  0.50531969  0.64639723  0.14616809  1
  In  In65  1  0.51148794  0.66698075  0.61874822  1
  In  In66  1  0.83278413  0.00249566  0.12593293  1
  In  In67  1  0.83683529  -0.00231373  0.61622595  1
  In  In68  1  0.82403428  0.31966043  0.10835191  1
  In  In69  1  0.82424700  0.34077364  0.63537435  1
  In  In70  1  0.81740106  0.65540803  0.11883017  1
  In  In71  1  0.82791333  0.66430903  0.61578747  1
  In  In72  1  0.33480142  0.66421809  0.75016418  1
  In  In73  1  0.50789533  0.83648030  0.48998568  1
  In  In74  1  -0.00480694  0.32788577  0.23682264  1
  In  In75  1  0.33875103  0.33148095  0.24794720  1
  In  In76  1  0.00133280  0.66774198  0.24698199  1
  In  In77  1  0.50219730  0.82820267  0.01302536  1
  In  In78  1  0.16904554  0.17242371  0.49595288  1
  In  In79  1  0.66156407  0.00736834  0.75207714  1
  In  In80  1  0.00767455  0.01050599  0.75327515  1
  In  In81  1  0.66493177  0.66521034  0.74229616  1
  In  In82  1  0.16015796  0.82425286  0.49964755  1
  In  In83  1  0.82619435  0.16814193  0.49657029  1
  In  In84  1  0.16436604  0.83416814  0.00152462  1
  In  In85  1  -0.00182103  0.66209540  0.75982436  1
  Cu  Cu86  1  0.50405318  0.49384563  0.74782071  1
  Cu  Cu87  1  0.66360265  0.33363084  0.00125309  1
  Cu  Cu88  1  -0.00807985  -0.00729843  0.49177553  1
  Cu  Cu89  1  0.34310466  -0.00052178  0.00365281  1
  Cu  Cu90  1  0.82205202  0.50004796  0.24840290  1
  Cu  Cu91  1  0.00177402  0.00517328  0.00607750  1
  Cu  Cu92  1  -0.00750003  0.67002370  0.00275963  1
  Cu  Cu93  1  0.67491517  0.00486982  0.00512604  1
  Cu  Cu94  1  0.34062672  0.33000190  -0.00159039  1
  Cu  Cu95  1  0.65925646  0.66603903  0.01116468  1
  Cu  Cu96  1  0.83444680  0.17311362  0.75690190  1
  Cu  Cu97  1  0.49704054  0.17272564  0.75255735  1
  Cu  Cu98  1  0.83659861  0.17077255  0.23986997  1
  Cu  Cu99  1  0.33614729  0.33619694  0.50045256  1
  Cu  Cu100  1  0.67113255  0.66098732  0.49404933  1
  Cu  Cu101  1  0.17558540  0.84678194  0.74333134  1
  Cu  Cu102  1  0.33844177  0.66687936  0.49587798  1
  Cu  Cu103  1  0.66324765  0.33223075  0.49804587  1
  Cu  Cu104  1  -0.00400057  0.65688028  0.49500557  1
  Cu  Cu105  1  0.17098638  0.15806786  0.24392705  1
  Cu  Cu106  1  0.16496073  0.49513019  0.24974638  1
  Cu  Cu107  1  0.83865771  0.49088287  0.75590469  1
  Cu  Cu108  1  -0.00222842  0.34158469  0.50806970  1
  Cu  Cu109  1  0.83586407  0.83680084  0.24725804  1
  Cu  Cu110  1  0.50274950  0.82895349  0.25190316  1
  Cu  Cu111  1  0.16882508  0.49445819  0.75827804  1
  Cu  Cu112  1  0.82848249  0.83240494  0.75034296  1
  Cu  Cu113  1  0.16855297  0.17689777  0.75609215  1
  Cu  Cu114  1  0.33687749  0.65571815  0.00717422  1
  Se  Se115  1  0.09365972  0.08218296  0.05519926  1
  Se  Se116  1  0.07153259  0.07563388  0.55146423  1
  Se  Se117  1  0.08456686  0.42211500  0.03917885  1
  Se  Se118  1  0.08655113  0.41870339  0.56124426  1
  Se  Se119  1  0.07665199  0.74471220  0.06422367  1
  Se  Se120  1  0.07073234  0.73363468  0.56342431  1
  Se  Se121  1  0.42657229  0.08329099  0.05523754  1
  Se  Se122  1  0.40605647  0.09141111  0.54984204  1
  Se  Se123  1  0.41945830  0.41216610  0.05682460  1
  Se  Se124  1  0.42054980  0.41970591  0.55361679  1
  Se  Se125  1  0.41077807  0.73793822  0.06997489  1
  Se  Se126  1  0.41234992  0.75062631  0.55663534  1
  Se  Se127  1  0.75584930  0.09161150  0.05721695  1
  Se  Se128  1  0.73761521  0.07695960  0.55762542  1
  Se  Se129  1  0.74342631  0.42111257  0.05481318  1
  Se  Se130  1  0.75239965  0.40952313  0.55303965  1
  Se  Se131  1  0.74580435  0.75476716  0.05499740  1
  Se  Se132  1  0.74901916  0.75018310  0.54789234  1
  Se  Se133  1  0.25438778  0.24616512  0.04801848  1
  Se  Se134  1  0.25350340  0.25792058  0.56238148  1
  Se  Se135  1  0.24566295  0.57483567  0.05428989  1
  Se  Se136  1  0.25354614  0.58386786  0.54943664  1
  Se  Se137  1  0.26042372  0.91690137  0.06103399  1
  Se  Se138  1  0.25072821  0.92510513  0.54912976  1
  Se  Se139  1  0.58446225  0.24807618  0.05659713  1
  Se  Se140  1  0.58045498  0.24961386  0.55291990  1
  Se  Se141  1  0.57712145  0.58127280  0.06277993  1
  Se  Se142  1  0.58527685  0.58179495  0.54900861  1
  Se  Se143  1  0.58971926  0.92708812  0.06452914  1
  Se  Se144  1  0.58690046  0.92676326  0.55821992  1
  Se  Se145  1  0.93879881  0.27131158  0.05096581  1
  Se  Se146  1  0.91917489  0.25292362  0.56204963  1
  Se  Se147  1  0.90903788  0.58257160  0.05116461  1
  Se  Se148  1  0.91236742  0.57755521  0.55315696  1
  Se  Se149  1  0.91798427  0.91910455  0.05568128  1
  Se  Se150  1  0.90860145  0.90983001  0.54472394  1
  Se  Se151  1  0.07198851  0.26404136  0.44108521  1
  Se  Se152  1  0.10372756  0.24023130  0.94948318  1
  Se  Se153  1  0.08792550  0.57660642  0.44911845  1
  Se  Se154  1  0.08199950  0.59108192  0.95114889  1
  Se  Se155  1  0.08018590  0.91891408  0.43482954  1
  Se  Se156  1  0.07846841  0.92811172  0.93874302  1
  Se  Se157  1  0.41579123  0.25420625  0.44341684  1
  Se  Se158  1  0.42445792  0.24718266  0.94441286  1
  Se  Se159  1  0.42166458  0.58143917  0.44565452  1
  Se  Se160  1  0.42647199  0.57850044  0.95507598  1
  Se  Se161  1  0.40829448  0.92550227  0.44105996  1
  Se  Se162  1  0.41658377  0.91379847  0.94299094  1
  Se  Se163  1  0.73501185  0.24947519  0.43397727  1
  Se  Se164  1  0.75062627  0.25238062  0.94752650  1
  Se  Se165  1  0.75223908  0.57367371  0.44193415  1
  Se  Se166  1  0.74093222  0.58731700  0.95097099  1
  Se  Se167  1  0.74652709  0.91845591  0.44595439  1
  Se  Se168  1  0.75600586  0.91818249  0.95271655  1
  Se  Se169  1  0.25181718  0.07723545  0.43723825  1
  Se  Se170  1  0.25858584  0.08132211  0.94941937  1
  Se  Se171  1  0.24643715  0.41833631  0.45184892  1
  Se  Se172  1  0.25626839  0.41609004  0.94709688  1
  Se  Se173  1  0.25805912  0.74718529  0.43637524  1
  Se  Se174  1  0.26081420  0.73990481  0.94586615  1
  Se  Se175  1  0.58332057  0.08834933  0.43615807  1
  Se  Se176  1  0.58589997  0.08160523  0.95114481  1
  Se  Se177  1  0.58157374  0.41825947  0.44505017  1
  Se  Se178  1  0.57988162  0.41599831  0.94581483  1
  Se  Se179  1  0.59050114  0.73949839  0.43213688  1
  Se  Se180  1  0.58728386  0.74395998  0.94157302  1
  Se  Se181  1  0.91729988  0.07998605  0.43417332  1
  Se  Se182  1  0.91463911  0.08941740  0.95614911  1
  Se  Se183  1  0.91284599  0.41683173  0.44965094  1
  Se  Se184  1  0.89223262  0.43593397  0.94600278  1
  Se  Se185  1  0.91519744  0.74451853  0.44434853  1
  Se  Se186  1  0.91169732  0.75624969  0.95020627  1
  Se  Se187  1  0.24421516  0.23990776  0.30782687  1
  Se  Se188  1  0.25937214  0.25559116  0.80558945  1
  Se  Se189  1  0.24621118  0.57548327  0.30554831  1
  Se  Se190  1  0.24785269  0.57831911  0.81625755  1
  Se  Se191  1  0.25116273  0.91494190  0.29566436  1
  Se  Se192  1  0.25704063  0.92606786  0.79971177  1
  Se  Se193  1  0.58481835  0.26493418  0.29161311  1
  Se  Se194  1  0.58665866  0.25171273  0.80364037  1
  Se  Se195  1  0.59255473  0.58892123  0.29936697  1
  Se  Se196  1  0.58050970  0.57718388  0.80837012  1
  Se  Se197  1  0.58421116  0.91504793  0.30390228  1
  Se  Se198  1  0.57625711  0.91002124  0.80993012  1
  Se  Se199  1  0.90967265  0.24861108  0.30905793  1
  Se  Se200  1  0.91920135  0.25424053  0.80975960  1
  Se  Se201  1  0.91170113  0.57427743  0.30608750  1
  Se  Se202  1  0.91325548  0.57102090  0.81897895  1
  Se  Se203  1  0.91744479  0.92178909  0.29993853  1
  Se  Se204  1  0.91206263  0.91375575  0.80679185  1
  Se  Se205  1  0.07922728  0.08142564  0.29508901  1
  Se  Se206  1  0.08574131  0.10110373  0.81844378  1
  Se  Se207  1  0.08095449  0.41522069  0.30698025  1
  Se  Se208  1  0.08344530  0.41544036  0.81333944  1
  Se  Se209  1  0.08780545  0.75526332  0.31030224  1
  Se  Se210  1  0.09519826  0.76668145  0.80347445  1
  Se  Se211  1  0.41484765  0.07899022  0.29770142  1
  Se  Se212  1  0.41708705  0.08535903  0.80524306  1
  Se  Se213  1  0.41863965  0.42027661  0.31379677  1
  Se  Se214  1  0.41713921  0.41640565  0.80269675  1
  Se  Se215  1  0.41398548  0.74519929  0.30006776  1
  Se  Se216  1  0.42449996  0.75788942  0.80750126  1
  Se  Se217  1  0.75560774  0.08841475  0.29685508  1
  Se  Se218  1  0.75619614  0.08920106  0.81525180  1
  Se  Se219  1  0.74418935  0.41257224  0.30163307  1
  Se  Se220  1  0.74402855  0.41317759  0.80313767  1
  Se  Se221  1  0.75467516  0.74993337  0.29995794  1
  Se  Se222  1  0.75162759  0.75215457  0.81084856  1
  Se  Se223  1  0.25939272  0.07996068  0.19195189  1
  Se  Se224  1  0.24790562  0.09034516  0.70057269  1
  Se  Se225  1  0.23751464  0.41055262  0.18744974  1
  Se  Se226  1  0.25535538  0.41982248  0.70084965  1
  Se  Se227  1  0.23783436  0.74419996  0.20504955  1
  Se  Se228  1  0.25204330  0.76120073  0.68595438  1
  Se  Se229  1  0.59937200  0.07278005  0.19970214  1
  Se  Se230  1  0.57571205  0.09459456  0.68833923  1
  Se  Se231  1  0.57139053  0.42217781  0.20311377  1
  Se  Se232  1  0.58925839  0.41532137  0.69243340  1
  Se  Se233  1  0.58741148  0.74569765  0.20076352  1
  Se  Se234  1  0.57072931  0.76366225  0.69375666  1
  Se  Se235  1  0.92294694  0.08657261  0.19104546  1
  Se  Se236  1  0.90651452  0.09024942  0.69232069  1
  Se  Se237  1  0.90157237  0.42211206  0.18601740  1
  Se  Se238  1  0.92311882  0.41129370  0.70015004  1
  Se  Se239  1  0.90884163  0.75179810  0.18477419  1
  Se  Se240  1  0.91031587  0.75089687  0.69283240  1
  Se  Se241  1  0.09520821  0.24246121  0.18366069  1
  Se  Se242  1  0.08030321  0.25347305  0.70168104  1
  Se  Se243  1  0.07984285  0.56657913  0.18684828  1
  Se  Se244  1  0.09133028  0.57760025  0.69727281  1
  Se  Se245  1  0.09442455  0.90843162  0.20193519  1
  Se  Se246  1  0.08914663  0.91922641  0.68395796  1
  Se  Se247  1  0.42646963  0.23949498  0.19065918  1
  Se  Se248  1  0.41634045  0.25818857  0.69750846  1
  Se  Se249  1  0.39328002  0.58575253  0.20047945  1
  Se  Se250  1  0.42638891  0.57821242  0.68765010  1
  Se  Se251  1  0.41874812  0.91076514  0.19750395  1
  Se  Se252  1  0.42294607  0.92472331  0.69952203  1
  Se  Se253  1  0.75148435  0.25633097  0.19188330  1
  Se  Se254  1  0.74728407  0.25119269  0.70274847  1
  Se  Se255  1  0.74060896  0.58576857  0.19678781  1
  Se  Se256  1  0.76211453  0.57190596  0.69204737  1
  Se  Se257  1  0.75034824  0.92031249  0.19589750  1
  Se  Se258  1  0.75228415  0.91381801  0.69012387  1
