# generated using pymatgen
data_In86Cu29Se144
_symmetry_space_group_name_H-M   'P 1'
_cell_length_a   17.67071373
_cell_length_b   17.68355610
_cell_length_c   23.55269713
_cell_angle_alpha   89.97459262
_cell_angle_beta   90.01452175
_cell_angle_gamma   89.96661944
_symmetry_Int_Tables_number   1
_chemical_formula_structural   In86Cu29Se144
_chemical_formula_sum   'In86 Cu29 Se144'
_cell_volume   7359.76949879
_cell_formula_units_Z   1
loop_
 _symmetry_equiv_pos_site_id
 _symmetry_equiv_pos_as_xyz
  1  'x, y, z'
loop_
 _atom_site_type_symbol
 _atom_site_label
 _atom_site_symmetry_multiplicity
 _atom_site_fract_x
 _atom_site_fract_y
 _atom_site_fract_z
 _atom_site_occupancy
  In  In0  1  -0.00979221  0.16256055  0.13375334  1
  In  In1  1  -0.00438598  0.17437018  0.62996803  1
  In  In2  1  0.00127059  0.51006941  0.12284273  1
  In  In3  1  -0.01816890  0.49980911  0.62195044  1
  In  In4  1  0.00547337  0.82845420  0.12395081  1
  In  In5  1  0.01652567  0.83800370  0.63109045  1
  In  In6  1  0.34048998  0.16169512  0.14903051  1
  In  In7  1  0.35308674  0.15527135  0.63575489  1
  In  In8  1  0.34746473  0.48946333  0.13342510  1
  In  In9  1  0.34835795  0.48526131  0.62974969  1
  In  In10  1  0.33135609  0.83059173  0.12394765  1
  In  In11  1  0.34168706  0.83980763  0.63228434  1
  In  In12  1  0.66783614  0.17027721  0.13321760  1
  In  In13  1  0.68131477  0.17140078  0.61325628  1
  In  In14  1  0.66648781  0.49972429  0.12149058  1
  In  In15  1  0.66155059  0.49967779  0.62530270  1
  In  In16  1  0.64922633  0.83082075  0.12316027  1
  In  In17  1  0.64840174  0.82727469  0.63472615  1
  In  In18  1  0.17208758  0.01669590  0.35928626  1
  In  In19  1  0.17638874  -0.00462852  0.87514128  1
  In  In20  1  0.18368670  0.32517961  0.37447416  1
  In  In21  1  0.16645162  0.33157242  0.86610382  1
  In  In22  1  0.17163238  0.67483207  0.36392761  1
  In  In23  1  0.18459379  0.67081751  0.87665261  1
  In  In24  1  0.49540921  0.01419821  0.38090980  1
  In  In25  1  0.41498941  -0.01952584  0.83580482  1
  In  In26  1  0.50772743  0.33558805  0.37173995  1
  In  In27  1  0.50783699  0.33891863  0.86618649  1
  In  In28  1  0.49534636  0.66148607  0.36864293  1
  In  In29  1  0.49386972  0.66153872  0.87872130  1
  In  In30  1  0.84336469  0.00221961  0.37935716  1
  In  In31  1  0.83673675  -0.00348328  0.86893349  1
  In  In32  1  0.82152229  0.34755506  0.38427381  1
  In  In33  1  0.83301992  0.33501302  0.86804876  1
  In  In34  1  0.82855385  0.65700041  0.36659722  1
  In  In35  1  0.81307517  0.66356904  0.87400938  1
  In  In36  1  0.00555906  0.15735517  0.37798260  1
  In  In37  1  0.00222697  0.16418385  0.86662260  1
  In  In38  1  -0.01226231  0.49802036  0.37448424  1
  In  In39  1  -0.00507848  0.48699808  0.87239515  1
  In  In40  1  0.00872732  0.84238340  0.36705982  1
  In  In41  1  0.00405833  0.84651767  0.87372729  1
  In  In42  1  0.34716648  0.17452553  0.36215723  1
  In  In43  1  0.34079990  0.16595938  0.86637278  1
  In  In44  1  0.34443298  0.50962632  0.36816192  1
  In  In45  1  0.34172708  0.51165478  0.87100419  1
  In  In46  1  0.33644498  0.83569653  0.36802835  1
  In  In47  1  0.33488780  0.82417272  0.89320770  1
  In  In48  1  0.64539652  0.18846155  0.39466251  1
  In  In49  1  0.64393372  0.16607644  0.86855625  1
  In  In50  1  0.66706943  0.50132997  0.37464435  1
  In  In51  1  0.66036895  0.49794234  0.87621558  1
  In  In52  1  0.67545612  0.82649598  0.36914002  1
  In  In53  1  0.65276645  0.81843889  0.86417784  1
  In  In54  1  0.17991344  -0.00813522  0.13413295  1
  In  In55  1  0.17660508  -0.00511753  0.63617234  1
  In  In56  1  0.17398586  0.34345400  0.12748319  1
  In  In57  1  0.17798396  0.31963719  0.63368859  1
  In  In58  1  0.15570220  0.67066115  0.12675842  1
  In  In59  1  0.18353951  0.67379163  0.63003969  1
  In  In60  1  0.49442839  -0.01492334  0.12283838  1
  In  In61  1  0.49796046  0.00601404  0.61623771  1
  In  In62  1  0.49313282  0.33821499  0.13041316  1
  In  In63  1  0.50184067  0.33318437  0.62236795  1
  In  In64  1  0.50018192  0.66508231  0.12694981  1
  In  In65  1  0.51025386  0.65917102  0.63455539  1
  In  In66  1  0.83306285  0.00692915  0.13090658  1
  In  In67  1  0.83310167  0.01617046  0.62417436  1
  In  In68  1  0.81527503  0.33290477  0.12792853  1
  In  In69  1  0.82971838  0.33631979  0.62455256  1
  In  In70  1  0.84055575  0.65839897  0.12621971  1
  In  In71  1  0.82807525  0.65165293  0.62291068  1
  In  In72  1  0.16649291  0.16950375  0.01347047  1
  In  In73  1  0.66519349  -0.00036435  0.25685386  1
  In  In74  1  0.50067424  0.83340352  0.50488572  1
  In  In75  1  0.82702418  0.16944072  0.00358129  1
  In  In76  1  0.00413351  0.66770113  0.75197572  1
  In  In77  1  0.83011381  0.82861634  -0.00394503  1
  In  In78  1  0.16089186  0.49713608  0.50387381  1
  In  In79  1  0.16771859  0.50613873  -0.00211767  1
  In  In80  1  0.17149352  0.83895036  0.50584056  1
  In  In81  1  0.17221962  0.16432765  0.49688351  1
  In  In82  1  0.49959732  0.16334699  -0.00487289  1
  In  In83  1  0.00332005  0.33333820  0.25723358  1
  In  In84  1  0.66424893  -0.00211584  0.74786941  1
  In  In85  1  0.83519779  0.83244508  0.49770677  1
  Cu  Cu86  1  0.83641562  0.82849538  0.24949075  1
  Cu  Cu87  1  0.16048101  0.83210807  0.24461452  1
  Cu  Cu88  1  0.16142862  0.49988557  0.75063109  1
  Cu  Cu89  1  0.17340936  0.50272109  0.24751781  1
  Cu  Cu90  1  0.65854516  0.66263825  -0.00229547  1
  Cu  Cu91  1  0.50810423  0.49944156  0.24965434  1
  Cu  Cu92  1  0.34609485  0.33502192  0.49766471  1
  Cu  Cu93  1  0.65988400  -0.00770917  -0.00294556  1
  Cu  Cu94  1  0.49380141  0.82958132  0.24670082  1
  Cu  Cu95  1  0.49839450  0.50139292  0.75075409  1
  Cu  Cu96  1  0.66784660  0.66201585  0.49991221  1
  Cu  Cu97  1  0.66445834  0.33732157  -0.00220356  1
  Cu  Cu98  1  0.33151105  -0.00303280  0.00134078  1
  Cu  Cu99  1  0.00407766  -0.00325688  -0.00316386  1
  Cu  Cu100  1  -0.00159360  0.66564353  0.49633131  1
  Cu  Cu101  1  0.00444598  0.00461625  0.50163509  1
  Cu  Cu102  1  0.66751357  0.34281869  0.50294075  1
  Cu  Cu103  1  0.33957670  0.66014235  0.49712803  1
  Cu  Cu104  1  0.17114598  0.16008260  0.75011095  1
  Cu  Cu105  1  0.82275809  0.49662575  0.74732615  1
  Cu  Cu106  1  -0.00395497  0.66532824  0.00115574  1
  Cu  Cu107  1  0.83296179  0.49971294  0.24954224  1
  Cu  Cu108  1  0.33675488  0.66432930  0.00554545  1
  Cu  Cu109  1  -0.00642824  0.33495228  -0.00786854  1
  Cu  Cu110  1  0.33605586  0.34149358  0.00379142  1
  Cu  Cu111  1  0.83888890  0.83256628  0.75128482  1
  Cu  Cu112  1  0.83518542  0.17215790  0.74373300  1
  Cu  Cu113  1  0.82994167  0.16864215  0.25651439  1
  Cu  Cu114  1  -0.00816545  0.33152096  0.50481928  1
  Se  Se115  1  0.07283016  0.07545020  0.06432457  1
  Se  Se116  1  0.08658486  0.07866342  0.56455310  1
  Se  Se117  1  0.07707053  0.40945300  0.05457851  1
  Se  Se118  1  0.07697405  0.40442427  0.56579107  1
  Se  Se119  1  0.08105615  0.74842079  0.05032201  1
  Se  Se120  1  0.07963312  0.73894441  0.55804427  1
  Se  Se121  1  0.40637075  0.08228576  0.06221680  1
  Se  Se122  1  0.41835384  0.09244495  0.55090001  1
  Se  Se123  1  0.42387328  0.42057010  0.05425988  1
  Se  Se124  1  0.42544768  0.42100578  0.54991895  1
  Se  Se125  1  0.41883924  0.74982042  0.05787249  1
  Se  Se126  1  0.41150266  0.74049927  0.56220480  1
  Se  Se127  1  0.73524735  0.07246335  0.05809412  1
  Se  Se128  1  0.75418609  0.07831281  0.54705597  1
  Se  Se129  1  0.75054875  0.41559621  0.05198514  1
  Se  Se130  1  0.75140476  0.42412394  0.55677975  1
  Se  Se131  1  0.74100579  0.74245093  0.05848265  1
  Se  Se132  1  0.74165666  0.74728058  0.56025590  1
  Se  Se133  1  0.26636140  0.25663349  0.06549758  1
  Se  Se134  1  0.26089804  0.25598401  0.55437950  1
  Se  Se135  1  0.25619786  0.58315850  0.06623829  1
  Se  Se136  1  0.25791736  0.58434988  0.55923301  1
  Se  Se137  1  0.24814354  0.91603757  0.05518762  1
  Se  Se138  1  0.26541400  0.92930747  0.55846654  1
  Se  Se139  1  0.58922768  0.25209514  0.05825659  1
  Se  Se140  1  0.58732963  0.25440122  0.55314942  1
  Se  Se141  1  0.57937071  0.58191813  0.05597439  1
  Se  Se142  1  0.58127624  0.58562285  0.55552466  1
  Se  Se143  1  0.57586405  0.91102277  0.04923243  1
  Se  Se144  1  0.59887272  0.92120061  0.55700776  1
  Se  Se145  1  0.92165320  0.25821235  0.06045397  1
  Se  Se146  1  0.91197062  0.24714600  0.55789484  1
  Se  Se147  1  0.91460822  0.57908949  0.05010083  1
  Se  Se148  1  0.91334684  0.58467303  0.54790411  1
  Se  Se149  1  0.91498845  0.92446677  0.05621428  1
  Se  Se150  1  0.92850817  0.91834628  0.55977740  1
  Se  Se151  1  0.07841051  0.26132467  0.44302369  1
  Se  Se152  1  0.07933428  0.25194635  0.94221719  1
  Se  Se153  1  0.08349586  0.59107020  0.43684498  1
  Se  Se154  1  0.07473058  0.58921531  0.93502467  1
  Se  Se155  1  0.08662624  0.92873753  0.44060033  1
  Se  Se156  1  0.09035387  0.91779244  0.94549157  1
  Se  Se157  1  0.42019362  0.25179958  0.43826051  1
  Se  Se158  1  0.41013116  0.26011191  0.94081786  1
  Se  Se159  1  0.42401926  0.58033977  0.44473732  1
  Se  Se160  1  0.41544442  0.57834570  0.95176758  1
  Se  Se161  1  0.40898286  0.91875378  0.44371975  1
  Se  Se162  1  0.41881095  0.92937400  0.94025756  1
  Se  Se163  1  0.75148643  0.25563212  0.45252391  1
  Se  Se164  1  0.73720008  0.25016208  0.93816639  1
  Se  Se165  1  0.75231219  0.58457952  0.44352952  1
  Se  Se166  1  0.74432539  0.57984756  0.94707999  1
  Se  Se167  1  0.74286826  0.92037745  0.44000518  1
  Se  Se168  1  0.74243824  0.91804243  0.93472912  1
  Se  Se169  1  0.26068455  0.08047219  0.43460807  1
  Se  Se170  1  0.25653972  0.08894768  0.94553564  1
  Se  Se171  1  0.25889166  0.41604927  0.44325025  1
  Se  Se172  1  0.25293921  0.41168123  0.93940927  1
  Se  Se173  1  0.25693014  0.74399668  0.44374661  1
  Se  Se174  1  0.24558518  0.74544566  0.95968893  1
  Se  Se175  1  0.59148496  0.07437407  0.44880568  1
  Se  Se176  1  0.58004251  0.06825661  0.93622745  1
  Se  Se177  1  0.58471069  0.41988526  0.44373698  1
  Se  Se178  1  0.57655973  0.41528599  0.94528798  1
  Se  Se179  1  0.58931719  0.74468704  0.44076736  1
  Se  Se180  1  0.57988331  0.74878474  0.94424654  1
  Se  Se181  1  0.91974686  0.08678932  0.45063429  1
  Se  Se182  1  0.92063981  0.07980820  0.94295505  1
  Se  Se183  1  0.91686207  0.42054409  0.45065830  1
  Se  Se184  1  0.90738194  0.41594917  0.94345336  1
  Se  Se185  1  0.92496784  0.74754278  0.43422999  1
  Se  Se186  1  0.92105932  0.74246965  0.93383536  1
  Se  Se187  1  0.23952128  0.23559598  0.30148575  1
  Se  Se188  1  0.25097775  0.24659403  0.80303141  1
  Se  Se189  1  0.25479392  0.58676442  0.30165982  1
  Se  Se190  1  0.24590158  0.58099513  0.80343176  1
  Se  Se191  1  0.24217565  0.91014853  0.30384374  1
  Se  Se192  1  0.27708371  0.92381995  0.81279927  1
  Se  Se193  1  0.58826326  0.24770114  0.30601991  1
  Se  Se194  1  0.58213340  0.25344413  0.79573634  1
  Se  Se195  1  0.58739230  0.58500379  0.30411837  1
  Se  Se196  1  0.57906613  0.58258688  0.80844142  1
  Se  Se197  1  0.57188148  0.90639590  0.31200940  1
  Se  Se198  1  0.57171656  0.92592777  0.81596221  1
  Se  Se199  1  0.90890568  0.24966771  0.31762519  1
  Se  Se200  1  0.91772457  0.24975475  0.80334917  1
  Se  Se201  1  0.92026907  0.58162546  0.29951922  1
  Se  Se202  1  0.90611285  0.57777166  0.80674151  1
  Se  Se203  1  0.91115023  0.91611588  0.30504538  1
  Se  Se204  1  0.92068835  0.91869983  0.80011525  1
  Se  Se205  1  0.06950405  0.08224076  0.29891609  1
  Se  Se206  1  0.09197368  0.07817338  0.80836796  1
  Se  Se207  1  0.09681520  0.42574527  0.31403727  1
  Se  Se208  1  0.07956778  0.41428528  0.80135545  1
  Se  Se209  1  0.07828412  0.74885279  0.29954760  1
  Se  Se210  1  0.09338039  0.75649729  0.81094084  1
  Se  Se211  1  0.41490801  0.07174926  0.30166561  1
  Se  Se212  1  0.45547837  0.11510092  0.80922458  1
  Se  Se213  1  0.42208690  0.41899463  0.30399345  1
  Se  Se214  1  0.41405572  0.41912347  0.80444544  1
  Se  Se215  1  0.41240819  0.74611720  0.30224138  1
  Se  Se216  1  0.39278095  0.73404614  0.81940821  1
  Se  Se217  1  0.75108564  0.08918667  0.31759599  1
  Se  Se218  1  0.75605607  0.09364126  0.80822433  1
  Se  Se219  1  0.75045102  0.41858177  0.30441628  1
  Se  Se220  1  0.74290644  0.41594860  0.80545913  1
  Se  Se221  1  0.75062953  0.74438387  0.29828421  1
  Se  Se222  1  0.75048065  0.75012503  0.79849790  1
  Se  Se223  1  0.23571497  0.09142576  0.20155210  1
  Se  Se224  1  0.26103602  0.07938885  0.70111229  1
  Se  Se225  1  0.25589966  0.41410448  0.20078002  1
  Se  Se226  1  0.24596837  0.42135887  0.69401464  1
  Se  Se227  1  0.24475823  0.74969357  0.19182663  1
  Se  Se228  1  0.23849086  0.77530245  0.69401355  1
  Se  Se229  1  0.57617262  0.07977821  0.18939168  1
  Se  Se230  1  0.58829254  0.09068761  0.68194969  1
  Se  Se231  1  0.58758247  0.41682495  0.19252785  1
  Se  Se232  1  0.57897699  0.41891541  0.69412120  1
  Se  Se233  1  0.58241233  0.74806275  0.19799539  1
  Se  Se234  1  0.57303214  0.75129037  0.70674696  1
  Se  Se235  1  0.91073813  0.08280490  0.20472205  1
  Se  Se236  1  0.91914355  0.08344593  0.69750091  1
  Se  Se237  1  0.91448626  0.41780948  0.19001007  1
  Se  Se238  1  0.91256304  0.41781918  0.69645703  1
  Se  Se239  1  0.91743621  0.74998627  0.19063277  1
  Se  Se240  1  0.91268774  0.75158234  0.68663085  1
  Se  Se241  1  0.08732179  0.24955297  0.18964677  1
  Se  Se242  1  0.08657684  0.24486832  0.69934195  1
  Se  Se243  1  0.08325645  0.58022148  0.19673813  1
  Se  Se244  1  0.08727648  0.57824778  0.68511707  1
  Se  Se245  1  0.07809675  0.91742799  0.19273995  1
  Se  Se246  1  0.08945016  0.91746327  0.70255107  1
  Se  Se247  1  0.43083069  0.24796727  0.20285649  1
  Se  Se248  1  0.39651217  0.27526600  0.68678650  1
  Se  Se249  1  0.42090534  0.58251616  0.19848097  1
  Se  Se250  1  0.41341780  0.58300045  0.69650226  1
  Se  Se251  1  0.41053570  0.91445800  0.19580295  1
  Se  Se252  1  0.44287230  0.91159974  0.68993600  1
  Se  Se253  1  0.74704457  0.25109362  0.20360136  1
  Se  Se254  1  0.74832513  0.25122917  0.69233674  1
  Se  Se255  1  0.75179177  0.57992702  0.19147493  1
  Se  Se256  1  0.74309405  0.58432766  0.69615022  1
  Se  Se257  1  0.75156327  0.90775426  0.19027616  1
  Se  Se258  1  0.75920182  0.90897117  0.68656580  1
