# generated using pymatgen
data_In86Cu29Se144
_symmetry_space_group_name_H-M   'P 1'
_cell_length_a   17.56480728
_cell_length_b   17.56717603
_cell_length_c   23.42702588
_cell_angle_alpha   89.99989255
_cell_angle_beta   90.00680197
_cell_angle_gamma   89.98930973
_symmetry_Int_Tables_number   1
_chemical_formula_structural   In86Cu29Se144
_chemical_formula_sum   'In86 Cu29 Se144'
_cell_volume   7228.73807568
_cell_formula_units_Z   1
loop_
 _symmetry_equiv_pos_site_id
 _symmetry_equiv_pos_as_xyz
  1  'x, y, z'
loop_
 _atom_site_type_symbol
 _atom_site_label
 _atom_site_symmetry_multiplicity
 _atom_site_fract_x
 _atom_site_fract_y
 _atom_site_fract_z
 _atom_site_occupancy
  In  In0  1  0.01883297  0.17346487  0.10536045  1
  In  In1  1  -0.00812910  0.17428792  0.62559492  1
  In  In2  1  0.00386336  0.48681094  0.12626954  1
  In  In3  1  0.00665163  0.50158469  0.62720897  1
  In  In4  1  0.01552264  0.84286022  0.10053316  1
  In  In5  1  0.00534302  0.83619088  0.61811659  1
  In  In6  1  0.32295604  0.17970728  0.13153802  1
  In  In7  1  0.34854336  0.16303077  0.62608139  1
  In  In8  1  0.33466945  0.49668694  0.12110496  1
  In  In9  1  0.33884776  0.48888452  0.63814181  1
  In  In10  1  0.33234560  0.82527341  0.13663614  1
  In  In11  1  0.32860970  0.82120575  0.61812740  1
  In  In12  1  0.66976571  0.15267415  0.12076873  1
  In  In13  1  0.65433710  0.17606140  0.63703355  1
  In  In14  1  0.67036524  0.52389388  0.12467672  1
  In  In15  1  0.65306077  0.52260509  0.64478205  1
  In  In16  1  0.65496968  0.82307773  0.11600991  1
  In  In17  1  0.66441150  0.83232537  0.62514931  1
  In  In18  1  0.17672479  -0.02154397  0.36526609  1
  In  In19  1  0.16192497  -0.00106488  0.89516932  1
  In  In20  1  0.18289498  0.36268308  0.34541339  1
  In  In21  1  0.17136192  0.33430362  0.87957110  1
  In  In22  1  0.20129623  0.67447131  0.35284923  1
  In  In23  1  0.18467787  0.65767126  0.89893232  1
  In  In24  1  0.49837157  -0.00093804  0.37908608  1
  In  In25  1  0.50322187  -0.01554720  0.87390981  1
  In  In26  1  0.49085424  0.34200197  0.38647185  1
  In  In27  1  0.50571856  0.34511974  0.87088697  1
  In  In28  1  0.49343338  0.66728909  0.37063589  1
  In  In29  1  0.49625974  0.66663266  0.87223913  1
  In  In30  1  0.82269405  -0.00659089  0.37421174  1
  In  In31  1  0.82771342  0.00330807  0.88221039  1
  In  In32  1  0.83962935  0.32962426  0.37051371  1
  In  In33  1  0.81746409  0.33931739  0.87723885  1
  In  In34  1  0.83292805  0.68450679  0.37387720  1
  In  In35  1  0.83236730  0.67255881  0.87146677  1
  In  In36  1  0.00024239  0.17753797  0.36695203  1
  In  In37  1  -0.00036628  0.16006836  0.89006559  1
  In  In38  1  0.01922078  0.50291979  0.36376246  1
  In  In39  1  0.01735280  0.51675274  0.88582033  1
  In  In40  1  -0.00055012  0.82989610  0.37714813  1
  In  In41  1  -0.00002490  0.82733343  0.90056789  1
  In  In42  1  0.33616575  0.17517191  0.37394574  1
  In  In43  1  0.32021584  0.16857057  0.87966140  1
  In  In44  1  0.34342111  0.51381747  0.35973131  1
  In  In45  1  0.32951463  0.50725662  0.87295638  1
  In  In46  1  0.33359075  0.82928877  0.37130970  1
  In  In47  1  0.34570834  0.82809339  0.88412789  1
  In  In48  1  0.66266532  0.15381770  0.37647954  1
  In  In49  1  0.67494664  0.17329267  0.87183252  1
  In  In50  1  0.64563869  0.50615874  0.37854203  1
  In  In51  1  0.65876198  0.48863635  0.86303869  1
  In  In52  1  0.66644745  0.83253084  0.37616259  1
  In  In53  1  0.66272802  0.82855867  0.86997348  1
  In  In54  1  0.17267795  0.00168182  0.12260301  1
  In  In55  1  0.18329499  -0.01065211  0.62609094  1
  In  In56  1  0.17258954  0.33396768  0.12144973  1
  In  In57  1  0.18308290  0.35335721  0.62517033  1
  In  In58  1  0.18389240  0.67715840  0.12199237  1
  In  In59  1  0.16852586  0.67471082  0.62737628  1
  In  In60  1  0.48877953  -0.02835831  0.13236493  1
  In  In61  1  0.50565390  0.00681401  0.62005082  1
  In  In62  1  0.48089931  0.33563803  0.12577303  1
  In  In63  1  0.49751602  0.33553583  0.62694409  1
  In  In64  1  0.50096600  0.66959194  0.12913842  1
  In  In65  1  0.49772431  0.66679790  0.62275997  1
  In  In66  1  0.84374801  -0.00161644  0.10509894  1
  In  In67  1  0.83289399  -0.01738699  0.62410654  1
  In  In68  1  0.84734264  0.33393182  0.11950003  1
  In  In69  1  0.83072145  0.32068693  0.62722397  1
  In  In70  1  0.81735368  0.67523286  0.12656562  1
  In  In71  1  0.81456574  0.67025177  0.62789052  1
  In  In72  1  0.17722167  0.51264216  0.48695776  1
  In  In73  1  0.83254215  0.50199971  -0.00512936  1
  In  In74  1  0.82932154  0.50184493  0.51014396  1
  In  In75  1  -0.00456868  0.33650341  0.76245064  1
  In  In76  1  0.49726512  0.16590939  0.00411038  1
  In  In77  1  0.16080685  0.16014762  0.49772393  1
  In  In78  1  0.00568210  -0.00086455  0.23195462  1
  In  In79  1  0.33798991  -0.00072266  0.75463128  1
  In  In80  1  0.66489324  0.34006653  0.25538317  1
  In  In81  1  0.00274362  0.66827563  0.76165073  1
  In  In82  1  0.00444698  0.66864138  0.23682700  1
  In  In83  1  -0.00369716  -0.00193910  0.76647424  1
  In  In84  1  0.82411602  0.15889735  0.49321626  1
  In  In85  1  0.66317671  -0.00638010  0.24996888  1
  Cu  Cu86  1  0.49918151  0.82638377  0.74768431  1
  Cu  Cu87  1  0.83290958  0.50841669  0.24534047  1
  Cu  Cu88  1  0.16861632  0.83485215  0.75727079  1
  Cu  Cu89  1  0.16658953  0.18098377  0.75368660  1
  Cu  Cu90  1  0.65547354  0.66947553  -0.00437459  1
  Cu  Cu91  1  0.66289180  0.33542633  -0.00279130  1
  Cu  Cu92  1  0.34457106  0.67112031  0.00446981  1
  Cu  Cu93  1  0.34084825  0.33170194  0.50179552  1
  Cu  Cu94  1  0.00955250  0.32953557  0.00113594  1
  Cu  Cu95  1  0.66163846  0.66959624  0.50194531  1
  Cu  Cu96  1  0.33604922  -0.00289114  0.00759511  1
  Cu  Cu97  1  0.00560355  -0.00658919  0.49608223  1
  Cu  Cu98  1  0.66392915  -0.00612316  0.50067478  1
  Cu  Cu99  1  0.84168444  0.17633505  0.24050392  1
  Cu  Cu100  1  0.82477672  0.16009397  0.75458321  1
  Cu  Cu101  1  0.83059553  0.84014344  0.24368424  1
  Cu  Cu102  1  0.33720091  0.66603464  0.49303044  1
  Cu  Cu103  1  0.32965088  0.34151918  0.00049613  1
  Cu  Cu104  1  0.50200685  0.17371835  0.75171593  1
  Cu  Cu105  1  0.82867466  0.82804991  0.75058997  1
  Cu  Cu106  1  0.50091003  0.50171768  0.24906591  1
  Cu  Cu107  1  0.49268248  0.50459622  0.75018460  1
  Cu  Cu108  1  0.66741805  -0.00314276  -0.00079848  1
  Cu  Cu109  1  0.49569652  0.16624984  0.25228226  1
  Cu  Cu110  1  0.16126756  0.16823778  0.24341466  1
  Cu  Cu111  1  0.00682460  0.33963186  0.48794542  1
  Cu  Cu112  1  0.65510350  0.33244270  0.50873082  1
  Cu  Cu113  1  0.33447823  -0.01517848  0.49750628  1
  Cu  Cu114  1  0.00257646  0.67754671  0.49905581  1
  Se  Se115  1  0.07506232  0.06033018  0.05161083  1
  Se  Se116  1  0.07361006  0.07197925  0.56543580  1
  Se  Se117  1  0.08858320  0.41757858  0.05189795  1
  Se  Se118  1  0.08510449  0.41821864  0.55029185  1
  Se  Se119  1  0.07651153  0.72481111  0.05320993  1
  Se  Se120  1  0.09239943  0.75401631  0.55284677  1
  Se  Se121  1  0.41292825  0.07910300  0.06948966  1
  Se  Se122  1  0.41116801  0.07598977  0.55054159  1
  Se  Se123  1  0.42240687  0.42055479  0.04763533  1
  Se  Se124  1  0.41506825  0.42054775  0.55813356  1
  Se  Se125  1  0.42078923  0.75740260  0.06120393  1
  Se  Se126  1  0.41966291  0.74899390  0.54932762  1
  Se  Se127  1  0.75221778  0.08584023  0.04564603  1
  Se  Se128  1  0.74178888  0.07800220  0.56340761  1
  Se  Se129  1  0.74273043  0.41471572  0.06164912  1
  Se  Se130  1  0.73982929  0.40950362  0.56702141  1
  Se  Se131  1  0.74516523  0.74902063  0.04666346  1
  Se  Se132  1  0.74812399  0.75272753  0.55191830  1
  Se  Se133  1  0.25173684  0.24847995  0.04950714  1
  Se  Se134  1  0.25325129  0.25250251  0.55827716  1
  Se  Se135  1  0.25730514  0.58557226  0.05255730  1
  Se  Se136  1  0.26011283  0.58884044  0.56065514  1
  Se  Se137  1  0.25748378  0.91025837  0.06222195  1
  Se  Se138  1  0.24559048  0.90665367  0.54921982  1
  Se  Se139  1  0.58843786  0.25821850  0.06398760  1
  Se  Se140  1  0.57506930  0.24366480  0.55857305  1
  Se  Se141  1  0.57831177  0.58622743  0.05331651  1
  Se  Se142  1  0.58623121  0.58155444  0.55711848  1
  Se  Se143  1  0.57932886  0.92097736  0.05391267  1
  Se  Se144  1  0.57979590  0.91235691  0.55502200  1
  Se  Se145  1  0.91586193  0.24829340  0.04668622  1
  Se  Se146  1  0.92122859  0.25795126  0.54493869  1
  Se  Se147  1  0.91079616  0.58165904  0.06865654  1
  Se  Se148  1  0.92652917  0.59671887  0.56151299  1
  Se  Se149  1  0.90018084  0.89235517  0.04393044  1
  Se  Se150  1  0.91778159  0.91452772  0.54962201  1
  Se  Se151  1  0.09042894  0.25946318  0.43244726  1
  Se  Se152  1  0.09269475  0.24581998  0.94741726  1
  Se  Se153  1  0.08032964  0.60310793  0.43377261  1
  Se  Se154  1  0.07347098  0.60556483  0.96176390  1
  Se  Se155  1  0.08877843  0.91346955  0.44016263  1
  Se  Se156  1  0.08870081  0.90991387  0.96201267  1
  Se  Se157  1  0.42068916  0.24267791  0.45069729  1
  Se  Se158  1  0.41303743  0.25889157  0.94163925  1
  Se  Se159  1  0.41746738  0.57729625  0.44190920  1
  Se  Se160  1  0.41627304  0.58503793  0.94405733  1
  Se  Se161  1  0.41945061  0.90571848  0.44271766  1
  Se  Se162  1  0.42128456  0.91977138  0.95145248  1
  Se  Se163  1  0.73644483  0.26214689  0.44015306  1
  Se  Se164  1  0.74892841  0.25037228  0.94967388  1
  Se  Se165  1  0.74602027  0.59066511  0.44093813  1
  Se  Se166  1  0.73561930  0.58543176  0.93624275  1
  Se  Se167  1  0.74998814  0.91317811  0.44771725  1
  Se  Se168  1  0.74345416  0.91095832  0.94206415  1
  Se  Se169  1  0.25325658  0.07108306  0.43936033  1
  Se  Se170  1  0.25482145  0.08326830  0.95450131  1
  Se  Se171  1  0.26138842  0.40826140  0.43693653  1
  Se  Se172  1  0.24750454  0.42548573  0.94601961  1
  Se  Se173  1  0.24860004  0.74639208  0.44214184  1
  Se  Se174  1  0.25730992  0.75972424  0.95719183  1
  Se  Se175  1  0.58214604  0.08093872  0.44985937  1
  Se  Se176  1  0.58676406  0.08071239  0.93993599  1
  Se  Se177  1  0.57877548  0.42078155  0.45359775  1
  Se  Se178  1  0.58402168  0.42196648  0.94553504  1
  Se  Se179  1  0.58066963  0.74647021  0.44021734  1
  Se  Se180  1  0.57486341  0.75474807  0.94143198  1
  Se  Se181  1  0.92685020  0.07581948  0.43479581  1
  Se  Se182  1  0.92136097  0.06891443  0.95138527  1
  Se  Se183  1  0.92013984  0.42397969  0.43766511  1
  Se  Se184  1  0.92863433  0.40931237  0.93846769  1
  Se  Se185  1  0.91211514  0.75766992  0.44924890  1
  Se  Se186  1  0.91223684  0.73116763  0.95111297  1
  Se  Se187  1  0.24806154  0.24503563  0.30056951  1
  Se  Se188  1  0.25540550  0.25779766  0.80592150  1
  Se  Se189  1  0.20955979  0.53593711  0.31570941  1
  Se  Se190  1  0.24182664  0.59525611  0.81128570  1
  Se  Se191  1  0.27094758  0.91968537  0.29422964  1
  Se  Se192  1  0.24472702  0.91782438  0.81869302  1
  Se  Se193  1  0.57752126  0.24426354  0.31285026  1
  Se  Se194  1  0.58642154  0.25434956  0.80653959  1
  Se  Se195  1  0.58268866  0.58822037  0.30070325  1
  Se  Se196  1  0.58003122  0.58523102  0.80232707  1
  Se  Se197  1  0.57004805  0.90454614  0.30547975  1
  Se  Se198  1  0.58219020  0.91313353  0.79802170  1
  Se  Se199  1  0.92231045  0.25929044  0.29521725  1
  Se  Se200  1  0.90787631  0.23623564  0.81660384  1
  Se  Se201  1  0.91404755  0.58762091  0.30807091  1
  Se  Se202  1  0.91314628  0.56850201  0.81276099  1
  Se  Se203  1  0.91477342  0.91732256  0.30301571  1
  Se  Se204  1  0.90948837  0.89866289  0.81737403  1
  Se  Se205  1  0.08724890  0.08356891  0.30599497  1
  Se  Se206  1  0.09540228  0.09281566  0.81392607  1
  Se  Se207  1  0.06086955  0.40100408  0.29203292  1
  Se  Se208  1  0.09138410  0.42961922  0.81142243  1
  Se  Se209  1  0.09011459  0.75658574  0.30435587  1
  Se  Se210  1  0.08821439  0.76088684  0.82103064  1
  Se  Se211  1  0.41744567  0.08375531  0.31020328  1
  Se  Se212  1  0.42517508  0.09340998  0.81552304  1
  Se  Se213  1  0.42349769  0.41339106  0.30371273  1
  Se  Se214  1  0.41252140  0.41955917  0.80553042  1
  Se  Se215  1  0.38342618  0.71814380  0.30466094  1
  Se  Se216  1  0.41141393  0.75172957  0.80333499  1
  Se  Se217  1  0.76132492  0.09379666  0.30040210  1
  Se  Se218  1  0.74393544  0.07361450  0.80655874  1
  Se  Se219  1  0.75673792  0.43260526  0.31420615  1
  Se  Se220  1  0.75337112  0.41530153  0.79804774  1
  Se  Se221  1  0.75081058  0.75896552  0.30095027  1
  Se  Se222  1  0.74390329  0.74228564  0.79979356  1
  Se  Se223  1  0.24829960  0.08391434  0.19556155  1
  Se  Se224  1  0.24374482  0.09294281  0.69569677  1
  Se  Se225  1  0.27013087  0.39843531  0.18876145  1
  Se  Se226  1  0.24441708  0.42337588  0.70747724  1
  Se  Se227  1  0.26728458  0.72627075  0.20646816  1
  Se  Se228  1  0.24906903  0.75584968  0.69859655  1
  Se  Se229  1  0.57100180  0.08545387  0.18971074  1
  Se  Se230  1  0.57734847  0.08046632  0.70008315  1
  Se  Se231  1  0.58180073  0.42389574  0.18656178  1
  Se  Se232  1  0.57735146  0.41813368  0.69840257  1
  Se  Se233  1  0.58665907  0.75285623  0.19606463  1
  Se  Se234  1  0.58436279  0.74534574  0.69298854  1
  Se  Se235  1  0.91341631  0.09366700  0.17854063  1
  Se  Se236  1  0.91184759  0.08474231  0.69567794  1
  Se  Se237  1  0.91043566  0.41848678  0.19646667  1
  Se  Se238  1  0.91362559  0.41887387  0.68962822  1
  Se  Se239  1  0.91524451  0.76584588  0.18266425  1
  Se  Se240  1  0.91805932  0.75579884  0.69116247  1
  Se  Se241  1  0.08151784  0.25035697  0.18670187  1
  Se  Se242  1  0.08532103  0.25520908  0.69011556  1
  Se  Se243  1  0.09759795  0.57537599  0.18588857  1
  Se  Se244  1  0.09301066  0.58018006  0.69687669  1
  Se  Se245  1  0.09643271  0.89745274  0.18810091  1
  Se  Se246  1  0.08799026  0.91521387  0.69742633  1
  Se  Se247  1  0.41359455  0.25267681  0.20165405  1
  Se  Se248  1  0.41447974  0.25195043  0.69806918  1
  Se  Se249  1  0.41708336  0.57910969  0.19224186  1
  Se  Se250  1  0.41308196  0.59084473  0.69586617  1
  Se  Se251  1  0.39828606  0.92105001  0.20926917  1
  Se  Se252  1  0.41845774  0.91096192  0.68780860  1
  Se  Se253  1  0.74845145  0.24982323  0.18791037  1
  Se  Se254  1  0.74824940  0.25066050  0.70222002  1
  Se  Se255  1  0.74550648  0.59503553  0.20349328  1
  Se  Se256  1  0.76758408  0.57398267  0.70122271  1
  Se  Se257  1  0.75393864  0.91936990  0.18027379  1
  Se  Se258  1  0.74765982  0.91439445  0.69726745  1
