# generated using pymatgen
data_In86Cu29Se144
_symmetry_space_group_name_H-M   'P 1'
_cell_length_a   17.58588595
_cell_length_b   17.58616688
_cell_length_c   23.44651902
_cell_angle_alpha   90.00257697
_cell_angle_beta   90.00401331
_cell_angle_gamma   90.02776177
_symmetry_Int_Tables_number   1
_chemical_formula_structural   In86Cu29Se144
_chemical_formula_sum   'In86 Cu29 Se144'
_cell_volume   7251.26479355
_cell_formula_units_Z   1
loop_
 _symmetry_equiv_pos_site_id
 _symmetry_equiv_pos_as_xyz
  1  'x, y, z'
loop_
 _atom_site_type_symbol
 _atom_site_label
 _atom_site_symmetry_multiplicity
 _atom_site_fract_x
 _atom_site_fract_y
 _atom_site_fract_z
 _atom_site_occupancy
  In  In0  1  -0.00369503  0.17104280  0.13075637  1
  In  In1  1  -0.00436533  0.18633578  0.61992357  1
  In  In2  1  0.00453775  0.49112056  0.12988874  1
  In  In3  1  0.00266383  0.49945470  0.61326124  1
  In  In4  1  0.01405824  0.81901847  0.13840157  1
  In  In5  1  0.00757284  0.81896635  0.62323025  1
  In  In6  1  0.33580811  0.15508110  0.12667686  1
  In  In7  1  0.34457974  0.15902042  0.62318841  1
  In  In8  1  0.33413441  0.50240639  0.11674649  1
  In  In9  1  0.34936479  0.51280800  0.61580468  1
  In  In10  1  0.33606475  0.83702220  0.12076176  1
  In  In11  1  0.32124852  0.82529447  0.61430806  1
  In  In12  1  0.66804477  0.16046300  0.11509403  1
  In  In13  1  0.67650564  0.16502201  0.62771120  1
  In  In14  1  0.66699408  0.51167811  0.12677367  1
  In  In15  1  0.65517774  0.48904282  0.62595905  1
  In  In16  1  0.65228325  0.82503040  0.12398151  1
  In  In17  1  0.66517540  0.84817879  0.63078864  1
  In  In18  1  0.16196895  -0.00977110  0.36797119  1
  In  In19  1  0.16157168  -0.01193028  0.87918714  1
  In  In20  1  0.15586667  0.35238075  0.38288373  1
  In  In21  1  0.17203888  0.35283491  0.87146370  1
  In  In22  1  0.15602959  0.67608384  0.37402599  1
  In  In23  1  0.16920557  0.66487455  0.87297774  1
  In  In24  1  0.46667456  -0.00774762  0.36758822  1
  In  In25  1  0.51066605  -0.01156635  0.87989973  1
  In  In26  1  0.50807675  0.33317448  0.37917571  1
  In  In27  1  0.50782968  0.32438476  0.88128686  1
  In  In28  1  0.50273756  0.66558201  0.38270589  1
  In  In29  1  0.48834716  0.67626161  0.87953233  1
  In  In30  1  0.84718692  0.00044655  0.37531479  1
  In  In31  1  0.83239121  0.01635482  0.87991165  1
  In  In32  1  0.84350120  0.33133834  0.38838171  1
  In  In33  1  0.82502932  0.32894199  0.86741205  1
  In  In34  1  0.82720271  0.65660648  0.36535750  1
  In  In35  1  0.83628418  0.65218712  0.87065509  1
  In  In36  1  -0.00522655  0.16256262  0.37462035  1
  In  In37  1  -0.01449982  0.16867171  0.87639140  1
  In  In38  1  -0.00545092  0.50492547  0.37460051  1
  In  In39  1  0.00770534  0.50961939  0.86593577  1
  In  In40  1  0.01069752  0.83418986  0.36205934  1
  In  In41  1  0.01703332  0.82914893  0.87831795  1
  In  In42  1  0.33036646  0.14804343  0.36709858  1
  In  In43  1  0.34030863  0.18113930  0.87443942  1
  In  In44  1  0.33150445  0.50523071  0.38688316  1
  In  In45  1  0.32550314  0.51133255  0.88037854  1
  In  In46  1  0.31993917  0.85153205  0.39079571  1
  In  In47  1  0.34628716  0.81852471  0.88080632  1
  In  In48  1  0.66610547  0.17721985  0.37755136  1
  In  In49  1  0.66894609  0.16509158  0.87419146  1
  In  In50  1  0.66277494  0.50689410  0.38505063  1
  In  In51  1  0.66722718  0.48695450  0.87230039  1
  In  In52  1  0.66421430  0.81826493  0.37723430  1
  In  In53  1  0.64124514  0.83194014  0.86626019  1
  In  In54  1  0.17699621  -0.01383466  0.14111405  1
  In  In55  1  0.17910855  -0.01452461  0.61702358  1
  In  In56  1  0.15039234  0.33242221  0.12455889  1
  In  In57  1  0.14664043  0.34120756  0.62371614  1
  In  In58  1  0.16648095  0.66611481  0.12188359  1
  In  In59  1  0.16778329  0.66384696  0.61912445  1
  In  In60  1  0.49928907  -0.00552918  0.11876747  1
  In  In61  1  0.50576997  0.00348146  0.62203038  1
  In  In62  1  0.50240245  0.33367653  0.11519275  1
  In  In63  1  0.50854636  0.35325825  0.63097843  1
  In  In64  1  0.49842509  0.67096267  0.12180980  1
  In  In65  1  0.48979946  0.65761242  0.62836562  1
  In  In66  1  0.83580520  0.01197333  0.12533427  1
  In  In67  1  0.81993862  0.00137080  0.62298572  1
  In  In68  1  0.84974510  0.33189145  0.12698239  1
  In  In69  1  0.83331471  0.33438333  0.61914807  1
  In  In70  1  0.83662093  0.64804848  0.14232007  1
  In  In71  1  0.85347626  0.66815188  0.62578071  1
  In  In72  1  0.50042160  0.16297840  0.49869812  1
  In  In73  1  0.16947201  0.16828351  0.00227054  1
  In  In74  1  -0.00497011  -0.00067295  0.75459709  1
  In  In75  1  0.33618818  0.34622370  0.74964990  1
  In  In76  1  0.83666648  0.83044929  0.49883938  1
  In  In77  1  0.66548378  0.66390122  0.74881682  1
  In  In78  1  0.66993843  0.33640072  0.25804419  1
  In  In79  1  0.16265700  0.16854692  0.49755778  1
  In  In80  1  0.82887985  0.83392092  0.00478591  1
  In  In81  1  0.83214723  0.49325508  0.00218833  1
  In  In82  1  0.33829767  -0.00371601  0.75028823  1
  In  In83  1  0.33059286  0.67318695  0.25079734  1
  In  In84  1  0.66636898  -0.00560051  0.24336799  1
  In  In85  1  0.32629879  0.32768608  0.25036656  1
  Cu  Cu86  1  0.00536292  0.66594944  0.49562175  1
  Cu  Cu87  1  0.49607236  0.82922902  0.24778903  1
  Cu  Cu88  1  0.33717213  0.66389665  0.50020143  1
  Cu  Cu89  1  0.15729358  0.50110615  0.25041494  1
  Cu  Cu90  1  0.83100527  0.17267188  0.74925174  1
  Cu  Cu91  1  0.66644276  -0.00029033  -0.00228768  1
  Cu  Cu92  1  0.66336530  0.00327550  0.49978634  1
  Cu  Cu93  1  0.00676466  0.66645538  -0.00073302  1
  Cu  Cu94  1  0.50217007  0.50170118  0.25838066  1
  Cu  Cu95  1  0.51189503  0.16933284  0.75093605  1
  Cu  Cu96  1  0.33217362  0.33011448  0.50284979  1
  Cu  Cu97  1  0.65712838  0.66877487  0.00245547  1
  Cu  Cu98  1  0.66911304  0.32554421  -0.00530532  1
  Cu  Cu99  1  0.00586948  -0.00204340  0.00547231  1
  Cu  Cu100  1  0.16953650  0.82126363  0.74805465  1
  Cu  Cu101  1  0.66741527  0.66532075  0.50562307  1
  Cu  Cu102  1  0.16366799  0.50636828  0.74387199  1
  Cu  Cu103  1  0.83426597  0.16998317  0.25245794  1
  Cu  Cu104  1  0.15871462  0.16920021  0.74311074  1
  Cu  Cu105  1  0.33350126  -0.00042434  0.00336092  1
  Cu  Cu106  1  0.32885224  0.66972362  -0.00004000  1
  Cu  Cu107  1  0.84338478  0.49685315  0.74356588  1
  Cu  Cu108  1  0.15695740  0.16895057  0.25049929  1
  Cu  Cu109  1  0.00298742  0.00035995  0.49543216  1
  Cu  Cu110  1  0.00022068  0.33525316  0.00016798  1
  Cu  Cu111  1  0.83464019  0.83497926  0.74754004  1
  Cu  Cu112  1  0.66920740  0.33827296  0.50073383  1
  Cu  Cu113  1  0.83292499  0.82959832  0.25452487  1
  Cu  Cu114  1  0.33699443  0.33959501  -0.00280904  1
  Se  Se115  1  0.08517921  0.07978302  0.06579285  1
  Se  Se116  1  0.07755245  0.07637564  0.56366172  1
  Se  Se117  1  0.08324513  0.42042834  0.05117518  1
  Se  Se118  1  0.08502577  0.41733043  0.54390795  1
  Se  Se119  1  0.08407418  0.75303608  0.05419247  1
  Se  Se120  1  0.08906872  0.75104060  0.54783369  1
  Se  Se121  1  0.41866050  0.08437038  0.05235257  1
  Se  Se122  1  0.40491310  0.06626662  0.54881779  1
  Se  Se123  1  0.42131645  0.42226115  0.05060943  1
  Se  Se124  1  0.42076453  0.41121486  0.55350431  1
  Se  Se125  1  0.41544278  0.75165014  0.05273637  1
  Se  Se126  1  0.41939966  0.74536985  0.55576552  1
  Se  Se127  1  0.75511917  0.08064956  0.04806605  1
  Se  Se128  1  0.74891389  0.08606004  0.54982806  1
  Se  Se129  1  0.74133795  0.40457611  0.06280473  1
  Se  Se130  1  0.74855277  0.42392833  0.55497942  1
  Se  Se131  1  0.74816317  0.73437403  0.06451459  1
  Se  Se132  1  0.74714477  0.74786068  0.56576666  1
  Se  Se133  1  0.25889976  0.26068797  0.06237107  1
  Se  Se134  1  0.25478352  0.25162100  0.56486410  1
  Se  Se135  1  0.24699687  0.58360381  0.05201119  1
  Se  Se136  1  0.25072508  0.57983815  0.55066426  1
  Se  Se137  1  0.24662603  0.92056802  0.05643566  1
  Se  Se138  1  0.24907712  0.91039840  0.54126207  1
  Se  Se139  1  0.58367731  0.24542343  0.05011393  1
  Se  Se140  1  0.58639156  0.25567961  0.56032716  1
  Se  Se141  1  0.57832477  0.58077685  0.05548962  1
  Se  Se142  1  0.58288664  0.58373404  0.55984014  1
  Se  Se143  1  0.58582109  0.91362404  0.05122415  1
  Se  Se144  1  0.58520356  0.91730384  0.55329568  1
  Se  Se145  1  0.92085140  0.24820868  0.05288935  1
  Se  Se146  1  0.90501534  0.24497780  0.54813027  1
  Se  Se147  1  0.92187363  0.58844276  0.05801646  1
  Se  Se148  1  0.91657870  0.58704403  0.54735632  1
  Se  Se149  1  0.92382380  0.91742321  0.06456009  1
  Se  Se150  1  0.92490933  0.92186157  0.56165961  1
  Se  Se151  1  0.06949706  0.25952902  0.44468267  1
  Se  Se152  1  0.08271816  0.25733696  0.93774525  1
  Se  Se153  1  0.08841855  0.58165423  0.44241716  1
  Se  Se154  1  0.08495466  0.58156680  0.94311156  1
  Se  Se155  1  0.07977235  0.91389533  0.44138376  1
  Se  Se156  1  0.08670376  0.91131998  0.95444961  1
  Se  Se157  1  0.40449519  0.24974815  0.43771514  1
  Se  Se158  1  0.41899904  0.24854645  0.95169315  1
  Se  Se159  1  0.42478557  0.57854014  0.45192933  1
  Se  Se160  1  0.41542883  0.58635883  0.94926075  1
  Se  Se161  1  0.43676766  0.90012377  0.44767824  1
  Se  Se162  1  0.41448927  0.91817068  0.94555210  1
  Se  Se163  1  0.74849956  0.24943482  0.44978800  1
  Se  Se164  1  0.75687898  0.24598158  0.94335358  1
  Se  Se165  1  0.75312978  0.59042775  0.44829750  1
  Se  Se166  1  0.74061596  0.58847634  0.94440823  1
  Se  Se167  1  0.74478400  0.92214668  0.43900936  1
  Se  Se168  1  0.74300155  0.91636362  0.93623008  1
  Se  Se169  1  0.25045113  0.07325072  0.44311910  1
  Se  Se170  1  0.25790778  0.07877802  0.93769055  1
  Se  Se171  1  0.25034522  0.41723750  0.45217792  1
  Se  Se172  1  0.24776785  0.42189367  0.94967264  1
  Se  Se173  1  0.25263075  0.74141405  0.44340888  1
  Se  Se174  1  0.24539910  0.75157379  0.94433392  1
  Se  Se175  1  0.58318879  0.07367370  0.43257210  1
  Se  Se176  1  0.58399368  0.08447268  0.94394465  1
  Se  Se177  1  0.57971586  0.41822107  0.45050911  1
  Se  Se178  1  0.58688251  0.41554485  0.94798598  1
  Se  Se179  1  0.58398182  0.74950066  0.45360240  1
  Se  Se180  1  0.57910129  0.75462650  0.94779260  1
  Se  Se181  1  0.91508299  0.08503043  0.44996034  1
  Se  Se182  1  0.92278202  0.08184383  0.95270623  1
  Se  Se183  1  0.91334514  0.43090347  0.44948873  1
  Se  Se184  1  0.92238912  0.41317576  0.93556908  1
  Se  Se185  1  0.92407402  0.74690610  0.43457106  1
  Se  Se186  1  0.91819590  0.74184393  0.94169017  1
  Se  Se187  1  0.23432996  0.24619427  0.31635468  1
  Se  Se188  1  0.24226876  0.24730780  0.80330409  1
  Se  Se189  1  0.24627326  0.57435355  0.30865091  1
  Se  Se190  1  0.24948993  0.58250905  0.80153704  1
  Se  Se191  1  0.26504625  0.92495483  0.30595564  1
  Se  Se192  1  0.24511538  0.90616604  0.80858301  1
  Se  Se193  1  0.57018620  0.23987286  0.30378891  1
  Se  Se194  1  0.59059526  0.25437237  0.80564269  1
  Se  Se195  1  0.58362466  0.58537048  0.31066093  1
  Se  Se196  1  0.57920831  0.58227703  0.81574183  1
  Se  Se197  1  0.57840414  0.90945264  0.30882563  1
  Se  Se198  1  0.57885886  0.92400278  0.79590108  1
  Se  Se199  1  0.91336880  0.25227800  0.30940595  1
  Se  Se200  1  0.91881174  0.25274903  0.80122646  1
  Se  Se201  1  0.93228465  0.59932084  0.30272149  1
  Se  Se202  1  0.92085305  0.58637733  0.79581062  1
  Se  Se203  1  0.91629879  0.91761115  0.30159882  1
  Se  Se204  1  0.91008029  0.90866885  0.81796625  1
  Se  Se205  1  0.07932324  0.08236037  0.30641104  1
  Se  Se206  1  0.09033939  0.08988379  0.81185408  1
  Se  Se207  1  0.07651105  0.41686876  0.30413804  1
  Se  Se208  1  0.08439232  0.41891579  0.79814021  1
  Se  Se209  1  0.09065244  0.75053640  0.29406342  1
  Se  Se210  1  0.08144322  0.74442974  0.80259620  1
  Se  Se211  1  0.42247528  0.09057600  0.29472229  1
  Se  Se212  1  0.42505203  0.09269375  0.80888238  1
  Se  Se213  1  0.41700486  0.41976836  0.31205942  1
  Se  Se214  1  0.42180881  0.42205684  0.81966290  1
  Se  Se215  1  0.41867851  0.75652992  0.31526371  1
  Se  Se216  1  0.42214987  0.75555695  0.80089652  1
  Se  Se217  1  0.75167422  0.08707646  0.30900370  1
  Se  Se218  1  0.75263250  0.08409097  0.80263657  1
  Se  Se219  1  0.75611905  0.42221533  0.32002081  1
  Se  Se220  1  0.75476167  0.42104067  0.79841957  1
  Se  Se221  1  0.74415126  0.74762632  0.30209267  1
  Se  Se222  1  0.75590584  0.75568231  0.81149712  1
  Se  Se223  1  0.24735598  0.09033709  0.20022464  1
  Se  Se224  1  0.24229319  0.08723718  0.69025384  1
  Se  Se225  1  0.24259661  0.42433886  0.19015221  1
  Se  Se226  1  0.24492444  0.42561937  0.68394455  1
  Se  Se227  1  0.24190380  0.76202669  0.19151304  1
  Se  Se228  1  0.25216903  0.74332030  0.69095638  1
  Se  Se229  1  0.57844594  0.08915750  0.18850238  1
  Se  Se230  1  0.58628111  0.08391992  0.69249960  1
  Se  Se231  1  0.57507691  0.41924754  0.19456920  1
  Se  Se232  1  0.58689172  0.41915015  0.70838052  1
  Se  Se233  1  0.57985006  0.74277811  0.19839079  1
  Se  Se234  1  0.57748362  0.75529798  0.69057840  1
  Se  Se235  1  0.91641818  0.08464362  0.20010981  1
  Se  Se236  1  0.91168648  0.08880045  0.68969495  1
  Se  Se237  1  0.90406723  0.42938362  0.19577096  1
  Se  Se238  1  0.92238515  0.41630225  0.68531134  1
  Se  Se239  1  0.91548287  0.74566518  0.20033091  1
  Se  Se240  1  0.92306885  0.75354824  0.69991605  1
  Se  Se241  1  0.07609117  0.25683641  0.20049942  1
  Se  Se242  1  0.07521273  0.25609583  0.69714333  1
  Se  Se243  1  0.08331674  0.58623569  0.19198969  1
  Se  Se244  1  0.07933470  0.58476809  0.68665131  1
  Se  Se245  1  0.06571597  0.93062326  0.19827581  1
  Se  Se246  1  0.09089274  0.91260956  0.69406940  1
  Se  Se247  1  0.42293750  0.24854764  0.18943871  1
  Se  Se248  1  0.42485804  0.24626328  0.69278163  1
  Se  Se249  1  0.41968295  0.57517602  0.19470523  1
  Se  Se250  1  0.42097576  0.56975457  0.70054299  1
  Se  Se251  1  0.41956142  0.91552372  0.19194237  1
  Se  Se252  1  0.41644307  0.91016178  0.68219788  1
  Se  Se253  1  0.75151700  0.24394478  0.19040365  1
  Se  Se254  1  0.75036693  0.25715540  0.69417359  1
  Se  Se255  1  0.74379491  0.57430657  0.20615990  1
  Se  Se256  1  0.75935639  0.57989563  0.68680831  1
  Se  Se257  1  0.75814410  0.90349864  0.18498999  1
  Se  Se258  1  0.75154099  0.92302821  0.70155426  1
