# generated using pymatgen
data_In86Cu29Se144
_symmetry_space_group_name_H-M   'P 1'
_cell_length_a   17.57878959
_cell_length_b   17.57923206
_cell_length_c   23.43993472
_cell_angle_alpha   90.00535605
_cell_angle_beta   89.99785179
_cell_angle_gamma   90.01981102
_symmetry_Int_Tables_number   1
_chemical_formula_structural   In86Cu29Se144
_chemical_formula_sum   'In86 Cu29 Se144'
_cell_volume   7243.44616745
_cell_formula_units_Z   1
loop_
 _symmetry_equiv_pos_site_id
 _symmetry_equiv_pos_as_xyz
  1  'x, y, z'
loop_
 _atom_site_type_symbol
 _atom_site_label
 _atom_site_symmetry_multiplicity
 _atom_site_fract_x
 _atom_site_fract_y
 _atom_site_fract_z
 _atom_site_occupancy
  In  In0  1  0.01232017  0.16700485  0.12554014  1
  In  In1  1  -0.00143330  0.17953263  0.62660652  1
  In  In2  1  -0.00249566  0.50328908  0.13236976  1
  In  In3  1  0.00565168  0.49084688  0.63125541  1
  In  In4  1  -0.00702994  0.82976780  0.11423441  1
  In  In5  1  -0.01946724  0.82682135  0.63140961  1
  In  In6  1  0.32873237  0.15130934  0.11927460  1
  In  In7  1  0.34743084  0.15645600  0.63148119  1
  In  In8  1  0.34515115  0.51320135  0.12966101  1
  In  In9  1  0.32318027  0.50824512  0.62994740  1
  In  In10  1  0.33518611  0.83661256  0.12365784  1
  In  In11  1  0.32732514  0.83677362  0.63324908  1
  In  In12  1  0.65671284  0.17531496  0.12862025  1
  In  In13  1  0.67132090  0.17174219  0.61550713  1
  In  In14  1  0.66150026  0.49810869  0.14341874  1
  In  In15  1  0.65550012  0.49799545  0.62334226  1
  In  In16  1  0.66642623  0.83910949  0.12470221  1
  In  In17  1  0.67959215  0.82591628  0.62076606  1
  In  In18  1  0.16992614  -0.00805409  0.36979018  1
  In  In19  1  0.17509518  -0.01629071  0.88771039  1
  In  In20  1  0.17248220  0.34718350  0.37751662  1
  In  In21  1  0.16196778  0.32753615  0.87010196  1
  In  In22  1  0.16044994  0.66403204  0.36937069  1
  In  In23  1  0.17400138  0.67440927  0.87126556  1
  In  In24  1  0.50237493  0.00121782  0.36823076  1
  In  In25  1  0.49827219  0.01295337  0.88799460  1
  In  In26  1  0.49760257  0.31884097  0.37500288  1
  In  In27  1  0.49357609  0.32497573  0.86809280  1
  In  In28  1  0.50713803  0.67326465  0.36039650  1
  In  In29  1  0.49788484  0.68079753  0.87763883  1
  In  In30  1  0.82289886  0.00997738  0.38022632  1
  In  In31  1  0.83071500  -0.01451746  0.88256240  1
  In  In32  1  0.82298045  0.32307553  0.36998191  1
  In  In33  1  0.83833499  0.34340545  0.85432412  1
  In  In34  1  0.83656078  0.66887276  0.37176546  1
  In  In35  1  0.84195976  0.67580844  0.86941179  1
  In  In36  1  -0.01748017  0.16414560  0.37378237  1
  In  In37  1  0.00420917  0.17969863  0.87285587  1
  In  In38  1  0.00991254  0.50602905  0.37167440  1
  In  In39  1  -0.00139410  0.50399958  0.86465637  1
  In  In40  1  -0.00102410  0.81887727  0.37223305  1
  In  In41  1  0.00524729  0.83072038  0.88053502  1
  In  In42  1  0.34504381  0.16408366  0.37855003  1
  In  In43  1  0.33563409  0.16212252  0.87483980  1
  In  In44  1  0.31959067  0.50010083  0.38035184  1
  In  In45  1  0.33364899  0.49857704  0.86754990  1
  In  In46  1  0.33951669  0.83836927  0.36516192  1
  In  In47  1  0.33449838  0.83689985  0.87529757  1
  In  In48  1  0.66418777  0.16321359  0.37181161  1
  In  In49  1  0.65886488  0.16724296  0.87844837  1
  In  In50  1  0.66689422  0.50311388  0.36302170  1
  In  In51  1  0.67935546  0.49604163  0.86791194  1
  In  In52  1  0.67101465  0.83643282  0.36751013  1
  In  In53  1  0.66186460  0.83946381  0.89564790  1
  In  In54  1  0.16977797  0.00986986  0.11392965  1
  In  In55  1  0.17473417  0.00616308  0.62987205  1
  In  In56  1  0.17044950  0.31852991  0.12346106  1
  In  In57  1  0.15664586  0.34223245  0.63152161  1
  In  In58  1  0.15944162  0.67553061  0.13054528  1
  In  In59  1  0.17187080  0.65931419  0.62999041  1
  In  In60  1  0.50530860  -0.00348951  0.12229089  1
  In  In61  1  0.48323517  0.00615315  0.62298280  1
  In  In62  1  0.51475481  0.33409237  0.12553592  1
  In  In63  1  0.50895870  0.31991066  0.63005799  1
  In  In64  1  0.48921697  0.67875586  0.13756246  1
  In  In65  1  0.49722492  0.65899925  0.62557770  1
  In  In66  1  0.83358474  -0.01592590  0.11732818  1
  In  In67  1  0.82471405  -0.00597879  0.61830604  1
  In  In68  1  0.82795845  0.33977506  0.13238015  1
  In  In69  1  0.84336846  0.32635489  0.63175255  1
  In  In70  1  0.82560384  0.67688853  0.13497532  1
  In  In71  1  0.83280501  0.67868973  0.62599661  1
  In  In72  1  0.66469492  -0.00050459  0.75440516  1
  In  In73  1  0.16525704  0.83289645  0.50518037  1
  In  In74  1  0.50413836  0.50216564  0.00587095  1
  In  In75  1  0.83245577  0.49719308  0.49664398  1
  In  In76  1  -0.00224657  -0.00270045  0.24061411  1
  In  In77  1  0.83391382  0.50388345  -0.00872963  1
  In  In78  1  0.33470283  0.33469635  0.25113261  1
  In  In79  1  0.50495955  0.83999809  0.49121977  1
  In  In80  1  0.16823895  0.49920660  -0.00944492  1
  In  In81  1  0.83342691  0.16486568  -0.00278232  1
  In  In82  1  0.66415293  0.66491253  0.75005257  1
  In  In83  1  0.00606159  -0.00246344  0.75880827  1
  In  In84  1  0.16488857  0.17005640  0.50441497  1
  In  In85  1  0.49743498  0.50042249  0.50033904  1
  Cu  Cu86  1  -0.01015142  -0.00409956  0.50154821  1
  Cu  Cu87  1  -0.00517568  0.67576461  0.00144922  1
  Cu  Cu88  1  0.17497078  0.83206953  0.24609126  1
  Cu  Cu89  1  0.50215095  0.83650858  0.24381267  1
  Cu  Cu90  1  -0.00208777  0.33392133  0.50439365  1
  Cu  Cu91  1  0.16643907  0.50298652  0.25176727  1
  Cu  Cu92  1  0.66308015  0.00116640  0.49434502  1
  Cu  Cu93  1  0.33948687  -0.00272048  0.00059700  1
  Cu  Cu94  1  0.16647244  0.16656520  0.24431516  1
  Cu  Cu95  1  0.16480026  0.82819240  0.75698987  1
  Cu  Cu96  1  0.49317447  0.83731432  0.75330185  1
  Cu  Cu97  1  0.32883534  0.67465993  0.00085726  1
  Cu  Cu98  1  0.17808735  0.16825671  0.74988453  1
  Cu  Cu99  1  0.83599722  0.83304185  0.24746561  1
  Cu  Cu100  1  0.49443734  0.49648999  0.74572348  1
  Cu  Cu101  1  0.66910387  0.33381637  -0.00086887  1
  Cu  Cu102  1  0.49893786  0.16205166  0.24947072  1
  Cu  Cu103  1  0.83636254  0.16316328  0.74706875  1
  Cu  Cu104  1  0.16703338  0.50182494  0.75074567  1
  Cu  Cu105  1  0.66785605  0.67478662  0.00989069  1
  Cu  Cu106  1  0.82457126  0.16842785  0.24953346  1
  Cu  Cu107  1  0.00696627  0.32884955  -0.00051995  1
  Cu  Cu108  1  0.33155963  0.33410067  0.50360336  1
  Cu  Cu109  1  0.34075330  0.31710718  -0.00041658  1
  Cu  Cu110  1  0.84286022  0.49781623  0.25554901  1
  Cu  Cu111  1  -0.00102166  0.66220338  0.49534162  1
  Cu  Cu112  1  0.66637233  0.32702554  0.49703420  1
  Cu  Cu113  1  0.33351096  0.67073173  0.50167985  1
  Cu  Cu114  1  0.50015018  0.16540504  0.75462726  1
  Se  Se115  1  0.07720013  0.08637338  0.04977307  1
  Se  Se116  1  0.07273279  0.07361707  0.56140799  1
  Se  Se117  1  0.08073114  0.41603901  0.05893516  1
  Se  Se118  1  0.08344382  0.41826877  0.55327283  1
  Se  Se119  1  0.08873277  0.75045111  0.05169869  1
  Se  Se120  1  0.07385625  0.74205368  0.56191556  1
  Se  Se121  1  0.42349305  0.08244883  0.05244522  1
  Se  Se122  1  0.41683112  0.09002940  0.54861810  1
  Se  Se123  1  0.40878361  0.40754656  0.06039786  1
  Se  Se124  1  0.41263412  0.41291470  0.56540852  1
  Se  Se125  1  0.41795598  0.74858362  0.05618062  1
  Se  Se126  1  0.41365788  0.75233581  0.55886886  1
  Se  Se127  1  0.74555479  0.08479094  0.06352896  1
  Se  Se128  1  0.74949180  0.08152043  0.54983625  1
  Se  Se129  1  0.74260315  0.42097531  0.05817190  1
  Se  Se130  1  0.74344857  0.40760728  0.55885971  1
  Se  Se131  1  0.75721045  0.75632541  0.05768811  1
  Se  Se132  1  0.75342566  0.74588406  0.54892949  1
  Se  Se133  1  0.24971827  0.24123743  0.05170279  1
  Se  Se134  1  0.25418949  0.25502195  0.56761454  1
  Se  Se135  1  0.25315059  0.58635034  0.05785609  1
  Se  Se136  1  0.24983352  0.58608355  0.55264252  1
  Se  Se137  1  0.25187284  0.91655434  0.05294308  1
  Se  Se138  1  0.25929157  0.92747131  0.55592188  1
  Se  Se139  1  0.58328360  0.25157947  0.04937984  1
  Se  Se140  1  0.57819721  0.24662595  0.54896458  1
  Se  Se141  1  0.59153870  0.59021471  0.06829343  1
  Se  Se142  1  0.59237917  0.59660559  0.55168846  1
  Se  Se143  1  0.57670845  0.90607265  0.05286755  1
  Se  Se144  1  0.58952716  0.92394954  0.56260802  1
  Se  Se145  1  0.91800700  0.26005325  0.06027232  1
  Se  Se146  1  0.91295391  0.24805844  0.55225663  1
  Se  Se147  1  0.91795347  0.58993758  0.05927267  1
  Se  Se148  1  0.92168387  0.58351925  0.55991430  1
  Se  Se149  1  0.93453590  0.93244249  0.04856559  1
  Se  Se150  1  0.91195278  0.90850137  0.55484282  1
  Se  Se151  1  0.07620160  0.25494870  0.43906468  1
  Se  Se152  1  0.09131574  0.24717390  0.94762948  1
  Se  Se153  1  0.08917609  0.58318071  0.44620227  1
  Se  Se154  1  0.07171586  0.59289577  0.94017626  1
  Se  Se155  1  0.07346945  0.92135915  0.44114630  1
  Se  Se156  1  0.07285501  0.92129137  0.95071828  1
  Se  Se157  1  0.41475382  0.25127307  0.45131010  1
  Se  Se158  1  0.42630986  0.24072432  0.94396012  1
  Se  Se159  1  0.41438500  0.59540418  0.43817878  1
  Se  Se160  1  0.40836362  0.58711303  0.94417880  1
  Se  Se161  1  0.40577318  0.92780270  0.44105886  1
  Se  Se162  1  0.42075777  0.91277585  0.94628438  1
  Se  Se163  1  0.74906308  0.24262658  0.44407921  1
  Se  Se164  1  0.75454347  0.26508075  0.93530531  1
  Se  Se165  1  0.74225070  0.58660921  0.43868631  1
  Se  Se166  1  0.73805328  0.59788882  0.94021677  1
  Se  Se167  1  0.74670515  0.91487894  0.44384843  1
  Se  Se168  1  0.74199992  0.92945807  0.95799753  1
  Se  Se169  1  0.24911099  0.07869226  0.44163528  1
  Se  Se170  1  0.25523263  0.08054182  0.94653384  1
  Se  Se171  1  0.24665455  0.41986040  0.45601527  1
  Se  Se172  1  0.26397782  0.40374067  0.94123940  1
  Se  Se173  1  0.25569060  0.75071272  0.43869189  1
  Se  Se174  1  0.24736448  0.75590055  0.94521588  1
  Se  Se175  1  0.57893421  0.08286152  0.44155836  1
  Se  Se176  1  0.60035127  0.07701877  0.95132840  1
  Se  Se177  1  0.58900278  0.41222207  0.43903258  1
  Se  Se178  1  0.58866229  0.41543987  0.93854756  1
  Se  Se179  1  0.59166293  0.74272476  0.43833737  1
  Se  Se180  1  0.57639967  0.74858202  0.95577629  1
  Se  Se181  1  0.91208532  0.08508976  0.44994141  1
  Se  Se182  1  0.92544308  0.08087259  0.93560627  1
  Se  Se183  1  0.92239939  0.40862774  0.43589220  1
  Se  Se184  1  0.92597711  0.40668042  0.93839734  1
  Se  Se185  1  0.91555829  0.74832784  0.44636888  1
  Se  Se186  1  0.90956010  0.75544266  0.94722209  1
  Se  Se187  1  0.24402428  0.24256447  0.31131482  1
  Se  Se188  1  0.25730525  0.25197577  0.80651876  1
  Se  Se189  1  0.25219367  0.58428433  0.30452041  1
  Se  Se190  1  0.25105435  0.58557813  0.80366707  1
  Se  Se191  1  0.25395535  0.92051367  0.29765722  1
  Se  Se192  1  0.24785705  0.91676365  0.80538341  1
  Se  Se193  1  0.58151540  0.24737215  0.30203999  1
  Se  Se194  1  0.58814771  0.24881276  0.80309380  1
  Se  Se195  1  0.58297843  0.58276333  0.29630411  1
  Se  Se196  1  0.57074710  0.57616571  0.81146730  1
  Se  Se197  1  0.58473408  0.91781420  0.30097532  1
  Se  Se198  1  0.57596705  0.91056069  0.81533801  1
  Se  Se199  1  0.91411477  0.24885115  0.29999515  1
  Se  Se200  1  0.92248576  0.24854456  0.79663680  1
  Se  Se201  1  0.92342244  0.58706411  0.30529101  1
  Se  Se202  1  0.88974392  0.56511679  0.80837729  1
  Se  Se203  1  0.91220521  0.91525770  0.31043204  1
  Se  Se204  1  0.90869570  0.90576472  0.80752615  1
  Se  Se205  1  0.08462521  0.08803142  0.30691535  1
  Se  Se206  1  0.09904734  0.08867413  0.81319949  1
  Se  Se207  1  0.08640778  0.41470478  0.30353709  1
  Se  Se208  1  0.08430336  0.41645145  0.80312021  1
  Se  Se209  1  0.08686888  0.75264521  0.29901663  1
  Se  Se210  1  0.07694255  0.74636292  0.80633834  1
  Se  Se211  1  0.41184598  0.08183839  0.30180311  1
  Se  Se212  1  0.42061459  0.07748406  0.80684471  1
  Se  Se213  1  0.41875392  0.42230058  0.31610568  1
  Se  Se214  1  0.41397990  0.41240726  0.80111889  1
  Se  Se215  1  0.41659155  0.75271748  0.29671947  1
  Se  Se216  1  0.41216286  0.74881799  0.80398668  1
  Se  Se217  1  0.74620206  0.07934602  0.30150171  1
  Se  Se218  1  0.76070870  0.08770156  0.81238417  1
  Se  Se219  1  0.75192160  0.41468238  0.30156045  1
  Se  Se220  1  0.73883658  0.41055159  0.79220333  1
  Se  Se221  1  0.75304028  0.74881045  0.30144449  1
  Se  Se222  1  0.73980254  0.76150448  0.81451588  1
  Se  Se223  1  0.24712205  0.07904481  0.19443547  1
  Se  Se224  1  0.25871794  0.07934138  0.70103906  1
  Se  Se225  1  0.24448990  0.42432633  0.18757839  1
  Se  Se226  1  0.24995766  0.41665324  0.69791529  1
  Se  Se227  1  0.25800129  0.74668082  0.19374949  1
  Se  Se228  1  0.24849838  0.74835337  0.69846571  1
  Se  Se229  1  0.58362618  0.08130840  0.19481881  1
  Se  Se230  1  0.57945130  0.08793704  0.68983896  1
  Se  Se231  1  0.57824481  0.41027885  0.20503450  1
  Se  Se232  1  0.58225532  0.41527254  0.69596274  1
  Se  Se233  1  0.59102141  0.75193631  0.19649139  1
  Se  Se234  1  0.57466583  0.76108063  0.69019103  1
  Se  Se235  1  0.90561603  0.09182466  0.18613483  1
  Se  Se236  1  0.91514132  0.07926410  0.68915326  1
  Se  Se237  1  0.92105548  0.41324132  0.19877541  1
  Se  Se238  1  0.91619313  0.41583186  0.69794323  1
  Se  Se239  1  0.92479597  0.75383464  0.19506819  1
  Se  Se240  1  0.91424936  0.74176879  0.70450308  1
  Se  Se241  1  0.08224232  0.25470493  0.19858996  1
  Se  Se242  1  0.08675019  0.24634489  0.69920238  1
  Se  Se243  1  0.08254598  0.58633875  0.19795295  1
  Se  Se244  1  0.08172273  0.58386047  0.69750048  1
  Se  Se245  1  0.09249574  0.91008276  0.18455954  1
  Se  Se246  1  0.08969790  0.90718640  0.69010841  1
  Se  Se247  1  0.41834147  0.24288167  0.18780360  1
  Se  Se248  1  0.41733539  0.24970671  0.70022662  1
  Se  Se249  1  0.43172772  0.57433819  0.20325827  1
  Se  Se250  1  0.41345882  0.58667707  0.69742595  1
  Se  Se251  1  0.41676803  0.92045080  0.19301163  1
  Se  Se252  1  0.41399817  0.92138674  0.69757895  1
  Se  Se253  1  0.74302601  0.25536452  0.19699531  1
  Se  Se254  1  0.75015532  0.24257376  0.69268733  1
  Se  Se255  1  0.75783809  0.57972005  0.20081634  1
  Se  Se256  1  0.75133294  0.57717747  0.68723564  1
  Se  Se257  1  0.75340130  0.91807411  0.19566844  1
  Se  Se258  1  0.75658703  0.90789411  0.69715881  1
