# generated using pymatgen
data_In86Cu29Se144
_symmetry_space_group_name_H-M   'P 1'
_cell_length_a   17.58689654
_cell_length_b   17.58654250
_cell_length_c   23.44461201
_cell_angle_alpha   90.00081667
_cell_angle_beta   90.00177946
_cell_angle_gamma   90.01207892
_symmetry_Int_Tables_number   1
_chemical_formula_structural   In86Cu29Se144
_chemical_formula_sum   'In86 Cu29 Se144'
_cell_volume   7251.24726671
_cell_formula_units_Z   1
loop_
 _symmetry_equiv_pos_site_id
 _symmetry_equiv_pos_as_xyz
  1  'x, y, z'
loop_
 _atom_site_type_symbol
 _atom_site_label
 _atom_site_symmetry_multiplicity
 _atom_site_fract_x
 _atom_site_fract_y
 _atom_site_fract_z
 _atom_site_occupancy
  In  In0  1  0.01719322  0.16707305  0.11844421  1
  In  In1  1  0.00554402  0.16754491  0.63401649  1
  In  In2  1  -0.01400522  0.50090119  0.12196271  1
  In  In3  1  0.00339052  0.49335915  0.63665571  1
  In  In4  1  0.00648374  0.82307451  0.12017220  1
  In  In5  1  0.00199792  0.83234958  0.62681202  1
  In  In6  1  0.34180218  0.17394220  0.11119957  1
  In  In7  1  0.33700129  0.16571261  0.62999487  1
  In  In8  1  0.34615530  0.49747070  0.13475109  1
  In  In9  1  0.35377590  0.49990427  0.64902792  1
  In  In10  1  0.33394625  0.82336991  0.12183694  1
  In  In11  1  0.33236837  0.83929833  0.63526108  1
  In  In12  1  0.66083859  0.17479937  0.11986483  1
  In  In13  1  0.64866751  0.16725017  0.62487130  1
  In  In14  1  0.66677380  0.50949086  0.11783435  1
  In  In15  1  0.65284857  0.52332938  0.62686845  1
  In  In16  1  0.65432905  0.83034141  0.13224454  1
  In  In17  1  0.67448101  0.82259958  0.63475302  1
  In  In18  1  0.15966002  -0.00402446  0.38225135  1
  In  In19  1  0.17141856  -0.00119606  0.87435444  1
  In  In20  1  0.17741987  0.34221627  0.36451622  1
  In  In21  1  0.16548053  0.32658163  0.87354757  1
  In  In22  1  0.17671950  0.66740172  0.37966601  1
  In  In23  1  0.17904939  0.68148388  0.86979322  1
  In  In24  1  0.50923521  0.00135868  0.38105308  1
  In  In25  1  0.49951531  -0.00333126  0.87101518  1
  In  In26  1  0.47787564  0.35198698  0.39409361  1
  In  In27  1  0.48603529  0.34530402  0.87714281  1
  In  In28  1  0.48979210  0.65956944  0.35931578  1
  In  In29  1  0.49960249  0.66044417  0.87147732  1
  In  In30  1  0.82149305  -0.01301538  0.38102627  1
  In  In31  1  0.82039635  -0.01477451  0.86426035  1
  In  In32  1  0.84050872  0.32697302  0.37195520  1
  In  In33  1  0.84316766  0.33758710  0.87361396  1
  In  In34  1  0.82163675  0.68108840  0.37890189  1
  In  In35  1  0.82213080  0.65692608  0.87157353  1
  In  In36  1  -0.00064684  0.16997472  0.37547960  1
  In  In37  1  0.01016218  0.17035387  0.87164733  1
  In  In38  1  0.01244079  0.49659097  0.37161762  1
  In  In39  1  -0.00521282  0.49362740  0.87187181  1
  In  In40  1  -0.00357272  0.83112446  0.38727521  1
  In  In41  1  0.00875645  0.84238069  0.86803467  1
  In  In42  1  0.34010482  0.17810942  0.37402889  1
  In  In43  1  0.33414243  0.16579453  0.87489479  1
  In  In44  1  0.34029703  0.50470233  0.36468965  1
  In  In45  1  0.35470558  0.51391847  0.85896497  1
  In  In46  1  0.33857695  0.81389865  0.38040218  1
  In  In47  1  0.34042956  0.82825555  0.86932125  1
  In  In48  1  0.65865875  0.15643150  0.37793845  1
  In  In49  1  0.65911871  0.15110994  0.87141175  1
  In  In50  1  0.64390604  0.50757988  0.37486050  1
  In  In51  1  0.64966060  0.51491099  0.88418842  1
  In  In52  1  0.66993491  0.82763672  0.37465089  1
  In  In53  1  0.62950215  0.80493339  0.83835520  1
  In  In54  1  0.16736641  -0.00236713  0.11154911  1
  In  In55  1  0.17640360  -0.00833677  0.63473969  1
  In  In56  1  0.18017324  0.33044015  0.12476823  1
  In  In57  1  0.17848195  0.33066289  0.63111923  1
  In  In58  1  0.17235440  0.68085095  0.11729541  1
  In  In59  1  0.15965382  0.66690781  0.63208383  1
  In  In60  1  0.49141064  -0.00813421  0.11428210  1
  In  In61  1  0.48601133  0.00111526  0.64297638  1
  In  In62  1  0.49405658  0.33226115  0.11777639  1
  In  In63  1  0.48791648  0.33605128  0.61981002  1
  In  In64  1  0.50140364  0.66812927  0.12579210  1
  In  In65  1  0.51615698  0.66702320  0.65013946  1
  In  In66  1  0.82238161  0.00053620  0.12075890  1
  In  In67  1  0.84781490  -0.00777088  0.63285948  1
  In  In68  1  0.82645541  0.34880785  0.12541505  1
  In  In69  1  0.84227878  0.33880193  0.62614947  1
  In  In70  1  0.83665177  0.65756764  0.12470978  1
  In  In71  1  0.82007446  0.68174560  0.63239330  1
  In  In72  1  0.82820146  0.16179267  0.49377359  1
  In  In73  1  0.00002671  0.66251143  0.24727326  1
  In  In74  1  0.17702852  0.50509870  0.49705202  1
  In  In75  1  0.50216315  0.82752466  0.50721888  1
  In  In76  1  0.66579950  -0.00560096  0.25464834  1
  In  In77  1  0.83471375  0.17233742  -0.01241802  1
  In  In78  1  -0.00174917  0.00112039  0.25922542  1
  In  In79  1  0.33291214  -0.00698496  0.24007871  1
  In  In80  1  0.83182736  0.83243303  -0.00316710  1
  In  In81  1  0.82733367  0.50432552  0.50296661  1
  In  In82  1  0.17730942  0.16490035  0.51061120  1
  In  In83  1  0.65905230  0.33779787  0.25009310  1
  In  In84  1  0.66916051  0.33495808  0.74395994  1
  In  In85  1  0.17170747  0.49989625  -0.00692111  1
  Cu  Cu86  1  0.84653235  0.17029170  0.24922924  1
  Cu  Cu87  1  0.83954433  0.16539739  0.75468425  1
  Cu  Cu88  1  0.00485343  0.00039372  -0.00845973  1
  Cu  Cu89  1  0.49711529  0.16746646  0.24456872  1
  Cu  Cu90  1  -0.00193239  0.33622557  -0.00438449  1
  Cu  Cu91  1  0.65806898  0.33590586  -0.00051447  1
  Cu  Cu92  1  0.00964920  0.33105826  0.49988315  1
  Cu  Cu93  1  0.33373745  0.66655668  0.50341209  1
  Cu  Cu94  1  0.84093006  0.83194265  0.74897600  1
  Cu  Cu95  1  0.00139996  -0.01484563  0.50610176  1
  Cu  Cu96  1  -0.00743477  0.67157516  0.51089773  1
  Cu  Cu97  1  0.65664134  0.33970079  0.50361641  1
  Cu  Cu98  1  0.16347727  0.49590072  0.75467226  1
  Cu  Cu99  1  0.16585502  0.49570243  0.24605483  1
  Cu  Cu100  1  0.34208970  0.66817186  -0.00498587  1
  Cu  Cu101  1  0.83542993  0.49650155  0.24954938  1
  Cu  Cu102  1  0.16284644  0.83592421  0.75219675  1
  Cu  Cu103  1  0.16943966  0.16586321  0.75215628  1
  Cu  Cu104  1  0.65888621  0.67058580  -0.00503763  1
  Cu  Cu105  1  0.00262203  0.66847618  -0.00195731  1
  Cu  Cu106  1  0.33301623  0.33540611  -0.00330141  1
  Cu  Cu107  1  0.65596850  -0.00631441  -0.00689608  1
  Cu  Cu108  1  0.83514468  0.49832707  0.75051499  1
  Cu  Cu109  1  0.33386161  -0.00463185  -0.00845911  1
  Cu  Cu110  1  0.16724352  0.83573923  0.24979387  1
  Cu  Cu111  1  0.66451591  -0.00511707  0.50702034  1
  Cu  Cu112  1  0.17421310  0.17761892  0.24300222  1
  Cu  Cu113  1  0.33580919  -0.00169941  0.51271971  1
  Cu  Cu114  1  0.49615169  0.16880284  0.75149187  1
  Se  Se115  1  0.08740558  0.08488668  0.04423985  1
  Se  Se116  1  0.07831902  0.07437156  0.56140667  1
  Se  Se117  1  0.07992329  0.41482014  0.05756836  1
  Se  Se118  1  0.08589440  0.41325848  0.55931086  1
  Se  Se119  1  0.08799864  0.75517745  0.04439233  1
  Se  Se120  1  0.08608951  0.74960056  0.55751228  1
  Se  Se121  1  0.41626589  0.07992248  0.04685359  1
  Se  Se122  1  0.42058793  0.08097810  0.56259828  1
  Se  Se123  1  0.41163628  0.42092552  0.05282674  1
  Se  Se124  1  0.41588982  0.43846064  0.56126839  1
  Se  Se125  1  0.42328649  0.75128688  0.05180680  1
  Se  Se126  1  0.41161809  0.74224331  0.56856375  1
  Se  Se127  1  0.74007061  0.07978291  0.04754841  1
  Se  Se128  1  0.74729855  0.07836266  0.56382532  1
  Se  Se129  1  0.74529023  0.41776995  0.05074073  1
  Se  Se130  1  0.73929464  0.41292795  0.56514483  1
  Se  Se131  1  0.74309155  0.74382507  0.05898453  1
  Se  Se132  1  0.73824545  0.74430763  0.55485399  1
  Se  Se133  1  0.24734545  0.25073762  0.04658412  1
  Se  Se134  1  0.26930081  0.26447444  0.55594541  1
  Se  Se135  1  0.25888667  0.58869607  0.05566139  1
  Se  Se136  1  0.25854459  0.58599512  0.56744388  1
  Se  Se137  1  0.25659296  0.91266833  0.05248855  1
  Se  Se138  1  0.25017609  0.91265151  0.55890019  1
  Se  Se139  1  0.57683912  0.24764226  0.04909146  1
  Se  Se140  1  0.57606947  0.25247619  0.55441654  1
  Se  Se141  1  0.57785597  0.58594008  0.05042151  1
  Se  Se142  1  0.56973648  0.60234224  0.55997957  1
  Se  Se143  1  0.58477655  0.90945309  0.05464993  1
  Se  Se144  1  0.58349379  0.92095003  0.57092152  1
  Se  Se145  1  0.91728341  0.25639792  0.05856551  1
  Se  Se146  1  0.92442314  0.24959955  0.55444045  1
  Se  Se147  1  0.91657698  0.58584179  0.04812653  1
  Se  Se148  1  0.91995366  0.58350151  0.56825585  1
  Se  Se149  1  0.92442378  0.92598860  0.05693688  1
  Se  Se150  1  0.91101283  0.90745723  0.55577886  1
  Se  Se151  1  0.09126120  0.25336230  0.44081624  1
  Se  Se152  1  0.08283633  0.25065497  0.94762562  1
  Se  Se153  1  0.07190329  0.59392327  0.44637040  1
  Se  Se154  1  0.08148855  0.59109592  0.93485027  1
  Se  Se155  1  0.08924821  0.90764092  0.45236348  1
  Se  Se156  1  0.08914239  0.91298455  0.94429364  1
  Se  Se157  1  0.43118105  0.23349696  0.44786093  1
  Se  Se158  1  0.41682942  0.24987657  0.94465057  1
  Se  Se159  1  0.40992667  0.59074403  0.43875041  1
  Se  Se160  1  0.42098863  0.57829277  0.94501243  1
  Se  Se161  1  0.41062206  0.92036056  0.44489561  1
  Se  Se162  1  0.41935606  0.91235603  0.94047855  1
  Se  Se163  1  0.73701934  0.26252870  0.44129601  1
  Se  Se164  1  0.73604538  0.25979461  0.93393691  1
  Se  Se165  1  0.73613118  0.58974388  0.44343183  1
  Se  Se166  1  0.74827252  0.58371848  0.95033773  1
  Se  Se167  1  0.74232207  0.90898575  0.45217078  1
  Se  Se168  1  0.73530461  0.91044521  0.93638650  1
  Se  Se169  1  0.26108644  0.07553670  0.44352812  1
  Se  Se170  1  0.24987630  0.08395738  0.94469422  1
  Se  Se171  1  0.26316113  0.41029364  0.44060983  1
  Se  Se172  1  0.26307280  0.41714947  0.93093515  1
  Se  Se173  1  0.24733696  0.75128177  0.45414701  1
  Se  Se174  1  0.25693151  0.75354463  0.94588156  1
  Se  Se175  1  0.58357936  0.08180616  0.45516590  1
  Se  Se176  1  0.57468998  0.08404756  0.94595634  1
  Se  Se177  1  0.57647322  0.42795890  0.45319267  1
  Se  Se178  1  0.57435191  0.41978280  0.94742059  1
  Se  Se179  1  0.57648644  0.74204176  0.43495843  1
  Se  Se180  1  0.58103947  0.75277318  0.93620193  1
  Se  Se181  1  0.92762501  0.06745450  0.44159647  1
  Se  Se182  1  0.91681726  0.07173617  0.93291525  1
  Se  Se183  1  0.92508962  0.41264356  0.44427968  1
  Se  Se184  1  0.91275008  0.42186585  0.94877398  1
  Se  Se185  1  0.90989250  0.74845657  0.45208558  1
  Se  Se186  1  0.92181978  0.74596465  0.93470837  1
  Se  Se187  1  0.25925316  0.25272470  0.30060990  1
  Se  Se188  1  0.25295254  0.25003055  0.80453870  1
  Se  Se189  1  0.24051371  0.58123643  0.30469324  1
  Se  Se190  1  0.24573385  0.58225983  0.80465158  1
  Se  Se191  1  0.24608324  0.91343449  0.31228196  1
  Se  Se192  1  0.25168082  0.91409631  0.80528884  1
  Se  Se193  1  0.57607134  0.24177388  0.30947635  1
  Se  Se194  1  0.57903527  0.25043807  0.80921340  1
  Se  Se195  1  0.58719790  0.58783559  0.29470129  1
  Se  Se196  1  0.58814974  0.58514018  0.80124889  1
  Se  Se197  1  0.56956038  0.90503718  0.30833222  1
  Se  Se198  1  0.60748141  0.94216830  0.80649451  1
  Se  Se199  1  0.92828024  0.25384981  0.30157086  1
  Se  Se200  1  0.92047217  0.25106548  0.80584969  1
  Se  Se201  1  0.91042390  0.57808394  0.31373645  1
  Se  Se202  1  0.91608767  0.58290636  0.80517540  1
  Se  Se203  1  0.90791551  0.90428743  0.31042138  1
  Se  Se204  1  0.92134218  0.92038932  0.80010058  1
  Se  Se205  1  0.09965105  0.09583714  0.30700960  1
  Se  Se206  1  0.08630475  0.08092711  0.80462091  1
  Se  Se207  1  0.08129314  0.41248701  0.29793307  1
  Se  Se208  1  0.08087036  0.41054763  0.80673863  1
  Se  Se209  1  0.08587829  0.75563275  0.31044260  1
  Se  Se210  1  0.08094861  0.74713124  0.80230735  1
  Se  Se211  1  0.42251032  0.08121577  0.30536914  1
  Se  Se212  1  0.41466207  0.08268652  0.80444510  1
  Se  Se213  1  0.42016840  0.41024452  0.30456506  1
  Se  Se214  1  0.41841331  0.41308324  0.79464255  1
  Se  Se215  1  0.40384205  0.74826919  0.29746784  1
  Se  Se216  1  0.40250499  0.72707009  0.80176722  1
  Se  Se217  1  0.76325250  0.09161286  0.30858961  1
  Se  Se218  1  0.74922373  0.08383098  0.80035127  1
  Se  Se219  1  0.75355462  0.42248842  0.31387491  1
  Se  Se220  1  0.74980443  0.42389818  0.81169050  1
  Se  Se221  1  0.74728632  0.75029103  0.30095083  1
  Se  Se222  1  0.75564457  0.74718880  0.79910855  1
  Se  Se223  1  0.24473079  0.08887657  0.18350510  1
  Se  Se224  1  0.25407661  0.08354548  0.69843875  1
  Se  Se225  1  0.25441906  0.41468324  0.19616426  1
  Se  Se226  1  0.25162666  0.41804405  0.70141527  1
  Se  Se227  1  0.24765225  0.75156563  0.19597796  1
  Se  Se228  1  0.24371395  0.75248657  0.69760507  1
  Se  Se229  1  0.57884030  0.08428097  0.18801911  1
  Se  Se230  1  0.58266410  0.08551751  0.70109151  1
  Se  Se231  1  0.57551050  0.42485227  0.18597688  1
  Se  Se232  1  0.57546221  0.42429106  0.68981757  1
  Se  Se233  1  0.59818555  0.72956596  0.19853518  1
  Se  Se234  1  0.58376752  0.76812664  0.71300513  1
  Se  Se235  1  0.91585040  0.08630234  0.18601875  1
  Se  Se236  1  0.92335445  0.08306385  0.69995467  1
  Se  Se237  1  0.91898492  0.41412460  0.19711594  1
  Se  Se238  1  0.91916978  0.40884661  0.70342510  1
  Se  Se239  1  0.91115267  0.75854934  0.19140491  1
  Se  Se240  1  0.92244504  0.74598520  0.69603725  1
  Se  Se241  1  0.08472404  0.25474652  0.19080517  1
  Se  Se242  1  0.08884424  0.25326673  0.69798781  1
  Se  Se243  1  0.09192326  0.57819152  0.18277066  1
  Se  Se244  1  0.08095549  0.58186175  0.70242043  1
  Se  Se245  1  0.08671363  0.91553324  0.19127947  1
  Se  Se246  1  0.07919969  0.91882528  0.69765670  1
  Se  Se247  1  0.41508658  0.24895606  0.18953062  1
  Se  Se248  1  0.41733698  0.25426981  0.69635364  1
  Se  Se249  1  0.39994170  0.60721986  0.19382940  1
  Se  Se250  1  0.40214353  0.61472315  0.70908105  1
  Se  Se251  1  0.43019617  0.90121871  0.19176624  1
  Se  Se252  1  0.41569877  0.90943060  0.70982599  1
  Se  Se253  1  0.75567460  0.24337340  0.19267628  1
  Se  Se254  1  0.76041267  0.23871385  0.68705370  1
  Se  Se255  1  0.75410110  0.57695134  0.19350269  1
  Se  Se256  1  0.75200510  0.58057869  0.69623466  1
  Se  Se257  1  0.76012378  0.90882061  0.19401815  1
  Se  Se258  1  0.75523772  0.91633535  0.69748518  1
