# generated using pymatgen
data_In86Cu29Se144
_symmetry_space_group_name_H-M   'P 1'
_cell_length_a   17.59444963
_cell_length_b   17.58833586
_cell_length_c   23.45622913
_cell_angle_alpha   90.01851720
_cell_angle_beta   90.00379641
_cell_angle_gamma   89.99067072
_symmetry_Int_Tables_number   1
_chemical_formula_structural   In86Cu29Se144
_chemical_formula_sum   'In86 Cu29 Se144'
_cell_volume   7258.69590192
_cell_formula_units_Z   1
loop_
 _symmetry_equiv_pos_site_id
 _symmetry_equiv_pos_as_xyz
  1  'x, y, z'
loop_
 _atom_site_type_symbol
 _atom_site_label
 _atom_site_symmetry_multiplicity
 _atom_site_fract_x
 _atom_site_fract_y
 _atom_site_fract_z
 _atom_site_occupancy
  In  In0  1  -0.01063268  0.15285682  0.11570053  1
  In  In1  1  -0.01673191  0.16841554  0.62349717  1
  In  In2  1  -0.00511977  0.50353373  0.12233745  1
  In  In3  1  -0.00758775  0.50812610  0.62842524  1
  In  In4  1  0.00283869  0.84207313  0.11875020  1
  In  In5  1  0.00076205  0.83333566  0.62429338  1
  In  In6  1  0.32125238  0.15972842  0.11769443  1
  In  In7  1  0.33794848  0.16242845  0.63553263  1
  In  In8  1  0.35315281  0.50058239  0.11644761  1
  In  In9  1  0.31468883  0.51392041  0.64555620  1
  In  In10  1  0.32995012  0.83879074  0.12945312  1
  In  In11  1  0.32588232  0.84381021  0.63243127  1
  In  In12  1  0.67764504  0.14497584  0.14302160  1
  In  In13  1  0.66749201  0.15588433  0.62028329  1
  In  In14  1  0.65355802  0.50643589  0.13412104  1
  In  In15  1  0.67673926  0.51197006  0.61929527  1
  In  In16  1  0.67348364  0.83133204  0.13362632  1
  In  In17  1  0.67308770  0.82729674  0.63114868  1
  In  In18  1  0.15513602  -0.00477167  0.36970713  1
  In  In19  1  0.16439431  -0.00317250  0.87730732  1
  In  In20  1  0.17247368  0.34326408  0.37582293  1
  In  In21  1  0.16787214  0.31820024  0.87507321  1
  In  In22  1  0.18397269  0.67644832  0.37159212  1
  In  In23  1  0.18528579  0.68452793  0.86556734  1
  In  In24  1  0.51174462  -0.00278036  0.34577726  1
  In  In25  1  0.49668439  -0.01771115  0.85743430  1
  In  In26  1  0.51650815  0.32603113  0.37467352  1
  In  In27  1  0.50493593  0.34967204  0.88329329  1
  In  In28  1  0.51414282  0.69144146  0.35402417  1
  In  In29  1  0.49122224  0.66530911  0.86835802  1
  In  In30  1  0.84007758  -0.00473248  0.37586851  1
  In  In31  1  0.83357353  -0.00390171  0.87459542  1
  In  In32  1  0.80964700  0.34093869  0.39063255  1
  In  In33  1  0.82345920  0.32769762  0.87662934  1
  In  In34  1  0.82432561  0.67817896  0.38406359  1
  In  In35  1  0.84646852  0.67399162  0.86289676  1
  In  In36  1  -0.01003529  0.14626848  0.37114167  1
  In  In37  1  0.00843094  0.15122913  0.88141860  1
  In  In38  1  -0.00678435  0.49003350  0.37905828  1
  In  In39  1  -0.00482817  0.50523046  0.86775643  1
  In  In40  1  -0.01036457  0.84549811  0.38830547  1
  In  In41  1  -0.00122316  0.83674416  0.87490064  1
  In  In42  1  0.35071983  0.16092729  0.37332494  1
  In  In43  1  0.32684633  0.15018075  0.87230585  1
  In  In44  1  0.32785413  0.51425222  0.37886832  1
  In  In45  1  0.34875039  0.52168009  0.86352444  1
  In  In46  1  0.33071338  0.83574645  0.37194394  1
  In  In47  1  0.32555650  0.82179213  0.87283944  1
  In  In48  1  0.67216838  0.17062813  0.36518465  1
  In  In49  1  0.67765936  0.15790011  0.88234546  1
  In  In50  1  0.66850105  0.51010650  0.37484358  1
  In  In51  1  0.65426684  0.50508268  0.87868417  1
  In  In52  1  0.69658762  0.85463635  0.34511163  1
  In  In53  1  0.67667344  0.84237919  0.86590330  1
  In  In54  1  0.16405328  -0.00459597  0.12205934  1
  In  In55  1  0.17470346  -0.01252121  0.62878727  1
  In  In56  1  0.18394156  0.32827347  0.11875311  1
  In  In57  1  0.17344932  0.34467220  0.62981390  1
  In  In58  1  0.16834578  0.68710083  0.11432725  1
  In  In59  1  0.15295008  0.67558701  0.63611338  1
  In  In60  1  0.50485146  -0.01365825  0.14342820  1
  In  In61  1  0.50457424  -0.00837271  0.64300683  1
  In  In62  1  0.50112646  0.33968500  0.12373034  1
  In  In63  1  0.49597944  0.32633903  0.62591791  1
  In  In64  1  0.50842461  0.66896324  0.13162983  1
  In  In65  1  0.49855896  0.67943334  0.64068575  1
  In  In66  1  0.83058423  -0.00113599  0.12594383  1
  In  In67  1  0.83826455  -0.00017930  0.62375308  1
  In  In68  1  0.83412147  0.31583071  0.12749282  1
  In  In69  1  0.81926470  0.32892346  0.61135586  1
  In  In70  1  0.81607383  0.67404531  0.12850888  1
  In  In71  1  0.83419653  0.67190354  0.62396855  1
  In  In72  1  0.50710267  0.83771858  0.49451475  1
  In  In73  1  0.50905423  0.16183049  0.49693304  1
  In  In74  1  0.83045968  0.49962011  -0.00298943  1
  In  In75  1  -0.00555923  0.67397526  0.24865125  1
  In  In76  1  0.49589093  0.50414053  0.49620625  1
  In  In77  1  0.33975993  0.32741119  0.25299289  1
  In  In78  1  0.16892342  0.49830930  -0.00912968  1
  In  In79  1  0.00058859  0.32437410  0.25053828  1
  In  In80  1  0.49924406  0.82750873  0.00213334  1
  In  In81  1  0.50615782  0.16198766  0.00687697  1
  In  In82  1  0.00120142  0.33008414  0.74656716  1
  In  In83  1  0.16161552  0.16459899  0.49404111  1
  In  In84  1  0.15425581  0.51143576  0.51217473  1
  In  In85  1  0.66284759  0.33600692  0.74823063  1
  Cu  Cu86  1  0.49911061  0.49869146  0.24973841  1
  Cu  Cu87  1  0.00328351  0.32468446  -0.00016825  1
  Cu  Cu88  1  0.16089389  0.83672123  0.75350710  1
  Cu  Cu89  1  0.67135255  0.33123114  0.00518749  1
  Cu  Cu90  1  0.66932966  0.67051572  0.50063103  1
  Cu  Cu91  1  -0.00468621  -0.00044031  -0.00113922  1
  Cu  Cu92  1  0.33784071  0.32800601  -0.00373179  1
  Cu  Cu93  1  0.16648923  0.15954808  0.24374059  1
  Cu  Cu94  1  0.17189565  0.51120487  0.24493764  1
  Cu  Cu95  1  0.83984225  0.83563810  0.74628705  1
  Cu  Cu96  1  0.83545915  0.16238574  0.25150941  1
  Cu  Cu97  1  0.33949176  -0.00305038  0.50263008  1
  Cu  Cu98  1  0.83509999  0.15840660  0.75335792  1
  Cu  Cu99  1  0.33072366  -0.00632738  0.00311718  1
  Cu  Cu100  1  0.00077470  0.66779669  0.50518746  1
  Cu  Cu101  1  0.33400093  0.68061163  0.49968214  1
  Cu  Cu102  1  0.33597961  0.33837943  0.51144297  1
  Cu  Cu103  1  0.49628611  0.50273957  0.75283219  1
  Cu  Cu104  1  -0.00440126  0.67791715  -0.00616430  1
  Cu  Cu105  1  0.16819867  0.15787222  0.75253182  1
  Cu  Cu106  1  0.16518209  0.83634213  0.24665990  1
  Cu  Cu107  1  0.66977247  0.00099756  0.00037018  1
  Cu  Cu108  1  -0.00027744  -0.00541435  0.50153345  1
  Cu  Cu109  1  0.67351553  -0.00477861  0.49443736  1
  Cu  Cu110  1  0.66381082  0.67171037  0.00338301  1
  Cu  Cu111  1  0.50150687  0.17367340  0.75494657  1
  Cu  Cu112  1  0.82630402  0.49788918  0.25528328  1
  Cu  Cu113  1  0.83087084  0.50791040  0.74454055  1
  Cu  Cu114  1  -0.01215208  0.32682038  0.49672284  1
  Se  Se115  1  0.08417434  0.08045998  0.05089477  1
  Se  Se116  1  0.07868210  0.07904475  0.56166251  1
  Se  Se117  1  0.07849081  0.40927730  0.05904415  1
  Se  Se118  1  0.06850008  0.40332378  0.55920286  1
  Se  Se119  1  0.08110759  0.75999460  0.04565414  1
  Se  Se120  1  0.08691238  0.75045797  0.55505224  1
  Se  Se121  1  0.41815320  0.06564699  0.06307976  1
  Se  Se122  1  0.41937106  0.07572284  0.56224286  1
  Se  Se123  1  0.42364567  0.41135839  0.04603988  1
  Se  Se124  1  0.40956445  0.42580454  0.56795897  1
  Se  Se125  1  0.40999553  0.74150476  0.06273934  1
  Se  Se126  1  0.41637076  0.75524906  0.56106902  1
  Se  Se127  1  0.74798143  0.08575675  0.05681129  1
  Se  Se128  1  0.75245873  0.07889822  0.55163830  1
  Se  Se129  1  0.74885493  0.41500185  0.06656172  1
  Se  Se130  1  0.74173483  0.42085365  0.55023331  1
  Se  Se131  1  0.74689944  0.75732674  0.05364777  1
  Se  Se132  1  0.75092765  0.75488596  0.55446243  1
  Se  Se133  1  0.25012264  0.24410633  0.04332885  1
  Se  Se134  1  0.25351110  0.24913104  0.56015534  1
  Se  Se135  1  0.25285821  0.58366445  0.05785263  1
  Se  Se136  1  0.25734620  0.59778412  0.56073815  1
  Se  Se137  1  0.24687543  0.90947063  0.05406660  1
  Se  Se138  1  0.25234564  0.91470033  0.55158454  1
  Se  Se139  1  0.59725966  0.24836661  0.06730379  1
  Se  Se140  1  0.59283339  0.25875925  0.55675217  1
  Se  Se141  1  0.58390592  0.58619894  0.05686894  1
  Se  Se142  1  0.57877655  0.60068418  0.55948392  1
  Se  Se143  1  0.58800086  0.92218377  0.06036015  1
  Se  Se144  1  0.59031942  0.92696733  0.56101029  1
  Se  Se145  1  0.91351594  0.24693653  0.05084460  1
  Se  Se146  1  0.90565997  0.24242735  0.54850794  1
  Se  Se147  1  0.91805066  0.59676402  0.05590866  1
  Se  Se148  1  0.91472713  0.58370260  0.55435300  1
  Se  Se149  1  0.91075025  0.91847421  0.05324387  1
  Se  Se150  1  0.91553765  0.91237021  0.55418014  1
  Se  Se151  1  0.07263461  0.25853488  0.43267872  1
  Se  Se152  1  0.08669615  0.24203802  0.94748234  1
  Se  Se153  1  0.07840491  0.59321840  0.43636522  1
  Se  Se154  1  0.07323174  0.59012655  0.93925910  1
  Se  Se155  1  0.09060636  0.91717538  0.45065920  1
  Se  Se156  1  0.08032629  0.91629306  0.94676499  1
  Se  Se157  1  0.41243418  0.26152291  0.44673814  1
  Se  Se158  1  0.41984184  0.24486258  0.93856549  1
  Se  Se159  1  0.41607403  0.60516977  0.43874348  1
  Se  Se160  1  0.42405267  0.58334619  0.94471675  1
  Se  Se161  1  0.42083055  0.93026706  0.43439155  1
  Se  Se162  1  0.41382695  0.92117031  0.94106792  1
  Se  Se163  1  0.74327202  0.23591866  0.44780356  1
  Se  Se164  1  0.75187395  0.24727033  0.95134206  1
  Se  Se165  1  0.75094434  0.58290044  0.44958571  1
  Se  Se166  1  0.74643983  0.59584179  0.93928371  1
  Se  Se167  1  0.75086478  0.90811201  0.43952873  1
  Se  Se168  1  0.74881670  0.91566728  0.94549376  1
  Se  Se169  1  0.26019665  0.07701103  0.43977112  1
  Se  Se170  1  0.24927879  0.07781768  0.94892971  1
  Se  Se171  1  0.25462850  0.42021467  0.45301271  1
  Se  Se172  1  0.26019245  0.40861149  0.93411677  1
  Se  Se173  1  0.24808008  0.76137457  0.44804830  1
  Se  Se174  1  0.25326290  0.74667655  0.94988026  1
  Se  Se175  1  0.58739006  0.06705992  0.43297813  1
  Se  Se176  1  0.57970448  0.06754405  0.93835466  1
  Se  Se177  1  0.59222739  0.41202245  0.44617066  1
  Se  Se178  1  0.59076312  0.42006004  0.95565403  1
  Se  Se179  1  0.59782634  0.75038816  0.43601159  1
  Se  Se180  1  0.59144590  0.74905332  0.93586511  1
  Se  Se181  1  0.91486563  0.07952416  0.45079244  1
  Se  Se182  1  0.91046268  0.08320047  0.94641368  1
  Se  Se183  1  0.90774914  0.41950500  0.45057425  1
  Se  Se184  1  0.92540772  0.40690963  0.93981594  1
  Se  Se185  1  0.91583503  0.75050617  0.45216219  1
  Se  Se186  1  0.90754610  0.75663913  0.94201143  1
  Se  Se187  1  0.24015652  0.23981954  0.31048708  1
  Se  Se188  1  0.25142884  0.24159484  0.80414420  1
  Se  Se189  1  0.25639733  0.58902655  0.29990831  1
  Se  Se190  1  0.23967839  0.57684545  0.80397738  1
  Se  Se191  1  0.24648457  0.91908766  0.30377841  1
  Se  Se192  1  0.24753102  0.91494019  0.80837810  1
  Se  Se193  1  0.56606704  0.23084409  0.30236541  1
  Se  Se194  1  0.58352670  0.24768842  0.81780952  1
  Se  Se195  1  0.58458399  0.58238736  0.30119171  1
  Se  Se196  1  0.58415210  0.58500975  0.80318574  1
  Se  Se197  1  0.56133842  0.87161253  0.30361145  1
  Se  Se198  1  0.59374730  0.91686113  0.79281753  1
  Se  Se199  1  0.90645015  0.24884701  0.31526280  1
  Se  Se200  1  0.91304006  0.24304035  0.81130160  1
  Se  Se201  1  0.91202584  0.57730363  0.31078976  1
  Se  Se202  1  0.92282641  0.58570732  0.79334743  1
  Se  Se203  1  0.92922554  0.92021780  0.30682017  1
  Se  Se204  1  0.91904019  0.91940349  0.80328586  1
  Se  Se205  1  0.08033101  0.08236914  0.29902538  1
  Se  Se206  1  0.08165112  0.07692098  0.80387089  1
  Se  Se207  1  0.09274885  0.42861900  0.30296870  1
  Se  Se208  1  0.08902408  0.41628520  0.80922721  1
  Se  Se209  1  0.08586029  0.75836905  0.31126241  1
  Se  Se210  1  0.07908003  0.74952430  0.80567452  1
  Se  Se211  1  0.40901503  0.07784665  0.29651680  1
  Se  Se212  1  0.41901527  0.08359932  0.80164788  1
  Se  Se213  1  0.42168640  0.42367341  0.31716657  1
  Se  Se214  1  0.42059789  0.41407354  0.80751420  1
  Se  Se215  1  0.38988862  0.73161390  0.30678103  1
  Se  Se216  1  0.42497418  0.76343714  0.80445542  1
  Se  Se217  1  0.75492574  0.07727704  0.30584437  1
  Se  Se218  1  0.74715919  0.07963535  0.80535379  1
  Se  Se219  1  0.74399190  0.41451143  0.30848441  1
  Se  Se220  1  0.75484896  0.42824369  0.80826725  1
  Se  Se221  1  0.75962518  0.73933928  0.29758959  1
  Se  Se222  1  0.75469576  0.75166616  0.79895930  1
  Se  Se223  1  0.25024067  0.07744221  0.19188860  1
  Se  Se224  1  0.25150084  0.07642212  0.69724134  1
  Se  Se225  1  0.25238681  0.42305858  0.19066666  1
  Se  Se226  1  0.26430584  0.40035568  0.70343056  1
  Se  Se227  1  0.24537619  0.74875768  0.19522072  1
  Se  Se228  1  0.24586412  0.75379245  0.69897519  1
  Se  Se229  1  0.57486748  0.08442061  0.20562225  1
  Se  Se230  1  0.58370293  0.09417552  0.69752931  1
  Se  Se231  1  0.58166550  0.41033195  0.20026239  1
  Se  Se232  1  0.57622096  0.42868553  0.68750194  1
  Se  Se233  1  0.57800243  0.75990480  0.19932871  1
  Se  Se234  1  0.57560484  0.77072019  0.70280162  1
  Se  Se235  1  0.91767715  0.08192760  0.19532761  1
  Se  Se236  1  0.92035227  0.08061078  0.69755112  1
  Se  Se237  1  0.90979730  0.42272361  0.19360042  1
  Se  Se238  1  0.90026424  0.41350493  0.68845736  1
  Se  Se239  1  0.90736536  0.76325267  0.18846597  1
  Se  Se240  1  0.92129992  0.74805904  0.69433956  1
  Se  Se241  1  0.09021873  0.24453298  0.18331225  1
  Se  Se242  1  0.09286910  0.23754964  0.68712951  1
  Se  Se243  1  0.08778326  0.58506155  0.18560857  1
  Se  Se244  1  0.10563007  0.55405173  0.68686659  1
  Se  Se245  1  0.08018221  0.91802285  0.19437666  1
  Se  Se246  1  0.08002828  0.91780546  0.69585232  1
  Se  Se247  1  0.41668391  0.24134449  0.18304998  1
  Se  Se248  1  0.41704033  0.25358307  0.70050526  1
  Se  Se249  1  0.41844394  0.58114172  0.19423881  1
  Se  Se250  1  0.41386769  0.59105762  0.70289286  1
  Se  Se251  1  0.40938598  0.91179091  0.20374159  1
  Se  Se252  1  0.40616210  0.92221809  0.70315087  1
  Se  Se253  1  0.75034050  0.24973383  0.20258250  1
  Se  Se254  1  0.75633975  0.24260070  0.69429766  1
  Se  Se255  1  0.74890144  0.58194305  0.19788197  1
  Se  Se256  1  0.74612888  0.59231962  0.69445203  1
  Se  Se257  1  0.73798419  0.93288923  0.19731312  1
  Se  Se258  1  0.75544099  0.91873013  0.69348708  1
