# generated using pymatgen
data_In86Cu29Se144
_symmetry_space_group_name_H-M   'P 1'
_cell_length_a   17.58987001
_cell_length_b   17.59313945
_cell_length_c   23.44992744
_cell_angle_alpha   89.96995120
_cell_angle_beta   89.98903459
_cell_angle_gamma   90.00667643
_symmetry_Int_Tables_number   1
_chemical_formula_structural   In86Cu29Se144
_chemical_formula_sum   'In86 Cu29 Se144'
_cell_volume   7256.83766172
_cell_formula_units_Z   1
loop_
 _symmetry_equiv_pos_site_id
 _symmetry_equiv_pos_as_xyz
  1  'x, y, z'
loop_
 _atom_site_type_symbol
 _atom_site_label
 _atom_site_symmetry_multiplicity
 _atom_site_fract_x
 _atom_site_fract_y
 _atom_site_fract_z
 _atom_site_occupancy
  In  In0  1  0.00493585  0.15179292  0.12967194  1
  In  In1  1  0.00690287  0.16175315  0.63210027  1
  In  In2  1  -0.00331100  0.49259054  0.11553536  1
  In  In3  1  -0.01158759  0.49164490  0.62239057  1
  In  In4  1  0.02175701  0.83834701  0.13021587  1
  In  In5  1  -0.00132124  0.85062869  0.62171950  1
  In  In6  1  0.32436193  0.16807572  0.12702521  1
  In  In7  1  0.33795045  0.16607704  0.62887977  1
  In  In8  1  0.34114294  0.50512358  0.11846147  1
  In  In9  1  0.31908890  0.49586564  0.62191262  1
  In  In10  1  0.32945404  0.82837156  0.13017010  1
  In  In11  1  0.34460941  0.84148225  0.62655877  1
  In  In12  1  0.65793245  0.17226536  0.13944900  1
  In  In13  1  0.65468062  0.17460141  0.62760103  1
  In  In14  1  0.66897088  0.50133968  0.12784525  1
  In  In15  1  0.67029056  0.48655992  0.62454524  1
  In  In16  1  0.65562705  0.83912392  0.13047383  1
  In  In17  1  0.68137611  0.83452899  0.61983850  1
  In  In18  1  0.16487782  -0.00543768  0.35674395  1
  In  In19  1  0.16722620  0.00247906  0.87931242  1
  In  In20  1  0.17892507  0.34197648  0.38005006  1
  In  In21  1  0.16618649  0.32955579  0.87377812  1
  In  In22  1  0.16061252  0.66268446  0.36607818  1
  In  In23  1  0.17476027  0.66129990  0.88700855  1
  In  In24  1  0.49562400  0.01577610  0.35944530  1
  In  In25  1  0.49332223  -0.00012062  0.87599531  1
  In  In26  1  0.50423823  0.31515467  0.37724451  1
  In  In27  1  0.50525400  0.34002481  0.87067304  1
  In  In28  1  0.50282952  0.66820194  0.36284047  1
  In  In29  1  0.50140934  0.66731747  0.88638750  1
  In  In30  1  0.83040654  -0.00442967  0.37596005  1
  In  In31  1  0.84104415  0.00997186  0.86585848  1
  In  In32  1  0.83085422  0.34836654  0.37628320  1
  In  In33  1  0.83447533  0.33496756  0.87142785  1
  In  In34  1  0.83393344  0.66992742  0.37459404  1
  In  In35  1  0.81731837  0.66123488  0.87852723  1
  In  In36  1  0.00647398  0.15075944  0.37473547  1
  In  In37  1  0.00554244  0.17426762  0.86907516  1
  In  In38  1  0.00235960  0.50160822  0.38027931  1
  In  In39  1  0.01000518  0.48967915  0.88192458  1
  In  In40  1  -0.00462914  0.83214567  0.37241584  1
  In  In41  1  0.00122747  0.84895238  0.87613671  1
  In  In42  1  0.34079400  0.16851228  0.36987522  1
  In  In43  1  0.32224722  0.15611192  0.87245983  1
  In  In44  1  0.31786372  0.49496536  0.37224402  1
  In  In45  1  0.34219692  0.49279755  0.88122242  1
  In  In46  1  0.33908079  0.84171859  0.35716902  1
  In  In47  1  0.32545357  0.84140681  0.88535846  1
  In  In48  1  0.65297071  0.15917233  0.36506733  1
  In  In49  1  0.67208585  0.17029643  0.86948652  1
  In  In50  1  0.68200177  0.50769965  0.35838753  1
  In  In51  1  0.67466691  0.48273466  0.89441207  1
  In  In52  1  0.67621511  0.84378819  0.36815555  1
  In  In53  1  0.65549296  0.83399852  0.87882298  1
  In  In54  1  0.17822970  0.00370049  0.13296435  1
  In  In55  1  0.16525773  0.00683816  0.63179422  1
  In  In56  1  0.16450565  0.32970035  0.11560082  1
  In  In57  1  0.15867992  0.33520546  0.63191768  1
  In  In58  1  0.17856828  0.67510809  0.11694791  1
  In  In59  1  0.17689106  0.66028274  0.62388736  1
  In  In60  1  0.51284066  -0.00588873  0.13111254  1
  In  In61  1  0.48812684  0.01458019  0.63152339  1
  In  In62  1  0.50231649  0.34384178  0.12051601  1
  In  In63  1  0.51028101  0.32729654  0.63164542  1
  In  In64  1  0.49713899  0.66600551  0.12903323  1
  In  In65  1  0.50148386  0.66978802  0.62472666  1
  In  In66  1  0.83030260  -0.00155349  0.13353621  1
  In  In67  1  0.84001409  -0.00508283  0.62477645  1
  In  In68  1  0.82158541  0.34113901  0.12514346  1
  In  In69  1  0.82700664  0.33759512  0.62855878  1
  In  In70  1  0.83120998  0.64920247  0.12854256  1
  In  In71  1  0.83694981  0.66799384  0.61364673  1
  In  In72  1  0.33837299  0.33015056  0.25135991  1
  In  In73  1  0.16289422  0.82938594  0.49320830  1
  In  In74  1  0.49812812  0.17029015  0.00620177  1
  In  In75  1  0.00101781  0.66713449  0.75600044  1
  In  In76  1  0.83495731  0.83106972  -0.00132718  1
  In  In77  1  0.66207993  0.66761902  0.75041713  1
  In  In78  1  -0.00423604  0.32529318  0.24400896  1
  In  In79  1  0.83001561  0.16902917  0.49988754  1
  In  In80  1  0.16673069  0.16633495  0.50383296  1
  In  In81  1  0.33671670  0.66837002  0.74925590  1
  In  In82  1  0.50255335  0.83937601  0.49416764  1
  In  In83  1  0.50290048  0.49620756  0.50023019  1
  In  In84  1  0.83807930  0.17205199  -0.00185178  1
  In  In85  1  0.00098082  0.67056508  0.24877271  1
  Cu  Cu86  1  0.00206008  0.32974004  -0.00510877  1
  Cu  Cu87  1  0.33282539  -0.00948223  0.00255205  1
  Cu  Cu88  1  0.16681494  0.84518143  0.75597690  1
  Cu  Cu89  1  0.50051330  0.16826555  0.75335076  1
  Cu  Cu90  1  0.82962465  0.16385980  0.25451785  1
  Cu  Cu91  1  0.83061080  0.49411033  0.75203683  1
  Cu  Cu92  1  0.32966460  0.00655938  0.50009694  1
  Cu  Cu93  1  0.67621636  0.66292565  0.49162206  1
  Cu  Cu94  1  0.00047844  0.66543830  0.00517492  1
  Cu  Cu95  1  0.01438051  -0.00171440  0.00531949  1
  Cu  Cu96  1  0.49787838  0.84789253  0.75546956  1
  Cu  Cu97  1  0.66027514  0.00435818  0.49311106  1
  Cu  Cu98  1  0.32684822  0.33001998  -0.00287354  1
  Cu  Cu99  1  0.16464235  0.50069725  0.24552138  1
  Cu  Cu100  1  0.82945036  0.83205877  0.25082745  1
  Cu  Cu101  1  0.82749801  0.16553299  0.74441753  1
  Cu  Cu102  1  0.66048012  0.66354577  0.00761882  1
  Cu  Cu103  1  0.66656928  0.33522677  0.50166633  1
  Cu  Cu104  1  0.16383961  0.49092161  0.75283861  1
  Cu  Cu105  1  0.00280603  0.33767842  0.50298286  1
  Cu  Cu106  1  0.49953534  0.82559796  0.24735704  1
  Cu  Cu107  1  0.50156779  0.49945359  0.24466108  1
  Cu  Cu108  1  0.50084717  0.49348768  0.75548205  1
  Cu  Cu109  1  0.00271372  0.66372195  0.49384305  1
  Cu  Cu110  1  0.16985102  0.16580418  0.75260615  1
  Cu  Cu111  1  0.67044185  0.00210677  0.00510075  1
  Cu  Cu112  1  0.32853550  0.66162172  0.49269034  1
  Cu  Cu113  1  0.83554360  0.84363382  0.74622988  1
  Cu  Cu114  1  0.33372295  0.66846138  0.00684132  1
  Se  Se115  1  0.09402775  0.08336315  0.05879457  1
  Se  Se116  1  0.07325486  0.07068176  0.55551155  1
  Se  Se117  1  0.08491938  0.41549230  0.04813286  1
  Se  Se118  1  0.08557256  0.41934112  0.55793581  1
  Se  Se119  1  0.08344230  0.75243463  0.05314034  1
  Se  Se120  1  0.07713791  0.74164470  0.56141585  1
  Se  Se121  1  0.41218162  0.07347636  0.06247322  1
  Se  Se122  1  0.41493446  0.08740373  0.55262151  1
  Se  Se123  1  0.41216130  0.41219738  0.04975466  1
  Se  Se124  1  0.41584415  0.41083509  0.56340517  1
  Se  Se125  1  0.41738494  0.75147626  0.05932754  1
  Se  Se126  1  0.40832423  0.74245812  0.55269541  1
  Se  Se127  1  0.74726272  0.08566928  0.06262187  1
  Se  Se128  1  0.73852488  0.08018876  0.55921309  1
  Se  Se129  1  0.75127408  0.42505766  0.05387013  1
  Se  Se130  1  0.75487112  0.41699181  0.55068397  1
  Se  Se131  1  0.74600117  0.74680274  0.06289487  1
  Se  Se132  1  0.75271399  0.75062305  0.54698299  1
  Se  Se133  1  0.24847204  0.24326517  0.05076552  1
  Se  Se134  1  0.25328578  0.25710303  0.56250496  1
  Se  Se135  1  0.24757208  0.57782187  0.05128812  1
  Se  Se136  1  0.24734572  0.58054022  0.54808766  1
  Se  Se137  1  0.24831246  0.91381861  0.06043516  1
  Se  Se138  1  0.25330917  0.91998048  0.55727698  1
  Se  Se139  1  0.59732906  0.25799000  0.05723654  1
  Se  Se140  1  0.58018956  0.25186981  0.55108177  1
  Se  Se141  1  0.57762804  0.58009534  0.06015076  1
  Se  Se142  1  0.59584224  0.59221699  0.55850559  1
  Se  Se143  1  0.58441821  0.91674423  0.05235571  1
  Se  Se144  1  0.58498002  0.92600805  0.56136615  1
  Se  Se145  1  0.92720890  0.25549424  0.06486099  1
  Se  Se146  1  0.92502410  0.25355574  0.56165974  1
  Se  Se147  1  0.91320309  0.58158323  0.05172953  1
  Se  Se148  1  0.91959381  0.58117079  0.55017829  1
  Se  Se149  1  0.92205309  0.92227299  0.06000983  1
  Se  Se150  1  0.90623500  0.90905897  0.55020079  1
  Se  Se151  1  0.07617278  0.25615069  0.44019930  1
  Se  Se152  1  0.08612806  0.24443028  0.94524573  1
  Se  Se153  1  0.09156652  0.58366719  0.44428572  1
  Se  Se154  1  0.08271159  0.58169453  0.94922318  1
  Se  Se155  1  0.07941323  0.92649433  0.43760123  1
  Se  Se156  1  0.09036476  0.91200486  0.94929265  1
  Se  Se157  1  0.40397044  0.25537521  0.44341232  1
  Se  Se158  1  0.41038310  0.25082805  0.93785344  1
  Se  Se159  1  0.41700524  0.58695238  0.43660661  1
  Se  Se160  1  0.41334215  0.58503261  0.94953150  1
  Se  Se161  1  0.40783960  0.92656123  0.43758221  1
  Se  Se162  1  0.42275455  0.91423467  0.94957139  1
  Se  Se163  1  0.73993030  0.25306252  0.43697761  1
  Se  Se164  1  0.74137779  0.25968154  0.94454140  1
  Se  Se165  1  0.75566040  0.57619397  0.43994747  1
  Se  Se166  1  0.74809878  0.58314057  0.95506439  1
  Se  Se167  1  0.74691371  0.91753326  0.44812185  1
  Se  Se168  1  0.75039793  0.92847279  0.93946352  1
  Se  Se169  1  0.24731671  0.07697921  0.43591197  1
  Se  Se170  1  0.25214413  0.07975987  0.95114266  1
  Se  Se171  1  0.25453524  0.41924671  0.45246836  1
  Se  Se172  1  0.24605512  0.41605843  0.94314237  1
  Se  Se173  1  0.25863678  0.74813346  0.43172295  1
  Se  Se174  1  0.24982251  0.75191466  0.95288272  1
  Se  Se175  1  0.57364790  0.08279516  0.44011364  1
  Se  Se176  1  0.59118614  0.08300805  0.94352114  1
  Se  Se177  1  0.59273823  0.41489410  0.43512536  1
  Se  Se178  1  0.56262404  0.42520473  0.94934091  1
  Se  Se179  1  0.59065896  0.74362391  0.43792097  1
  Se  Se180  1  0.58442000  0.75224218  0.95310871  1
  Se  Se181  1  0.92191648  0.07445523  0.44764255  1
  Se  Se182  1  0.92963075  0.07557839  0.94476502  1
  Se  Se183  1  0.91867143  0.41878635  0.44807019  1
  Se  Se184  1  0.91491218  0.41264653  0.94493971  1
  Se  Se185  1  0.91910566  0.74934975  0.44393905  1
  Se  Se186  1  0.92448602  0.74045600  0.93663214  1
  Se  Se187  1  0.23768304  0.24567191  0.30707867  1
  Se  Se188  1  0.25261588  0.25068997  0.80455225  1
  Se  Se189  1  0.24842499  0.58201255  0.29965406  1
  Se  Se190  1  0.24532215  0.57742805  0.80772965  1
  Se  Se191  1  0.24950898  0.91488500  0.29126486  1
  Se  Se192  1  0.25479475  0.92225275  0.80931078  1
  Se  Se193  1  0.57706230  0.24780942  0.29780960  1
  Se  Se194  1  0.58530172  0.25258757  0.80435890  1
  Se  Se195  1  0.58570660  0.58408793  0.29696129  1
  Se  Se196  1  0.57860602  0.57837669  0.81386542  1
  Se  Se197  1  0.57445258  0.91196187  0.30660649  1
  Se  Se198  1  0.58705704  0.92404217  0.80848175  1
  Se  Se199  1  0.91137876  0.24225274  0.31547059  1
  Se  Se200  1  0.90964912  0.24532524  0.80368796  1
  Se  Se201  1  0.91483551  0.57558142  0.30626141  1
  Se  Se202  1  0.90790337  0.57608677  0.81286475  1
  Se  Se203  1  0.91287082  0.91500557  0.30465630  1
  Se  Se204  1  0.92246451  0.92127212  0.80053839  1
  Se  Se205  1  0.08016269  0.08460312  0.29594555  1
  Se  Se206  1  0.08559557  0.08171823  0.80653001  1
  Se  Se207  1  0.08715119  0.41842846  0.30608045  1
  Se  Se208  1  0.07767022  0.40954362  0.80432587  1
  Se  Se209  1  0.09368330  0.76578973  0.30101573  1
  Se  Se210  1  0.09577962  0.75534741  0.81399140  1
  Se  Se211  1  0.39238744  0.07515500  0.29323764  1
  Se  Se212  1  0.41651406  0.08385698  0.80551539  1
  Se  Se213  1  0.42575842  0.42302693  0.31210038  1
  Se  Se214  1  0.41036370  0.41304944  0.80318033  1
  Se  Se215  1  0.41139695  0.74193408  0.29631275  1
  Se  Se216  1  0.42319603  0.75722842  0.81254883  1
  Se  Se217  1  0.74843830  0.07762394  0.30665864  1
  Se  Se218  1  0.74716266  0.08204927  0.80048286  1
  Se  Se219  1  0.74628814  0.40318738  0.29766040  1
  Se  Se220  1  0.74307398  0.41921734  0.80843100  1
  Se  Se221  1  0.74871564  0.74675713  0.30389173  1
  Se  Se222  1  0.75624776  0.76241955  0.80678982  1
  Se  Se223  1  0.27254045  0.07488587  0.20300354  1
  Se  Se224  1  0.25366228  0.08382039  0.69750565  1
  Se  Se225  1  0.24625723  0.41750908  0.18799280  1
  Se  Se226  1  0.25122831  0.41394227  0.69803926  1
  Se  Se227  1  0.24548621  0.74484846  0.19774890  1
  Se  Se228  1  0.24251591  0.76295762  0.69264155  1
  Se  Se229  1  0.58599107  0.07863479  0.20272262  1
  Se  Se230  1  0.58307643  0.08443984  0.69828956  1
  Se  Se231  1  0.58473556  0.41383004  0.19534707  1
  Se  Se232  1  0.58814809  0.41745938  0.69942751  1
  Se  Se233  1  0.58697355  0.74342508  0.19746896  1
  Se  Se234  1  0.57385244  0.76595083  0.69242043  1
  Se  Se235  1  0.91318619  0.08373049  0.19939528  1
  Se  Se236  1  0.91487326  0.08203263  0.69485016  1
  Se  Se237  1  0.90989269  0.42649331  0.19437315  1
  Se  Se238  1  0.91608595  0.41312088  0.69879527  1
  Se  Se239  1  0.91064041  0.75940847  0.18534096  1
  Se  Se240  1  0.91250358  0.75367980  0.69103773  1
  Se  Se241  1  0.09735434  0.24071571  0.19301647  1
  Se  Se242  1  0.08227756  0.24807285  0.70123206  1
  Se  Se243  1  0.08455663  0.57824919  0.18451646  1
  Se  Se244  1  0.08851690  0.57762945  0.69292378  1
  Se  Se245  1  0.07196050  0.94152267  0.19646208  1
  Se  Se246  1  0.08224043  0.91935312  0.69684103  1
  Se  Se247  1  0.42725067  0.24527731  0.18741669  1
  Se  Se248  1  0.41838651  0.25103022  0.69775197  1
  Se  Se249  1  0.41163650  0.58095187  0.19680978  1
  Se  Se250  1  0.42582883  0.57349918  0.69047228  1
  Se  Se251  1  0.42148004  0.91130580  0.19273981  1
  Se  Se252  1  0.41109372  0.92530229  0.70087538  1
  Se  Se253  1  0.75581617  0.25088846  0.19775721  1
  Se  Se254  1  0.74450818  0.25257227  0.69450894  1
  Se  Se255  1  0.74529998  0.58435879  0.20110954  1
  Se  Se256  1  0.75833593  0.58139252  0.69071323  1
  Se  Se257  1  0.74430740  0.91633225  0.19888497  1
  Se  Se258  1  0.74687768  0.92133296  0.69383492  1
