# generated using pymatgen
data_In86Cu29Se144
_symmetry_space_group_name_H-M   'P 1'
_cell_length_a   17.58409253
_cell_length_b   17.58311267
_cell_length_c   23.44098317
_cell_angle_alpha   90.00513421
_cell_angle_beta   89.99601017
_cell_angle_gamma   90.03383665
_symmetry_Int_Tables_number   1
_chemical_formula_structural   In86Cu29Se144
_chemical_formula_sum   'In86 Cu29 Se144'
_cell_volume   7247.55406589
_cell_formula_units_Z   1
loop_
 _symmetry_equiv_pos_site_id
 _symmetry_equiv_pos_as_xyz
  1  'x, y, z'
loop_
 _atom_site_type_symbol
 _atom_site_label
 _atom_site_symmetry_multiplicity
 _atom_site_fract_x
 _atom_site_fract_y
 _atom_site_fract_z
 _atom_site_occupancy
  In  In0  1  0.00083500  0.15998602  0.11858109  1
  In  In1  1  0.00511757  0.16278867  0.61852443  1
  In  In2  1  0.01145497  0.48675349  0.12014835  1
  In  In3  1  0.00951410  0.48223929  0.63642377  1
  In  In4  1  -0.00396388  0.85107730  0.12531109  1
  In  In5  1  0.00148453  0.84996294  0.62389554  1
  In  In6  1  0.32086407  0.17432881  0.13573831  1
  In  In7  1  0.32845174  0.16665079  0.62709506  1
  In  In8  1  0.32293424  0.49271951  0.11970423  1
  In  In9  1  0.31645187  0.51012793  0.63738701  1
  In  In10  1  0.34228607  0.83277218  0.12245750  1
  In  In11  1  0.34265605  0.82884711  0.62789213  1
  In  In12  1  0.68194810  0.16088034  0.13265217  1
  In  In13  1  0.66542445  0.15074363  0.60287541  1
  In  In14  1  0.66202295  0.50298079  0.13548778  1
  In  In15  1  0.67791003  0.50919225  0.63020948  1
  In  In16  1  0.66281538  0.83336421  0.12084807  1
  In  In17  1  0.66093747  0.83402595  0.61224883  1
  In  In18  1  0.17489443  0.01600948  0.36251478  1
  In  In19  1  0.16717978  0.00705241  0.87207439  1
  In  In20  1  0.18309587  0.31233720  0.38419936  1
  In  In21  1  0.16229236  0.33000049  0.86819784  1
  In  In22  1  0.16439374  0.66158908  0.38448097  1
  In  In23  1  0.17004561  0.65407294  0.87273548  1
  In  In24  1  0.49274474  0.00966293  0.38833251  1
  In  In25  1  0.48546110  -0.00375086  0.87468860  1
  In  In26  1  0.48508158  0.32212228  0.36844943  1
  In  In27  1  0.49650539  0.34383796  0.87193017  1
  In  In28  1  0.50981779  0.66327540  0.37704919  1
  In  In29  1  0.49972225  0.67162786  0.86884274  1
  In  In30  1  0.84496470  -0.01769949  0.39287491  1
  In  In31  1  0.84003258  -0.00183410  0.88076746  1
  In  In32  1  0.82032136  0.33038103  0.37123945  1
  In  In33  1  0.83963370  0.31069018  0.87627115  1
  In  In34  1  0.81946153  0.68870323  0.37933945  1
  In  In35  1  0.83293199  0.68613908  0.87404567  1
  In  In36  1  0.01585252  0.14247825  0.39317951  1
  In  In37  1  -0.00080909  0.16536538  0.86951342  1
  In  In38  1  0.00977966  0.50534032  0.38009827  1
  In  In39  1  0.02460125  0.49503929  0.87332330  1
  In  In40  1  -0.01737198  0.84130883  0.38131485  1
  In  In41  1  -0.01409630  0.84021248  0.87733016  1
  In  In42  1  0.33192992  0.16826003  0.37661741  1
  In  In43  1  0.31814554  0.15119006  0.86503473  1
  In  In44  1  0.33610612  0.48604942  0.37833573  1
  In  In45  1  0.30564839  0.47935270  0.84679449  1
  In  In46  1  0.32537979  0.84830035  0.37943484  1
  In  In47  1  0.33891086  0.84174894  0.86881008  1
  In  In48  1  0.65823545  0.16676603  0.38466152  1
  In  In49  1  0.68359302  0.17132551  0.87846668  1
  In  In50  1  0.66313470  0.50231756  0.36663049  1
  In  In51  1  0.65512810  0.50451350  0.87123722  1
  In  In52  1  0.67544094  0.82887167  0.37985903  1
  In  In53  1  0.66903268  0.82998707  0.87820938  1
  In  In54  1  0.15017321  0.01729844  0.14367640  1
  In  In55  1  0.15137052  0.01363817  0.62970243  1
  In  In56  1  0.17048195  0.33020367  0.11922716  1
  In  In57  1  0.17056794  0.33266937  0.62727071  1
  In  In58  1  0.17623105  0.65682892  0.11864076  1
  In  In59  1  0.18969217  0.66290944  0.62687749  1
  In  In60  1  0.50022779  -0.01238780  0.12598147  1
  In  In61  1  0.49366737  -0.00869464  0.61387091  1
  In  In62  1  0.49716375  0.33376047  0.13518472  1
  In  In63  1  0.49492978  0.31731931  0.62317120  1
  In  In64  1  0.50191069  0.68098064  0.12353033  1
  In  In65  1  0.48763753  0.68711876  0.62763120  1
  In  In66  1  0.84381817  0.00444482  0.11582719  1
  In  In67  1  0.85419684  0.00878663  0.60211953  1
  In  In68  1  0.84020039  0.31882559  0.13225010  1
  In  In69  1  0.84452811  0.32783182  0.62894450  1
  In  In70  1  0.82033039  0.67150199  0.12559339  1
  In  In71  1  0.82185937  0.66893522  0.62857862  1
  In  In72  1  0.66884606  -0.00120460  0.25609766  1
  In  In73  1  0.66665567  -0.00232639  0.73318801  1
  In  In74  1  0.16303319  0.84194514  -0.00259360  1
  In  In75  1  0.49302780  0.50125519  0.50386129  1
  In  In76  1  0.16439170  0.83550128  0.50325324  1
  In  In77  1  0.00345373  0.67067373  0.75752736  1
  In  In78  1  0.33693639  0.66584936  0.24511240  1
  In  In79  1  0.50096956  0.16267507  -0.00154119  1
  In  In80  1  0.83938277  0.50108990  0.00158287  1
  In  In81  1  0.49252752  0.50440222  -0.00736264  1
  In  In82  1  0.66847568  0.33268973  0.74922183  1
  In  In83  1  -0.00384067  0.67172153  0.25286499  1
  In  In84  1  0.84127957  0.49510721  0.50571284  1
  In  In85  1  0.00151664  0.32696473  0.25125056  1
  Cu  Cu86  1  0.17245344  0.49083318  0.24801939  1
  Cu  Cu87  1  0.66524697  0.67458442  -0.00242452  1
  Cu  Cu88  1  0.65852645  0.33430414  0.49697799  1
  Cu  Cu89  1  0.01010517  0.32847029  -0.00340490  1
  Cu  Cu90  1  0.32725031  0.32458026  -0.00800446  1
  Cu  Cu91  1  0.49213835  0.16844422  0.74911855  1
  Cu  Cu92  1  0.33082491  -0.00138814  -0.00075031  1
  Cu  Cu93  1  0.33486507  0.66091735  -0.00507994  1
  Cu  Cu94  1  0.32733871  0.32967204  0.50166986  1
  Cu  Cu95  1  0.50252982  0.83194944  0.25136903  1
  Cu  Cu96  1  0.16253648  0.16967259  0.74660885  1
  Cu  Cu97  1  0.83771201  0.16151418  0.74314801  1
  Cu  Cu98  1  0.00448616  0.33019146  0.50652806  1
  Cu  Cu99  1  0.49861853  0.50643643  0.74756607  1
  Cu  Cu100  1  0.83033634  0.50836829  0.25313926  1
  Cu  Cu101  1  0.49814436  0.16606533  0.26031829  1
  Cu  Cu102  1  0.16993393  0.84141765  0.74697594  1
  Cu  Cu103  1  0.00345035  0.66071402  0.50431959  1
  Cu  Cu104  1  0.16286586  0.83860075  0.25379204  1
  Cu  Cu105  1  0.66815895  -0.00426680  0.00336149  1
  Cu  Cu106  1  0.50091993  0.49743254  0.25299494  1
  Cu  Cu107  1  0.67405454  0.32836687  0.00857867  1
  Cu  Cu108  1  0.66675768  0.66866701  0.50044908  1
  Cu  Cu109  1  0.00369587  0.66908434  -0.00540914  1
  Cu  Cu110  1  0.83561544  0.50324697  0.75229150  1
  Cu  Cu111  1  0.82918392  0.84181868  0.75042346  1
  Cu  Cu112  1  0.50476570  0.83555154  0.74418225  1
  Cu  Cu113  1  0.32755946  0.00476885  0.50261582  1
  Cu  Cu114  1  0.83389831  0.16365345  0.25429777  1
  Se  Se115  1  0.09152396  0.07973507  0.05568296  1
  Se  Se116  1  0.07759688  0.07458761  0.54757929  1
  Se  Se117  1  0.09312421  0.41530648  0.04699888  1
  Se  Se118  1  0.08646998  0.41698472  0.55669190  1
  Se  Se119  1  0.08033220  0.74559832  0.06168975  1
  Se  Se120  1  0.08070624  0.74106629  0.56709490  1
  Se  Se121  1  0.41154235  0.07839143  0.06158124  1
  Se  Se122  1  0.41254262  0.08803957  0.55547784  1
  Se  Se123  1  0.41213627  0.40236339  0.05227481  1
  Se  Se124  1  0.40542158  0.41032859  0.56409164  1
  Se  Se125  1  0.41401935  0.74598281  0.04955868  1
  Se  Se126  1  0.42349419  0.76439165  0.54883366  1
  Se  Se127  1  0.74829043  0.08440219  0.05342742  1
  Se  Se128  1  0.76335187  0.08691511  0.53750903  1
  Se  Se129  1  0.74928913  0.41519725  0.06613607  1
  Se  Se130  1  0.74135564  0.40701396  0.56090564  1
  Se  Se131  1  0.75058567  0.75435766  0.05106294  1
  Se  Se132  1  0.75501232  0.74923005  0.55146586  1
  Se  Se133  1  0.25153505  0.24261743  0.05192007  1
  Se  Se134  1  0.24452464  0.24538804  0.55550985  1
  Se  Se135  1  0.25116958  0.57575666  0.04548568  1
  Se  Se136  1  0.25818892  0.58177728  0.55207743  1
  Se  Se137  1  0.25090309  0.92318512  0.06412115  1
  Se  Se138  1  0.25127617  0.92449411  0.56619252  1
  Se  Se139  1  0.58736757  0.25120314  0.06461416  1
  Se  Se140  1  0.57820402  0.24748483  0.54914404  1
  Se  Se141  1  0.58841734  0.58750659  0.05558125  1
  Se  Se142  1  0.58805414  0.58955408  0.56254864  1
  Se  Se143  1  0.57874886  0.91363875  0.05050350  1
  Se  Se144  1  0.59705216  0.93475207  0.54790258  1
  Se  Se145  1  0.92282475  0.25565561  0.05519442  1
  Se  Se146  1  0.91478886  0.24859198  0.55374233  1
  Se  Se147  1  0.92808006  0.59172503  0.06328957  1
  Se  Se148  1  0.92577075  0.58462413  0.57027074  1
  Se  Se149  1  0.91691362  0.91429529  0.04733417  1
  Se  Se150  1  0.92253046  0.90519960  0.54239038  1
  Se  Se151  1  0.08593376  0.24672084  0.45143098  1
  Se  Se152  1  0.08717900  0.24425122  0.93946878  1
  Se  Se153  1  0.08937090  0.57678426  0.45622417  1
  Se  Se154  1  0.08871408  0.58233910  0.94867182  1
  Se  Se155  1  0.08827872  0.92247299  0.43356155  1
  Se  Se156  1  0.07049031  0.93201145  0.94197500  1
  Se  Se157  1  0.41499086  0.24946170  0.44855034  1
  Se  Se158  1  0.41277688  0.24928681  0.93334504  1
  Se  Se159  1  0.40731401  0.59105485  0.44076038  1
  Se  Se160  1  0.40237959  0.58111429  0.92626827  1
  Se  Se161  1  0.41077000  0.91810205  0.45228046  1
  Se  Se162  1  0.41500141  0.91326814  0.94928525  1
  Se  Se163  1  0.74777290  0.25402689  0.44756269  1
  Se  Se164  1  0.75755972  0.24705636  0.95564402  1
  Se  Se165  1  0.74586808  0.58101889  0.44462189  1
  Se  Se166  1  0.74431791  0.58824062  0.94056668  1
  Se  Se167  1  0.74149302  0.91609257  0.45309985  1
  Se  Se168  1  0.75067957  0.91556501  0.94457989  1
  Se  Se169  1  0.24669588  0.08478121  0.44491399  1
  Se  Se170  1  0.24818148  0.08275396  0.94737679  1
  Se  Se171  1  0.24661459  0.41624147  0.44854948  1
  Se  Se172  1  0.25101935  0.41297709  0.93667407  1
  Se  Se173  1  0.25841312  0.74453280  0.44599139  1
  Se  Se174  1  0.25375928  0.74825827  0.93934537  1
  Se  Se175  1  0.58412825  0.08139222  0.45511520  1
  Se  Se176  1  0.59283453  0.07414670  0.93662771  1
  Se  Se177  1  0.58079271  0.41535939  0.43752598  1
  Se  Se178  1  0.59464519  0.40662389  0.94690895  1
  Se  Se179  1  0.58308248  0.75006037  0.44675355  1
  Se  Se180  1  0.57715420  0.75077597  0.94315387  1
  Se  Se181  1  0.89834449  0.09687699  0.44972789  1
  Se  Se182  1  0.89808583  0.10733604  0.93844806  1
  Se  Se183  1  0.92540369  0.40584408  0.44038704  1
  Se  Se184  1  0.92557817  0.41047457  0.93850521  1
  Se  Se185  1  0.92042961  0.74183557  0.44975924  1
  Se  Se186  1  0.91495793  0.75338989  0.95045495  1
  Se  Se187  1  0.25298281  0.24776703  0.30288158  1
  Se  Se188  1  0.25042119  0.24876744  0.80003757  1
  Se  Se189  1  0.24559540  0.57878820  0.30822082  1
  Se  Se190  1  0.25669352  0.59893374  0.79551469  1
  Se  Se191  1  0.25384029  0.91969490  0.30038835  1
  Se  Se192  1  0.25165574  0.92412253  0.80423385  1
  Se  Se193  1  0.58652135  0.24917017  0.30828632  1
  Se  Se194  1  0.57852997  0.24000243  0.81107853  1
  Se  Se195  1  0.58237512  0.58835019  0.29913240  1
  Se  Se196  1  0.58397458  0.58846825  0.79939722  1
  Se  Se197  1  0.57432583  0.91390200  0.31626091  1
  Se  Se198  1  0.58198808  0.91708941  0.80609876  1
  Se  Se199  1  0.91624852  0.24054808  0.31612058  1
  Se  Se200  1  0.91757886  0.24853688  0.79628863  1
  Se  Se201  1  0.90893867  0.58203859  0.31724242  1
  Se  Se202  1  0.91322966  0.57831210  0.81823316  1
  Se  Se203  1  0.90900168  0.91826662  0.30697983  1
  Se  Se204  1  0.91457743  0.92292912  0.80253247  1
  Se  Se205  1  0.07255749  0.08452226  0.30242021  1
  Se  Se206  1  0.08179684  0.08274444  0.80044967  1
  Se  Se207  1  0.09072333  0.41815775  0.31145047  1
  Se  Se208  1  0.09081343  0.41887070  0.79595725  1
  Se  Se209  1  0.08891251  0.75558947  0.31589288  1
  Se  Se210  1  0.09305887  0.76543053  0.81532309  1
  Se  Se211  1  0.41565197  0.07972079  0.31004033  1
  Se  Se212  1  0.41465196  0.07808573  0.80032469  1
  Se  Se213  1  0.41187495  0.41530476  0.30054897  1
  Se  Se214  1  0.41961864  0.41367862  0.79507174  1
  Se  Se215  1  0.41807876  0.75473448  0.31206770  1
  Se  Se216  1  0.41896100  0.75622377  0.80025887  1
  Se  Se217  1  0.75547886  0.08684845  0.31812704  1
  Se  Se218  1  0.75191916  0.08461747  0.80164224  1
  Se  Se219  1  0.74825100  0.41843008  0.30110732  1
  Se  Se220  1  0.75753669  0.41965654  0.81479214  1
  Se  Se221  1  0.74555300  0.75478889  0.30011070  1
  Se  Se222  1  0.74687458  0.75526440  0.80088499  1
  Se  Se223  1  0.26932929  0.06359111  0.19625360  1
  Se  Se224  1  0.24738282  0.08290287  0.69687704  1
  Se  Se225  1  0.25296000  0.40863480  0.19306634  1
  Se  Se226  1  0.24541933  0.41503788  0.70121278  1
  Se  Se227  1  0.23841724  0.75680475  0.19105997  1
  Se  Se228  1  0.25371504  0.75530514  0.69869881  1
  Se  Se229  1  0.57484670  0.08826882  0.19402850  1
  Se  Se230  1  0.57322417  0.09491459  0.68467127  1
  Se  Se231  1  0.58576297  0.41244090  0.20128749  1
  Se  Se232  1  0.57788259  0.42248817  0.68743861  1
  Se  Se233  1  0.58599476  0.75235364  0.19611375  1
  Se  Se234  1  0.59074692  0.75493912  0.69058843  1
  Se  Se235  1  0.91282536  0.08879460  0.19147724  1
  Se  Se236  1  0.91809724  0.07889852  0.68712212  1
  Se  Se237  1  0.91221571  0.42805732  0.19431696  1
  Se  Se238  1  0.91354596  0.41338374  0.70288336  1
  Se  Se239  1  0.90917759  0.75880068  0.19111980  1
  Se  Se240  1  0.91412151  0.75711917  0.69320113  1
  Se  Se241  1  0.09090735  0.24155089  0.18995608  1
  Se  Se242  1  0.07858485  0.24938550  0.69078902  1
  Se  Se243  1  0.08988818  0.57648737  0.19373322  1
  Se  Se244  1  0.09044607  0.58480972  0.69415967  1
  Se  Se245  1  0.07399312  0.91882285  0.20412163  1
  Se  Se246  1  0.07935265  0.92173534  0.70036333  1
  Se  Se247  1  0.41697499  0.24713546  0.20069115  1
  Se  Se248  1  0.40902841  0.25282139  0.69835147  1
  Se  Se249  1  0.42526814  0.57299392  0.18391352  1
  Se  Se250  1  0.41772062  0.58997068  0.69318825  1
  Se  Se251  1  0.41688801  0.91215461  0.19829853  1
  Se  Se252  1  0.42010589  0.92122723  0.69440453  1
  Se  Se253  1  0.75032276  0.25097626  0.20449614  1
  Se  Se254  1  0.74678092  0.23598407  0.68566910  1
  Se  Se255  1  0.74694750  0.58966449  0.19892773  1
  Se  Se256  1  0.75034997  0.58885072  0.70557807  1
  Se  Se257  1  0.75298600  0.91947761  0.18539521  1
  Se  Se258  1  0.76352547  0.91425026  0.67685568  1
