# generated using pymatgen
data_In86Cu29Se144
_symmetry_space_group_name_H-M   'P 1'
_cell_length_a   17.59581463
_cell_length_b   17.59412142
_cell_length_c   23.44516680
_cell_angle_alpha   89.98925187
_cell_angle_beta   90.02956223
_cell_angle_gamma   90.01391574
_symmetry_Int_Tables_number   1
_chemical_formula_structural   In86Cu29Se144
_chemical_formula_sum   'In86 Cu29 Se144'
_cell_volume   7258.22139849
_cell_formula_units_Z   1
loop_
 _symmetry_equiv_pos_site_id
 _symmetry_equiv_pos_as_xyz
  1  'x, y, z'
loop_
 _atom_site_type_symbol
 _atom_site_label
 _atom_site_symmetry_multiplicity
 _atom_site_fract_x
 _atom_site_fract_y
 _atom_site_fract_z
 _atom_site_occupancy
  In  In0  1  0.00785723  0.18602731  0.12394836  1
  In  In1  1  -0.00633919  0.15757505  0.62164449  1
  In  In2  1  -0.00299953  0.49271105  0.11218547  1
  In  In3  1  0.00115800  0.51240302  0.60831034  1
  In  In4  1  0.00690483  0.81918021  0.12679976  1
  In  In5  1  0.00811096  0.83864980  0.61434663  1
  In  In6  1  0.34449670  0.15946623  0.11423960  1
  In  In7  1  0.33010645  0.16555580  0.63072765  1
  In  In8  1  0.33517979  0.52018870  0.12381952  1
  In  In9  1  0.33032677  0.50710621  0.63101051  1
  In  In10  1  0.32399260  0.83390761  0.12101910  1
  In  In11  1  0.33444576  0.83816270  0.63250209  1
  In  In12  1  0.68914470  0.18895301  0.09078981  1
  In  In13  1  0.66520888  0.16975814  0.62811240  1
  In  In14  1  0.67373069  0.48945670  0.12011110  1
  In  In15  1  0.67532212  0.49267236  0.63329969  1
  In  In16  1  0.67095792  0.83877726  0.12439699  1
  In  In17  1  0.66827355  0.83459752  0.62694329  1
  In  In18  1  0.17107755  -0.00483733  0.38615441  1
  In  In19  1  0.15739895  -0.00376725  0.86845393  1
  In  In20  1  0.15419483  0.34415909  0.38042328  1
  In  In21  1  0.17965194  0.33599792  0.88171249  1
  In  In22  1  0.17462160  0.65893453  0.38189324  1
  In  In23  1  0.17417783  0.65838594  0.87694641  1
  In  In24  1  0.50480228  -0.00763210  0.38973394  1
  In  In25  1  0.50511596  0.00312423  0.85499245  1
  In  In26  1  0.49287210  0.32433851  0.38075329  1
  In  In27  1  0.49070855  0.32566010  0.86913343  1
  In  In28  1  0.49666128  0.68285485  0.38194560  1
  In  In29  1  0.50310439  0.67007249  0.85571728  1
  In  In30  1  0.83571996  0.00024739  0.38590790  1
  In  In31  1  0.83368604  0.00537417  0.86382266  1
  In  In32  1  0.84038083  0.32493034  0.37922449  1
  In  In33  1  0.82091961  0.34410427  0.89070359  1
  In  In34  1  0.86364962  0.63806240  0.42573543  1
  In  In35  1  0.82639313  0.65843262  0.87035315  1
  In  In36  1  -0.00847874  0.17896993  0.37911948  1
  In  In37  1  -0.00279617  0.15703531  0.87497873  1
  In  In38  1  0.00553484  0.49287183  0.38040501  1
  In  In39  1  0.00293286  0.49040367  0.88798847  1
  In  In40  1  0.01225468  0.80797435  0.40866273  1
  In  In41  1  0.00495815  0.84771231  0.87051202  1
  In  In42  1  0.34045634  0.15706090  0.38499005  1
  In  In43  1  0.33820070  0.17486670  0.86858149  1
  In  In44  1  0.31513586  0.50041348  0.37531281  1
  In  In45  1  0.32905096  0.49538988  0.86766378  1
  In  In46  1  0.33983477  0.82757396  0.38443272  1
  In  In47  1  0.32760952  0.82594434  0.86055804  1
  In  In48  1  0.67053807  0.15972226  0.38891187  1
  In  In49  1  0.66676021  0.16819772  0.86918298  1
  In  In50  1  0.68029583  0.50436235  0.38083042  1
  In  In51  1  0.67226337  0.49997037  0.86845230  1
  In  In52  1  0.67171914  0.81381627  0.40349525  1
  In  In53  1  0.65921532  0.83384111  0.84861616  1
  In  In54  1  0.18393089  -0.00365907  0.11878946  1
  In  In55  1  0.16683261  -0.00023516  0.62951358  1
  In  In56  1  0.15380156  0.33530124  0.12449378  1
  In  In57  1  0.17298685  0.34180664  0.62103833  1
  In  In58  1  0.17179299  0.67342247  0.11898498  1
  In  In59  1  0.17176128  0.67696845  0.61142508  1
  In  In60  1  0.49544826  0.01676135  0.11700245  1
  In  In61  1  0.49375656  -0.00083441  0.63389452  1
  In  In62  1  0.50726255  0.32690655  0.11612845  1
  In  In63  1  0.50843223  0.32470112  0.63418038  1
  In  In64  1  0.49430340  0.65638711  0.12471077  1
  In  In65  1  0.49472766  0.68333086  0.63885771  1
  In  In66  1  0.81953237  0.00044908  0.12688350  1
  In  In67  1  0.83174492  0.00496525  0.62751396  1
  In  In68  1  0.85148604  0.34987210  0.09942691  1
  In  In69  1  0.83186581  0.32768964  0.62215332  1
  In  In70  1  0.84729691  0.66206564  0.12706760  1
  In  In71  1  0.81812884  0.65753993  0.60931072  1
  In  In72  1  -0.00204658  0.00159268  0.25752657  1
  In  In73  1  -0.00207756  0.33111002  0.75304205  1
  In  In74  1  0.50348718  0.50150620  0.50988560  1
  In  In75  1  0.16638838  0.16936167  -0.00147537  1
  In  In76  1  0.65587473  0.00282905  0.26045574  1
  In  In77  1  0.66379361  0.33100591  0.23963056  1
  In  In78  1  0.33421692  0.00156517  0.24321013  1
  In  In79  1  -0.00131181  0.66744274  0.73571596  1
  In  In80  1  0.49335949  0.49189315  -0.00888509  1
  In  In81  1  0.66380376  0.67191859  0.26383914  1
  In  In82  1  0.00209203  0.65977210  0.26481272  1
  In  In83  1  0.32342399  0.33360434  0.24665432  1
  In  In84  1  0.50120511  0.83599570  -0.02387372  1
  In  In85  1  0.83599858  0.83677816  -0.00661803  1
  Cu  Cu86  1  0.83950433  0.17522843  0.24848315  1
  Cu  Cu87  1  0.00188378  0.32884925  0.50333948  1
  Cu  Cu88  1  0.65964652  -0.00105615  -0.01270506  1
  Cu  Cu89  1  0.66838135  0.33422067  0.50749094  1
  Cu  Cu90  1  0.83419324  0.83247458  0.27090784  1
  Cu  Cu91  1  0.33230725  -0.00165690  0.51077652  1
  Cu  Cu92  1  0.16277106  0.82825524  0.74248046  1
  Cu  Cu93  1  0.48816192  0.50793272  0.25196515  1
  Cu  Cu94  1  0.50663034  0.49788570  0.74703489  1
  Cu  Cu95  1  0.00476406  0.00919931  0.50203058  1
  Cu  Cu96  1  0.49591396  0.82922542  0.25611425  1
  Cu  Cu97  1  0.00433990  0.66791815  -0.00090105  1
  Cu  Cu98  1  0.17053692  0.83150870  0.24768018  1
  Cu  Cu99  1  0.15788749  0.50775752  0.25340042  1
  Cu  Cu100  1  0.50737488  0.16228233  0.24746623  1
  Cu  Cu101  1  0.16215980  0.17750504  0.25362211  1
  Cu  Cu102  1  0.67566510  0.65810231  -0.00602198  1
  Cu  Cu103  1  0.83986039  0.49789202  0.74857339  1
  Cu  Cu104  1  0.17655405  0.50047789  0.74903852  1
  Cu  Cu105  1  0.33394254  0.66585022  0.50719408  1
  Cu  Cu106  1  0.33578246  0.67629788  -0.00592752  1
  Cu  Cu107  1  0.00230161  -0.00644583  -0.00282988  1
  Cu  Cu108  1  0.49827863  0.17150746  0.74882157  1
  Cu  Cu109  1  0.82646627  0.16908857  0.74891150  1
  Cu  Cu110  1  0.16389228  0.16422670  0.75161567  1
  Cu  Cu111  1  0.33306240  0.32583081  0.50263154  1
  Cu  Cu112  1  0.65731382  0.00791658  0.51517870  1
  Cu  Cu113  1  0.83410446  0.49753376  0.24612791  1
  Cu  Cu114  1  0.83648014  0.83494575  0.74369203  1
  Se  Se115  1  0.07792706  0.07498752  0.06162015  1
  Se  Se116  1  0.09122040  0.08690442  0.55713299  1
  Se  Se117  1  0.09271627  0.42072472  0.04913886  1
  Se  Se118  1  0.08515777  0.41766572  0.55094011  1
  Se  Se119  1  0.08688363  0.75461480  0.04937713  1
  Se  Se120  1  0.06802417  0.73698159  0.54806983  1
  Se  Se121  1  0.41055424  0.07510287  0.04077374  1
  Se  Se122  1  0.41529410  0.08319216  0.56219467  1
  Se  Se123  1  0.40643846  0.41411046  0.06231047  1
  Se  Se124  1  0.41212064  0.40746679  0.56413385  1
  Se  Se125  1  0.42293742  0.75006699  0.05288910  1
  Se  Se126  1  0.41344930  0.75098112  0.56101843  1
  Se  Se127  1  0.75143069  0.06969174  0.04425321  1
  Se  Se128  1  0.75040454  0.09039472  0.55807317  1
  Se  Se129  1  0.72846638  0.39504936  0.04945460  1
  Se  Se130  1  0.75330731  0.41911367  0.55592348  1
  Se  Se131  1  0.74802260  0.74313970  0.05730575  1
  Se  Se132  1  0.75614513  0.76689026  0.55241674  1
  Se  Se133  1  0.25501095  0.25762215  0.06182492  1
  Se  Se134  1  0.24865131  0.24615695  0.55741863  1
  Se  Se135  1  0.25412579  0.59133600  0.04889269  1
  Se  Se136  1  0.25053468  0.57620122  0.55293909  1
  Se  Se137  1  0.26537764  0.92315095  0.04749970  1
  Se  Se138  1  0.24778358  0.91293968  0.56067024  1
  Se  Se139  1  0.56567871  0.23427282  0.04487700  1
  Se  Se140  1  0.58181032  0.25058302  0.55578769  1
  Se  Se141  1  0.58863514  0.58504505  0.05375282  1
  Se  Se142  1  0.58443171  0.58844420  0.57464865  1
  Se  Se143  1  0.58695872  0.91715312  0.05154638  1
  Se  Se144  1  0.57750229  0.91842379  0.56285032  1
  Se  Se145  1  0.90589864  0.22828691  0.05388747  1
  Se  Se146  1  0.91591146  0.24675843  0.55399335  1
  Se  Se147  1  0.91558665  0.58647998  0.04942149  1
  Se  Se148  1  0.90784536  0.58278248  0.54033944  1
  Se  Se149  1  0.92304917  0.91888575  0.06479472  1
  Se  Se150  1  0.91925790  0.92909542  0.55603106  1
  Se  Se151  1  0.08624030  0.24749879  0.44751687  1
  Se  Se152  1  0.07399084  0.25595261  0.93880146  1
  Se  Se153  1  0.06512870  0.60085804  0.44064213  1
  Se  Se154  1  0.08694903  0.58345401  0.94681318  1
  Se  Se155  1  0.08782749  0.91710789  0.45641723  1
  Se  Se156  1  0.08881893  0.91259930  0.94719949  1
  Se  Se157  1  0.42034901  0.24275817  0.45359192  1
  Se  Se158  1  0.40088813  0.26391985  0.94301089  1
  Se  Se159  1  0.40906361  0.58208224  0.44278083  1
  Se  Se160  1  0.41766549  0.59639789  0.93388891  1
  Se  Se161  1  0.41392422  0.91494129  0.45406005  1
  Se  Se162  1  0.40787514  0.92594951  0.92406862  1
  Se  Se163  1  0.75044883  0.25341753  0.44915643  1
  Se  Se164  1  0.76113805  0.22889382  0.94134780  1
  Se  Se165  1  0.73006654  0.59406150  0.45666724  1
  Se  Se166  1  0.75763623  0.57244359  0.94422867  1
  Se  Se167  1  0.73432623  0.93314341  0.44883819  1
  Se  Se168  1  0.73835645  0.91246446  0.92968490  1
  Se  Se169  1  0.25236779  0.08116243  0.45238636  1
  Se  Se170  1  0.24853518  0.08276472  0.93274994  1
  Se  Se171  1  0.25116844  0.41128647  0.44845947  1
  Se  Se172  1  0.25100787  0.42939066  0.94670452  1
  Se  Se173  1  0.25077088  0.74792166  0.45023140  1
  Se  Se174  1  0.24981162  0.75530761  0.94042467  1
  Se  Se175  1  0.57608600  0.08814126  0.45462050  1
  Se  Se176  1  0.57846557  0.07994732  0.93265514  1
  Se  Se177  1  0.58892133  0.41006145  0.44152864  1
  Se  Se178  1  0.58882155  0.40718623  0.93487355  1
  Se  Se179  1  0.56920116  0.74686568  0.46270243  1
  Se  Se180  1  0.59996587  0.73891752  0.93124188  1
  Se  Se181  1  0.91799148  0.08947928  0.44853872  1
  Se  Se182  1  0.91634243  0.07074824  0.94271230  1
  Se  Se183  1  0.91876979  0.41195485  0.44713776  1
  Se  Se184  1  0.91658966  0.41492054  0.95525927  1
  Se  Se185  1  0.88216615  0.77952149  0.45285720  1
  Se  Se186  1  0.92476447  0.74418810  0.93421989  1
  Se  Se187  1  0.24898044  0.24435167  0.31728059  1
  Se  Se188  1  0.24287385  0.25296861  0.80385982  1
  Se  Se189  1  0.24763821  0.58825867  0.30141842  1
  Se  Se190  1  0.25552307  0.58939480  0.80026986  1
  Se  Se191  1  0.24901299  0.91328816  0.30812301  1
  Se  Se192  1  0.24015177  0.91474832  0.79861289  1
  Se  Se193  1  0.58302861  0.24209551  0.31041348  1
  Se  Se194  1  0.58363537  0.25334621  0.80138049  1
  Se  Se195  1  0.57153698  0.57472805  0.31759075  1
  Se  Se196  1  0.59331301  0.58228908  0.79768440  1
  Se  Se197  1  0.58076297  0.89916028  0.31897132  1
  Se  Se198  1  0.56077433  0.90162645  0.78387513  1
  Se  Se199  1  0.92170356  0.25833043  0.30088288  1
  Se  Se200  1  0.90506480  0.24638385  0.81255705  1
  Se  Se201  1  0.89990746  0.57671672  0.31772548  1
  Se  Se202  1  0.92520316  0.57455640  0.80733254  1
  Se  Se203  1  0.92508539  0.90697832  0.32465736  1
  Se  Se204  1  0.91770398  0.91749272  0.79944172  1
  Se  Se205  1  0.09327666  0.08966927  0.31478254  1
  Se  Se206  1  0.07569830  0.08185616  0.80022352  1
  Se  Se207  1  0.07806641  0.41822717  0.30232538  1
  Se  Se208  1  0.09140614  0.42409820  0.80829912  1
  Se  Se209  1  0.08999704  0.76157391  0.31469567  1
  Se  Se210  1  0.08408169  0.74899986  0.80555665  1
  Se  Se211  1  0.42921052  0.08144436  0.30825866  1
  Se  Se212  1  0.41027536  0.08754978  0.79690487  1
  Se  Se213  1  0.41724121  0.41916313  0.31069042  1
  Se  Se214  1  0.41900630  0.41948803  0.80107582  1
  Se  Se215  1  0.40965015  0.74783893  0.30619366  1
  Se  Se216  1  0.41531006  0.75034974  0.79269149  1
  Se  Se217  1  0.76058471  0.09369542  0.30927354  1
  Se  Se218  1  0.74203641  0.07962560  0.79714147  1
  Se  Se219  1  0.75279643  0.41722740  0.30506751  1
  Se  Se220  1  0.75986135  0.41380260  0.80400393  1
  Se  Se221  1  0.75948374  0.74594057  0.32680521  1
  Se  Se222  1  0.75887190  0.74766408  0.79831850  1
  Se  Se223  1  0.24205192  0.10091320  0.19099898  1
  Se  Se224  1  0.24934866  0.08040609  0.70062630  1
  Se  Se225  1  0.24072028  0.43315604  0.19044001  1
  Se  Se226  1  0.25510887  0.41212270  0.69715883  1
  Se  Se227  1  0.25269216  0.74941862  0.19405375  1
  Se  Se228  1  0.24706523  0.74419750  0.69208608  1
  Se  Se229  1  0.59040803  0.09126019  0.18404441  1
  Se  Se230  1  0.58237715  0.08709620  0.69684835  1
  Se  Se231  1  0.56707715  0.42928746  0.19034419  1
  Se  Se232  1  0.59122739  0.41022040  0.70066086  1
  Se  Se233  1  0.57917947  0.75541827  0.19154045  1
  Se  Se234  1  0.59376258  0.75270541  0.70171666  1
  Se  Se235  1  0.91247527  0.08625609  0.18976833  1
  Se  Se236  1  0.91473267  0.08723903  0.69888872  1
  Se  Se237  1  0.91271365  0.41912458  0.18592689  1
  Se  Se238  1  0.92194911  0.42589861  0.68535278  1
  Se  Se239  1  0.91107585  0.75621625  0.20343793  1
  Se  Se240  1  0.90704068  0.75522722  0.67848576  1
  Se  Se241  1  0.07972132  0.26160089  0.20282429  1
  Se  Se242  1  0.08665898  0.24644169  0.68891153  1
  Se  Se243  1  0.08054415  0.58372193  0.18695573  1
  Se  Se244  1  0.09557565  0.57522033  0.68544224  1
  Se  Se245  1  0.09155465  0.91568431  0.19097963  1
  Se  Se246  1  0.07790799  0.91424560  0.69403115  1
  Se  Se247  1  0.42242769  0.24335316  0.19262666  1
  Se  Se248  1  0.41062644  0.25428240  0.69867150  1
  Se  Se249  1  0.40900471  0.59554017  0.20203873  1
  Se  Se250  1  0.41960603  0.58271172  0.69880521  1
  Se  Se251  1  0.43038185  0.91157010  0.18766647  1
  Se  Se252  1  0.42538155  0.90624153  0.70561401  1
  Se  Se253  1  0.75747006  0.24411381  0.18343487  1
  Se  Se254  1  0.74787513  0.25683779  0.69626164  1
  Se  Se255  1  0.74949683  0.58168480  0.19287675  1
  Se  Se256  1  0.75938356  0.58474734  0.69586235  1
  Se  Se257  1  0.75617905  0.90756771  0.20580176  1
  Se  Se258  1  0.75015911  0.92131716  0.69621492  1
