# generated using pymatgen
data_In86Cu29Se144
_symmetry_space_group_name_H-M   'P 1'
_cell_length_a   17.58325069
_cell_length_b   17.58679690
_cell_length_c   23.44828373
_cell_angle_alpha   90.00994776
_cell_angle_beta   90.00443210
_cell_angle_gamma   89.97010442
_symmetry_Int_Tables_number   1
_chemical_formula_structural   In86Cu29Se144
_chemical_formula_sum   'In86 Cu29 Se144'
_cell_volume   7250.98338047
_cell_formula_units_Z   1
loop_
 _symmetry_equiv_pos_site_id
 _symmetry_equiv_pos_as_xyz
  1  'x, y, z'
loop_
 _atom_site_type_symbol
 _atom_site_label
 _atom_site_symmetry_multiplicity
 _atom_site_fract_x
 _atom_site_fract_y
 _atom_site_fract_z
 _atom_site_occupancy
  In  In0  1  -0.01824391  0.15179085  0.10699996  1
  In  In1  1  -0.00640455  0.16351981  0.61500345  1
  In  In2  1  0.00147714  0.50142708  0.12221977  1
  In  In3  1  -0.00369132  0.48964075  0.61122485  1
  In  In4  1  -0.01573649  0.84842448  0.13316622  1
  In  In5  1  0.00113004  0.84905221  0.62534698  1
  In  In6  1  0.33131268  0.17318947  0.11606346  1
  In  In7  1  0.32799427  0.15709402  0.62127742  1
  In  In8  1  0.32923578  0.49564595  0.11720288  1
  In  In9  1  0.32622000  0.49764917  0.61282940  1
  In  In10  1  0.33312292  0.83189555  0.12467014  1
  In  In11  1  0.34627865  0.83885972  0.62806589  1
  In  In12  1  0.67115572  0.17216093  0.12738126  1
  In  In13  1  0.66070918  0.15977369  0.61944801  1
  In  In14  1  0.65716965  0.48209753  0.12379903  1
  In  In15  1  0.67668030  0.50793591  0.61989306  1
  In  In16  1  0.68462823  0.83288146  0.12537286  1
  In  In17  1  0.67391361  0.82711039  0.63047267  1
  In  In18  1  0.15790376  0.01648955  0.38015692  1
  In  In19  1  0.17149959  0.01880667  0.85958830  1
  In  In20  1  0.15189746  0.33403316  0.38648622  1
  In  In21  1  0.16449233  0.32133796  0.88186021  1
  In  In22  1  0.15571504  0.67035959  0.37523828  1
  In  In23  1  0.16919751  0.66091842  0.87489725  1
  In  In24  1  0.52007943  0.00629075  0.37390949  1
  In  In25  1  0.51292231  0.00568281  0.87134810  1
  In  In26  1  0.50510838  0.33004223  0.37788113  1
  In  In27  1  0.49392178  0.33661240  0.88311822  1
  In  In28  1  0.50355444  0.65063284  0.37780677  1
  In  In29  1  0.50212520  0.64741649  0.87704208  1
  In  In30  1  0.83251856  0.00294224  0.38007188  1
  In  In31  1  0.83037742  0.00208361  0.87375370  1
  In  In32  1  0.83223009  0.33819226  0.37890049  1
  In  In33  1  0.84578254  0.32793906  0.89264453  1
  In  In34  1  0.84071940  0.65762594  0.37972812  1
  In  In35  1  0.83154151  0.67008105  0.88103897  1
  In  In36  1  0.00022166  0.16383369  0.37909643  1
  In  In37  1  0.00613584  0.15624811  0.88322894  1
  In  In38  1  -0.01112315  0.50040066  0.37732917  1
  In  In39  1  0.00645536  0.48824096  0.89105145  1
  In  In40  1  -0.01390889  0.82462601  0.37073925  1
  In  In41  1  -0.01656717  0.84005340  0.87643942  1
  In  In42  1  0.32742714  0.17573413  0.38427742  1
  In  In43  1  0.33626020  0.16515223  0.87750753  1
  In  In44  1  0.33763428  0.50174535  0.38294985  1
  In  In45  1  0.33688439  0.50123331  0.88635546  1
  In  In46  1  0.33528900  0.82829292  0.37585432  1
  In  In47  1  0.32420321  0.84013151  0.87295291  1
  In  In48  1  0.67075348  0.16814443  0.37831168  1
  In  In49  1  0.67810910  0.15973467  0.88141291  1
  In  In50  1  0.66977972  0.49160497  0.37472130  1
  In  In51  1  0.66310438  0.50132622  0.87922121  1
  In  In52  1  0.66992490  0.85748399  0.37271034  1
  In  In53  1  0.67740968  0.83746842  0.86939978  1
  In  In54  1  0.15046907  0.00121872  0.12364827  1
  In  In55  1  0.15745237  0.01667084  0.64068876  1
  In  In56  1  0.15472635  0.33234054  0.11180618  1
  In  In57  1  0.15780197  0.32522084  0.60974069  1
  In  In58  1  0.15736187  0.64818910  0.12056501  1
  In  In59  1  0.17092906  0.65052770  0.62414503  1
  In  In60  1  0.50028175  0.01986472  0.12406822  1
  In  In61  1  0.49529454  0.00841708  0.63376506  1
  In  In62  1  0.51383228  0.34083927  0.12415994  1
  In  In63  1  0.49754378  0.33206079  0.61680619  1
  In  In64  1  0.50140326  0.65398572  0.12172737  1
  In  In65  1  0.51250883  0.67346616  0.62194065  1
  In  In66  1  0.83298210  0.00701637  0.12526443  1
  In  In67  1  0.83262331  0.00030841  0.62214089  1
  In  In68  1  0.82261224  0.31462307  0.11246685  1
  In  In69  1  0.83400743  0.32764210  0.61073299  1
  In  In70  1  0.83829124  0.67835532  0.12108890  1
  In  In71  1  0.82656414  0.65703506  0.62056688  1
  In  In72  1  0.33283514  0.33067326  0.75530059  1
  In  In73  1  0.16386608  0.82999477  -0.00763662  1
  In  In74  1  0.33382116  0.33183808  0.25681278  1
  In  In75  1  0.50402802  0.82944132  0.00554629  1
  In  In76  1  0.16725168  0.83104549  0.50669571  1
  In  In77  1  0.66973800  0.33263992  0.75266337  1
  In  In78  1  -0.01218382  0.32430127  0.24809527  1
  In  In79  1  0.67500896  0.66870533  0.25096852  1
  In  In80  1  -0.00480955  0.67052669  0.75657912  1
  In  In81  1  0.32925794  0.00213240  0.26144336  1
  In  In82  1  0.32909130  0.66419680  0.24065965  1
  In  In83  1  -0.00294265  0.32447610  0.74233027  1
  In  In84  1  0.33928507  0.67225790  0.74963691  1
  In  In85  1  0.50540809  0.83212644  0.50411695  1
  Cu  Cu86  1  0.66334702  0.32929569  0.00077982  1
  Cu  Cu87  1  0.16366580  0.49197735  0.74685749  1
  Cu  Cu88  1  0.15090253  0.83323985  0.25153025  1
  Cu  Cu89  1  0.16321961  0.49851044  0.24633919  1
  Cu  Cu90  1  -0.00580492  -0.00005166  -0.00073899  1
  Cu  Cu91  1  0.33975843  0.33334413  0.49864803  1
  Cu  Cu92  1  0.67260321  0.00666703  0.50059945  1
  Cu  Cu93  1  0.51112346  0.17227150  0.25152124  1
  Cu  Cu94  1  0.15657435  0.16059472  0.24845335  1
  Cu  Cu95  1  0.50930538  0.50756238  0.74732319  1
  Cu  Cu96  1  0.33120151  0.00425379  -0.00445166  1
  Cu  Cu97  1  0.33830763  0.00147774  0.50367088  1
  Cu  Cu98  1  0.66907226  0.66236879  0.00264692  1
  Cu  Cu99  1  0.83122353  0.83898244  0.74970154  1
  Cu  Cu100  1  0.83084848  0.49892391  0.25068845  1
  Cu  Cu101  1  0.33059992  0.32745823  0.00023868  1
  Cu  Cu102  1  0.83835731  0.84196349  0.24990290  1
  Cu  Cu103  1  -0.00349427  -0.00313405  0.50161823  1
  Cu  Cu104  1  0.50119107  0.83427555  0.24853543  1
  Cu  Cu105  1  0.00120543  0.66955395  0.00083192  1
  Cu  Cu106  1  0.83377469  0.15886305  0.74865088  1
  Cu  Cu107  1  0.16590863  0.84304017  0.74897054  1
  Cu  Cu108  1  0.50786965  0.83673196  0.75020837  1
  Cu  Cu109  1  0.50257897  0.16308398  0.75306720  1
  Cu  Cu110  1  -0.00567572  0.66400722  0.49730097  1
  Cu  Cu111  1  0.66393140  0.33671447  0.49665563  1
  Cu  Cu112  1  0.66901014  0.66375523  0.49715278  1
  Cu  Cu113  1  0.67121615  0.00437767  -0.00174146  1
  Cu  Cu114  1  0.82883228  0.50402618  0.75119319  1
  Se  Se115  1  0.08599184  0.08278155  0.04607799  1
  Se  Se116  1  0.08512183  0.07559503  0.55487379  1
  Se  Se117  1  0.10308468  0.44466681  0.05389221  1
  Se  Se118  1  0.10450683  0.43569161  0.55088830  1
  Se  Se119  1  0.07545634  0.75414940  0.06299703  1
  Se  Se120  1  0.07242289  0.73925241  0.56365388  1
  Se  Se121  1  0.41441924  0.08644243  0.05018800  1
  Se  Se122  1  0.42436504  0.08464352  0.55505684  1
  Se  Se123  1  0.41487471  0.40681873  0.05653627  1
  Se  Se124  1  0.42061183  0.42086948  0.55004370  1
  Se  Se125  1  0.40673915  0.73781194  0.05761337  1
  Se  Se126  1  0.40714804  0.74140315  0.55616273  1
  Se  Se127  1  0.75064245  0.08835624  0.05496445  1
  Se  Se128  1  0.75719891  0.09086206  0.55290222  1
  Se  Se129  1  0.74759972  0.41444612  0.05245603  1
  Se  Se130  1  0.74962096  0.41816137  0.55072259  1
  Se  Se131  1  0.75203220  0.75285001  0.04855494  1
  Se  Se132  1  0.74724906  0.74766770  0.55452273  1
  Se  Se133  1  0.24021946  0.24536144  0.04834213  1
  Se  Se134  1  0.25735088  0.24802178  0.55181291  1
  Se  Se135  1  0.25459960  0.58886993  0.05364809  1
  Se  Se136  1  0.24542875  0.58283035  0.54665257  1
  Se  Se137  1  0.25359962  0.92273962  0.05654236  1
  Se  Se138  1  0.25609020  0.92489535  0.56437826  1
  Se  Se139  1  0.58133343  0.24553551  0.05604728  1
  Se  Se140  1  0.58484402  0.25044688  0.55248584  1
  Se  Se141  1  0.58678336  0.57725764  0.05408143  1
  Se  Se142  1  0.58457400  0.58405667  0.55257771  1
  Se  Se143  1  0.59143188  0.92595284  0.06193224  1
  Se  Se144  1  0.59123802  0.92587138  0.56291450  1
  Se  Se145  1  0.94068589  0.27294399  0.05344265  1
  Se  Se146  1  0.94265916  0.27258321  0.55095107  1
  Se  Se147  1  0.91768380  0.58821339  0.05584046  1
  Se  Se148  1  0.91112636  0.57910188  0.55067752  1
  Se  Se149  1  0.91066434  0.91858668  0.05374391  1
  Se  Se150  1  0.91192949  0.91229710  0.55209169  1
  Se  Se151  1  0.09876516  0.22638167  0.44727047  1
  Se  Se152  1  0.05549158  0.26980140  0.94364316  1
  Se  Se153  1  0.07803556  0.58372473  0.44253937  1
  Se  Se154  1  0.08651482  0.58856865  0.94708028  1
  Se  Se155  1  0.07761562  0.91466888  0.44146072  1
  Se  Se156  1  0.07971921  0.92771645  0.93568893  1
  Se  Se157  1  0.42332354  0.24773872  0.44786103  1
  Se  Se158  1  0.41724093  0.24599978  0.94814212  1
  Se  Se159  1  0.41248952  0.59247797  0.44938017  1
  Se  Se160  1  0.42339322  0.57879149  0.95244756  1
  Se  Se161  1  0.41604095  0.92385366  0.44012292  1
  Se  Se162  1  0.41505084  0.91975513  0.94237707  1
  Se  Se163  1  0.75108305  0.25271623  0.44775792  1
  Se  Se164  1  0.75194791  0.24601770  0.95208468  1
  Se  Se165  1  0.74983579  0.57790261  0.44325931  1
  Se  Se166  1  0.75119664  0.58108017  0.94629400  1
  Se  Se167  1  0.75267624  0.91626140  0.45196941  1
  Se  Se168  1  0.75045021  0.91714513  0.94488340  1
  Se  Se169  1  0.25276246  0.08111566  0.44901357  1
  Se  Se170  1  0.24470589  0.08441289  0.94257050  1
  Se  Se171  1  0.25342549  0.41130697  0.44292816  1
  Se  Se172  1  0.24988603  0.41020997  0.94366577  1
  Se  Se173  1  0.25573218  0.74173016  0.44409427  1
  Se  Se174  1  0.26426227  0.73857415  0.94249054  1
  Se  Se175  1  0.58417506  0.08824884  0.45083787  1
  Se  Se176  1  0.58308279  0.08595432  0.94799816  1
  Se  Se177  1  0.57950772  0.42181557  0.44614438  1
  Se  Se178  1  0.58251219  0.41657076  0.94779847  1
  Se  Se179  1  0.59357954  0.74857579  0.43552540  1
  Se  Se180  1  0.59075695  0.74421950  0.93999960  1
  Se  Se181  1  0.91576581  0.08421599  0.44972448  1
  Se  Se182  1  0.90908560  0.08411222  0.94676942  1
  Se  Se183  1  0.93435225  0.39834755  0.44499224  1
  Se  Se184  1  0.90089400  0.43525548  0.95434198  1
  Se  Se185  1  0.91100751  0.75142666  0.44868132  1
  Se  Se186  1  0.91628973  0.75297078  0.94892127  1
  Se  Se187  1  0.23429481  0.24265246  0.30883717  1
  Se  Se188  1  0.23840902  0.23839944  0.80596599  1
  Se  Se189  1  0.24374616  0.57747398  0.30754513  1
  Se  Se190  1  0.24885719  0.57146685  0.80352419  1
  Se  Se191  1  0.23490744  0.90654101  0.31400014  1
  Se  Se192  1  0.25394108  0.92318135  0.79991346  1
  Se  Se193  1  0.59071374  0.25434255  0.30753556  1
  Se  Se194  1  0.57779502  0.24672432  0.81389203  1
  Se  Se195  1  0.58105761  0.57498717  0.30154427  1
  Se  Se196  1  0.59253675  0.58591339  0.80276536  1
  Se  Se197  1  0.58385868  0.92187984  0.29656618  1
  Se  Se198  1  0.59149093  0.91982515  0.80316479  1
  Se  Se199  1  0.90213862  0.23577977  0.31066999  1
  Se  Se200  1  0.90730175  0.24405233  0.80916856  1
  Se  Se201  1  0.91524326  0.58188616  0.30236526  1
  Se  Se202  1  0.91571109  0.57151037  0.81517359  1
  Se  Se203  1  0.91787916  0.92438442  0.30756261  1
  Se  Se204  1  0.91497019  0.92251073  0.80161831  1
  Se  Se205  1  0.07438068  0.07987226  0.30315794  1
  Se  Se206  1  0.07136452  0.08887437  0.79950907  1
  Se  Se207  1  0.08373477  0.41631081  0.30554728  1
  Se  Se208  1  0.08397304  0.41564230  0.80782384  1
  Se  Se209  1  0.07323339  0.74420997  0.30285337  1
  Se  Se210  1  0.09168829  0.76158696  0.81229187  1
  Se  Se211  1  0.42379043  0.09753848  0.31204745  1
  Se  Se212  1  0.41795041  0.08279499  0.80773887  1
  Se  Se213  1  0.42423325  0.42581130  0.30962671  1
  Se  Se214  1  0.42554954  0.42956677  0.80642187  1
  Se  Se215  1  0.42438521  0.75003808  0.30563994  1
  Se  Se216  1  0.42912321  0.75785814  0.81397291  1
  Se  Se217  1  0.72761820  0.06060036  0.31528522  1
  Se  Se218  1  0.74550543  0.08179511  0.80228255  1
  Se  Se219  1  0.75178377  0.41320939  0.30364715  1
  Se  Se220  1  0.76146318  0.41641804  0.81483762  1
  Se  Se221  1  0.75923462  0.76102126  0.31247528  1
  Se  Se222  1  0.75723613  0.74743659  0.80368615  1
  Se  Se223  1  0.24653817  0.08686914  0.19072330  1
  Se  Se224  1  0.26308042  0.07951410  0.70010368  1
  Se  Se225  1  0.24260753  0.41414079  0.19051201  1
  Se  Se226  1  0.24461692  0.41403981  0.68744910  1
  Se  Se227  1  0.23325175  0.75876808  0.18903817  1
  Se  Se228  1  0.24071093  0.75717206  0.68963616  1
  Se  Se229  1  0.58769931  0.08527281  0.19671355  1
  Se  Se230  1  0.58945169  0.08464193  0.69879027  1
  Se  Se231  1  0.58761861  0.40945079  0.20350220  1
  Se  Se232  1  0.58135352  0.41949742  0.68860804  1
  Se  Se233  1  0.57885383  0.75399217  0.18731722  1
  Se  Se234  1  0.58641826  0.74759394  0.69895314  1
  Se  Se235  1  0.92004668  0.08715714  0.19207692  1
  Se  Se236  1  0.91804473  0.08395424  0.68981878  1
  Se  Se237  1  0.90655160  0.41910911  0.18641548  1
  Se  Se238  1  0.90559621  0.42299247  0.68954230  1
  Se  Se239  1  0.91589827  0.74989129  0.19918573  1
  Se  Se240  1  0.91083288  0.75569841  0.68920469  1
  Se  Se241  1  0.08391034  0.24354678  0.18621307  1
  Se  Se242  1  0.09270716  0.23791668  0.68732073  1
  Se  Se243  1  0.07645819  0.58311546  0.19863139  1
  Se  Se244  1  0.07824792  0.57443880  0.69380031  1
  Se  Se245  1  0.07654957  0.92461151  0.19944370  1
  Se  Se246  1  0.07544999  0.92363355  0.70173391  1
  Se  Se247  1  0.42007527  0.24305424  0.19226973  1
  Se  Se248  1  0.42491710  0.24547401  0.69304508  1
  Se  Se249  1  0.42236463  0.56720394  0.19256829  1
  Se  Se250  1  0.42058072  0.57800596  0.68649865  1
  Se  Se251  1  0.41786353  0.91677278  0.19289769  1
  Se  Se252  1  0.41882366  0.91868707  0.70227336  1
  Se  Se253  1  0.76030265  0.24688960  0.19602720  1
  Se  Se254  1  0.75796506  0.24532192  0.68906817  1
  Se  Se255  1  0.75507606  0.57818447  0.18528778  1
  Se  Se256  1  0.74651641  0.58691629  0.69841903  1
  Se  Se257  1  0.75197316  0.92120254  0.19656287  1
  Se  Se258  1  0.74910444  0.92144149  0.69450476  1
