# generated using pymatgen
data_In86Cu29Se144
_symmetry_space_group_name_H-M   'P 1'
_cell_length_a   17.58129697
_cell_length_b   17.58092645
_cell_length_c   23.43363640
_cell_angle_alpha   89.97799034
_cell_angle_beta   90.00448645
_cell_angle_gamma   90.01781071
_symmetry_Int_Tables_number   1
_chemical_formula_structural   In86Cu29Se144
_chemical_formula_sum   'In86 Cu29 Se144'
_cell_volume   7243.23039481
_cell_formula_units_Z   1
loop_
 _symmetry_equiv_pos_site_id
 _symmetry_equiv_pos_as_xyz
  1  'x, y, z'
loop_
 _atom_site_type_symbol
 _atom_site_label
 _atom_site_symmetry_multiplicity
 _atom_site_fract_x
 _atom_site_fract_y
 _atom_site_fract_z
 _atom_site_occupancy
  In  In0  1  -0.00508198  0.15688808  0.13477968  1
  In  In1  1  0.00330834  0.16796387  0.61587815  1
  In  In2  1  -0.01612571  0.50025477  0.12694371  1
  In  In3  1  -0.00586142  0.51356591  0.62511948  1
  In  In4  1  0.00687551  0.83518885  0.12499673  1
  In  In5  1  -0.01729859  0.83893970  0.62345774  1
  In  In6  1  0.33832293  0.18049419  0.12452974  1
  In  In7  1  0.32060420  0.16733450  0.62640711  1
  In  In8  1  0.33743243  0.48633155  0.13523665  1
  In  In9  1  0.34206319  0.48760783  0.61932876  1
  In  In10  1  0.32773447  0.82875457  0.11533055  1
  In  In11  1  0.35205642  0.83100392  0.62963240  1
  In  In12  1  0.66601045  0.16542449  0.12484319  1
  In  In13  1  0.67849931  0.15669329  0.63034283  1
  In  In14  1  0.68661879  0.50632271  0.10312590  1
  In  In15  1  0.66798880  0.50225547  0.62366969  1
  In  In16  1  0.66448098  0.83656678  0.12507484  1
  In  In17  1  0.66971121  0.82515922  0.63231037  1
  In  In18  1  0.16736699  0.01525814  0.37860448  1
  In  In19  1  0.17963607  -0.00823358  0.89296089  1
  In  In20  1  0.15604351  0.33117931  0.36018743  1
  In  In21  1  0.15657465  0.32243313  0.88139367  1
  In  In22  1  0.16651947  0.64427319  0.36402830  1
  In  In23  1  0.16933719  0.68018223  0.87684009  1
  In  In24  1  0.50669235  -0.01343942  0.37203279  1
  In  In25  1  0.49696152  -0.00633366  0.87313070  1
  In  In26  1  0.50348102  0.35032423  0.37412938  1
  In  In27  1  0.52815796  0.33654533  0.88558858  1
  In  In28  1  0.50245418  0.66162721  0.36840846  1
  In  In29  1  0.52138374  0.65393183  0.89459672  1
  In  In30  1  0.83232216  0.00937715  0.36689279  1
  In  In31  1  0.83420998  0.01518897  0.87612432  1
  In  In32  1  0.84454637  0.32385868  0.38314625  1
  In  In33  1  0.79865430  0.36266059  0.90808166  1
  In  In34  1  0.81803612  0.67600577  0.38059729  1
  In  In35  1  0.81917866  0.66086302  0.86755869  1
  In  In36  1  -0.00221298  0.16974223  0.36700242  1
  In  In37  1  -0.00516845  0.16873272  0.88367731  1
  In  In38  1  -0.00286657  0.47915479  0.36938234  1
  In  In39  1  -0.01992448  0.49976792  0.87657662  1
  In  In40  1  -0.02990123  0.83463475  0.36206329  1
  In  In41  1  0.01038867  0.83522340  0.87594771  1
  In  In42  1  0.31751332  0.16775227  0.37608800  1
  In  In43  1  0.33845892  0.14672082  0.88218462  1
  In  In44  1  0.33563896  0.50354284  0.35913876  1
  In  In45  1  0.34215080  0.50901155  0.87436983  1
  In  In46  1  0.34597288  0.82241177  0.37167403  1
  In  In47  1  0.33476891  0.84165065  0.88888874  1
  In  In48  1  0.68694792  0.16875784  0.37155085  1
  In  In49  1  0.67761562  0.17548534  0.86756304  1
  In  In50  1  0.65903050  0.50846489  0.38108367  1
  In  In51  1  0.66671627  0.50955177  0.87752500  1
  In  In52  1  0.69159609  0.84874042  0.34921632  1
  In  In53  1  0.65529859  0.82513610  0.87344555  1
  In  In54  1  0.16431925  -0.01383944  0.11652836  1
  In  In55  1  0.16144988  0.01304893  0.62687384  1
  In  In56  1  0.17557620  0.32323023  0.13681111  1
  In  In57  1  0.17483425  0.31705854  0.62007792  1
  In  In58  1  0.16697505  0.68418544  0.12389535  1
  In  In59  1  0.16019687  0.65495615  0.62557202  1
  In  In60  1  0.51182272  0.00291154  0.12139832  1
  In  In61  1  0.50677613  -0.00798396  0.63988287  1
  In  In62  1  0.49614091  0.33292256  0.12475607  1
  In  In63  1  0.50054066  0.35012113  0.62006179  1
  In  In64  1  0.50734407  0.65673304  0.11539200  1
  In  In65  1  0.51147893  0.66561962  0.62566075  1
  In  In66  1  0.81274627  0.00847800  0.14660217  1
  In  In67  1  0.83009596  -0.00552420  0.61711086  1
  In  In68  1  0.83467028  0.33678458  0.12530689  1
  In  In69  1  0.82607690  0.32417692  0.61770622  1
  In  In70  1  0.83144635  0.66210090  0.12551233  1
  In  In71  1  0.82791874  0.66798571  0.62413357  1
  In  In72  1  0.33355232  -0.00004311  0.24897532  1
  In  In73  1  0.83391688  0.83207011  0.00415992  1
  In  In74  1  -0.00196362  0.00009671  0.75191847  1
  In  In75  1  0.33689008  0.67654215  0.75571604  1
  In  In76  1  0.49909501  0.16943996  0.49957455  1
  In  In77  1  0.16190391  0.83900322  0.49658772  1
  In  In78  1  0.33827829  0.33226959  0.74531304  1
  In  In79  1  0.66920867  0.33540673  0.24958750  1
  In  In80  1  -0.00844314  0.33170847  0.75042239  1
  In  In81  1  0.50812296  0.82702631  0.49941719  1
  In  In82  1  -0.00285779  0.66519699  0.24887426  1
  In  In83  1  0.16119731  0.48930898  0.49203779  1
  In  In84  1  0.16573293  0.49907805  0.00638976  1
  In  In85  1  0.50273258  0.16696772  0.00170463  1
  Cu  Cu86  1  0.17244101  0.15665360  0.75612050  1
  Cu  Cu87  1  0.00039129  0.32967704  0.49448218  1
  Cu  Cu88  1  -0.01224500  0.66896839  0.49861332  1
  Cu  Cu89  1  0.82279875  0.50332365  0.75285765  1
  Cu  Cu90  1  0.67034013  0.00073517  0.00274070  1
  Cu  Cu91  1  -0.00330932  0.00369738  0.00542535  1
  Cu  Cu92  1  0.50294270  0.82167089  0.24239393  1
  Cu  Cu93  1  0.17151044  0.83074023  0.24772817  1
  Cu  Cu94  1  0.16427955  0.16662478  0.24824057  1
  Cu  Cu95  1  -0.00193292  0.32201478  0.00881375  1
  Cu  Cu96  1  0.15534324  0.50205463  0.74678246  1
  Cu  Cu97  1  0.33066057  0.33187688  0.00359020  1
  Cu  Cu98  1  0.33274782  0.65547623  0.48682539  1
  Cu  Cu99  1  0.50837626  0.50163746  0.75162415  1
  Cu  Cu100  1  0.50714117  0.50385043  0.24522443  1
  Cu  Cu101  1  -0.00090753  0.66728947  0.00394656  1
  Cu  Cu102  1  0.66685162  0.66849521  0.50093605  1
  Cu  Cu103  1  0.49920022  0.83585142  0.76032950  1
  Cu  Cu104  1  -0.00613825  0.00662453  0.49262511  1
  Cu  Cu105  1  0.16983136  0.83523674  0.75900861  1
  Cu  Cu106  1  0.67533071  -0.00171434  0.49500785  1
  Cu  Cu107  1  0.33607308  0.67044687  0.00155588  1
  Cu  Cu108  1  0.82690198  0.83136069  0.74601627  1
  Cu  Cu109  1  0.82767016  0.49811039  0.24932793  1
  Cu  Cu110  1  0.33111302  0.00308854  0.50696048  1
  Cu  Cu111  1  0.49844091  0.16877711  0.24630224  1
  Cu  Cu112  1  0.50521151  0.16677011  0.75626841  1
  Cu  Cu113  1  0.83291893  0.17301107  0.75127578  1
  Cu  Cu114  1  0.66912536  0.33765868  0.49913940  1
  Se  Se115  1  0.08123751  0.08358665  0.06078059  1
  Se  Se116  1  0.08361663  0.08114448  0.54855549  1
  Se  Se117  1  0.07764372  0.40818849  0.06634173  1
  Se  Se118  1  0.07444894  0.40672211  0.56390193  1
  Se  Se119  1  0.08311526  0.75565389  0.04993088  1
  Se  Se120  1  0.07567465  0.74393818  0.55733373  1
  Se  Se121  1  0.40926401  0.07886371  0.05930272  1
  Se  Se122  1  0.42010590  0.07362952  0.56566810  1
  Se  Se123  1  0.41290295  0.41518678  0.05579255  1
  Se  Se124  1  0.41068144  0.40783017  0.54516901  1
  Se  Se125  1  0.42340985  0.75041560  0.05369746  1
  Se  Se126  1  0.40895158  0.73439181  0.55284691  1
  Se  Se127  1  0.75180229  0.07950370  0.06047472  1
  Se  Se128  1  0.75292894  0.08562105  0.55036840  1
  Se  Se129  1  0.75525650  0.40237671  0.04547133  1
  Se  Se130  1  0.75207007  0.42040501  0.55414128  1
  Se  Se131  1  0.73972157  0.73929316  0.05542552  1
  Se  Se132  1  0.74774798  0.75530291  0.55449550  1
  Se  Se133  1  0.24594892  0.25077283  0.05528498  1
  Se  Se134  1  0.25961586  0.24929000  0.54825413  1
  Se  Se135  1  0.25710501  0.58934125  0.06346520  1
  Se  Se136  1  0.25310795  0.58334927  0.55336367  1
  Se  Se137  1  0.25698302  0.91984535  0.04742353  1
  Se  Se138  1  0.25657507  0.91569181  0.56509347  1
  Se  Se139  1  0.59390629  0.26186144  0.05544558  1
  Se  Se140  1  0.59273407  0.25327162  0.56150106  1
  Se  Se141  1  0.57395401  0.56095012  0.04506862  1
  Se  Se142  1  0.58249171  0.58343874  0.55232200  1
  Se  Se143  1  0.58485320  0.91556848  0.05103846  1
  Se  Se144  1  0.59195914  0.92414453  0.55825441  1
  Se  Se145  1  0.91537189  0.24174151  0.06420486  1
  Se  Se146  1  0.91662728  0.24803617  0.55053942  1
  Se  Se147  1  0.91325932  0.58380389  0.05273098  1
  Se  Se148  1  0.90864383  0.58348556  0.55292381  1
  Se  Se149  1  0.91374934  0.92686580  0.06658054  1
  Se  Se150  1  0.91569789  0.91831775  0.54609220  1
  Se  Se151  1  0.08389781  0.25186121  0.43724379  1
  Se  Se152  1  0.08343632  0.24261446  0.95487197  1
  Se  Se153  1  0.06927814  0.58812169  0.43952354  1
  Se  Se154  1  0.07843829  0.58696098  0.94075112  1
  Se  Se155  1  0.07029625  0.92062057  0.43264598  1
  Se  Se156  1  0.07756177  0.91764543  0.95186577  1
  Se  Se157  1  0.41373560  0.25545571  0.43532236  1
  Se  Se158  1  0.41392994  0.25951407  0.93810720  1
  Se  Se159  1  0.41892221  0.57633586  0.43535789  1
  Se  Se160  1  0.41543120  0.58160298  0.95114013  1
  Se  Se161  1  0.40859682  0.92154703  0.44628161  1
  Se  Se162  1  0.41491827  0.93240213  0.95142760  1
  Se  Se163  1  0.75136665  0.24917289  0.45024310  1
  Se  Se164  1  0.75872848  0.23281285  0.94791609  1
  Se  Se165  1  0.75072572  0.58203416  0.44977306  1
  Se  Se166  1  0.76252454  0.57723599  0.94600869  1
  Se  Se167  1  0.75319888  0.91723804  0.43542466  1
  Se  Se168  1  0.74760861  0.92139711  0.93888917  1
  Se  Se169  1  0.24945292  0.08596343  0.45359860  1
  Se  Se170  1  0.23581261  0.10265515  0.95171712  1
  Se  Se171  1  0.25336290  0.41117230  0.42874690  1
  Se  Se172  1  0.25470840  0.41293620  0.93865653  1
  Se  Se173  1  0.24839300  0.74146823  0.43687279  1
  Se  Se174  1  0.24827308  0.75224848  0.95138392  1
  Se  Se175  1  0.58859831  0.07690020  0.43912668  1
  Se  Se176  1  0.59272430  0.08095355  0.93868523  1
  Se  Se177  1  0.58197480  0.42062828  0.45103497  1
  Se  Se178  1  0.57438312  0.44159000  0.95254112  1
  Se  Se179  1  0.59641279  0.74879016  0.43271569  1
  Se  Se180  1  0.58046118  0.76132141  0.95441927  1
  Se  Se181  1  0.91307508  0.09067351  0.43866914  1
  Se  Se182  1  0.91238555  0.08576253  0.95273684  1
  Se  Se183  1  0.91591074  0.42020438  0.45031587  1
  Se  Se184  1  0.92380763  0.41274451  0.95421131  1
  Se  Se185  1  0.91048478  0.75626134  0.44447973  1
  Se  Se186  1  0.92082582  0.74481071  0.93875559  1
  Se  Se187  1  0.25141273  0.24880479  0.29884556  1
  Se  Se188  1  0.24983650  0.24581680  0.81124966  1
  Se  Se189  1  0.26323665  0.59656214  0.29198841  1
  Se  Se190  1  0.24108305  0.57760413  0.80653814  1
  Se  Se191  1  0.24656719  0.91041946  0.31404877  1
  Se  Se192  1  0.25139061  0.91658189  0.81361809  1
  Se  Se193  1  0.57828625  0.24472920  0.31167645  1
  Se  Se194  1  0.58620478  0.25654108  0.80369804  1
  Se  Se195  1  0.59153607  0.58366907  0.30029180  1
  Se  Se196  1  0.58357337  0.59065895  0.80611768  1
  Se  Se197  1  0.57960044  0.91344027  0.29458128  1
  Se  Se198  1  0.58911895  0.92168843  0.80452766  1
  Se  Se199  1  0.91857900  0.26081753  0.30226878  1
  Se  Se200  1  0.90549517  0.25125139  0.81696826  1
  Se  Se201  1  0.90828006  0.57746856  0.31189748  1
  Se  Se202  1  0.91324446  0.58447316  0.80151252  1
  Se  Se203  1  0.92476269  0.93951127  0.29388362  1
  Se  Se204  1  0.90635632  0.90842005  0.81035280  1
  Se  Se205  1  0.08528597  0.08183045  0.30301920  1
  Se  Se206  1  0.08727067  0.08321219  0.81657620  1
  Se  Se207  1  0.10028113  0.44055264  0.29827277  1
  Se  Se208  1  0.08521892  0.42112633  0.81155829  1
  Se  Se209  1  0.08724211  0.75664622  0.31180602  1
  Se  Se210  1  0.08215578  0.74876087  0.80308753  1
  Se  Se211  1  0.42303235  0.08862851  0.31223561  1
  Se  Se212  1  0.41823527  0.08248118  0.80349556  1
  Se  Se213  1  0.42403860  0.41676114  0.29573594  1
  Se  Se214  1  0.42745277  0.41903759  0.81010252  1
  Se  Se215  1  0.41856275  0.74312837  0.29794004  1
  Se  Se216  1  0.42597200  0.75245905  0.82355682  1
  Se  Se217  1  0.73503896  0.07427141  0.29779716  1
  Se  Se218  1  0.75167287  0.08221085  0.79953213  1
  Se  Se219  1  0.75410619  0.42053260  0.31711413  1
  Se  Se220  1  0.74807696  0.41757068  0.81218636  1
  Se  Se221  1  0.75068530  0.73649202  0.29489820  1
  Se  Se222  1  0.74249282  0.75135970  0.80179713  1
  Se  Se223  1  0.24628306  0.08816522  0.18685301  1
  Se  Se224  1  0.25381547  0.07677354  0.69926338  1
  Se  Se225  1  0.24005319  0.42261318  0.20203257  1
  Se  Se226  1  0.23843314  0.42277050  0.68961278  1
  Se  Se227  1  0.25774911  0.75210649  0.19551577  1
  Se  Se228  1  0.24210301  0.75683064  0.68915865  1
  Se  Se229  1  0.58292971  0.08567406  0.19588665  1
  Se  Se230  1  0.58863536  0.08395554  0.70038815  1
  Se  Se231  1  0.58839200  0.42505704  0.18384121  1
  Se  Se232  1  0.58559742  0.41784180  0.69432363  1
  Se  Se233  1  0.58522496  0.74109060  0.18720620  1
  Se  Se234  1  0.57587979  0.75279589  0.69978517  1
  Se  Se235  1  0.92669551  0.06168668  0.20449512  1
  Se  Se236  1  0.91354589  0.09264335  0.68959249  1
  Se  Se237  1  0.91421821  0.41437711  0.20047014  1
  Se  Se238  1  0.90465551  0.42463788  0.69055895  1
  Se  Se239  1  0.90938100  0.75861159  0.19095492  1
  Se  Se240  1  0.91361751  0.75053050  0.69397423  1
  Se  Se241  1  0.07670512  0.24984996  0.19863749  1
  Se  Se242  1  0.09103346  0.23865724  0.69663361  1
  Se  Se243  1  0.08686901  0.58319555  0.18412092  1
  Se  Se244  1  0.07322902  0.59012004  0.69994973  1
  Se  Se245  1  0.08920617  0.91501575  0.19620797  1
  Se  Se246  1  0.08912375  0.90825974  0.69168035  1
  Se  Se247  1  0.41598888  0.25663802  0.19943897  1
  Se  Se248  1  0.42940826  0.24122023  0.68693875  1
  Se  Se249  1  0.42196460  0.58327486  0.19004810  1
  Se  Se250  1  0.41829178  0.57695072  0.69355913  1
  Se  Se251  1  0.42294578  0.91157104  0.18760663  1
  Se  Se252  1  0.41370320  0.91619619  0.70614527  1
  Se  Se253  1  0.75872804  0.24090308  0.19560328  1
  Se  Se254  1  0.74866444  0.25484577  0.69661424  1
  Se  Se255  1  0.74675365  0.57562916  0.19049452  1
  Se  Se256  1  0.74419623  0.58801393  0.69517137  1
  Se  Se257  1  0.74834550  0.90066334  0.20224259  1
  Se  Se258  1  0.75030437  0.92118011  0.69265972  1
