# generated using pymatgen
data_In86Cu29Se144
_symmetry_space_group_name_H-M   'P 1'
_cell_length_a   17.58556330
_cell_length_b   17.58501240
_cell_length_c   23.45150503
_cell_angle_alpha   90.00277275
_cell_angle_beta   90.01159057
_cell_angle_gamma   89.99646963
_symmetry_Int_Tables_number   1
_chemical_formula_structural   In86Cu29Se144
_chemical_formula_sum   'In86 Cu29 Se144'
_cell_volume   7252.19832511
_cell_formula_units_Z   1
loop_
 _symmetry_equiv_pos_site_id
 _symmetry_equiv_pos_as_xyz
  1  'x, y, z'
loop_
 _atom_site_type_symbol
 _atom_site_label
 _atom_site_symmetry_multiplicity
 _atom_site_fract_x
 _atom_site_fract_y
 _atom_site_fract_z
 _atom_site_occupancy
  In  In0  1  -0.00020533  0.17035245  0.12195324  1
  In  In1  1  -0.00062555  0.17074449  0.63863631  1
  In  In2  1  -0.00005419  0.49341006  0.12725205  1
  In  In3  1  -0.00009982  0.47835291  0.62463225  1
  In  In4  1  0.01942315  0.85749023  0.11226271  1
  In  In5  1  0.00986612  0.84811490  0.61913867  1
  In  In6  1  0.33064558  0.16527600  0.12294279  1
  In  In7  1  0.32797136  0.16014965  0.61664805  1
  In  In8  1  0.33461990  0.48221798  0.12991449  1
  In  In9  1  0.34171963  0.50850971  0.61670540  1
  In  In10  1  0.32403680  0.84803490  0.13059399  1
  In  In11  1  0.31469381  0.84698242  0.63199598  1
  In  In12  1  0.66628951  0.16843043  0.12798652  1
  In  In13  1  0.66937279  0.16931183  0.61783823  1
  In  In14  1  0.64799140  0.48897261  0.12385185  1
  In  In15  1  0.65001911  0.50522540  0.61557235  1
  In  In16  1  0.68347996  0.83604886  0.12660106  1
  In  In17  1  0.67490145  0.82314413  0.61515279  1
  In  In18  1  0.16432024  -0.00947923  0.36243038  1
  In  In19  1  0.16033492  0.00759542  0.87738204  1
  In  In20  1  0.17373263  0.33829934  0.36671732  1
  In  In21  1  0.15077421  0.31913814  0.87055279  1
  In  In22  1  0.16687959  0.66592174  0.38614986  1
  In  In23  1  0.17969025  0.66325036  0.87343053  1
  In  In24  1  0.51010882  0.01165571  0.36391943  1
  In  In25  1  0.50266752  0.01190447  0.87853445  1
  In  In26  1  0.49678752  0.32923048  0.37456330  1
  In  In27  1  0.50465162  0.33026766  0.88627603  1
  In  In28  1  0.49649551  0.65415515  0.37765501  1
  In  In29  1  0.48270920  0.66587501  0.87578552  1
  In  In30  1  0.83605208  0.00208837  0.37574839  1
  In  In31  1  0.84187143  0.00273421  0.87934813  1
  In  In32  1  0.82182424  0.31731864  0.36475988  1
  In  In33  1  0.85189156  0.31561309  0.88943821  1
  In  In34  1  0.84276110  0.66989519  0.38049491  1
  In  In35  1  0.84450787  0.67797737  0.87282385  1
  In  In36  1  -0.00653814  0.15413357  0.36733233  1
  In  In37  1  0.00274444  0.16660753  0.87852379  1
  In  In38  1  0.00945583  0.49597925  0.37836519  1
  In  In39  1  0.01109487  0.48619631  0.87213205  1
  In  In40  1  0.00013037  0.84011641  0.38026261  1
  In  In41  1  -0.00673137  0.85110308  0.88339687  1
  In  In42  1  0.34589918  0.17739250  0.36758747  1
  In  In43  1  0.33926073  0.16190555  0.87973294  1
  In  In44  1  0.35324621  0.46676850  0.40191224  1
  In  In45  1  0.33191085  0.50761075  0.87528018  1
  In  In46  1  0.32066403  0.83627886  0.37427236  1
  In  In47  1  0.31931559  0.82942009  0.87181205  1
  In  In48  1  0.66762288  0.16497295  0.37508549  1
  In  In49  1  0.66914465  0.16164469  0.88638109  1
  In  In50  1  0.66427848  0.48423767  0.37057366  1
  In  In51  1  0.66393433  0.48579824  0.87732425  1
  In  In52  1  0.66750953  0.84975825  0.37233699  1
  In  In53  1  0.67278611  0.84542778  0.87857460  1
  In  In54  1  0.16048014  0.00034885  0.12681161  1
  In  In55  1  0.17007930  0.00499391  0.63081553  1
  In  In56  1  0.17681825  0.32596478  0.12957382  1
  In  In57  1  0.15791302  0.32315732  0.61636883  1
  In  In58  1  0.15825717  0.67461411  0.12417448  1
  In  In59  1  0.17352931  0.67769133  0.62244434  1
  In  In60  1  0.48700404  0.01462588  0.13413466  1
  In  In61  1  0.48157764  -0.00013017  0.62332926  1
  In  In62  1  0.49752751  0.33113813  0.12756381  1
  In  In63  1  0.49357010  0.33202034  0.60821424  1
  In  In64  1  0.50088422  0.65539540  0.12394830  1
  In  In65  1  0.49484387  0.65609900  0.61922204  1
  In  In66  1  0.83692211  0.00629093  0.12520978  1
  In  In67  1  0.85064296  0.01353981  0.61828300  1
  In  In68  1  0.85226362  0.30932811  0.13669623  1
  In  In69  1  0.84205354  0.32307294  0.62603137  1
  In  In70  1  0.82589075  0.67841419  0.12488780  1
  In  In71  1  0.81959970  0.67127096  0.61977504  1
  In  In72  1  0.67099908  0.33024481  0.74486164  1
  In  In73  1  0.00383805  0.66855968  0.74825418  1
  In  In74  1  0.65897646  0.66359198  0.73836990  1
  In  In75  1  0.50320562  0.83222751  0.49700886  1
  In  In76  1  -0.00166200  0.66969874  0.25622669  1
  In  In77  1  0.66731544  -0.00010369  0.75446101  1
  In  In78  1  0.17172343  0.49614498  -0.00140520  1
  In  In79  1  0.32683480  0.32807510  0.74782488  1
  In  In80  1  0.33083000  0.66327451  0.25454427  1
  In  In81  1  0.17278121  0.16766448  0.49547268  1
  In  In82  1  0.66973111  0.66604701  0.25509426  1
  In  In83  1  0.83148996  0.49692998  0.50129201  1
  In  In84  1  0.82496278  0.50642320  0.00370010  1
  In  In85  1  0.49835028  0.83972801  0.00496746  1
  Cu  Cu86  1  0.49175738  0.50092361  0.74710868  1
  Cu  Cu87  1  -0.00031904  0.00857346  0.00143973  1
  Cu  Cu88  1  0.83300231  0.83682132  0.74669072  1
  Cu  Cu89  1  0.83782811  0.48739602  0.74722420  1
  Cu  Cu90  1  0.17082688  0.49625566  0.25925379  1
  Cu  Cu91  1  -0.00030576  0.00311474  0.49643274  1
  Cu  Cu92  1  0.32670804  0.67230983  0.50114485  1
  Cu  Cu93  1  -0.00024182  0.67267395  0.50338677  1
  Cu  Cu94  1  0.66374027  0.33549746  0.00858251  1
  Cu  Cu95  1  0.50006360  0.17125109  0.24859255  1
  Cu  Cu96  1  0.16685890  0.16389811  0.24645451  1
  Cu  Cu97  1  0.32526513  0.00266191  0.00269096  1
  Cu  Cu98  1  0.67008506  0.00420747  0.00525266  1
  Cu  Cu99  1  0.33528879  0.32799425  0.00301263  1
  Cu  Cu100  1  0.48281409  0.83275459  0.74851357  1
  Cu  Cu101  1  -0.00067047  0.67753692  -0.00171110  1
  Cu  Cu102  1  0.16220736  0.84151662  0.75279946  1
  Cu  Cu103  1  0.82923912  0.48948314  0.24629624  1
  Cu  Cu104  1  0.50308370  0.83656743  0.24969198  1
  Cu  Cu105  1  0.17178352  0.49779484  0.74880642  1
  Cu  Cu106  1  0.33527401  0.66432947  -0.00135772  1
  Cu  Cu107  1  0.66481597  0.32701913  0.49262428  1
  Cu  Cu108  1  0.67134429  0.00283266  0.49488698  1
  Cu  Cu109  1  -0.00231727  0.32416744  0.49975979  1
  Cu  Cu110  1  0.83356289  0.16082874  0.24957669  1
  Cu  Cu111  1  0.33394259  0.00174513  0.49813195  1
  Cu  Cu112  1  0.49703667  0.16409920  0.75207627  1
  Cu  Cu113  1  0.84446886  0.84621005  0.24857480  1
  Cu  Cu114  1  0.66574349  0.67142529  0.00309254  1
  Se  Se115  1  0.08680179  0.08746010  0.05514313  1
  Se  Se116  1  0.07946206  0.08419270  0.55803952  1
  Se  Se117  1  0.08228529  0.40902895  0.05895393  1
  Se  Se118  1  0.08166888  0.41230300  0.54741423  1
  Se  Se119  1  0.08893768  0.75583678  0.04915593  1
  Se  Se120  1  0.08631322  0.75584051  0.55437018  1
  Se  Se121  1  0.41530476  0.08282965  0.05258040  1
  Se  Se122  1  0.41885143  0.08679744  0.54744138  1
  Se  Se123  1  0.41680072  0.41495278  0.05409664  1
  Se  Se124  1  0.42361020  0.42938164  0.54689838  1
  Se  Se125  1  0.40844442  0.74602187  0.06367843  1
  Se  Se126  1  0.40555230  0.75581498  0.56195982  1
  Se  Se127  1  0.75221845  0.08957459  0.05759569  1
  Se  Se128  1  0.75272316  0.08337931  0.55318436  1
  Se  Se129  1  0.75205556  0.40908500  0.06775222  1
  Se  Se130  1  0.74039230  0.40401308  0.56140527  1
  Se  Se131  1  0.75271148  0.75650420  0.04849559  1
  Se  Se132  1  0.75194159  0.74731485  0.54230641  1
  Se  Se133  1  0.24729603  0.24698197  0.05225352  1
  Se  Se134  1  0.26450270  0.26404208  0.54903147  1
  Se  Se135  1  0.25642132  0.58709959  0.06395940  1
  Se  Se136  1  0.24569331  0.58600641  0.55435679  1
  Se  Se137  1  0.24417363  0.91688058  0.05458195  1
  Se  Se138  1  0.24635448  0.92611168  0.55394007  1
  Se  Se139  1  0.58051366  0.24837322  0.05830883  1
  Se  Se140  1  0.58236201  0.24479346  0.54888462  1
  Se  Se141  1  0.58487994  0.58285905  0.05137897  1
  Se  Se142  1  0.59025224  0.60061017  0.54744644  1
  Se  Se143  1  0.58851018  0.92569666  0.06651400  1
  Se  Se144  1  0.58936758  0.92671489  0.55926243  1
  Se  Se145  1  0.91477416  0.24808549  0.05060514  1
  Se  Se146  1  0.92184776  0.23992560  0.55721611  1
  Se  Se147  1  0.92492533  0.59546939  0.06108791  1
  Se  Se148  1  0.92381597  0.58658162  0.56354857  1
  Se  Se149  1  0.91430839  0.92186915  0.05223149  1
  Se  Se150  1  0.91650238  0.91690282  0.54988894  1
  Se  Se151  1  0.07742716  0.25044934  0.43424398  1
  Se  Se152  1  0.08151939  0.25025286  0.95013837  1
  Se  Se153  1  0.07716512  0.58453223  0.45037245  1
  Se  Se154  1  0.07646709  0.59023817  0.94076692  1
  Se  Se155  1  0.08854333  0.92374869  0.44471909  1
  Se  Se156  1  0.08522988  0.92168625  0.95130456  1
  Se  Se157  1  0.41744319  0.24767331  0.44650846  1
  Se  Se158  1  0.42054926  0.24475273  0.94961164  1
  Se  Se159  1  0.41163014  0.58740903  0.45144233  1
  Se  Se160  1  0.41787623  0.57718577  0.94989970  1
  Se  Se161  1  0.41659290  0.92416539  0.43626318  1
  Se  Se162  1  0.40734544  0.92247047  0.94119224  1
  Se  Se163  1  0.75432734  0.24438707  0.44626184  1
  Se  Se164  1  0.74489466  0.25558920  0.95031330  1
  Se  Se165  1  0.74473988  0.58266935  0.43627186  1
  Se  Se166  1  0.74201384  0.59587692  0.93436321  1
  Se  Se167  1  0.75422532  0.91631451  0.44574916  1
  Se  Se168  1  0.75246582  0.92314519  0.94858995  1
  Se  Se169  1  0.25679457  0.07768303  0.43171462  1
  Se  Se170  1  0.24707792  0.08750869  0.94651324  1
  Se  Se171  1  0.22687774  0.42539479  0.44631597  1
  Se  Se172  1  0.25683834  0.40363029  0.93594090  1
  Se  Se173  1  0.24623844  0.75896372  0.44997270  1
  Se  Se174  1  0.24924931  0.74714085  0.94844694  1
  Se  Se175  1  0.58246000  0.08244146  0.44441740  1
  Se  Se176  1  0.58099434  0.08432207  0.95425045  1
  Se  Se177  1  0.58199034  0.41451627  0.44496822  1
  Se  Se178  1  0.58216912  0.41990836  0.95378964  1
  Se  Se179  1  0.59190419  0.74546647  0.43399762  1
  Se  Se180  1  0.58460201  0.74808673  0.93917498  1
  Se  Se181  1  0.91477228  0.08778445  0.44676426  1
  Se  Se182  1  0.91287243  0.09070303  0.95019534  1
  Se  Se183  1  0.91592818  0.40460465  0.43889894  1
  Se  Se184  1  0.92582294  0.42049726  0.95085674  1
  Se  Se185  1  0.91827969  0.75515268  0.44920749  1
  Se  Se186  1  0.91196854  0.75917951  0.94813263  1
  Se  Se187  1  0.24985133  0.24755047  0.30072998  1
  Se  Se188  1  0.24391722  0.23482818  0.80772562  1
  Se  Se189  1  0.24887788  0.57547978  0.32007097  1
  Se  Se190  1  0.25424742  0.58269243  0.79932277  1
  Se  Se191  1  0.26117545  0.92016005  0.29737961  1
  Se  Se192  1  0.24570375  0.92368091  0.80774442  1
  Se  Se193  1  0.58402277  0.24837078  0.30690617  1
  Se  Se194  1  0.58071842  0.24296410  0.80995164  1
  Se  Se195  1  0.57424001  0.57171939  0.30341524  1
  Se  Se196  1  0.57738764  0.57535101  0.80843524  1
  Se  Se197  1  0.58971366  0.92192496  0.29686148  1
  Se  Se198  1  0.56991336  0.90596106  0.80850577  1
  Se  Se199  1  0.91905435  0.24726076  0.30000820  1
  Se  Se200  1  0.92511097  0.25596126  0.80820132  1
  Se  Se201  1  0.90610391  0.57062953  0.30860982  1
  Se  Se202  1  0.91246155  0.57339074  0.80739949  1
  Se  Se203  1  0.92560255  0.92356172  0.30718295  1
  Se  Se204  1  0.91181974  0.91626308  0.80508626  1
  Se  Se205  1  0.08278375  0.08013522  0.29866623  1
  Se  Se206  1  0.06243084  0.06823920  0.80807265  1
  Se  Se207  1  0.07671638  0.41369584  0.30214661  1
  Se  Se208  1  0.08765429  0.41194621  0.79704676  1
  Se  Se209  1  0.09279241  0.75571191  0.31228703  1
  Se  Se210  1  0.08591225  0.75759550  0.81444438  1
  Se  Se211  1  0.41537913  0.08371242  0.29823757  1
  Se  Se212  1  0.41629030  0.08017418  0.80520676  1
  Se  Se213  1  0.40987435  0.41488272  0.31032020  1
  Se  Se214  1  0.42234696  0.41479975  0.81021724  1
  Se  Se215  1  0.42641873  0.75626400  0.31135807  1
  Se  Se216  1  0.40681724  0.74718044  0.80460157  1
  Se  Se217  1  0.75021991  0.08094641  0.30608147  1
  Se  Se218  1  0.75647046  0.09290260  0.81029467  1
  Se  Se219  1  0.74436663  0.40796114  0.29822550  1
  Se  Se220  1  0.76060713  0.41244432  0.81222223  1
  Se  Se221  1  0.76555808  0.75979367  0.30678999  1
  Se  Se222  1  0.74887279  0.75469820  0.80241407  1
  Se  Se223  1  0.25092301  0.08102098  0.19285989  1
  Se  Se224  1  0.25425368  0.09164120  0.69427365  1
  Se  Se225  1  0.25012795  0.41248079  0.20271202  1
  Se  Se226  1  0.24763764  0.42098804  0.68272181  1
  Se  Se227  1  0.24036864  0.75499233  0.19669628  1
  Se  Se228  1  0.24410308  0.75391821  0.70123770  1
  Se  Se229  1  0.58456756  0.08465519  0.19837376  1
  Se  Se230  1  0.57757647  0.08640989  0.68949382  1
  Se  Se231  1  0.58017792  0.41061866  0.19909221  1
  Se  Se232  1  0.57251801  0.41954060  0.68943779  1
  Se  Se233  1  0.57974818  0.75421150  0.18896870  1
  Se  Se234  1  0.56890053  0.76278765  0.68592363  1
  Se  Se235  1  0.92225075  0.08490777  0.19444994  1
  Se  Se236  1  0.92311611  0.07449899  0.70073476  1
  Se  Se237  1  0.92199481  0.41260513  0.19785499  1
  Se  Se238  1  0.92194096  0.40217378  0.69880013  1
  Se  Se239  1  0.91861972  0.75967111  0.18887601  1
  Se  Se240  1  0.91125648  0.75454885  0.68689522  1
  Se  Se241  1  0.08365580  0.24985092  0.19443897  1
  Se  Se242  1  0.09942124  0.24555587  0.69652212  1
  Se  Se243  1  0.09222233  0.57630902  0.19655638  1
  Se  Se244  1  0.08803333  0.57487137  0.68703445  1
  Se  Se245  1  0.08420952  0.91511679  0.19857070  1
  Se  Se246  1  0.08093858  0.92303451  0.69739085  1
  Se  Se247  1  0.41138195  0.24819593  0.19417715  1
  Se  Se248  1  0.42537916  0.24640828  0.68809815  1
  Se  Se249  1  0.42198256  0.57276964  0.19595526  1
  Se  Se250  1  0.41213722  0.58788255  0.69573636  1
  Se  Se251  1  0.41566232  0.91747928  0.19905984  1
  Se  Se252  1  0.40602006  0.92442681  0.69876221  1
  Se  Se253  1  0.74845128  0.24833224  0.20025802  1
  Se  Se254  1  0.76094396  0.23201141  0.69541706  1
  Se  Se255  1  0.75401986  0.57639343  0.18813316  1
  Se  Se256  1  0.75582650  0.56615934  0.68874951  1
  Se  Se257  1  0.75389918  0.92349035  0.19708908  1
  Se  Se258  1  0.75113914  0.91388127  0.68617873  1
