# generated using pymatgen
data_In86Cu29Se144
_symmetry_space_group_name_H-M   'P 1'
_cell_length_a   17.58659032
_cell_length_b   17.58647627
_cell_length_c   23.45334518
_cell_angle_alpha   90.02299920
_cell_angle_beta   89.98792249
_cell_angle_gamma   89.98252294
_symmetry_Int_Tables_number   1
_chemical_formula_structural   In86Cu29Se144
_chemical_formula_sum   'In86 Cu29 Se144'
_cell_volume   7253.79383425
_cell_formula_units_Z   1
loop_
 _symmetry_equiv_pos_site_id
 _symmetry_equiv_pos_as_xyz
  1  'x, y, z'
loop_
 _atom_site_type_symbol
 _atom_site_label
 _atom_site_symmetry_multiplicity
 _atom_site_fract_x
 _atom_site_fract_y
 _atom_site_fract_z
 _atom_site_occupancy
  In  In0  1  -0.00322471  0.16653602  0.12169655  1
  In  In1  1  0.01298194  0.16575239  0.62465289  1
  In  In2  1  0.01294657  0.49966537  0.12924901  1
  In  In3  1  -0.00092948  0.49679176  0.63651388  1
  In  In4  1  -0.00223021  0.84070650  0.12612072  1
  In  In5  1  -0.00841777  0.82492994  0.62973781  1
  In  In6  1  0.33237613  0.17549655  0.11882453  1
  In  In7  1  0.33310206  0.16960683  0.62594433  1
  In  In8  1  0.34606809  0.51074765  0.11717260  1
  In  In9  1  0.32818426  0.48892486  0.62557974  1
  In  In10  1  0.32639009  0.81672291  0.12045685  1
  In  In11  1  0.35310576  0.83455039  0.63383285  1
  In  In12  1  0.67478270  0.15757855  0.13488796  1
  In  In13  1  0.65318340  0.18167056  0.62196856  1
  In  In14  1  0.64759495  0.51684424  0.14140583  1
  In  In15  1  0.66566317  0.51266106  0.62234171  1
  In  In16  1  0.66606323  0.83450004  0.12267348  1
  In  In17  1  0.64572727  0.83186772  0.62823093  1
  In  In18  1  0.17086250  0.01227017  0.37233264  1
  In  In19  1  0.18580148  0.00197779  0.87967060  1
  In  In20  1  0.15646906  0.33261894  0.37220907  1
  In  In21  1  0.16628398  0.33580747  0.87871737  1
  In  In22  1  0.16197850  0.65497367  0.35795505  1
  In  In23  1  0.14659836  0.67237881  0.87904001  1
  In  In24  1  0.50556109  -0.00863230  0.37966924  1
  In  In25  1  0.48068064  -0.00960863  0.87119124  1
  In  In26  1  0.50602327  0.32999558  0.38370379  1
  In  In27  1  0.50010750  0.34699090  0.87497544  1
  In  In28  1  0.50584032  0.66605394  0.37277748  1
  In  In29  1  0.50692768  0.66222015  0.87892014  1
  In  In30  1  0.82993858  -0.00327424  0.36445127  1
  In  In31  1  0.83621623  -0.00365545  0.88537445  1
  In  In32  1  0.83463025  0.33101538  0.36715622  1
  In  In33  1  0.83452670  0.31958665  0.88226518  1
  In  In34  1  0.82797728  0.65885838  0.36352442  1
  In  In35  1  0.84487197  0.67346494  0.87937312  1
  In  In36  1  0.00872957  0.17400281  0.36695211  1
  In  In37  1  -0.00477751  0.17400241  0.88254524  1
  In  In38  1  0.00012885  0.49057846  0.35551437  1
  In  In39  1  0.01146082  0.50804450  0.87835812  1
  In  In40  1  -0.00940068  0.82752619  0.36411215  1
  In  In41  1  0.00344434  0.81019019  0.88329975  1
  In  In42  1  0.33157019  0.17021416  0.38335488  1
  In  In43  1  0.31933032  0.15665388  0.86894928  1
  In  In44  1  0.34095452  0.51475226  0.36589897  1
  In  In45  1  0.33904214  0.49338052  0.87967659  1
  In  In46  1  0.34897619  0.82958690  0.37531438  1
  In  In47  1  0.33694932  0.85119486  0.87065019  1
  In  In48  1  0.66406160  0.16335100  0.37266140  1
  In  In49  1  0.67121152  0.17517345  0.88110733  1
  In  In50  1  0.64453859  0.48403294  0.34960853  1
  In  In51  1  0.65078975  0.50171963  0.88216500  1
  In  In52  1  0.65681892  0.82551136  0.36683674  1
  In  In53  1  0.67648229  0.82309599  0.88497039  1
  In  In54  1  0.15328964  -0.00479057  0.11981122  1
  In  In55  1  0.16668087  0.01963791  0.62506414  1
  In  In56  1  0.16073862  0.32620962  0.11704698  1
  In  In57  1  0.17613526  0.32807040  0.63430466  1
  In  In58  1  0.17380737  0.65681613  0.13067034  1
  In  In59  1  0.16519511  0.65722017  0.63065688  1
  In  In60  1  0.51435968  0.00406729  0.12547515  1
  In  In61  1  0.48864941  -0.00765130  0.61998174  1
  In  In62  1  0.50053857  0.35033913  0.13012166  1
  In  In63  1  0.49166055  0.32377804  0.61249186  1
  In  In64  1  0.49580361  0.66580970  0.12406688  1
  In  In65  1  0.50480702  0.67874498  0.61862886  1
  In  In66  1  0.83208238  0.00207494  0.12101063  1
  In  In67  1  0.83370305  -0.00406822  0.62615137  1
  In  In68  1  0.83800716  0.32782153  0.12996130  1
  In  In69  1  0.83277459  0.34660103  0.62840831  1
  In  In70  1  0.83112230  0.67602202  0.12594946  1
  In  In71  1  0.83107929  0.66086801  0.63482197  1
  In  In72  1  0.83093904  0.49963406  0.01611136  1
  In  In73  1  0.32956789  0.66892960  0.75326430  1
  In  In74  1  0.17165159  0.49212960  0.49477171  1
  In  In75  1  0.82456162  0.49720964  0.49153821  1
  In  In76  1  0.17118045  0.83560939  -0.00298492  1
  In  In77  1  0.49820823  0.16571282  -0.00196300  1
  In  In78  1  0.01212520  -0.00980759  0.75909694  1
  In  In79  1  0.66407760  -0.00571007  0.75017789  1
  In  In80  1  0.82932082  0.16763140  0.49201439  1
  In  In81  1  0.17657248  0.83489826  0.49999727  1
  In  In82  1  0.82819379  0.83051641  0.49502468  1
  In  In83  1  0.66640287  0.33910612  0.74754466  1
  In  In84  1  0.32911869  0.33959563  0.24961517  1
  In  In85  1  0.33325212  -0.00707228  0.24907355  1
  Cu  Cu86  1  0.66552020  -0.00225457  0.00271911  1
  Cu  Cu87  1  0.84235333  0.16451974  0.75541597  1
  Cu  Cu88  1  0.83882637  0.50437787  0.24031057  1
  Cu  Cu89  1  0.00796796  0.00024021  0.49483171  1
  Cu  Cu90  1  0.50130432  0.82725502  0.24849538  1
  Cu  Cu91  1  0.83438346  0.50026169  0.75755819  1
  Cu  Cu92  1  -0.00082602  0.33492603  0.00430625  1
  Cu  Cu93  1  0.32917191  0.33573876  -0.00009211  1
  Cu  Cu94  1  0.83736002  0.16659873  0.24808297  1
  Cu  Cu95  1  0.16780721  0.17763360  0.75079543  1
  Cu  Cu96  1  0.50431203  0.16697524  0.25529907  1
  Cu  Cu97  1  0.83441483  0.84296605  0.24212013  1
  Cu  Cu98  1  0.49091508  0.16993917  0.74681650  1
  Cu  Cu99  1  0.66592650  0.33140317  0.00638996  1
  Cu  Cu100  1  0.65767397  0.00599269  0.49959334  1
  Cu  Cu101  1  0.16477213  0.82820324  0.24311703  1
  Cu  Cu102  1  -0.00252814  0.00548973  0.00138433  1
  Cu  Cu103  1  0.34061494  0.66932975  0.49477047  1
  Cu  Cu104  1  0.66479037  0.66541960  0.00685952  1
  Cu  Cu105  1  0.15681163  0.16282887  0.24314562  1
  Cu  Cu106  1  0.00191482  0.65571842  0.50122282  1
  Cu  Cu107  1  0.83258385  0.81678095  0.75676480  1
  Cu  Cu108  1  0.00555368  0.32700177  0.49929610  1
  Cu  Cu109  1  0.33872957  0.66525880  -0.00258701  1
  Cu  Cu110  1  0.33505277  0.33076236  0.50340470  1
  Cu  Cu111  1  0.49676712  0.50359962  0.75105230  1
  Cu  Cu112  1  0.65614254  0.67239496  0.49853608  1
  Cu  Cu113  1  0.16051787  0.49932974  0.75510411  1
  Cu  Cu114  1  0.33632060  0.00781230  0.50147376  1
  Se  Se115  1  0.08427434  0.08769751  0.05139064  1
  Se  Se116  1  0.08522739  0.08787118  0.54789043  1
  Se  Se117  1  0.08471658  0.42035478  0.05169776  1
  Se  Se118  1  0.07904467  0.41172261  0.56133641  1
  Se  Se119  1  0.08838306  0.75014063  0.06368084  1
  Se  Se120  1  0.07927181  0.74201092  0.55665601  1
  Se  Se121  1  0.41193190  0.07490861  0.05960755  1
  Se  Se122  1  0.41923780  0.09046424  0.55591092  1
  Se  Se123  1  0.41922684  0.41384809  0.05124244  1
  Se  Se124  1  0.41427038  0.42236319  0.55169794  1
  Se  Se125  1  0.41934562  0.75036122  0.05076278  1
  Se  Se126  1  0.41416082  0.75637211  0.55203945  1
  Se  Se127  1  0.74587076  0.08648747  0.05368047  1
  Se  Se128  1  0.74330495  0.07828174  0.56034653  1
  Se  Se129  1  0.73531837  0.41323692  0.07199388  1
  Se  Se130  1  0.73828936  0.40939445  0.55628379  1
  Se  Se131  1  0.75031593  0.75268249  0.05271207  1
  Se  Se132  1  0.74431895  0.74262763  0.56100770  1
  Se  Se133  1  0.24701875  0.24701048  0.04747663  1
  Se  Se134  1  0.24709012  0.25157047  0.55629687  1
  Se  Se135  1  0.25258606  0.58680411  0.05192708  1
  Se  Se136  1  0.25647143  0.59130839  0.55426593  1
  Se  Se137  1  0.25950636  0.92514991  0.05876753  1
  Se  Se138  1  0.25887694  0.92605849  0.56365690  1
  Se  Se139  1  0.58402643  0.24982349  0.06587703  1
  Se  Se140  1  0.58630370  0.25635401  0.54464117  1
  Se  Se141  1  0.58006968  0.57926033  0.05527689  1
  Se  Se142  1  0.57779808  0.58450355  0.55193824  1
  Se  Se143  1  0.57967619  0.91493949  0.05244763  1
  Se  Se144  1  0.58081287  0.91674810  0.55283051  1
  Se  Se145  1  0.91284668  0.25080985  0.05324434  1
  Se  Se146  1  0.91746219  0.25501395  0.55941807  1
  Se  Se147  1  0.92764157  0.59249347  0.06311766  1
  Se  Se148  1  0.91751584  0.58003771  0.55969390  1
  Se  Se149  1  0.91703646  0.91836827  0.05321512  1
  Se  Se150  1  0.92604570  0.92193455  0.55379308  1
  Se  Se151  1  0.08762203  0.24482676  0.44535628  1
  Se  Se152  1  0.08344912  0.25292662  0.94873655  1
  Se  Se153  1  0.07594746  0.57871747  0.43637338  1
  Se  Se154  1  0.07915459  0.59018573  0.95362093  1
  Se  Se155  1  0.08009046  0.91361327  0.43553740  1
  Se  Se156  1  0.07599682  0.92583544  0.93804529  1
  Se  Se157  1  0.41923932  0.24777170  0.44982128  1
  Se  Se158  1  0.41047472  0.25633963  0.93713842  1
  Se  Se159  1  0.42143773  0.58389873  0.44269535  1
  Se  Se160  1  0.42223254  0.57879273  0.94570511  1
  Se  Se161  1  0.41379393  0.91845693  0.44843117  1
  Se  Se162  1  0.41499368  0.91533109  0.95072332  1
  Se  Se163  1  0.74108316  0.26416112  0.43998654  1
  Se  Se164  1  0.75055857  0.24756224  0.95625763  1
  Se  Se165  1  0.73758611  0.59388550  0.43833248  1
  Se  Se166  1  0.74600496  0.58415437  0.94618625  1
  Se  Se167  1  0.73914295  0.92544669  0.43977592  1
  Se  Se168  1  0.75203355  0.91453047  0.95171526  1
  Se  Se169  1  0.24692497  0.08499673  0.44913681  1
  Se  Se170  1  0.25414060  0.08726078  0.95210029  1
  Se  Se171  1  0.26346974  0.40704451  0.43334459  1
  Se  Se172  1  0.24656416  0.42197327  0.94800780  1
  Se  Se173  1  0.25057610  0.73741904  0.43422136  1
  Se  Se174  1  0.25995394  0.74488089  0.93481455  1
  Se  Se175  1  0.57792480  0.08863230  0.44417262  1
  Se  Se176  1  0.58733748  0.07399511  0.93632566  1
  Se  Se177  1  0.58485369  0.42998217  0.44021927  1
  Se  Se178  1  0.58121742  0.41285068  0.95340754  1
  Se  Se179  1  0.57651735  0.75882697  0.44517297  1
  Se  Se180  1  0.58265696  0.74773599  0.95036865  1
  Se  Se181  1  0.92226695  0.07594286  0.43612967  1
  Se  Se182  1  0.91202896  0.08923775  0.94942907  1
  Se  Se183  1  0.92816706  0.40968087  0.43958941  1
  Se  Se184  1  0.91654428  0.41588495  0.94531813  1
  Se  Se185  1  0.92150772  0.73574994  0.44134591  1
  Se  Se186  1  0.91072962  0.75455873  0.95626213  1
  Se  Se187  1  0.24316468  0.23727147  0.30425188  1
  Se  Se188  1  0.25164578  0.25814016  0.80636150  1
  Se  Se189  1  0.24206907  0.56631039  0.29588455  1
  Se  Se190  1  0.24156466  0.57942182  0.81524750  1
  Se  Se191  1  0.24268443  0.90354862  0.31072654  1
  Se  Se192  1  0.24396296  0.91803876  0.80209416  1
  Se  Se193  1  0.58387569  0.25350834  0.30756041  1
  Se  Se194  1  0.57697870  0.24420038  0.80754422  1
  Se  Se195  1  0.60534596  0.60888565  0.30249790  1
  Se  Se196  1  0.58404736  0.58139587  0.80380461  1
  Se  Se197  1  0.57931279  0.91755888  0.30107234  1
  Se  Se198  1  0.58342046  0.90630288  0.81484273  1
  Se  Se199  1  0.92123410  0.25211850  0.29993359  1
  Se  Se200  1  0.91966535  0.25326196  0.80630360  1
  Se  Se201  1  0.92120993  0.58726651  0.29665552  1
  Se  Se202  1  0.91854891  0.58243418  0.81104578  1
  Se  Se203  1  0.92045530  0.92235225  0.29767833  1
  Se  Se204  1  0.90995866  0.90596677  0.81209078  1
  Se  Se205  1  0.08041170  0.07764149  0.30050196  1
  Se  Se206  1  0.09106125  0.09450063  0.81298489  1
  Se  Se207  1  0.09360565  0.41282240  0.29503165  1
  Se  Se208  1  0.07895953  0.41446443  0.80869101  1
  Se  Se209  1  0.07921481  0.74796996  0.29856755  1
  Se  Se210  1  0.08644671  0.75887057  0.80250114  1
  Se  Se211  1  0.41752301  0.08710024  0.31074673  1
  Se  Se212  1  0.41378194  0.08416007  0.80212798  1
  Se  Se213  1  0.42761762  0.41900410  0.30790918  1
  Se  Se214  1  0.41493519  0.41745724  0.80168888  1
  Se  Se215  1  0.41731486  0.74494692  0.30201302  1
  Se  Se216  1  0.42388910  0.75343660  0.81118697  1
  Se  Se217  1  0.74961941  0.08689470  0.30191222  1
  Se  Se218  1  0.75589665  0.08646143  0.81036064  1
  Se  Se219  1  0.76090452  0.42221553  0.29956949  1
  Se  Se220  1  0.75296642  0.41988269  0.81771680  1
  Se  Se221  1  0.75779277  0.76068929  0.30283576  1
  Se  Se222  1  0.74661419  0.73809328  0.81020164  1
  Se  Se223  1  0.24651252  0.08672218  0.18775993  1
  Se  Se224  1  0.24977756  0.09070997  0.69860455  1
  Se  Se225  1  0.25019424  0.41953198  0.17814329  1
  Se  Se226  1  0.24869789  0.41972488  0.70251127  1
  Se  Se227  1  0.25542604  0.74444186  0.19935246  1
  Se  Se228  1  0.24330635  0.75854231  0.68924799  1
  Se  Se229  1  0.58524684  0.08038391  0.20317691  1
  Se  Se230  1  0.57822708  0.09078895  0.69139137  1
  Se  Se231  1  0.58902037  0.41081281  0.20425815  1
  Se  Se232  1  0.57389819  0.42307653  0.68678771  1
  Se  Se233  1  0.58461564  0.74866353  0.19066949  1
  Se  Se234  1  0.58354847  0.74124336  0.69878588  1
  Se  Se235  1  0.91659096  0.08247992  0.19165086  1
  Se  Se236  1  0.91839321  0.08150261  0.69435366  1
  Se  Se237  1  0.92226150  0.41632404  0.19280343  1
  Se  Se238  1  0.91490884  0.41395271  0.70402137  1
  Se  Se239  1  0.91817223  0.75473049  0.19477593  1
  Se  Se240  1  0.92013968  0.73985652  0.70131551  1
  Se  Se241  1  0.07920275  0.25129274  0.19117933  1
  Se  Se242  1  0.07791463  0.25431032  0.69773595  1
  Se  Se243  1  0.08398566  0.58700038  0.20096607  1
  Se  Se244  1  0.07960626  0.58514525  0.70191289  1
  Se  Se245  1  0.08327934  0.91928005  0.19755143  1
  Se  Se246  1  0.09102328  0.91182447  0.68417475  1
  Se  Se247  1  0.42324181  0.24307492  0.19350382  1
  Se  Se248  1  0.41457483  0.25860012  0.69318177  1
  Se  Se249  1  0.42864264  0.57314607  0.19474367  1
  Se  Se250  1  0.41657804  0.58125877  0.68800695  1
  Se  Se251  1  0.42238398  0.90729380  0.18638275  1
  Se  Se252  1  0.42607917  0.92082830  0.70295948  1
  Se  Se253  1  0.75022330  0.25134406  0.19955206  1
  Se  Se254  1  0.75862777  0.24007616  0.69291575  1
  Se  Se255  1  0.75177885  0.59186858  0.19617996  1
  Se  Se256  1  0.74809826  0.57636956  0.70095360  1
  Se  Se257  1  0.74624260  0.92247520  0.19078892  1
  Se  Se258  1  0.75995897  0.90055894  0.69326537  1
