# generated using pymatgen
data_In86Cu29Se144
_symmetry_space_group_name_H-M   'P 1'
_cell_length_a   17.58031632
_cell_length_b   17.58434106
_cell_length_c   23.44183463
_cell_angle_alpha   89.99401910
_cell_angle_beta   90.00760820
_cell_angle_gamma   90.01584613
_symmetry_Int_Tables_number   1
_chemical_formula_structural   In86Cu29Se144
_chemical_formula_sum   'In86 Cu29 Se144'
_cell_volume   7246.76801382
_cell_formula_units_Z   1
loop_
 _symmetry_equiv_pos_site_id
 _symmetry_equiv_pos_as_xyz
  1  'x, y, z'
loop_
 _atom_site_type_symbol
 _atom_site_label
 _atom_site_symmetry_multiplicity
 _atom_site_fract_x
 _atom_site_fract_y
 _atom_site_fract_z
 _atom_site_occupancy
  In  In0  1  -0.00701548  0.15791972  0.11567315  1
  In  In1  1  -0.01356590  0.14859611  0.61422121  1
  In  In2  1  0.00593801  0.50795397  0.11968695  1
  In  In3  1  0.00361479  0.49062933  0.62494103  1
  In  In4  1  -0.02738134  0.85984947  0.15689480  1
  In  In5  1  0.00795531  0.84433809  0.61597957  1
  In  In6  1  0.33303400  0.16432495  0.11842720  1
  In  In7  1  0.32715034  0.16248135  0.61976591  1
  In  In8  1  0.31454340  0.50656046  0.12399108  1
  In  In9  1  0.33143231  0.49346595  0.62209229  1
  In  In10  1  0.33596005  0.82391667  0.12242719  1
  In  In11  1  0.33427833  0.85088261  0.62633957  1
  In  In12  1  0.67017482  0.16280828  0.11715168  1
  In  In13  1  0.66483247  0.16005234  0.62416953  1
  In  In14  1  0.68083989  0.50052318  0.12142290  1
  In  In15  1  0.66742034  0.51428347  0.62740112  1
  In  In16  1  0.67283053  0.84001111  0.12824413  1
  In  In17  1  0.67381918  0.82701430  0.62778984  1
  In  In18  1  0.15496556  0.00448747  0.37460892  1
  In  In19  1  0.17549992  0.00960861  0.86845209  1
  In  In20  1  0.17058402  0.32678190  0.38041230  1
  In  In21  1  0.15988594  0.33076551  0.88720048  1
  In  In22  1  0.14923348  0.67937048  0.39009733  1
  In  In23  1  0.15958181  0.66336406  0.87442488  1
  In  In24  1  0.51599274  -0.00423068  0.37624798  1
  In  In25  1  0.50286256  -0.00061300  0.87572820  1
  In  In26  1  0.50252123  0.33284373  0.38339055  1
  In  In27  1  0.48863664  0.32839895  0.87161382  1
  In  In28  1  0.50025116  0.66493213  0.37750180  1
  In  In29  1  0.52327428  0.66657059  0.87212311  1
  In  In30  1  0.83636902  -0.00077972  0.37231048  1
  In  In31  1  0.83042720  0.00086218  0.87052890  1
  In  In32  1  0.82360180  0.32547091  0.37571953  1
  In  In33  1  0.84718886  0.32391798  0.89115202  1
  In  In34  1  0.86143556  0.69648471  0.34628620  1
  In  In35  1  0.82504552  0.67867135  0.88566943  1
  In  In36  1  0.01272196  0.14551671  0.37614998  1
  In  In37  1  0.00646055  0.15718235  0.87851806  1
  In  In38  1  0.00032730  0.50990303  0.37653570  1
  In  In39  1  0.00320365  0.49372080  0.89284061  1
  In  In40  1  -0.00190312  0.84112021  0.36953858  1
  In  In41  1  -0.01756634  0.83563805  0.87776094  1
  In  In42  1  0.32844257  0.16858514  0.38073878  1
  In  In43  1  0.33935320  0.16294194  0.88099523  1
  In  In44  1  0.33269270  0.50155117  0.38514800  1
  In  In45  1  0.32826330  0.49073593  0.87142327  1
  In  In46  1  0.32912428  0.82210547  0.37964705  1
  In  In47  1  0.33176137  0.85185358  0.87287057  1
  In  In48  1  0.67831130  0.15422694  0.38603615  1
  In  In49  1  0.68239813  0.14537054  0.88105344  1
  In  In50  1  0.65761316  0.50950952  0.37985805  1
  In  In51  1  0.67037455  0.51712880  0.87169118  1
  In  In52  1  0.69174385  0.85374211  0.35220080  1
  In  In53  1  0.66924009  0.83569337  0.87486505  1
  In  In54  1  0.15232407  0.00075148  0.13101458  1
  In  In55  1  0.16400956  0.00346391  0.62249639  1
  In  In56  1  0.15044135  0.32642840  0.10960113  1
  In  In57  1  0.16939708  0.33100751  0.62050605  1
  In  In58  1  0.16211917  0.66463420  0.12569648  1
  In  In59  1  0.15756684  0.66201435  0.61789492  1
  In  In60  1  0.51356794  0.01274444  0.11882597  1
  In  In61  1  0.49209719  0.00826461  0.63169484  1
  In  In62  1  0.50854045  0.32757463  0.12022579  1
  In  In63  1  0.50165421  0.33118635  0.61883231  1
  In  In64  1  0.50027541  0.68482858  0.11892764  1
  In  In65  1  0.51642694  0.66609231  0.62325953  1
  In  In66  1  0.82685274  -0.00400035  0.12609504  1
  In  In67  1  0.83566766  -0.00067479  0.62735686  1
  In  In68  1  0.84750900  0.33327361  0.10314863  1
  In  In69  1  0.84582730  0.32461221  0.62857046  1
  In  In70  1  0.83469784  0.67571465  0.13025963  1
  In  In71  1  0.81844436  0.67000949  0.62661568  1
  In  In72  1  0.32768280  0.66611801  0.25171240  1
  In  In73  1  0.33269426  -0.00221032  0.25535962  1
  In  In74  1  0.67168809  0.32876434  0.24408871  1
  In  In75  1  -0.00548106  0.66826913  0.75111435  1
  In  In76  1  -0.00253496  0.32841074  0.24054910  1
  In  In77  1  0.66923972  0.33109703  0.74835211  1
  In  In78  1  0.00436453  0.32739795  0.76227962  1
  In  In79  1  0.33111061  0.33148375  0.25992049  1
  In  In80  1  0.83117898  0.50097736  0.50246074  1
  In  In81  1  0.49664566  0.49728724  -0.00933639  1
  In  In82  1  0.33737474  0.67280586  0.74367853  1
  In  In83  1  0.33160063  0.33110406  0.75241314  1
  In  In84  1  0.16037404  0.83323607  0.00780325  1
  In  In85  1  0.50192497  0.83096329  0.50093357  1
  Cu  Cu86  1  0.50898950  0.16494419  0.24818234  1
  Cu  Cu87  1  -0.00678107  0.67122102  0.00714231  1
  Cu  Cu88  1  0.00408269  0.32720794  0.50088434  1
  Cu  Cu89  1  0.50173285  0.51055263  0.25044607  1
  Cu  Cu90  1  0.66647325  0.32785686  0.50269818  1
  Cu  Cu91  1  0.66398751  0.32262652  -0.00387336  1
  Cu  Cu92  1  0.82834012  0.83660100  0.75215424  1
  Cu  Cu93  1  0.83057198  0.50420133  0.75990815  1
  Cu  Cu94  1  0.50193048  0.15875357  0.75339777  1
  Cu  Cu95  1  0.67007906  -0.00554421  -0.00148074  1
  Cu  Cu96  1  0.83677957  0.16123896  0.24848597  1
  Cu  Cu97  1  0.33210046  0.65934399  0.50286799  1
  Cu  Cu98  1  0.16231297  0.16399243  0.74654001  1
  Cu  Cu99  1  0.50617417  0.83682526  0.75072194  1
  Cu  Cu100  1  0.32652456  0.00213880  0.50175250  1
  Cu  Cu101  1  -0.00306800  -0.00656352  0.00369118  1
  Cu  Cu102  1  0.33024863  0.33334201  -0.00151568  1
  Cu  Cu103  1  0.50827313  0.83885060  0.24364022  1
  Cu  Cu104  1  0.33407702  0.33025548  0.50080302  1
  Cu  Cu105  1  0.16188485  0.84546457  0.74544438  1
  Cu  Cu106  1  0.16439835  0.49664188  0.24936370  1
  Cu  Cu107  1  -0.00389515  -0.00268575  0.49770690  1
  Cu  Cu108  1  0.82874413  0.50695758  0.24652156  1
  Cu  Cu109  1  0.66969923  0.67196774  0.00246758  1
  Cu  Cu110  1  0.67199730  0.67206181  0.49582690  1
  Cu  Cu111  1  0.67024410  -0.00021096  0.50023593  1
  Cu  Cu112  1  0.33182083  0.66858918  -0.00049569  1
  Cu  Cu113  1  0.33693174  0.00323168  -0.00240441  1
  Cu  Cu114  1  -0.00399358  0.67033987  0.49374930  1
  Se  Se115  1  0.08570672  0.07715877  0.05120495  1
  Se  Se116  1  0.08417423  0.08199264  0.54816251  1
  Se  Se117  1  0.08752580  0.42921247  0.04953331  1
  Se  Se118  1  0.08401695  0.41450609  0.55301373  1
  Se  Se119  1  0.06653079  0.75442382  0.07002627  1
  Se  Se120  1  0.08146398  0.75016690  0.55022884  1
  Se  Se121  1  0.42091175  0.08648474  0.05180484  1
  Se  Se122  1  0.41568946  0.08104345  0.55383188  1
  Se  Se123  1  0.40808492  0.41495446  0.06122236  1
  Se  Se124  1  0.41722371  0.41528015  0.55309079  1
  Se  Se125  1  0.41686781  0.75589257  0.04505652  1
  Se  Se126  1  0.40948656  0.74368465  0.56369093  1
  Se  Se127  1  0.75505662  0.07996947  0.05071925  1
  Se  Se128  1  0.75269089  0.08196660  0.55601463  1
  Se  Se129  1  0.74369626  0.41028387  0.04882510  1
  Se  Se130  1  0.74512438  0.40828423  0.56574276  1
  Se  Se131  1  0.75183743  0.75395971  0.05781380  1
  Se  Se132  1  0.75358132  0.75493086  0.55041845  1
  Se  Se133  1  0.24905856  0.24748804  0.05160166  1
  Se  Se134  1  0.24709612  0.24661675  0.55089466  1
  Se  Se135  1  0.24381841  0.58953147  0.05043353  1
  Se  Se136  1  0.24705723  0.57763725  0.55593434  1
  Se  Se137  1  0.25685326  0.92651219  0.06182770  1
  Se  Se138  1  0.24537536  0.91559809  0.55347874  1
  Se  Se139  1  0.58000345  0.24180046  0.04979247  1
  Se  Se140  1  0.58259907  0.24334391  0.55451204  1
  Se  Se141  1  0.58378943  0.58574266  0.05595766  1
  Se  Se142  1  0.59024290  0.58497151  0.54819346  1
  Se  Se143  1  0.58608202  0.91534787  0.05589438  1
  Se  Se144  1  0.58692389  0.92302761  0.56257426  1
  Se  Se145  1  0.93677050  0.25325073  0.04139188  1
  Se  Se146  1  0.91433073  0.24768278  0.55052720  1
  Se  Se147  1  0.90960379  0.58631996  0.05911499  1
  Se  Se148  1  0.92304903  0.59257768  0.56300085  1
  Se  Se149  1  0.91864226  0.91171590  0.06186523  1
  Se  Se150  1  0.91108663  0.91591576  0.55205015  1
  Se  Se151  1  0.08193584  0.24350588  0.44304313  1
  Se  Se152  1  0.06554372  0.25596213  0.94894783  1
  Se  Se153  1  0.08209576  0.57698081  0.45342282  1
  Se  Se154  1  0.08058861  0.59452164  0.95110705  1
  Se  Se155  1  0.08138409  0.91481393  0.44457673  1
  Se  Se156  1  0.08128421  0.92148442  0.93824973  1
  Se  Se157  1  0.41745238  0.24718075  0.44689916  1
  Se  Se158  1  0.41811985  0.25151266  0.94897225  1
  Se  Se159  1  0.42185069  0.58365821  0.44922625  1
  Se  Se160  1  0.40910317  0.59360199  0.93333342  1
  Se  Se161  1  0.40957726  0.92346714  0.44100930  1
  Se  Se162  1  0.41885530  0.91690484  0.94681116  1
  Se  Se163  1  0.75418024  0.24667532  0.45243668  1
  Se  Se164  1  0.75296680  0.23940053  0.94892745  1
  Se  Se165  1  0.75624908  0.59355906  0.43658703  1
  Se  Se166  1  0.74934030  0.58337591  0.95061411  1
  Se  Se167  1  0.74869020  0.91766492  0.44186510  1
  Se  Se168  1  0.75538322  0.91466991  0.94374963  1
  Se  Se169  1  0.24450973  0.08100822  0.44358198  1
  Se  Se170  1  0.24823092  0.08464596  0.94697320  1
  Se  Se171  1  0.24891883  0.41392894  0.44803627  1
  Se  Se172  1  0.24892315  0.42000244  0.94705279  1
  Se  Se173  1  0.25015863  0.74793434  0.45364041  1
  Se  Se174  1  0.25165150  0.75129187  0.93881162  1
  Se  Se175  1  0.58099603  0.08240020  0.45120347  1
  Se  Se176  1  0.58383443  0.08008522  0.94800235  1
  Se  Se177  1  0.58896861  0.41576509  0.44862074  1
  Se  Se178  1  0.59122766  0.40813627  0.93406274  1
  Se  Se179  1  0.59459190  0.75551179  0.43494648  1
  Se  Se180  1  0.58639053  0.75300850  0.94703715  1
  Se  Se181  1  0.91378210  0.08324762  0.44444751  1
  Se  Se182  1  0.91815396  0.07450222  0.94338861  1
  Se  Se183  1  0.92132757  0.40813688  0.44102030  1
  Se  Se184  1  0.90300609  0.42882932  0.95463674  1
  Se  Se185  1  0.91466816  0.75344130  0.43943215  1
  Se  Se186  1  0.91227235  0.75683583  0.95416639  1
  Se  Se187  1  0.23560762  0.23366121  0.30426360  1
  Se  Se188  1  0.23850100  0.24325671  0.81162246  1
  Se  Se189  1  0.24213962  0.57488021  0.31275061  1
  Se  Se190  1  0.24559491  0.58243397  0.80399000  1
  Se  Se191  1  0.24417731  0.90553043  0.31248219  1
  Se  Se192  1  0.25153234  0.92292820  0.79747147  1
  Se  Se193  1  0.58507787  0.24551051  0.31178907  1
  Se  Se194  1  0.58129662  0.24170897  0.81173438  1
  Se  Se195  1  0.58433299  0.59040555  0.30454723  1
  Se  Se196  1  0.58410961  0.58013510  0.79740120  1
  Se  Se197  1  0.58747592  0.92727791  0.29522991  1
  Se  Se198  1  0.58747358  0.91977739  0.80580228  1
  Se  Se199  1  0.91349787  0.24305513  0.30943672  1
  Se  Se200  1  0.90699685  0.23654172  0.81075885  1
  Se  Se201  1  0.92297920  0.57807297  0.29849633  1
  Se  Se202  1  0.91414640  0.58076994  0.81993627  1
  Se  Se203  1  0.90120074  0.90676589  0.30077913  1
  Se  Se204  1  0.91714282  0.91791374  0.80135135  1
  Se  Se205  1  0.07475042  0.06914484  0.29530505  1
  Se  Se206  1  0.08056906  0.08031984  0.80127354  1
  Se  Se207  1  0.08501598  0.41426883  0.30922276  1
  Se  Se208  1  0.09168533  0.42732578  0.81383511  1
  Se  Se209  1  0.07833545  0.74267166  0.30943651  1
  Se  Se210  1  0.08721430  0.76334968  0.80809269  1
  Se  Se211  1  0.42685026  0.09119644  0.31161312  1
  Se  Se212  1  0.41406169  0.08137530  0.80776714  1
  Se  Se213  1  0.42665840  0.42795565  0.31029522  1
  Se  Se214  1  0.42833805  0.42906556  0.80074371  1
  Se  Se215  1  0.42623970  0.76076985  0.30451959  1
  Se  Se216  1  0.42280330  0.75784526  0.81112547  1
  Se  Se217  1  0.74992016  0.08573988  0.30466063  1
  Se  Se218  1  0.74331998  0.07400171  0.79856057  1
  Se  Se219  1  0.75272515  0.42498309  0.30818261  1
  Se  Se220  1  0.75848436  0.41323599  0.81689823  1
  Se  Se221  1  0.72866262  0.72651576  0.30670241  1
  Se  Se222  1  0.75017407  0.74804185  0.80553720  1
  Se  Se223  1  0.24844924  0.08936818  0.19256320  1
  Se  Se224  1  0.24971724  0.08388422  0.69333416  1
  Se  Se225  1  0.23984623  0.41148904  0.19130428  1
  Se  Se226  1  0.23912290  0.42170895  0.69593899  1
  Se  Se227  1  0.24014943  0.76062553  0.19461155  1
  Se  Se228  1  0.23758214  0.75849673  0.68694052  1
  Se  Se229  1  0.59433153  0.08616118  0.19433767  1
  Se  Se230  1  0.58698617  0.08025266  0.69804800  1
  Se  Se231  1  0.57691076  0.42538293  0.19034174  1
  Se  Se232  1  0.57887645  0.42149663  0.68974855  1
  Se  Se233  1  0.58611157  0.74946247  0.19281100  1
  Se  Se234  1  0.58566153  0.75014931  0.69740779  1
  Se  Se235  1  0.91723823  0.08097582  0.19077403  1
  Se  Se236  1  0.92167448  0.07955774  0.69592125  1
  Se  Se237  1  0.90539141  0.42284051  0.18627651  1
  Se  Se238  1  0.91114697  0.42396565  0.70098312  1
  Se  Se239  1  0.92353369  0.73843262  0.20579105  1
  Se  Se240  1  0.91051389  0.75958268  0.68880386  1
  Se  Se241  1  0.08940035  0.23639837  0.18715696  1
  Se  Se242  1  0.08235492  0.24494100  0.68804821  1
  Se  Se243  1  0.08370124  0.58187162  0.19686987  1
  Se  Se244  1  0.08699049  0.57549874  0.69599835  1
  Se  Se245  1  0.09046100  0.91665495  0.20678896  1
  Se  Se246  1  0.07624291  0.92553372  0.69284690  1
  Se  Se247  1  0.42421064  0.24669676  0.19415085  1
  Se  Se248  1  0.42358005  0.24206569  0.69303405  1
  Se  Se249  1  0.41942512  0.58124909  0.18606469  1
  Se  Se250  1  0.42433456  0.57806868  0.68708116  1
  Se  Se251  1  0.42205170  0.91647695  0.18658506  1
  Se  Se252  1  0.41714803  0.91874728  0.70141604  1
  Se  Se253  1  0.76790444  0.24739105  0.18329387  1
  Se  Se254  1  0.76098209  0.23831498  0.69425234  1
  Se  Se255  1  0.74440277  0.58854312  0.19465149  1
  Se  Se256  1  0.75080337  0.58514157  0.70230936  1
  Se  Se257  1  0.75970461  0.90935562  0.20119030  1
  Se  Se258  1  0.74731092  0.91831387  0.69525151  1
