# generated using pymatgen
data_In86Cu29Se144
_symmetry_space_group_name_H-M   'P 1'
_cell_length_a   17.58194564
_cell_length_b   17.57899879
_cell_length_c   23.44058662
_cell_angle_alpha   90.01762156
_cell_angle_beta   90.00469070
_cell_angle_gamma   90.00032569
_symmetry_Int_Tables_number   1
_chemical_formula_structural   In86Cu29Se144
_chemical_formula_sum   'In86 Cu29 Se144'
_cell_volume   7244.85208955
_cell_formula_units_Z   1
loop_
 _symmetry_equiv_pos_site_id
 _symmetry_equiv_pos_as_xyz
  1  'x, y, z'
loop_
 _atom_site_type_symbol
 _atom_site_label
 _atom_site_symmetry_multiplicity
 _atom_site_fract_x
 _atom_site_fract_y
 _atom_site_fract_z
 _atom_site_occupancy
  In  In0  1  -0.00088303  0.16811558  0.12158548  1
  In  In1  1  0.01003102  0.17912626  0.63185629  1
  In  In2  1  -0.02409726  0.51628783  0.14698774  1
  In  In3  1  -0.00430199  0.49377165  0.62150571  1
  In  In4  1  -0.00971337  0.82793250  0.12727386  1
  In  In5  1  -0.00240334  0.82872140  0.60949644  1
  In  In6  1  0.33309149  0.18489878  0.12480691  1
  In  In7  1  0.33408094  0.16117364  0.62345953  1
  In  In8  1  0.33026476  0.48727546  0.12551613  1
  In  In9  1  0.33748304  0.49163083  0.61084448  1
  In  In10  1  0.32753922  0.84371382  0.12836143  1
  In  In11  1  0.32898091  0.82592264  0.61351945  1
  In  In12  1  0.67005443  0.15244123  0.12656704  1
  In  In13  1  0.65454712  0.17416071  0.64357191  1
  In  In14  1  0.67835358  0.51003589  0.11410814  1
  In  In15  1  0.66320984  0.50644804  0.62960413  1
  In  In16  1  0.70930289  0.80230217  0.16406006  1
  In  In17  1  0.66723572  0.83266022  0.62366418  1
  In  In18  1  0.15465743  -0.00014607  0.37091310  1
  In  In19  1  0.15869535  0.00573720  0.88436024  1
  In  In20  1  0.17318623  0.33832352  0.36990734  1
  In  In21  1  0.14807936  0.33160349  0.86551259  1
  In  In22  1  0.14523324  0.67239474  0.38863959  1
  In  In23  1  0.17188305  0.67094350  0.87683853  1
  In  In24  1  0.50787312  -0.00740830  0.38746334  1
  In  In25  1  0.50240641  -0.00677477  0.86780725  1
  In  In26  1  0.48615124  0.35155284  0.39569849  1
  In  In27  1  0.52050688  0.33326587  0.86982190  1
  In  In28  1  0.50999258  0.66058119  0.37924225  1
  In  In29  1  0.50235312  0.65177377  0.87589575  1
  In  In30  1  0.81379825  -0.02401740  0.35154074  1
  In  In31  1  0.82889411  0.00572674  0.88546181  1
  In  In32  1  0.83926407  0.33029315  0.36495222  1
  In  In33  1  0.83204648  0.33107241  0.87983838  1
  In  In34  1  0.86207700  0.69554000  0.34310848  1
  In  In35  1  0.82361052  0.67699478  0.88198040  1
  In  In36  1  -0.00001265  0.15822116  0.36361108  1
  In  In37  1  -0.00323131  0.17239135  0.88269289  1
  In  In38  1  0.00776193  0.51296134  0.36120282  1
  In  In39  1  -0.00345933  0.48316491  0.87414909  1
  In  In40  1  -0.00362115  0.83778200  0.37333019  1
  In  In41  1  -0.00457700  0.83250218  0.88572623  1
  In  In42  1  0.33441495  0.19170627  0.38208407  1
  In  In43  1  0.33219500  0.15755425  0.87784106  1
  In  In44  1  0.33288422  0.48971325  0.38252530  1
  In  In45  1  0.33377495  0.51224896  0.87700270  1
  In  In46  1  0.32725473  0.83727145  0.38379194  1
  In  In47  1  0.32849964  0.82597354  0.87630673  1
  In  In48  1  0.66471830  0.15927676  0.37560452  1
  In  In49  1  0.67170183  0.17329662  0.86655290  1
  In  In50  1  0.66428848  0.50636677  0.37479957  1
  In  In51  1  0.66981757  0.50142950  0.87628168  1
  In  In52  1  0.67108386  0.82650040  0.37300060  1
  In  In53  1  0.67509209  0.84055706  0.86931130  1
  In  In54  1  0.14922275  -0.01160930  0.11782606  1
  In  In55  1  0.16960064  -0.00130678  0.62273462  1
  In  In56  1  0.16681699  0.33452834  0.12607361  1
  In  In57  1  0.15729456  0.33345648  0.62832427  1
  In  In58  1  0.14787259  0.66498021  0.12824013  1
  In  In59  1  0.16265967  0.66407652  0.61269874  1
  In  In60  1  0.51630237  0.00985923  0.12763226  1
  In  In61  1  0.51494910  0.00868859  0.61678786  1
  In  In62  1  0.48760561  0.33457418  0.12612579  1
  In  In63  1  0.50617347  0.34060393  0.61745192  1
  In  In64  1  0.51581082  0.66546713  0.12840446  1
  In  In65  1  0.50779243  0.67037616  0.61480320  1
  In  In66  1  0.83072163  -0.00358562  0.12461616  1
  In  In67  1  0.83079126  -0.01395534  0.62195405  1
  In  In68  1  0.84755363  0.34509701  0.11696923  1
  In  In69  1  0.83412361  0.33121265  0.63456996  1
  In  In70  1  0.83307102  0.66187289  0.12621268  1
  In  In71  1  0.82328055  0.66045379  0.62302232  1
  In  In72  1  -0.00714713  0.00649169  0.75571685  1
  In  In73  1  0.50206584  0.83534701  0.00396708  1
  In  In74  1  0.15820607  0.49985134  0.00041076  1
  In  In75  1  0.66509704  0.33425760  0.25009288  1
  In  In76  1  0.50186194  0.16853299  -0.00195521  1
  In  In77  1  0.83101434  0.16041334  0.49571921  1
  In  In78  1  0.33532057  0.66063936  0.26438998  1
  In  In79  1  0.33724814  0.66385646  0.74864060  1
  In  In80  1  0.83924271  0.51189899  0.49270757  1
  In  In81  1  0.33603003  0.33191547  0.74304976  1
  In  In82  1  -0.00454704  0.66085592  0.74345546  1
  In  In83  1  0.33636178  0.00102038  0.74016254  1
  In  In84  1  0.33541864  0.01098205  0.25208011  1
  In  In85  1  0.16999254  0.16476332  0.50357399  1
  Cu  Cu86  1  0.16292579  0.83857437  0.74967091  1
  Cu  Cu87  1  0.49752066  0.49409403  0.25721802  1
  Cu  Cu88  1  0.82149320  0.83169329  0.75004489  1
  Cu  Cu89  1  -0.00075199  0.33560456  0.00283232  1
  Cu  Cu90  1  0.16577111  0.49282856  0.25210888  1
  Cu  Cu91  1  0.67024836  -0.00578299  0.00249571  1
  Cu  Cu92  1  0.66917984  0.33711493  0.50730258  1
  Cu  Cu93  1  0.33094010  0.33893939  0.00044494  1
  Cu  Cu94  1  0.50915399  0.83061213  0.74096744  1
  Cu  Cu95  1  0.50975069  0.84167979  0.25731682  1
  Cu  Cu96  1  0.33025449  0.67093766  -0.00032545  1
  Cu  Cu97  1  0.83947742  0.16647589  0.24346478  1
  Cu  Cu98  1  -0.00599808  -0.00462098  0.49177474  1
  Cu  Cu99  1  -0.00861974  0.66671479  0.00691371  1
  Cu  Cu100  1  0.16627502  0.16681545  0.24495479  1
  Cu  Cu101  1  0.49969891  0.17252315  0.25520874  1
  Cu  Cu102  1  0.83201558  0.49310237  0.75339317  1
  Cu  Cu103  1  0.67160329  -0.00540501  0.49826556  1
  Cu  Cu104  1  0.00540132  0.33418607  0.49864723  1
  Cu  Cu105  1  0.33608726  0.66166443  0.49403418  1
  Cu  Cu106  1  0.66944209  0.66768581  0.00460923  1
  Cu  Cu107  1  0.66862740  0.33213249  -0.00535750  1
  Cu  Cu108  1  0.33330707  -0.00250822  0.50146388  1
  Cu  Cu109  1  0.67137649  0.67211755  0.49821578  1
  Cu  Cu110  1  0.50680899  0.49622637  0.74758312  1
  Cu  Cu111  1  0.32300699  0.00209039  0.00409275  1
  Cu  Cu112  1  0.00111226  -0.00241825  0.00623993  1
  Cu  Cu113  1  0.83398960  0.16670821  0.75879633  1
  Cu  Cu114  1  0.16025671  0.82637760  0.24803579  1
  Se  Se115  1  0.08571962  0.08792958  0.05159921  1
  Se  Se116  1  0.06739724  0.07624683  0.55747495  1
  Se  Se117  1  0.06879846  0.42153503  0.06705071  1
  Se  Se118  1  0.08531215  0.41664173  0.55386962  1
  Se  Se119  1  0.07900072  0.75009450  0.05546897  1
  Se  Se120  1  0.09474253  0.75930759  0.54781157  1
  Se  Se121  1  0.41104100  0.07869909  0.06134197  1
  Se  Se122  1  0.41561600  0.08130013  0.55412935  1
  Se  Se123  1  0.41769939  0.41988240  0.05136256  1
  Se  Se124  1  0.42505857  0.41500078  0.54505801  1
  Se  Se125  1  0.41007747  0.74479679  0.06505175  1
  Se  Se126  1  0.41767343  0.74690657  0.54818139  1
  Se  Se127  1  0.75260468  0.08317935  0.05165099  1
  Se  Se128  1  0.74202481  0.08060563  0.56228683  1
  Se  Se129  1  0.75156288  0.41473949  0.05008916  1
  Se  Se130  1  0.75686288  0.41750042  0.56000628  1
  Se  Se131  1  0.74644863  0.75214135  0.06284376  1
  Se  Se132  1  0.75424875  0.75238178  0.55427236  1
  Se  Se133  1  0.24744763  0.25534969  0.05202164  1
  Se  Se134  1  0.25714755  0.25971883  0.56013774  1
  Se  Se135  1  0.25124632  0.58940946  0.06187433  1
  Se  Se136  1  0.25260616  0.58144826  0.54991976  1
  Se  Se137  1  0.24467944  0.91133750  0.05363444  1
  Se  Se138  1  0.24461692  0.91636232  0.55137601  1
  Se  Se139  1  0.59031913  0.25633366  0.06148410  1
  Se  Se140  1  0.59301405  0.24664735  0.55861963  1
  Se  Se141  1  0.57927878  0.58340521  0.05040118  1
  Se  Se142  1  0.59203178  0.58222355  0.55050387  1
  Se  Se143  1  0.59535392  0.91517932  0.06577940  1
  Se  Se144  1  0.58483587  0.91205937  0.55126622  1
  Se  Se145  1  0.91403589  0.24701230  0.05038275  1
  Se  Se146  1  0.92149126  0.25441919  0.55647366  1
  Se  Se147  1  0.91430628  0.57557616  0.05707867  1
  Se  Se148  1  0.92950567  0.59853569  0.55656414  1
  Se  Se149  1  0.91442522  0.91406052  0.05555972  1
  Se  Se150  1  0.91019080  0.91381118  0.54651841  1
  Se  Se151  1  0.07734623  0.24584491  0.43896566  1
  Se  Se152  1  0.08519318  0.25637119  0.94801482  1
  Se  Se153  1  0.07919290  0.56762688  0.44743815  1
  Se  Se154  1  0.06990584  0.59256658  0.93902661  1
  Se  Se155  1  0.08627422  0.91546039  0.44460722  1
  Se  Se156  1  0.08376521  0.91430724  0.94987529  1
  Se  Se157  1  0.43221069  0.23923297  0.45439214  1
  Se  Se158  1  0.41269771  0.26112965  0.93761522  1
  Se  Se159  1  0.42097289  0.57852115  0.44325687  1
  Se  Se160  1  0.41509646  0.58571084  0.95070979  1
  Se  Se161  1  0.41751964  0.91196746  0.45127342  1
  Se  Se162  1  0.40719092  0.92567605  0.94303539  1
  Se  Se163  1  0.74544645  0.26168601  0.44043260  1
  Se  Se164  1  0.74866398  0.24200514  0.94566287  1
  Se  Se165  1  0.75247337  0.60143240  0.43233166  1
  Se  Se166  1  0.75025218  0.58336733  0.94843020  1
  Se  Se167  1  0.75366400  0.91447606  0.44107419  1
  Se  Se168  1  0.75196888  0.90937927  0.94840519  1
  Se  Se169  1  0.25652157  0.07690001  0.43674472  1
  Se  Se170  1  0.24543205  0.08899134  0.95026040  1
  Se  Se171  1  0.25256740  0.40179370  0.44818994  1
  Se  Se172  1  0.24936970  0.41412711  0.93707896  1
  Se  Se173  1  0.24790936  0.74658389  0.44708991  1
  Se  Se174  1  0.24501190  0.75443086  0.95010563  1
  Se  Se175  1  0.58779859  0.08497273  0.45181790  1
  Se  Se176  1  0.58872037  0.07284613  0.94063448  1
  Se  Se177  1  0.59335545  0.42341327  0.44986096  1
  Se  Se178  1  0.58412123  0.41830983  0.94574820  1
  Se  Se179  1  0.58371649  0.75357214  0.44565623  1
  Se  Se180  1  0.58815256  0.74534707  0.94045227  1
  Se  Se181  1  0.91339476  0.07199736  0.43087663  1
  Se  Se182  1  0.92090770  0.08198288  0.94960406  1
  Se  Se183  1  0.92242348  0.40917192  0.43821841  1
  Se  Se184  1  0.91324670  0.41677441  0.94968665  1
  Se  Se185  1  0.91614491  0.74634397  0.43683363  1
  Se  Se186  1  0.91013529  0.75209803  0.95258302  1
  Se  Se187  1  0.24959135  0.24659636  0.30167855  1
  Se  Se188  1  0.24974327  0.24526377  0.80925068  1
  Se  Se189  1  0.23773708  0.57500722  0.31803621  1
  Se  Se190  1  0.23816769  0.57664008  0.80391765  1
  Se  Se191  1  0.24506971  0.90935484  0.30319462  1
  Se  Se192  1  0.24542750  0.91649549  0.80848366  1
  Se  Se193  1  0.57545862  0.25492724  0.31742981  1
  Se  Se194  1  0.57864544  0.24097574  0.79852298  1
  Se  Se195  1  0.58219166  0.58338353  0.30152891  1
  Se  Se196  1  0.58652465  0.58160544  0.80294310  1
  Se  Se197  1  0.59025594  0.92489154  0.31117454  1
  Se  Se198  1  0.58548332  0.91436579  0.79954265  1
  Se  Se199  1  0.92228044  0.24871885  0.29758763  1
  Se  Se200  1  0.91816875  0.25123891  0.80930787  1
  Se  Se201  1  0.90637421  0.57190232  0.29550265  1
  Se  Se202  1  0.90865427  0.58021750  0.81239188  1
  Se  Se203  1  0.93270707  0.92869783  0.29979343  1
  Se  Se204  1  0.90703724  0.90750651  0.81054706  1
  Se  Se205  1  0.08480531  0.07851351  0.29422335  1
  Se  Se206  1  0.08981556  0.09353189  0.80925047  1
  Se  Se207  1  0.07945240  0.40858488  0.30233685  1
  Se  Se208  1  0.08607686  0.42818666  0.79878414  1
  Se  Se209  1  0.08082691  0.74749760  0.30691792  1
  Se  Se210  1  0.08278181  0.75587720  0.80751701  1
  Se  Se211  1  0.42352847  0.09132105  0.31870622  1
  Se  Se212  1  0.42395543  0.09061395  0.80396854  1
  Se  Se213  1  0.41464046  0.41101961  0.30906454  1
  Se  Se214  1  0.42078737  0.42483048  0.80921278  1
  Se  Se215  1  0.42412992  0.76244341  0.31417599  1
  Se  Se216  1  0.42818803  0.75802576  0.80703713  1
  Se  Se217  1  0.75296009  0.09398759  0.30225775  1
  Se  Se218  1  0.75268502  0.07638191  0.80677674  1
  Se  Se219  1  0.75636542  0.42712623  0.30541863  1
  Se  Se220  1  0.74884013  0.41220509  0.80903403  1
  Se  Se221  1  0.74861899  0.75961364  0.29180977  1
  Se  Se222  1  0.74373171  0.74273716  0.80251498  1
  Se  Se223  1  0.24504585  0.08604189  0.18290912  1
  Se  Se224  1  0.23467600  0.09498439  0.69457788  1
  Se  Se225  1  0.25103349  0.41241236  0.19881837  1
  Se  Se226  1  0.24841290  0.42830273  0.68915565  1
  Se  Se227  1  0.24897042  0.74743259  0.19447247  1
  Se  Se228  1  0.24178621  0.75469726  0.69191060  1
  Se  Se229  1  0.58467586  0.08938673  0.20462023  1
  Se  Se230  1  0.58457937  0.07036977  0.70094997  1
  Se  Se231  1  0.57726796  0.42448056  0.18811945  1
  Se  Se232  1  0.58829137  0.41149713  0.69422550  1
  Se  Se233  1  0.58111886  0.74857237  0.20414670  1
  Se  Se234  1  0.58854135  0.74103041  0.69123574  1
  Se  Se235  1  0.91933276  0.08133038  0.18963277  1
  Se  Se236  1  0.90652392  0.09213213  0.68751043  1
  Se  Se237  1  0.91761060  0.40396410  0.20221371  1
  Se  Se238  1  0.92000776  0.41745863  0.69780526  1
  Se  Se239  1  0.91651574  0.74129373  0.19726332  1
  Se  Se240  1  0.90911864  0.76048189  0.68925261  1
  Se  Se241  1  0.08247250  0.25019694  0.19210184  1
  Se  Se242  1  0.08513019  0.25590205  0.70452250  1
  Se  Se243  1  0.08317121  0.58352407  0.20517869  1
  Se  Se244  1  0.09231787  0.57624695  0.68821309  1
  Se  Se245  1  0.07873480  0.91112503  0.19492053  1
  Se  Se246  1  0.07848884  0.91400589  0.69043103  1
  Se  Se247  1  0.41538213  0.25294103  0.20135327  1
  Se  Se248  1  0.42800141  0.24225867  0.68704112  1
  Se  Se249  1  0.41932656  0.57721702  0.19361404  1
  Se  Se250  1  0.42488694  0.57460431  0.68651735  1
  Se  Se251  1  0.42827014  0.91573818  0.19449479  1
  Se  Se252  1  0.42204709  0.90523491  0.68260533  1
  Se  Se253  1  0.75511376  0.24841206  0.18646643  1
  Se  Se254  1  0.75160052  0.25141615  0.70381192  1
  Se  Se255  1  0.73893206  0.58773917  0.19359055  1
  Se  Se256  1  0.75333401  0.58076646  0.69910351  1
  Se  Se257  1  0.73564933  0.93781063  0.19786140  1
  Se  Se258  1  0.74450383  0.91906849  0.69591950  1
