# generated using pymatgen
data_In86Cu29Se144
_symmetry_space_group_name_H-M   'P 1'
_cell_length_a   17.62150606
_cell_length_b   17.61519788
_cell_length_c   23.48473719
_cell_angle_alpha   90.01786651
_cell_angle_beta   89.99760363
_cell_angle_gamma   90.00656814
_symmetry_Int_Tables_number   1
_chemical_formula_structural   In86Cu29Se144
_chemical_formula_sum   'In86 Cu29 Se144'
_cell_volume   7289.81034990
_cell_formula_units_Z   1
loop_
 _symmetry_equiv_pos_site_id
 _symmetry_equiv_pos_as_xyz
  1  'x, y, z'
loop_
 _atom_site_type_symbol
 _atom_site_label
 _atom_site_symmetry_multiplicity
 _atom_site_fract_x
 _atom_site_fract_y
 _atom_site_fract_z
 _atom_site_occupancy
  In  In0  1  0.00179746  0.16410609  0.14737963  1
  In  In1  1  0.00387652  0.15162475  0.62255135  1
  In  In2  1  -0.00045459  0.50046771  0.12502931  1
  In  In3  1  0.01091659  0.51404039  0.61846812  1
  In  In4  1  0.01417961  0.85335762  0.10825917  1
  In  In5  1  -0.00394285  0.82765127  0.61535754  1
  In  In6  1  0.32174586  0.16934570  0.13006087  1
  In  In7  1  0.33331178  0.16090682  0.62406087  1
  In  In8  1  0.35813652  0.53451142  0.08659712  1
  In  In9  1  0.32257010  0.50962087  0.63091364  1
  In  In10  1  0.33334469  0.83391287  0.12302543  1
  In  In11  1  0.32837938  0.83563574  0.62818256  1
  In  In12  1  0.66882312  0.16489800  0.13203448  1
  In  In13  1  0.66102128  0.17832406  0.62270857  1
  In  In14  1  0.67369816  0.51614194  0.12684500  1
  In  In15  1  0.67565494  0.51187406  0.61909898  1
  In  In16  1  0.64989462  0.82501684  0.11538778  1
  In  In17  1  0.65843319  0.82196715  0.62080517  1
  In  In18  1  0.16849982  -0.00413298  0.37546542  1
  In  In19  1  0.18299558  -0.05349594  0.89632956  1
  In  In20  1  0.15658497  0.34044510  0.38056537  1
  In  In21  1  0.18227280  0.33733829  0.86985567  1
  In  In22  1  0.17351082  0.65749731  0.38073558  1
  In  In23  1  0.17720581  0.66643063  0.87379113  1
  In  In24  1  0.49455648  -0.00045238  0.38138585  1
  In  In25  1  0.49327697  -0.00295586  0.87339116  1
  In  In26  1  0.48455907  0.33084034  0.37487498  1
  In  In27  1  0.48887834  0.34877007  0.88152531  1
  In  In28  1  0.50265517  0.67388185  0.36860052  1
  In  In29  1  0.49257222  0.66456763  0.87038978  1
  In  In30  1  0.83176603  -0.00875817  0.37056685  1
  In  In31  1  0.85063220  -0.03867697  0.89292856  1
  In  In32  1  0.85523140  0.32953183  0.37380758  1
  In  In33  1  0.82909998  0.33486484  0.87751327  1
  In  In34  1  0.82659373  0.67538195  0.38090757  1
  In  In35  1  0.85486988  0.69046295  0.86423532  1
  In  In36  1  0.01002456  0.17628664  0.36747997  1
  In  In37  1  -0.00041701  0.16281509  0.87134424  1
  In  In38  1  0.00819197  0.49080990  0.37852575  1
  In  In39  1  0.00422808  0.52621002  0.88145981  1
  In  In40  1  -0.00366850  0.83794310  0.37571381  1
  In  In41  1  0.04474802  0.79776146  0.92410678  1
  In  In42  1  0.34321315  0.15454794  0.38420005  1
  In  In43  1  0.33286571  0.16163460  0.86452151  1
  In  In44  1  0.31997974  0.49944601  0.37588241  1
  In  In45  1  0.33067256  0.50187550  0.87439371  1
  In  In46  1  0.33153990  0.83099958  0.37471876  1
  In  In47  1  0.33932656  0.83104448  0.86910723  1
  In  In48  1  0.66517864  0.15372511  0.37754932  1
  In  In49  1  0.65982095  0.15888234  0.86796529  1
  In  In50  1  0.66191506  0.52079548  0.37099836  1
  In  In51  1  0.65165286  0.50699624  0.88081090  1
  In  In52  1  0.67338592  0.82807628  0.37999233  1
  In  In53  1  0.67453728  0.82510439  0.87739737  1
  In  In54  1  0.16866864  0.00148541  0.13491471  1
  In  In55  1  0.17301592  0.00243352  0.61826266  1
  In  In56  1  0.16494360  0.33717028  0.12597542  1
  In  In57  1  0.17736084  0.33573711  0.62097733  1
  In  In58  1  0.18297786  0.68719120  0.10176655  1
  In  In59  1  0.16392066  0.66821733  0.62563351  1
  In  In60  1  0.49778621  -0.02239312  0.12489505  1
  In  In61  1  0.48290258  -0.02295344  0.61727001  1
  In  In62  1  0.48132503  0.34296769  0.12033090  1
  In  In63  1  0.49589790  0.32134646  0.62025364  1
  In  In64  1  0.50183146  0.67252496  0.11796850  1
  In  In65  1  0.48126903  0.69489982  0.65083746  1
  In  In66  1  0.84105907  -0.00050622  0.12457393  1
  In  In67  1  0.84877229  -0.00484195  0.62487515  1
  In  In68  1  0.84674304  0.34492851  0.13420954  1
  In  In69  1  0.81687423  0.34166580  0.62327704  1
  In  In70  1  0.83049077  0.66567553  0.12542177  1
  In  In71  1  0.83347040  0.66758487  0.62253547  1
  In  In72  1  0.00243538  0.66904996  0.24457654  1
  In  In73  1  0.00812156  0.34443203  0.73533498  1
  In  In74  1  0.83329177  0.16604145  0.49831835  1
  In  In75  1  0.66904373  0.00328051  0.75232653  1
  In  In76  1  0.65993637  0.34573572  0.74856758  1
  In  In77  1  0.50106556  0.50551806  0.50465501  1
  In  In78  1  0.83141832  0.50317318  0.00491011  1
  In  In79  1  0.83131181  0.15808093  0.01357575  1
  In  In80  1  0.16546717  0.16737281  0.00702618  1
  In  In81  1  0.49564261  0.16137490  -0.00647520  1
  In  In82  1  0.67184378  0.34062371  0.24580088  1
  In  In83  1  0.31890425  0.34110784  0.24709959  1
  In  In84  1  0.66770516  -0.00573361  0.25415059  1
  In  In85  1  0.01319524  -0.01021003  0.76277333  1
  Cu  Cu86  1  0.84046348  0.50283127  0.25228118  1
  Cu  Cu87  1  0.49468313  0.49984494  0.75303725  1
  Cu  Cu88  1  0.33143825  0.66818958  0.50644681  1
  Cu  Cu89  1  0.83228506  0.51407853  0.74978444  1
  Cu  Cu90  1  0.83560822  0.82423277  0.74471452  1
  Cu  Cu91  1  0.17108360  0.16492184  0.25712327  1
  Cu  Cu92  1  0.66381361  -0.00185268  0.49968297  1
  Cu  Cu93  1  0.00073189  0.33075915  0.00164261  1
  Cu  Cu94  1  0.33176483  -0.00589703  0.50018486  1
  Cu  Cu95  1  0.33040620  -0.00307937  0.00208216  1
  Cu  Cu96  1  0.83104780  0.82851273  0.25174913  1
  Cu  Cu97  1  0.17588756  0.15711137  0.74956409  1
  Cu  Cu98  1  -0.00013250  0.33362821  0.50229230  1
  Cu  Cu99  1  0.49254288  0.82490747  0.24738255  1
  Cu  Cu100  1  0.66626942  0.32276795  0.00347433  1
  Cu  Cu101  1  0.83530619  0.16591198  0.75788989  1
  Cu  Cu102  1  0.17472448  0.51032858  0.24576842  1
  Cu  Cu103  1  0.49507879  0.16709213  0.74653793  1
  Cu  Cu104  1  0.66590659  0.66929263  0.50094754  1
  Cu  Cu105  1  0.32739171  0.32717706  0.49843247  1
  Cu  Cu106  1  0.16935825  0.83101071  0.24522111  1
  Cu  Cu107  1  0.66326430  0.66224643  -0.00409421  1
  Cu  Cu108  1  0.16502065  0.50467795  0.74995299  1
  Cu  Cu109  1  0.49953608  0.16386932  0.25824723  1
  Cu  Cu110  1  0.49315911  0.51242517  0.24071514  1
  Cu  Cu111  1  0.16365162  0.82839437  0.75631670  1
  Cu  Cu112  1  0.66184468  0.33810163  0.49858743  1
  Cu  Cu113  1  -0.00142897  0.66450753  0.49785089  1
  Cu  Cu114  1  0.00470632  -0.00437310  0.49625707  1
  Se  Se115  1  0.07241673  0.08381687  0.06700696  1
  Se  Se116  1  0.08555729  0.08153905  0.54903069  1
  Se  Se117  1  0.07896892  0.41474600  0.05685163  1
  Se  Se118  1  0.08357350  0.41390250  0.55806978  1
  Se  Se119  1  0.07478880  0.74986059  0.04392073  1
  Se  Se120  1  0.08425454  0.74698676  0.55091135  1
  Se  Se121  1  0.40710201  0.08080292  0.06232227  1
  Se  Se122  1  0.41631298  0.07811208  0.55411034  1
  Se  Se123  1  0.41943989  0.41669660  0.04013192  1
  Se  Se124  1  0.40529430  0.41237204  0.55829231  1
  Se  Se125  1  0.41195338  0.75124078  0.05334049  1
  Se  Se126  1  0.41468927  0.74935504  0.56122158  1
  Se  Se127  1  0.73123034  0.06881443  0.06104269  1
  Se  Se128  1  0.74453142  0.07674600  0.56223105  1
  Se  Se129  1  0.74406265  0.40462040  0.06302833  1
  Se  Se130  1  0.74656639  0.42247579  0.54783107  1
  Se  Se131  1  0.74343900  0.74052481  0.05611006  1
  Se  Se132  1  0.75257522  0.75269388  0.55269737  1
  Se  Se133  1  0.26125132  0.26268614  0.05519518  1
  Se  Se134  1  0.24803445  0.24174805  0.55404264  1
  Se  Se135  1  0.22847102  0.57112791  0.04125815  1
  Se  Se136  1  0.24541452  0.58315320  0.55533170  1
  Se  Se137  1  0.24433218  0.92237917  0.06021231  1
  Se  Se138  1  0.24766252  0.90989842  0.55252430  1
  Se  Se139  1  0.58200303  0.24965231  0.06406063  1
  Se  Se140  1  0.58118448  0.24935978  0.54698641  1
  Se  Se141  1  0.58545074  0.57886771  0.05373609  1
  Se  Se142  1  0.57921209  0.60227681  0.56526708  1
  Se  Se143  1  0.57564451  0.91400322  0.04749489  1
  Se  Se144  1  0.58348119  0.91138516  0.55242386  1
  Se  Se145  1  0.92493118  0.25405956  0.06459245  1
  Se  Se146  1  0.91947663  0.25609058  0.56477403  1
  Se  Se147  1  0.92791086  0.59545126  0.05432284  1
  Se  Se148  1  0.91410765  0.58238975  0.55218747  1
  Se  Se149  1  0.89979697  0.90744424  0.05211531  1
  Se  Se150  1  0.91584548  0.91611657  0.54792088  1
  Se  Se151  1  0.08090013  0.24930041  0.44792752  1
  Se  Se152  1  0.07825435  0.25486609  0.93782064  1
  Se  Se153  1  0.08384785  0.57952241  0.44677697  1
  Se  Se154  1  0.10958859  0.57357267  0.94757256  1
  Se  Se155  1  0.08755733  0.91015688  0.44443728  1
  Se  Se156  1  0.06178695  0.93993461  0.95320770  1
  Se  Se157  1  0.41875934  0.24799394  0.45027802  1
  Se  Se158  1  0.40212261  0.25181989  0.94056319  1
  Se  Se159  1  0.40907030  0.58913120  0.44148130  1
  Se  Se160  1  0.42401898  0.57403561  0.94170603  1
  Se  Se161  1  0.41554274  0.91050742  0.44655055  1
  Se  Se162  1  0.41282454  0.91791335  0.94419690  1
  Se  Se163  1  0.74410950  0.25916255  0.43702858  1
  Se  Se164  1  0.74339241  0.24521228  0.94273233  1
  Se  Se165  1  0.74649814  0.58472759  0.44690196  1
  Se  Se166  1  0.75250945  0.59072381  0.93634214  1
  Se  Se167  1  0.75104924  0.91982323  0.44565605  1
  Se  Se168  1  0.73762535  0.91669708  0.95067924  1
  Se  Se169  1  0.24886571  0.07902666  0.44708674  1
  Se  Se170  1  0.25120347  0.07813565  0.94088609  1
  Se  Se171  1  0.24736169  0.41645718  0.44826359  1
  Se  Se172  1  0.24639161  0.42083277  0.94383014  1
  Se  Se173  1  0.25109675  0.74794306  0.44615488  1
  Se  Se174  1  0.23267773  0.77820949  0.93688569  1
  Se  Se175  1  0.58041094  0.08275776  0.44873235  1
  Se  Se176  1  0.59270195  0.07159243  0.94271425  1
  Se  Se177  1  0.58387190  0.41605954  0.43543814  1
  Se  Se178  1  0.58955563  0.40849847  0.94856016  1
  Se  Se179  1  0.58132389  0.74828419  0.44375166  1
  Se  Se180  1  0.58164377  0.74409136  0.93963373  1
  Se  Se181  1  0.92290607  0.07840926  0.43744206  1
  Se  Se182  1  0.92019152  0.08113462  0.94399174  1
  Se  Se183  1  0.91785859  0.41671439  0.44858662  1
  Se  Se184  1  0.92373624  0.41318708  0.94127000  1
  Se  Se185  1  0.91774406  0.75199909  0.44511151  1
  Se  Se186  1  0.90529061  0.75990533  0.95123852  1
  Se  Se187  1  0.24961472  0.24642163  0.31742001  1
  Se  Se188  1  0.25303931  0.25004162  0.79844743  1
  Se  Se189  1  0.25614100  0.58944548  0.30297487  1
  Se  Se190  1  0.25349764  0.58505219  0.80092260  1
  Se  Se191  1  0.24901651  0.91335946  0.30450617  1
  Se  Se192  1  0.25021046  0.91732027  0.80256468  1
  Se  Se193  1  0.58164377  0.24953568  0.30933852  1
  Se  Se194  1  0.57214922  0.25014174  0.80777133  1
  Se  Se195  1  0.57932481  0.58904937  0.29637762  1
  Se  Se196  1  0.58229103  0.58110240  0.80260906  1
  Se  Se197  1  0.57373960  0.90443083  0.30978197  1
  Se  Se198  1  0.58219030  0.91002682  0.80873716  1
  Se  Se199  1  0.92262526  0.25123756  0.29865007  1
  Se  Se200  1  0.91710691  0.25921246  0.80391467  1
  Se  Se201  1  0.91818340  0.58429589  0.31338110  1
  Se  Se202  1  0.92350579  0.58844300  0.80208715  1
  Se  Se203  1  0.91620252  0.91364421  0.30072094  1
  Se  Se204  1  0.91856179  0.89469492  0.80893836  1
  Se  Se205  1  0.08520109  0.07926253  0.30606619  1
  Se  Se206  1  0.10219992  0.08424733  0.81679031  1
  Se  Se207  1  0.09425044  0.42572117  0.30225729  1
  Se  Se208  1  0.08329593  0.42560807  0.81045197  1
  Se  Se209  1  0.09162109  0.75273405  0.30929999  1
  Se  Se210  1  0.07973051  0.75434573  0.81936898  1
  Se  Se211  1  0.41629327  0.07803693  0.30688826  1
  Se  Se212  1  0.41837557  0.07857466  0.79982060  1
  Se  Se213  1  0.42081715  0.42885199  0.30323382  1
  Se  Se214  1  0.41169738  0.41501609  0.80332861  1
  Se  Se215  1  0.40789619  0.74466711  0.30253594  1
  Se  Se216  1  0.41450594  0.74648685  0.79927428  1
  Se  Se217  1  0.75940466  0.09338020  0.30437921  1
  Se  Se218  1  0.76735422  0.07914171  0.81833306  1
  Se  Se219  1  0.75686186  0.42530718  0.31297583  1
  Se  Se220  1  0.75656564  0.42968085  0.80954900  1
  Se  Se221  1  0.74654272  0.74670802  0.30439705  1
  Se  Se222  1  0.74823427  0.74724458  0.80015761  1
  Se  Se223  1  0.25451660  0.08351848  0.20307088  1
  Se  Se224  1  0.25508315  0.07300785  0.69369570  1
  Se  Se225  1  0.25355860  0.43705632  0.17917381  1
  Se  Se226  1  0.24605240  0.41714507  0.69741463  1
  Se  Se227  1  0.24882449  0.74671054  0.18935582  1
  Se  Se228  1  0.24487588  0.74947715  0.69635938  1
  Se  Se229  1  0.57228813  0.08336368  0.19365128  1
  Se  Se230  1  0.57990539  0.08985085  0.68862358  1
  Se  Se231  1  0.57432439  0.42517121  0.18702220  1
  Se  Se232  1  0.57165116  0.42866462  0.68290485  1
  Se  Se233  1  0.58180703  0.74706284  0.19430880  1
  Se  Se234  1  0.59592739  0.75142681  0.70369550  1
  Se  Se235  1  0.90890980  0.07790542  0.20069391  1
  Se  Se236  1  0.91699388  0.08589463  0.70131055  1
  Se  Se237  1  0.92949916  0.42227811  0.20408132  1
  Se  Se238  1  0.90435756  0.43071798  0.68669818  1
  Se  Se239  1  0.91640933  0.76260840  0.18555659  1
  Se  Se240  1  0.92297425  0.74671758  0.69027799  1
  Se  Se241  1  0.09518137  0.25263007  0.20102583  1
  Se  Se242  1  0.09236492  0.23569809  0.69028067  1
  Se  Se243  1  0.09734028  0.58918445  0.18199779  1
  Se  Se244  1  0.08019236  0.58812697  0.69781061  1
  Se  Se245  1  0.07976266  0.91446626  0.19656164  1
  Se  Se246  1  0.08993427  0.90788728  0.68816883  1
  Se  Se247  1  0.42192907  0.24791227  0.19760475  1
  Se  Se248  1  0.41224897  0.25016807  0.69310685  1
  Se  Se249  1  0.41045988  0.58738980  0.18165187  1
  Se  Se250  1  0.41031020  0.58376669  0.70020156  1
  Se  Se251  1  0.41116932  0.91414163  0.19899977  1
  Se  Se252  1  0.41957136  0.90676883  0.69837696  1
  Se  Se253  1  0.76346877  0.24465386  0.19463479  1
  Se  Se254  1  0.75522148  0.24411128  0.69884933  1
  Se  Se255  1  0.75549749  0.58615542  0.20130571  1
  Se  Se256  1  0.74639736  0.59138732  0.69498751  1
  Se  Se257  1  0.74848460  0.90487841  0.18813617  1
  Se  Se258  1  0.75890919  0.91339113  0.68962446  1
