# generated using pymatgen
data_In86Cu29Se144
_symmetry_space_group_name_H-M   'P 1'
_cell_length_a   17.57799566
_cell_length_b   17.58178723
_cell_length_c   23.43437334
_cell_angle_alpha   89.97617630
_cell_angle_beta   90.00719500
_cell_angle_gamma   90.02065360
_symmetry_Int_Tables_number   1
_chemical_formula_structural   In86Cu29Se144
_chemical_formula_sum   'In86 Cu29 Se144'
_cell_volume   7242.45237714
_cell_formula_units_Z   1
loop_
 _symmetry_equiv_pos_site_id
 _symmetry_equiv_pos_as_xyz
  1  'x, y, z'
loop_
 _atom_site_type_symbol
 _atom_site_label
 _atom_site_symmetry_multiplicity
 _atom_site_fract_x
 _atom_site_fract_y
 _atom_site_fract_z
 _atom_site_occupancy
  In  In0  1  -0.04084904  0.19807717  0.16902023  1
  In  In1  1  -0.00232533  0.16759709  0.61673614  1
  In  In2  1  -0.00332530  0.49772363  0.11765513  1
  In  In3  1  0.00331935  0.48006505  0.62541903  1
  In  In4  1  0.00647780  0.83703417  0.13761720  1
  In  In5  1  0.00662280  0.83097929  0.62514499  1
  In  In6  1  0.34207111  0.15930070  0.12404187  1
  In  In7  1  0.33866048  0.17385823  0.62189341  1
  In  In8  1  0.33106067  0.51626550  0.12148298  1
  In  In9  1  0.31680885  0.50888047  0.63204269  1
  In  In10  1  0.33747794  0.81654944  0.12626171  1
  In  In11  1  0.31856717  0.83797625  0.62696925  1
  In  In12  1  0.67264997  0.16757451  0.13055971  1
  In  In13  1  0.65784224  0.15989853  0.61878141  1
  In  In14  1  0.69296155  0.47640730  0.14792263  1
  In  In15  1  0.67286931  0.50111801  0.62113251  1
  In  In16  1  0.66228102  0.83628500  0.12589903  1
  In  In17  1  0.68105664  0.84716020  0.62310493  1
  In  In18  1  0.16476353  0.00237228  0.38615396  1
  In  In19  1  0.15217777  0.01750613  0.87090447  1
  In  In20  1  0.16174801  0.34367533  0.38336804  1
  In  In21  1  0.17006450  0.33244217  0.86846895  1
  In  In22  1  0.16041830  0.66443946  0.37397581  1
  In  In23  1  0.16274103  0.64826479  0.87590744  1
  In  In24  1  0.51150457  0.00887997  0.37366389  1
  In  In25  1  0.51261252  -0.00738616  0.88260702  1
  In  In26  1  0.50728137  0.32363001  0.37215795  1
  In  In27  1  0.48445187  0.33361584  0.87693118  1
  In  In28  1  0.49959691  0.67617297  0.36382292  1
  In  In29  1  0.50096827  0.67578034  0.88025189  1
  In  In30  1  0.84846792  0.03134219  0.34993448  1
  In  In31  1  0.84555005  0.00962587  0.86461400  1
  In  In32  1  0.81973459  0.31429469  0.34706944  1
  In  In33  1  0.84132560  0.32635870  0.88245556  1
  In  In34  1  0.84828952  0.66958869  0.35195261  1
  In  In35  1  0.82879263  0.66783993  0.88732366  1
  In  In36  1  -0.00018086  0.17060412  0.37307249  1
  In  In37  1  -0.00566776  0.16039555  0.86710690  1
  In  In38  1  0.00181086  0.50253352  0.36293727  1
  In  In39  1  0.01453957  0.49144547  0.89300460  1
  In  In40  1  0.01251611  0.84060063  0.36474819  1
  In  In41  1  -0.00760364  0.84848954  0.87693231  1
  In  In42  1  0.34046401  0.16215128  0.38706079  1
  In  In43  1  0.32720735  0.17696693  0.87620583  1
  In  In44  1  0.31632806  0.50464883  0.37517187  1
  In  In45  1  0.31734299  0.48845277  0.86750691  1
  In  In46  1  0.32836473  0.82093367  0.37500490  1
  In  In47  1  0.34691003  0.83694731  0.87217269  1
  In  In48  1  0.66554649  0.16905719  0.36993469  1
  In  In49  1  0.68199313  0.15902194  0.88491385  1
  In  In50  1  0.67732860  0.49931024  0.35617635  1
  In  In51  1  0.66828175  0.51031403  0.88529669  1
  In  In52  1  0.68085468  0.84627858  0.36074826  1
  In  In53  1  0.66037185  0.83040009  0.88149274  1
  In  In54  1  0.15026039  -0.00233748  0.13017765  1
  In  In55  1  0.15548156  -0.00536708  0.61687132  1
  In  In56  1  0.14606663  0.33343150  0.12775833  1
  In  In57  1  0.16123982  0.33263641  0.61837144  1
  In  In58  1  0.17061268  0.66565628  0.12529871  1
  In  In59  1  0.16892766  0.67741329  0.61886934  1
  In  In60  1  0.52075895  0.01246226  0.11562237  1
  In  In61  1  0.50125217  0.01286420  0.62629542  1
  In  In62  1  0.51340643  0.32819148  0.12755599  1
  In  In63  1  0.50098535  0.31717119  0.62496915  1
  In  In64  1  0.49803569  0.66673618  0.12501545  1
  In  In65  1  0.49906292  0.65186056  0.62536320  1
  In  In66  1  0.82635994  0.01271632  0.14030224  1
  In  In67  1  0.82050363  0.00837891  0.63512421  1
  In  In68  1  0.83452474  0.33204861  0.12307748  1
  In  In69  1  0.86521631  0.32479797  0.63146732  1
  In  In70  1  0.85575789  0.63785708  0.14381517  1
  In  In71  1  0.84353798  0.67003547  0.62146314  1
  In  In72  1  0.83761228  0.83884973  0.49003729  1
  In  In73  1  0.49573156  0.48845651  0.49032672  1
  In  In74  1  0.49265040  0.83667773  0.49592050  1
  In  In75  1  0.83563064  0.48775770  0.48433511  1
  In  In76  1  0.83176822  0.83403645  0.00704718  1
  In  In77  1  0.33106788  0.00396498  0.74657571  1
  In  In78  1  0.66350224  0.33180683  0.75281136  1
  In  In79  1  0.33488040  -0.00239440  0.25604554  1
  In  In80  1  0.16458547  0.16662472  0.00079582  1
  In  In81  1  0.66237059  0.67378442  0.76115305  1
  In  In82  1  0.17131030  0.83230277  0.00875275  1
  In  In83  1  0.33466347  0.33538980  0.25276665  1
  In  In84  1  -0.00094636  0.67071325  0.75327967  1
  In  In85  1  0.50211819  0.50043881  0.00398820  1
  Cu  Cu86  1  0.32953726  0.00287255  0.50688761  1
  Cu  Cu87  1  0.00408313  0.65694937  0.49525970  1
  Cu  Cu88  1  0.16942016  0.83152748  0.74723853  1
  Cu  Cu89  1  -0.00700133  0.00106214  0.49450682  1
  Cu  Cu90  1  0.67243798  0.66001824  0.01238669  1
  Cu  Cu91  1  0.34510349  -0.00512806  0.00194762  1
  Cu  Cu92  1  0.67037888  0.01325057  0.49612040  1
  Cu  Cu93  1  0.16658773  0.16404353  0.26015578  1
  Cu  Cu94  1  0.66857945  0.66749863  0.48759339  1
  Cu  Cu95  1  0.33136334  0.66519821  -0.00040862  1
  Cu  Cu96  1  0.82488930  0.82831875  0.24433757  1
  Cu  Cu97  1  0.32476587  0.66660563  0.49988263  1
  Cu  Cu98  1  -0.00665544  0.01023865  0.00360162  1
  Cu  Cu99  1  0.83387835  0.16976649  0.74947771  1
  Cu  Cu100  1  0.50512029  0.82823057  0.75394827  1
  Cu  Cu101  1  0.16497841  0.50469810  0.24865412  1
  Cu  Cu102  1  0.67165134  0.32858960  0.00855519  1
  Cu  Cu103  1  0.49144869  0.83674031  0.24570161  1
  Cu  Cu104  1  0.50286532  0.16179256  0.75070576  1
  Cu  Cu105  1  0.83157300  0.50818260  0.75682895  1
  Cu  Cu106  1  -0.00675854  0.32875718  0.00699925  1
  Cu  Cu107  1  0.49576749  0.50632353  0.24513441  1
  Cu  Cu108  1  0.16175606  0.49481995  0.74872778  1
  Cu  Cu109  1  0.32908537  0.33454308  -0.00301325  1
  Cu  Cu110  1  -0.00075219  0.32837528  0.49535940  1
  Cu  Cu111  1  0.48534681  0.49360114  0.74960729  1
  Cu  Cu112  1  0.67296535  0.00301111  0.00548744  1
  Cu  Cu113  1  0.68046735  0.32632298  0.49594844  1
  Cu  Cu114  1  0.33401820  0.33312619  0.50152343  1
  Se  Se115  1  0.07195509  0.08902063  0.06516464  1
  Se  Se116  1  0.07937311  0.08264972  0.54832165  1
  Se  Se117  1  0.08489426  0.41460667  0.04884377  1
  Se  Se118  1  0.08163997  0.41681254  0.54524989  1
  Se  Se119  1  0.07159390  0.74735773  0.06003782  1
  Se  Se120  1  0.07690061  0.74861942  0.54989958  1
  Se  Se121  1  0.42387852  0.08645928  0.05082473  1
  Se  Se122  1  0.41940920  0.08585462  0.55377674  1
  Se  Se123  1  0.41010129  0.40883104  0.06286238  1
  Se  Se124  1  0.41189825  0.41388485  0.56468115  1
  Se  Se125  1  0.41902212  0.74596260  0.05006301  1
  Se  Se126  1  0.41041980  0.74226579  0.56009616  1
  Se  Se127  1  0.75656147  0.08506880  0.05911205  1
  Se  Se128  1  0.75577607  0.08765307  0.55479663  1
  Se  Se129  1  0.75170804  0.41944658  0.05624224  1
  Se  Se130  1  0.75496870  0.40621743  0.56045178  1
  Se  Se131  1  0.75421824  0.73999283  0.07088615  1
  Se  Se132  1  0.74538360  0.74421842  0.55232387  1
  Se  Se133  1  0.25393654  0.25705937  0.06428699  1
  Se  Se134  1  0.24975617  0.24908084  0.55315107  1
  Se  Se135  1  0.24350770  0.58355689  0.04837694  1
  Se  Se136  1  0.24325764  0.58201162  0.55335699  1
  Se  Se137  1  0.25901443  0.92806340  0.06596059  1
  Se  Se138  1  0.24525924  0.91242585  0.55065249  1
  Se  Se139  1  0.58572737  0.24359575  0.05606415  1
  Se  Se140  1  0.58738811  0.25317906  0.54965481  1
  Se  Se141  1  0.59494888  0.57411650  0.07053068  1
  Se  Se142  1  0.59154363  0.58609969  0.54747170  1
  Se  Se143  1  0.58659495  0.91301295  0.04890292  1
  Se  Se144  1  0.59063961  0.92556942  0.55264040  1
  Se  Se145  1  0.92238582  0.23842969  0.06418350  1
  Se  Se146  1  0.91070088  0.24705571  0.54511230  1
  Se  Se147  1  0.91147917  0.58265653  0.05214719  1
  Se  Se148  1  0.92010439  0.57835022  0.55384539  1
  Se  Se149  1  0.92196207  0.92442335  0.06595546  1
  Se  Se150  1  0.91741731  0.92298126  0.56105946  1
  Se  Se151  1  0.08699756  0.24553602  0.44486051  1
  Se  Se152  1  0.07338715  0.25433721  0.94008844  1
  Se  Se153  1  0.08277237  0.57135138  0.44107378  1
  Se  Se154  1  0.07963915  0.59344927  0.95470906  1
  Se  Se155  1  0.07851030  0.91198460  0.44843550  1
  Se  Se156  1  0.08143667  0.93001716  0.94917826  1
  Se  Se157  1  0.42270672  0.25597959  0.44790152  1
  Se  Se158  1  0.41360984  0.24741085  0.95001715  1
  Se  Se159  1  0.41322600  0.59529925  0.43980839  1
  Se  Se160  1  0.40856732  0.58072555  0.93813317  1
  Se  Se161  1  0.40513342  0.92911136  0.43675186  1
  Se  Se162  1  0.42462889  0.90937802  0.94828021  1
  Se  Se163  1  0.75904987  0.24804341  0.43568837  1
  Se  Se164  1  0.75661788  0.24863338  0.95255809  1
  Se  Se165  1  0.75283413  0.59140394  0.43014928  1
  Se  Se166  1  0.75548205  0.57918874  0.95724424  1
  Se  Se167  1  0.74985364  0.93475519  0.43532981  1
  Se  Se168  1  0.75137314  0.92546060  0.94039966  1
  Se  Se169  1  0.24810581  0.08762203  0.45260076  1
  Se  Se170  1  0.25733946  0.07112814  0.94361705  1
  Se  Se171  1  0.25195515  0.42049969  0.45135099  1
  Se  Se172  1  0.24260668  0.41404123  0.94506883  1
  Se  Se173  1  0.24151517  0.74854899  0.44593434  1
  Se  Se174  1  0.25534793  0.74848188  0.93732692  1
  Se  Se175  1  0.58178983  0.09418694  0.44642113  1
  Se  Se176  1  0.58726981  0.08400403  0.94953081  1
  Se  Se177  1  0.60450867  0.41396331  0.43729119  1
  Se  Se178  1  0.59013774  0.40436610  0.94353344  1
  Se  Se179  1  0.59126504  0.75594156  0.43457234  1
  Se  Se180  1  0.59170099  0.74019847  0.95339165  1
  Se  Se181  1  0.91235431  0.08633706  0.44053378  1
  Se  Se182  1  0.91350384  0.08858831  0.94372759  1
  Se  Se183  1  0.92125563  0.39684791  0.42492886  1
  Se  Se184  1  0.91360282  0.41623061  0.95206746  1
  Se  Se185  1  0.92180904  0.73787747  0.43704748  1
  Se  Se186  1  0.92889732  0.74972469  0.94634725  1
  Se  Se187  1  0.25009753  0.24505210  0.31719258  1
  Se  Se188  1  0.23511671  0.23274726  0.80319944  1
  Se  Se189  1  0.24858818  0.58862696  0.30107592  1
  Se  Se190  1  0.24573458  0.58173055  0.79921129  1
  Se  Se191  1  0.24057531  0.91045893  0.31219536  1
  Se  Se192  1  0.24214624  0.91544795  0.81148736  1
  Se  Se193  1  0.59950252  0.26625486  0.30069854  1
  Se  Se194  1  0.57790126  0.24232908  0.81575543  1
  Se  Se195  1  0.58099982  0.58554785  0.30133132  1
  Se  Se196  1  0.56998557  0.57110208  0.81043161  1
  Se  Se197  1  0.57399355  0.91463665  0.30374340  1
  Se  Se198  1  0.58654370  0.91239954  0.80688739  1
  Se  Se199  1  0.91623465  0.23034028  0.29077078  1
  Se  Se200  1  0.91451849  0.25507889  0.80321979  1
  Se  Se201  1  0.90304647  0.56011831  0.29221803  1
  Se  Se202  1  0.91436913  0.58232574  0.81826509  1
  Se  Se203  1  0.90005675  0.90343630  0.31079511  1
  Se  Se204  1  0.92909401  0.92606563  0.79893814  1
  Se  Se205  1  0.08529611  0.07818738  0.31187214  1
  Se  Se206  1  0.08716196  0.09690237  0.79495070  1
  Se  Se207  1  0.09042628  0.41344140  0.30185620  1
  Se  Se208  1  0.07822785  0.42001768  0.80868645  1
  Se  Se209  1  0.05946865  0.72566937  0.30722602  1
  Se  Se210  1  0.09100641  0.75871180  0.81478335  1
  Se  Se211  1  0.42505317  0.09692188  0.30617091  1
  Se  Se212  1  0.42242528  0.08387240  0.81370246  1
  Se  Se213  1  0.42232291  0.42890522  0.31378179  1
  Se  Se214  1  0.40584488  0.40682676  0.80162902  1
  Se  Se215  1  0.40831392  0.75195979  0.29769797  1
  Se  Se216  1  0.41903390  0.74505266  0.80328617  1
  Se  Se217  1  0.72559887  0.07022165  0.29937666  1
  Se  Se218  1  0.74872721  0.08729319  0.80223594  1
  Se  Se219  1  0.77402207  0.43276461  0.29097804  1
  Se  Se220  1  0.75011922  0.42518540  0.81357154  1
  Se  Se221  1  0.74151178  0.74213213  0.29732170  1
  Se  Se222  1  0.76212398  0.76018496  0.81295264  1
  Se  Se223  1  0.24395938  0.09067437  0.19425483  1
  Se  Se224  1  0.24256369  0.08681812  0.68290356  1
  Se  Se225  1  0.24637292  0.42239691  0.18855044  1
  Se  Se226  1  0.24325704  0.41078908  0.69349704  1
  Se  Se227  1  0.23677133  0.76215181  0.19293811  1
  Se  Se228  1  0.25139029  0.74531593  0.69696922  1
  Se  Se229  1  0.59161457  0.07786247  0.19693295  1
  Se  Se230  1  0.58926124  0.08125795  0.69871237  1
  Se  Se231  1  0.57899170  0.41460145  0.20181653  1
  Se  Se232  1  0.57586097  0.42530122  0.68922602  1
  Se  Se233  1  0.57631172  0.75381406  0.19347300  1
  Se  Se234  1  0.58149055  0.75425390  0.68506504  1
  Se  Se235  1  0.93972393  0.05868052  0.20106177  1
  Se  Se236  1  0.91747812  0.08928246  0.69248580  1
  Se  Se237  1  0.93727446  0.39855211  0.18691803  1
  Se  Se238  1  0.91469553  0.42479648  0.70397748  1
  Se  Se239  1  0.91916588  0.74925653  0.19953977  1
  Se  Se240  1  0.90578435  0.76179071  0.69539162  1
  Se  Se241  1  0.08794237  0.25243523  0.20806871  1
  Se  Se242  1  0.05319999  0.27539954  0.68083399  1
  Se  Se243  1  0.08296638  0.57967529  0.18779832  1
  Se  Se244  1  0.08431224  0.58057984  0.68842136  1
  Se  Se245  1  0.09004327  0.91473893  0.20729420  1
  Se  Se246  1  0.08563374  0.91451530  0.69506988  1
  Se  Se247  1  0.42428817  0.24240837  0.19590431  1
  Se  Se248  1  0.41868652  0.24613462  0.69969013  1
  Se  Se249  1  0.41039987  0.58973707  0.19592978  1
  Se  Se250  1  0.41109084  0.58508020  0.69728406  1
  Se  Se251  1  0.42030209  0.92090618  0.18297037  1
  Se  Se252  1  0.42604565  0.90866809  0.69060977  1
  Se  Se253  1  0.75159346  0.25596899  0.19622763  1
  Se  Se254  1  0.75292350  0.24915561  0.68748213  1
  Se  Se255  1  0.72816984  0.60491252  0.19276184  1
  Se  Se256  1  0.75443531  0.58586702  0.69409720  1
  Se  Se257  1  0.74252708  0.91728898  0.19739077  1
  Se  Se258  1  0.74853767  0.91636089  0.70292469  1
