# generated using pymatgen
data_In86Cu29Se144
_symmetry_space_group_name_H-M   'P 1'
_cell_length_a   17.69302191
_cell_length_b   17.68175481
_cell_length_c   23.55207637
_cell_angle_alpha   90.01148279
_cell_angle_beta   90.01110889
_cell_angle_gamma   90.02168004
_symmetry_Int_Tables_number   1
_chemical_formula_structural   In86Cu29Se144
_chemical_formula_sum   'In86 Cu29 Se144'
_cell_volume   7368.11731816
_cell_formula_units_Z   1
loop_
 _symmetry_equiv_pos_site_id
 _symmetry_equiv_pos_as_xyz
  1  'x, y, z'
loop_
 _atom_site_type_symbol
 _atom_site_label
 _atom_site_symmetry_multiplicity
 _atom_site_fract_x
 _atom_site_fract_y
 _atom_site_fract_z
 _atom_site_occupancy
  In  In0  1  -0.00145275  0.16202145  0.11318489  1
  In  In1  1  -0.01506997  0.17886248  0.63863965  1
  In  In2  1  0.00905651  0.50380230  0.12165876  1
  In  In3  1  0.00571173  0.52399673  0.62022612  1
  In  In4  1  -0.01318182  0.82128962  0.12276069  1
  In  In5  1  -0.00327937  0.82393790  0.62298010  1
  In  In6  1  0.32398369  0.18189056  0.12960971  1
  In  In7  1  0.33183221  0.17145085  0.62033804  1
  In  In8  1  0.33190733  0.50004296  0.12470053  1
  In  In9  1  0.34047167  0.51250915  0.61888646  1
  In  In10  1  0.34137672  0.82079011  0.13388935  1
  In  In11  1  0.31699361  0.81881012  0.60778957  1
  In  In12  1  0.67368439  0.15770047  0.12091221  1
  In  In13  1  0.77085493  0.18795803  0.60379405  1
  In  In14  1  0.66789318  0.51427432  0.12575339  1
  In  In15  1  0.66758572  0.50337085  0.62441616  1
  In  In16  1  0.66293717  0.82783124  0.12054578  1
  In  In17  1  0.66581251  0.82356821  0.62157206  1
  In  In18  1  0.16832119  -0.00639039  0.37332560  1
  In  In19  1  0.17880016  -0.00388243  0.88005251  1
  In  In20  1  0.16780115  0.33498017  0.37836976  1
  In  In21  1  0.15558892  0.34411683  0.87648409  1
  In  In22  1  0.16598928  0.66539294  0.37635770  1
  In  In23  1  0.15448126  0.64170698  0.85687539  1
  In  In24  1  0.49528238  0.00813084  0.36688770  1
  In  In25  1  0.48879693  -0.00652293  0.88086094  1
  In  In26  1  0.49258687  0.34888692  0.38049726  1
  In  In27  1  0.51474738  0.34011836  0.87235562  1
  In  In28  1  0.48862144  0.65566410  0.36779496  1
  In  In29  1  0.49864968  0.66485110  0.88043227  1
  In  In30  1  0.84095100  -0.00964478  0.38782870  1
  In  In31  1  0.83291461  -0.00309799  0.87978237  1
  In  In32  1  0.83890481  0.33496750  0.38863693  1
  In  In33  1  0.82688888  0.32617290  0.85874546  1
  In  In34  1  0.83454844  0.66783625  0.37631136  1
  In  In35  1  0.83734242  0.66829133  0.86693360  1
  In  In36  1  -0.00352862  0.15896820  0.37930275  1
  In  In37  1  -0.01042146  0.17773643  0.87685945  1
  In  In38  1  -0.01430255  0.51139783  0.39566420  1
  In  In39  1  -0.00095799  0.49987031  0.86101485  1
  In  In40  1  0.00522780  0.83106520  0.38066755  1
  In  In41  1  0.00711918  0.80298131  0.86811331  1
  In  In42  1  0.32947614  0.17185529  0.36515294  1
  In  In43  1  0.33293136  0.15725426  0.88000692  1
  In  In44  1  0.32737145  0.50020515  0.37484139  1
  In  In45  1  0.32335630  0.51138175  0.88403670  1
  In  In46  1  0.32229060  0.82154088  0.36253612  1
  In  In47  1  0.33710327  0.82781620  0.88159277  1
  In  In48  1  0.67069558  0.16276843  0.37733991  1
  In  In49  1  0.67341223  0.17572421  0.87053478  1
  In  In50  1  0.66105942  0.50837465  0.38338052  1
  In  In51  1  0.66364992  0.49522548  0.87105267  1
  In  In52  1  0.68483984  0.82237636  0.37734248  1
  In  In53  1  0.67127217  0.82455138  0.88236705  1
  In  In54  1  0.16339236  0.01207568  0.12589803  1
  In  In55  1  0.17006028  -0.00653396  0.62198630  1
  In  In56  1  0.16980418  0.34761054  0.11453728  1
  In  In57  1  0.10519374  0.37780165  0.66886217  1
  In  In58  1  0.17329434  0.66123843  0.12989595  1
  In  In59  1  0.17184088  0.67015766  0.62406611  1
  In  In60  1  0.50106536  -0.01225681  0.12460262  1
  In  In61  1  0.50313942  -0.00059693  0.63352800  1
  In  In62  1  0.49055081  0.33309913  0.12226765  1
  In  In63  1  0.50784582  0.35037083  0.62197448  1
  In  In64  1  0.49759412  0.66441167  0.12424051  1
  In  In65  1  0.52373669  0.65607973  0.63301535  1
  In  In66  1  0.83205316  -0.00641117  0.11611881  1
  In  In67  1  0.82920663  -0.00481521  0.61297980  1
  In  In68  1  0.84333902  0.33119962  0.12184961  1
  In  In69  1  0.83474295  0.35955990  0.63757901  1
  In  In70  1  0.82073733  0.67619444  0.14161549  1
  In  In71  1  0.82640839  0.66968748  0.62082781  1
  In  In72  1  0.33110513  0.33963500  0.74605489  1
  In  In73  1  0.33508282  -0.01348125  0.76064711  1
  In  In74  1  0.00121580  -0.00628026  0.25545131  1
  In  In75  1  0.00773741  -0.00839178  0.74731982  1
  In  In76  1  0.50698684  0.17560885  0.49942214  1
  In  In77  1  0.00644894  0.33732362  0.25408268  1
  In  In78  1  0.66220077  0.00542770  0.75011097  1
  In  In79  1  0.83809535  0.50166962  -0.01182972  1
  In  In80  1  0.66232047  0.33518759  0.26001423  1
  In  In81  1  0.16369394  0.17652267  0.51015546  1
  In  In82  1  0.66351750  -0.00624316  0.24463249  1
  In  In83  1  0.50477413  0.16752022  -0.00051629  1
  In  In84  1  0.16908052  0.82902494  0.00144428  1
  In  In85  1  0.49786878  0.83094749  0.49218665  1
  Cu  Cu86  1  0.33429669  -0.00116873  0.00446044  1
  Cu  Cu87  1  0.67391420  -0.00242437  -0.00005501  1
  Cu  Cu88  1  0.17455617  0.15810977  0.75537980  1
  Cu  Cu89  1  -0.00021923  0.32366849  -0.00372582  1
  Cu  Cu90  1  0.16968817  0.50161833  0.24946017  1
  Cu  Cu91  1  0.00040203  -0.00529505  -0.00229849  1
  Cu  Cu92  1  0.33406267  0.66304888  0.49395570  1
  Cu  Cu93  1  0.49423802  0.82976850  0.75287956  1
  Cu  Cu94  1  0.17070969  0.17629716  0.24319828  1
  Cu  Cu95  1  0.50188005  0.82914989  0.24634144  1
  Cu  Cu96  1  0.33338959  0.00282337  0.49545932  1
  Cu  Cu97  1  0.50115687  0.50312326  0.75000427  1
  Cu  Cu98  1  0.00010235  0.00336876  0.50208111  1
  Cu  Cu99  1  0.32398994  0.34166829  0.50440098  1
  Cu  Cu100  1  0.48817800  0.17126397  0.24958391  1
  Cu  Cu101  1  0.49299215  0.49787939  0.25048872  1
  Cu  Cu102  1  0.83740543  0.50634314  0.25745029  1
  Cu  Cu103  1  0.66153004  0.67130288  0.00422917  1
  Cu  Cu104  1  0.83195333  0.83290293  0.75043484  1
  Cu  Cu105  1  0.67531171  0.33889469  -0.00792850  1
  Cu  Cu106  1  0.83243031  0.16227793  0.24876230  1
  Cu  Cu107  1  0.16668633  0.83336096  0.25222385  1
  Cu  Cu108  1  0.33168985  0.66318085  0.00396128  1
  Cu  Cu109  1  0.00213493  0.67592689  0.50266749  1
  Cu  Cu110  1  0.33090488  0.33515160  0.00129784  1
  Cu  Cu111  1  -0.00464887  0.65665108  -0.00874546  1
  Cu  Cu112  1  0.67188359  0.33588639  0.50466781  1
  Cu  Cu113  1  0.51146813  0.17339295  0.74769905  1
  Cu  Cu114  1  0.67139336  0.66233265  0.50194081  1
  Se  Se115  1  0.08421399  0.07915188  0.04818423  1
  Se  Se116  1  0.07183959  0.08300124  0.56777326  1
  Se  Se117  1  0.07446851  0.41609805  0.04795810  1
  Se  Se118  1  0.08036217  0.41936095  0.56578584  1
  Se  Se119  1  0.07569422  0.73556628  0.05474387  1
  Se  Se120  1  0.08998586  0.75553698  0.55432170  1
  Se  Se121  1  0.41371487  0.08334521  0.06252388  1
  Se  Se122  1  0.41420619  0.07705542  0.55678662  1
  Se  Se123  1  0.41456343  0.41761994  0.05378026  1
  Se  Se124  1  0.41681694  0.41910194  0.55305844  1
  Se  Se125  1  0.41429353  0.74870526  0.05547892  1
  Se  Se126  1  0.42034572  0.73638467  0.55545100  1
  Se  Se127  1  0.75623252  0.08470949  0.04960001  1
  Se  Se128  1  0.72661757  0.06661809  0.55558483  1
  Se  Se129  1  0.74959289  0.41651319  0.05909236  1
  Se  Se130  1  0.75336484  0.42234988  0.55684462  1
  Se  Se131  1  0.75324638  0.74473781  0.05780167  1
  Se  Se132  1  0.75014998  0.75560260  0.54772936  1
  Se  Se133  1  0.24663991  0.25130517  0.05210702  1
  Se  Se134  1  0.24673124  0.26952338  0.56962031  1
  Se  Se135  1  0.24587082  0.58051214  0.05542344  1
  Se  Se136  1  0.24939720  0.58646284  0.55169490  1
  Se  Se137  1  0.25470976  0.91866769  0.06510206  1
  Se  Se138  1  0.24865895  0.92032237  0.54667398  1
  Se  Se139  1  0.59727482  0.26007008  0.05758026  1
  Se  Se140  1  0.59442747  0.25461469  0.56513982  1
  Se  Se141  1  0.58138525  0.58259498  0.05408244  1
  Se  Se142  1  0.58313776  0.58000184  0.55047351  1
  Se  Se143  1  0.58734892  0.91898435  0.05315862  1
  Se  Se144  1  0.58062337  0.91864267  0.55860417  1
  Se  Se145  1  0.91194280  0.24611466  0.04945690  1
  Se  Se146  1  0.89868323  0.24930647  0.56675095  1
  Se  Se147  1  0.91473381  0.58788346  0.05928508  1
  Se  Se148  1  0.91361742  0.59312533  0.55149087  1
  Se  Se149  1  0.91932362  0.91165311  0.05192900  1
  Se  Se150  1  0.92161084  0.91442108  0.55396988  1
  Se  Se151  1  0.07219161  0.25527588  0.44402846  1
  Se  Se152  1  0.08747584  0.24610930  0.94225810  1
  Se  Se153  1  0.08531647  0.59017839  0.45097715  1
  Se  Se154  1  0.07759315  0.57504262  0.93682544  1
  Se  Se155  1  0.08314093  0.92478559  0.44544646  1
  Se  Se156  1  0.07639258  0.91175819  0.93639877  1
  Se  Se157  1  0.40174499  0.25697920  0.44487576  1
  Se  Se158  1  0.41398865  0.25846492  0.93976999  1
  Se  Se159  1  0.41695541  0.57723993  0.44372283  1
  Se  Se160  1  0.41741812  0.58156447  0.95054133  1
  Se  Se161  1  0.40699346  0.92180761  0.43314878  1
  Se  Se162  1  0.41431242  0.91242249  0.95288352  1
  Se  Se163  1  0.74549630  0.24957164  0.44588486  1
  Se  Se164  1  0.75579124  0.25374705  0.94065467  1
  Se  Se165  1  0.75604648  0.58134839  0.44701126  1
  Se  Se166  1  0.74026979  0.59436232  0.94036096  1
  Se  Se167  1  0.74082054  0.91990198  0.44594547  1
  Se  Se168  1  0.75395312  0.91153641  0.94717181  1
  Se  Se169  1  0.25122567  0.08878504  0.44214729  1
  Se  Se170  1  0.25140205  0.08140202  0.95187048  1
  Se  Se171  1  0.24400565  0.42125067  0.44661126  1
  Se  Se172  1  0.24770874  0.41501629  0.94526303  1
  Se  Se173  1  0.25288714  0.75035148  0.44300691  1
  Se  Se174  1  0.24768310  0.73397469  0.93983854  1
  Se  Se175  1  0.58563404  0.07254341  0.44166565  1
  Se  Se176  1  0.59313038  0.07625702  0.93793424  1
  Se  Se177  1  0.58642414  0.41413437  0.44849231  1
  Se  Se178  1  0.58541483  0.42100534  0.94763490  1
  Se  Se179  1  0.58733645  0.73559406  0.43770498  1
  Se  Se180  1  0.57842541  0.75280392  0.94898061  1
  Se  Se181  1  0.91409439  0.08640821  0.45166288  1
  Se  Se182  1  0.92093209  0.07996741  0.94283198  1
  Se  Se183  1  0.92903050  0.40427093  0.45542615  1
  Se  Se184  1  0.92303802  0.40431063  0.93359406  1
  Se  Se185  1  0.91632335  0.75224128  0.44570944  1
  Se  Se186  1  0.91516824  0.74536462  0.94200462  1
  Se  Se187  1  0.24499587  0.25910821  0.30296527  1
  Se  Se188  1  0.25058701  0.24446097  0.81231582  1
  Se  Se189  1  0.24967635  0.58597150  0.30538425  1
  Se  Se190  1  0.26438081  0.58383540  0.80091727  1
  Se  Se191  1  0.25010299  0.92140655  0.30002960  1
  Se  Se192  1  0.23715396  0.89523698  0.81011601  1
  Se  Se193  1  0.56948612  0.24154261  0.31509379  1
  Se  Se194  1  0.59094673  0.25660521  0.80239745  1
  Se  Se195  1  0.58056439  0.57464916  0.30509169  1
  Se  Se196  1  0.58041971  0.58428999  0.80924345  1
  Se  Se197  1  0.57875645  0.90655402  0.31036636  1
  Se  Se198  1  0.57441164  0.91254159  0.81162102  1
  Se  Se199  1  0.91073182  0.24339348  0.30830921  1
  Se  Se200  1  0.92035368  0.24814256  0.79731710  1
  Se  Se201  1  0.92365381  0.58283316  0.31166184  1
  Se  Se202  1  0.88666877  0.55767549  0.80410556  1
  Se  Se203  1  0.90743105  0.90580220  0.30945583  1
  Se  Se204  1  0.91665109  0.90536045  0.81143814  1
  Se  Se205  1  0.09268988  0.09544933  0.30561121  1
  Se  Se206  1  0.09148187  0.08106963  0.81347534  1
  Se  Se207  1  0.08685244  0.43148565  0.31414957  1
  Se  Se208  1  0.08919275  0.41794501  0.79669924  1
  Se  Se209  1  0.08531441  0.75333860  0.30863898  1
  Se  Se210  1  0.06847094  0.72260346  0.78998347  1
  Se  Se211  1  0.40799027  0.08291598  0.29920824  1
  Se  Se212  1  0.42947243  0.09237050  0.80567735  1
  Se  Se213  1  0.41087211  0.41587270  0.30505328  1
  Se  Se214  1  0.42128984  0.42325311  0.81050620  1
  Se  Se215  1  0.41708378  0.74684233  0.29965288  1
  Se  Se216  1  0.41648171  0.74867341  0.81064911  1
  Se  Se217  1  0.75662917  0.07936454  0.30802707  1
  Se  Se218  1  0.76185320  0.08763141  0.80655663  1
  Se  Se219  1  0.75989915  0.42072717  0.31488125  1
  Se  Se220  1  0.77062099  0.44230490  0.80581779  1
  Se  Se221  1  0.74919413  0.73973205  0.30330731  1
  Se  Se222  1  0.74751943  0.75301790  0.80518386  1
  Se  Se223  1  0.25057629  0.08643179  0.19454212  1
  Se  Se224  1  0.25446094  0.08147761  0.69393979  1
  Se  Se225  1  0.24622356  0.41681680  0.19267501  1
  Se  Se226  1  0.24877715  0.43239163  0.68883878  1
  Se  Se227  1  0.24844343  0.74805899  0.19915757  1
  Se  Se228  1  0.26089026  0.74891972  0.69144552  1
  Se  Se229  1  0.57340527  0.09456635  0.19129683  1
  Se  Se230  1  0.58785633  0.09845697  0.68417949  1
  Se  Se231  1  0.57891365  0.42016449  0.19171007  1
  Se  Se232  1  0.58657127  0.42150756  0.69784842  1
  Se  Se233  1  0.58350838  0.74760489  0.19143592  1
  Se  Se234  1  0.58565368  0.75686311  0.69930202  1
  Se  Se235  1  0.91397315  0.08391598  0.18987402  1
  Se  Se236  1  0.90618628  0.07361172  0.69420496  1
  Se  Se237  1  0.91105521  0.42520090  0.19396180  1
  Se  Se238  1  0.95000465  0.41488722  0.69059197  1
  Se  Se239  1  0.92801681  0.73790490  0.19952823  1
  Se  Se240  1  0.90939920  0.75060016  0.69259551  1
  Se  Se241  1  0.08350586  0.24783551  0.18407377  1
  Se  Se242  1  0.09535650  0.23481468  0.69613752  1
  Se  Se243  1  0.08363836  0.58195717  0.19574511  1
  Se  Se244  1  0.07298195  0.61073015  0.69569620  1
  Se  Se245  1  0.08699771  0.90859553  0.18779488  1
  Se  Se246  1  0.09766300  0.90130766  0.69117119  1
  Se  Se247  1  0.41216962  0.25938433  0.19680150  1
  Se  Se248  1  0.42446489  0.24665680  0.68917704  1
  Se  Se249  1  0.41491428  0.58199732  0.19339029  1
  Se  Se250  1  0.42275512  0.58570993  0.69348615  1
  Se  Se251  1  0.41838725  0.91616446  0.19735840  1
  Se  Se252  1  0.41576878  0.90429797  0.68902561  1
  Se  Se253  1  0.75320040  0.24751991  0.19337271  1
  Se  Se254  1  0.74883151  0.26437411  0.69374321  1
  Se  Se255  1  0.74648161  0.57978460  0.20419910  1
  Se  Se256  1  0.72281856  0.61181083  0.68637557  1
  Se  Se257  1  0.75905353  0.90718705  0.18998955  1
  Se  Se258  1  0.75241335  0.91241387  0.69180625  1
