# generated using pymatgen
data_In86Cu29Se144
_symmetry_space_group_name_H-M   'P 1'
_cell_length_a   17.58539685
_cell_length_b   17.58987438
_cell_length_c   23.45230641
_cell_angle_alpha   90.01303140
_cell_angle_beta   89.99784240
_cell_angle_gamma   89.97795288
_symmetry_Int_Tables_number   1
_chemical_formula_structural   In86Cu29Se144
_chemical_formula_sum   'In86 Cu29 Se144'
_cell_volume   7254.38210743
_cell_formula_units_Z   1
loop_
 _symmetry_equiv_pos_site_id
 _symmetry_equiv_pos_as_xyz
  1  'x, y, z'
loop_
 _atom_site_type_symbol
 _atom_site_label
 _atom_site_symmetry_multiplicity
 _atom_site_fract_x
 _atom_site_fract_y
 _atom_site_fract_z
 _atom_site_occupancy
  In  In0  1  -0.00239970  0.16747629  0.12658502  1
  In  In1  1  -0.00307470  0.16721848  0.62842606  1
  In  In2  1  0.00459200  0.50088041  0.12293562  1
  In  In3  1  -0.01225723  0.50020727  0.63198673  1
  In  In4  1  -0.00000882  0.83216023  0.12291593  1
  In  In5  1  0.01625649  0.82764148  0.63703959  1
  In  In6  1  0.32766539  0.15324685  0.11059098  1
  In  In7  1  0.31459564  0.13417819  0.60085965  1
  In  In8  1  0.33914738  0.50817293  0.11965839  1
  In  In9  1  0.32725198  0.50794449  0.62830765  1
  In  In10  1  0.31520727  0.83034074  0.10768972  1
  In  In11  1  0.31904013  0.84569850  0.62861833  1
  In  In12  1  0.66242017  0.15884458  0.12162149  1
  In  In13  1  0.67232719  0.17065451  0.61510861  1
  In  In14  1  0.67013009  0.50526528  0.11652138  1
  In  In15  1  0.67182954  0.49224797  0.62587953  1
  In  In16  1  0.68175297  0.84306010  0.11814879  1
  In  In17  1  0.66917872  0.82910653  0.63017298  1
  In  In18  1  0.15734978  0.01244426  0.38491231  1
  In  In19  1  0.15921054  0.00270399  0.88295116  1
  In  In20  1  0.14835699  0.32842357  0.37711006  1
  In  In21  1  0.15485322  0.34205722  0.88428766  1
  In  In22  1  0.17341545  0.67849887  0.36692659  1
  In  In23  1  0.14394093  0.68032050  0.88407715  1
  In  In24  1  0.51072438  -0.00160597  0.36828719  1
  In  In25  1  0.49814511  -0.00218291  0.88752221  1
  In  In26  1  0.49017112  0.32954320  0.37183089  1
  In  In27  1  0.50108843  0.33164880  0.88466523  1
  In  In28  1  0.49734489  0.67949336  0.36907022  1
  In  In29  1  0.49209036  0.67402851  0.88681068  1
  In  In30  1  0.84330144  0.00798144  0.36341447  1
  In  In31  1  0.85035128  -0.01112959  0.88450064  1
  In  In32  1  0.85846935  0.32039382  0.39020237  1
  In  In33  1  0.84003562  0.33390251  0.87865645  1
  In  In34  1  0.83574760  0.64705106  0.37827750  1
  In  In35  1  0.85105252  0.65585162  0.88361957  1
  In  In36  1  0.00193877  0.16394717  0.37641059  1
  In  In37  1  -0.00098037  0.16691879  0.87935667  1
  In  In38  1  -0.00459462  0.49170563  0.36760138  1
  In  In39  1  -0.00375074  0.50311645  0.87608106  1
  In  In40  1  0.01019547  0.84433836  0.36715088  1
  In  In41  1  0.00334710  0.82972670  0.87405744  1
  In  In42  1  0.33331875  0.16059758  0.38537516  1
  In  In43  1  0.32648633  0.15945759  0.88990573  1
  In  In44  1  0.31844866  0.50868440  0.37063114  1
  In  In45  1  0.32775770  0.50264227  0.88593658  1
  In  In46  1  0.33529529  0.83037997  0.36897932  1
  In  In47  1  0.32990429  0.84138733  0.88787501  1
  In  In48  1  0.67899746  0.16278376  0.37531778  1
  In  In49  1  0.66868357  0.17296379  0.88028903  1
  In  In50  1  0.69475547  0.50548764  0.37289717  1
  In  In51  1  0.67471579  0.49515164  0.88459399  1
  In  In52  1  0.65660237  0.83512293  0.37041827  1
  In  In53  1  0.66522355  0.83841172  0.88278874  1
  In  In54  1  0.15744827  -0.00840830  0.11595264  1
  In  In55  1  0.15229197  -0.01460195  0.61238913  1
  In  In56  1  0.15424443  0.32112209  0.12058744  1
  In  In57  1  0.16133432  0.31658999  0.62479184  1
  In  In58  1  0.16510303  0.66877198  0.12251831  1
  In  In59  1  0.15203255  0.66309709  0.62446382  1
  In  In60  1  0.50786217  0.00568549  0.11631752  1
  In  In61  1  0.48812459  0.00302231  0.62532322  1
  In  In62  1  0.49837554  0.32870181  0.11857088  1
  In  In63  1  0.51121408  0.32495607  0.62770190  1
  In  In64  1  0.49339153  0.66355208  0.11762383  1
  In  In65  1  0.50064821  0.66652911  0.63003718  1
  In  In66  1  0.83554186  0.00092217  0.12653364  1
  In  In67  1  0.83681774  0.01537982  0.62494947  1
  In  In68  1  0.84510814  0.34522863  0.11853435  1
  In  In69  1  0.84893321  0.34466852  0.60957440  1
  In  In70  1  0.84152750  0.67124745  0.11875163  1
  In  In71  1  0.84688625  0.66933486  0.62283277  1
  In  In72  1  0.15958675  0.49381306  0.49931172  1
  In  In73  1  0.32430374  -0.00344952  0.75851503  1
  In  In74  1  0.32399887  0.33318671  0.24564227  1
  In  In75  1  0.32886742  0.32428691  0.74891277  1
  In  In76  1  0.83627518  0.83367983  0.49948539  1
  In  In77  1  0.32890878  -0.00745709  0.23905479  1
  In  In78  1  0.67053426  0.33297107  0.24236760  1
  In  In79  1  0.50445988  0.49240977  0.50210755  1
  In  In80  1  0.67119075  0.00365595  0.76227406  1
  In  In81  1  0.67025115  0.67127334  0.25114513  1
  In  In82  1  0.31961580  0.67167024  0.76882625  1
  In  In83  1  0.49606114  0.83738450  0.49351793  1
  In  In84  1  0.67284029  0.66716643  0.75000898  1
  In  In85  1  0.67700386  0.33293337  0.75619979  1
  Cu  Cu86  1  0.33130881  0.33366459  0.00393828  1
  Cu  Cu87  1  0.83746022  0.16417022  0.25126297  1
  Cu  Cu88  1  0.00309271  0.66748344  0.00184335  1
  Cu  Cu89  1  0.66670771  0.66918416  -0.00057570  1
  Cu  Cu90  1  0.00170983  0.33143027  -0.00086859  1
  Cu  Cu91  1  0.49847779  0.50468584  0.76210015  1
  Cu  Cu92  1  0.32957332  0.66187165  -0.00066765  1
  Cu  Cu93  1  -0.00455624  0.00218272  0.49871274  1
  Cu  Cu94  1  0.67320980  0.00332193  -0.00010921  1
  Cu  Cu95  1  0.66621700  0.33206475  0.49700138  1
  Cu  Cu96  1  0.16299121  0.83398232  0.24291351  1
  Cu  Cu97  1  0.67112463  0.33428476  0.00238816  1
  Cu  Cu98  1  0.84648566  0.49598565  0.24711839  1
  Cu  Cu99  1  0.49679968  0.51146082  0.24442253  1
  Cu  Cu100  1  0.83826525  0.83302841  0.24260717  1
  Cu  Cu101  1  0.66441190  -0.00011441  0.49552433  1
  Cu  Cu102  1  0.00572389  0.66908476  0.50025443  1
  Cu  Cu103  1  0.83815832  0.83318575  0.75528251  1
  Cu  Cu104  1  0.15488479  0.16618096  0.25231280  1
  Cu  Cu105  1  0.15859680  0.16331419  0.75429947  1
  Cu  Cu106  1  -0.00567805  0.00119245  0.00265095  1
  Cu  Cu107  1  0.49385056  0.16269378  0.74409375  1
  Cu  Cu108  1  0.16238735  0.50897495  0.24655645  1
  Cu  Cu109  1  0.50020919  0.16044359  0.24413730  1
  Cu  Cu110  1  0.84566823  0.16963926  0.75106449  1
  Cu  Cu111  1  0.33652481  0.32474435  0.50162719  1
  Cu  Cu112  1  0.33551542  0.67509878  0.49299842  1
  Cu  Cu113  1  0.49898891  0.83366694  0.24460642  1
  Cu  Cu114  1  0.14996155  0.49271650  0.75382687  1
  Se  Se115  1  0.07878569  0.08620775  0.05462237  1
  Se  Se116  1  0.07771478  0.08591820  0.55475052  1
  Se  Se117  1  0.08476107  0.41584585  0.05289226  1
  Se  Se118  1  0.07349424  0.40825546  0.56231153  1
  Se  Se119  1  0.08635952  0.75472372  0.05234184  1
  Se  Se120  1  0.08530420  0.75486959  0.55362857  1
  Se  Se121  1  0.43495341  0.09799318  0.05031408  1
  Se  Se122  1  0.43409793  0.08905088  0.54821232  1
  Se  Se123  1  0.41785682  0.41727850  0.05413852  1
  Se  Se124  1  0.40749865  0.40910026  0.56487331  1
  Se  Se125  1  0.41260535  0.74906201  0.04984569  1
  Se  Se126  1  0.41061875  0.74801116  0.56153867  1
  Se  Se127  1  0.75537538  0.08513464  0.05519619  1
  Se  Se128  1  0.75007601  0.07967807  0.54956944  1
  Se  Se129  1  0.75435124  0.42123199  0.05160675  1
  Se  Se130  1  0.74685799  0.41783114  0.54995123  1
  Se  Se131  1  0.75429240  0.74997445  0.05161243  1
  Se  Se132  1  0.74372799  0.74366405  0.55821260  1
  Se  Se133  1  0.24563282  0.24767316  0.05221731  1
  Se  Se134  1  0.24566226  0.24675728  0.55110405  1
  Se  Se135  1  0.24534883  0.58127413  0.05371417  1
  Se  Se136  1  0.25521709  0.59244679  0.55238727  1
  Se  Se137  1  0.26274694  0.94218487  0.04708665  1
  Se  Se138  1  0.26516951  0.93376505  0.55284800  1
  Se  Se139  1  0.58707978  0.24952861  0.05371707  1
  Se  Se140  1  0.58170964  0.24997809  0.54945932  1
  Se  Se141  1  0.58204254  0.58431214  0.05100440  1
  Se  Se142  1  0.58884328  0.58905465  0.56087623  1
  Se  Se143  1  0.58962059  0.91676574  0.05122154  1
  Se  Se144  1  0.59076377  0.91954008  0.55949381  1
  Se  Se145  1  0.91751482  0.24962183  0.05395767  1
  Se  Se146  1  0.89678155  0.22569054  0.55906778  1
  Se  Se147  1  0.91916061  0.58108892  0.05300438  1
  Se  Se148  1  0.92336088  0.58461342  0.55259571  1
  Se  Se149  1  0.91338277  0.91488220  0.05612476  1
  Se  Se150  1  0.92343911  0.91932612  0.56367193  1
  Se  Se151  1  0.07434597  0.25032720  0.44911434  1
  Se  Se152  1  0.08633663  0.24421971  0.94966175  1
  Se  Se153  1  0.08304176  0.59045889  0.43549211  1
  Se  Se154  1  0.08281435  0.57795887  0.94918506  1
  Se  Se155  1  0.08009831  0.91633039  0.44823352  1
  Se  Se156  1  0.07628480  0.91574058  0.94859339  1
  Se  Se157  1  0.42245629  0.24723563  0.44670210  1
  Se  Se158  1  0.41389192  0.24956179  0.94909521  1
  Se  Se159  1  0.41457696  0.58660647  0.43990955  1
  Se  Se160  1  0.41959013  0.57842760  0.95110737  1
  Se  Se161  1  0.40875267  0.92989799  0.43543671  1
  Se  Se162  1  0.42284575  0.91070496  0.95442433  1
  Se  Se163  1  0.75236186  0.24900507  0.44575012  1
  Se  Se164  1  0.75411885  0.25318440  0.94686538  1
  Se  Se165  1  0.74571081  0.58924654  0.45291724  1
  Se  Se166  1  0.75343188  0.58533000  0.94909111  1
  Se  Se167  1  0.74602888  0.92062301  0.43574813  1
  Se  Se168  1  0.75479939  0.91554460  0.94884037  1
  Se  Se169  1  0.24710717  0.08517267  0.45208031  1
  Se  Se170  1  0.25910087  0.06068091  0.95339120  1
  Se  Se171  1  0.25858598  0.40689567  0.44057845  1
  Se  Se172  1  0.24665243  0.41639355  0.95128606  1
  Se  Se173  1  0.25034931  0.75722927  0.44205262  1
  Se  Se174  1  0.24692781  0.74656957  0.94656515  1
  Se  Se175  1  0.58513950  0.08369877  0.43924774  1
  Se  Se176  1  0.58836021  0.08558699  0.94595163  1
  Se  Se177  1  0.59247495  0.41202774  0.43168363  1
  Se  Se178  1  0.58423187  0.41698788  0.94964168  1
  Se  Se179  1  0.59179048  0.73969572  0.44425516  1
  Se  Se180  1  0.58228943  0.75464537  0.95015914  1
  Se  Se181  1  0.91189569  0.08206110  0.44345451  1
  Se  Se182  1  0.91327767  0.08905797  0.95067065  1
  Se  Se183  1  0.91455166  0.43197362  0.44723571  1
  Se  Se184  1  0.91851073  0.41870769  0.94843637  1
  Se  Se185  1  0.92544395  0.74629580  0.43659578  1
  Se  Se186  1  0.92006604  0.75333790  0.94854743  1
  Se  Se187  1  0.24377584  0.24058778  0.31102023  1
  Se  Se188  1  0.24195227  0.24090964  0.81534487  1
  Se  Se189  1  0.25082827  0.59107072  0.29612566  1
  Se  Se190  1  0.23063362  0.56989512  0.81560282  1
  Se  Se191  1  0.23854969  0.91552392  0.30724718  1
  Se  Se192  1  0.23436380  0.90353097  0.81313499  1
  Se  Se193  1  0.57739239  0.24520409  0.30340186  1
  Se  Se194  1  0.57281671  0.24356137  0.80557224  1
  Se  Se195  1  0.58178237  0.57569390  0.31120077  1
  Se  Se196  1  0.58148893  0.58357844  0.81765613  1
  Se  Se197  1  0.58510876  0.91591358  0.29513446  1
  Se  Se198  1  0.57326960  0.91246194  0.81010488  1
  Se  Se199  1  0.91924456  0.24794432  0.30575346  1
  Se  Se200  1  0.92222113  0.25410495  0.80809824  1
  Se  Se201  1  0.92141458  0.58633151  0.30092551  1
  Se  Se202  1  0.92527174  0.59122049  0.80376731  1
  Se  Se203  1  0.91999228  0.91737900  0.29815975  1
  Se  Se204  1  0.92277740  0.91848801  0.80473415  1
  Se  Se205  1  0.07818417  0.07660024  0.30490450  1
  Se  Se206  1  0.07897508  0.07994501  0.80990392  1
  Se  Se207  1  0.08948546  0.41823791  0.30153538  1
  Se  Se208  1  0.07156349  0.40786270  0.80777890  1
  Se  Se209  1  0.08134345  0.75077835  0.29903575  1
  Se  Se210  1  0.07412718  0.74182339  0.80108585  1
  Se  Se211  1  0.41430687  0.08547524  0.30374395  1
  Se  Se212  1  0.42041348  0.08958613  0.81246147  1
  Se  Se213  1  0.41798650  0.42773245  0.30358997  1
  Se  Se214  1  0.41552053  0.41757022  0.81232500  1
  Se  Se215  1  0.41401820  0.75072414  0.29583294  1
  Se  Se216  1  0.42050822  0.76298608  0.81297013  1
  Se  Se217  1  0.74687217  0.08186897  0.29822930  1
  Se  Se218  1  0.76638885  0.09325131  0.81556396  1
  Se  Se219  1  0.76726683  0.41141102  0.30551374  1
  Se  Se220  1  0.76415450  0.43123722  0.80752840  1
  Se  Se221  1  0.76311824  0.75762251  0.31182913  1
  Se  Se222  1  0.75701653  0.75556085  0.81517225  1
  Se  Se223  1  0.23667966  0.09096478  0.18936372  1
  Se  Se224  1  0.24351687  0.08843316  0.69379753  1
  Se  Se225  1  0.23953446  0.42493898  0.18493321  1
  Se  Se226  1  0.23820571  0.42247709  0.69275925  1
  Se  Se227  1  0.25041168  0.75523075  0.18960553  1
  Se  Se228  1  0.24149142  0.74979894  0.69243972  1
  Se  Se229  1  0.58625193  0.07737877  0.19511755  1
  Se  Se230  1  0.58505338  0.08684068  0.69061121  1
  Se  Se231  1  0.57565571  0.42730391  0.18856852  1
  Se  Se232  1  0.57504110  0.42487490  0.69973433  1
  Se  Se233  1  0.58279113  0.75431562  0.18491853  1
  Se  Se234  1  0.57242861  0.76015065  0.69998129  1
  Se  Se235  1  0.92025110  0.08068681  0.19675761  1
  Se  Se236  1  0.92265828  0.07789523  0.70075787  1
  Se  Se237  1  0.92853872  0.41217572  0.19462106  1
  Se  Se238  1  0.91126952  0.40745245  0.69578394  1
  Se  Se239  1  0.92027977  0.74595645  0.19369781  1
  Se  Se240  1  0.91743896  0.75128857  0.69701290  1
  Se  Se241  1  0.07620081  0.25318265  0.19925920  1
  Se  Se242  1  0.07914102  0.24926642  0.70041654  1
  Se  Se243  1  0.07906187  0.59091029  0.19275034  1
  Se  Se244  1  0.07804438  0.58121056  0.69643815  1
  Se  Se245  1  0.07978258  0.91948497  0.19252585  1
  Se  Se246  1  0.09293272  0.92127640  0.69889246  1
  Se  Se247  1  0.41541232  0.24045148  0.18862227  1
  Se  Se248  1  0.41284085  0.23751433  0.68280112  1
  Se  Se249  1  0.41140536  0.59276652  0.19410860  1
  Se  Se250  1  0.41618050  0.58212672  0.70232518  1
  Se  Se251  1  0.42089095  0.90727022  0.17879107  1
  Se  Se252  1  0.42109253  0.91043427  0.69769029  1
  Se  Se253  1  0.76222516  0.24338097  0.18559507  1
  Se  Se254  1  0.75728175  0.24161294  0.69177467  1
  Se  Se255  1  0.75808292  0.57629977  0.19303412  1
  Se  Se256  1  0.76087838  0.57662512  0.69094083  1
  Se  Se257  1  0.75091978  0.91853920  0.19728108  1
  Se  Se258  1  0.75770723  0.91384724  0.69513032  1
