# generated using pymatgen
data_In86Cu29Se144
_symmetry_space_group_name_H-M   'P 1'
_cell_length_a   17.58055232
_cell_length_b   17.57855017
_cell_length_c   23.44268935
_cell_angle_alpha   90.00680900
_cell_angle_beta   89.99867992
_cell_angle_gamma   89.99094749
_symmetry_Int_Tables_number   1
_chemical_formula_structural   In86Cu29Se144
_chemical_formula_sum   'In86 Cu29 Se144'
_cell_volume   7244.74313347
_cell_formula_units_Z   1
loop_
 _symmetry_equiv_pos_site_id
 _symmetry_equiv_pos_as_xyz
  1  'x, y, z'
loop_
 _atom_site_type_symbol
 _atom_site_label
 _atom_site_symmetry_multiplicity
 _atom_site_fract_x
 _atom_site_fract_y
 _atom_site_fract_z
 _atom_site_occupancy
  In  In0  1  0.00069158  0.16141314  0.12289408  1
  In  In1  1  0.00135274  0.16900822  0.62811781  1
  In  In2  1  -0.00663309  0.51463159  0.12258358  1
  In  In3  1  -0.01266780  0.48198317  0.62227022  1
  In  In4  1  0.01552010  0.84013161  0.11543324  1
  In  In5  1  0.01365391  0.83863037  0.62958622  1
  In  In6  1  0.31799552  0.14361076  0.11389560  1
  In  In7  1  0.32699813  0.15875338  0.61602580  1
  In  In8  1  0.32755426  0.49441294  0.12609922  1
  In  In9  1  0.34172974  0.51027041  0.62225252  1
  In  In10  1  0.35345010  0.85266190  0.11644193  1
  In  In11  1  0.33934596  0.83049985  0.62890016  1
  In  In12  1  0.66755949  0.16769975  0.12658993  1
  In  In13  1  0.66561243  0.16640098  0.61238181  1
  In  In14  1  0.67559484  0.49233262  0.13557047  1
  In  In15  1  0.66431343  0.49814522  0.61923374  1
  In  In16  1  0.63549917  0.86770733  0.16371954  1
  In  In17  1  0.66195535  0.84611788  0.61717517  1
  In  In18  1  0.17875131  0.01708915  0.35631991  1
  In  In19  1  0.16846856  0.00359518  0.87825247  1
  In  In20  1  0.17418463  0.32044763  0.38948432  1
  In  In21  1  0.15560830  0.33357857  0.87081801  1
  In  In22  1  0.16006152  0.66191242  0.38007319  1
  In  In23  1  0.17806744  0.66444508  0.87069658  1
  In  In24  1  0.50373522  -0.00570727  0.37249987  1
  In  In25  1  0.49242815  0.00368757  0.88042744  1
  In  In26  1  0.50992338  0.32366832  0.38105424  1
  In  In27  1  0.49015507  0.32564866  0.87221307  1
  In  In28  1  0.50572047  0.66412233  0.37964209  1
  In  In29  1  0.49743952  0.67967340  0.87461201  1
  In  In30  1  0.84121757  0.00360385  0.36134961  1
  In  In31  1  0.84791833  0.00578138  0.87750790  1
  In  In32  1  0.82514961  0.34072114  0.37928148  1
  In  In33  1  0.83810780  0.32481075  0.88189550  1
  In  In34  1  0.82382305  0.66307888  0.37579999  1
  In  In35  1  0.82295738  0.66134391  0.87979892  1
  In  In36  1  0.00480052  0.15175053  0.38146801  1
  In  In37  1  0.00389505  0.17074442  0.87771299  1
  In  In38  1  0.00674621  0.48798998  0.38899961  1
  In  In39  1  -0.00494375  0.48012628  0.86506027  1
  In  In40  1  -0.01002811  0.84586681  0.37094487  1
  In  In41  1  0.00012061  0.85434000  0.87631893  1
  In  In42  1  0.33636161  0.14941835  0.38678532  1
  In  In43  1  0.34335265  0.15242213  0.87848006  1
  In  In44  1  0.33839194  0.49326373  0.39115276  1
  In  In45  1  0.31594305  0.50283317  0.86064838  1
  In  In46  1  0.34232213  0.85783701  0.37023799  1
  In  In47  1  0.33189699  0.83642319  0.87605389  1
  In  In48  1  0.66689997  0.16852268  0.37024085  1
  In  In49  1  0.66503556  0.16735702  0.88712162  1
  In  In50  1  0.66647245  0.49856324  0.37604760  1
  In  In51  1  0.66743299  0.50897875  0.87699395  1
  In  In52  1  0.65924178  0.82041246  0.35395272  1
  In  In53  1  0.65922839  0.82366872  0.88347120  1
  In  In54  1  0.17313636  0.00299581  0.12745438  1
  In  In55  1  0.16364809  0.00868279  0.63045120  1
  In  In56  1  0.17219689  0.32225566  0.12613339  1
  In  In57  1  0.15754867  0.32144601  0.62177155  1
  In  In58  1  0.15355884  0.66998794  0.12148252  1
  In  In59  1  0.18350699  0.66841452  0.62893231  1
  In  In60  1  0.49487969  0.00332569  0.12826801  1
  In  In61  1  0.48259448  -0.01232582  0.60224360  1
  In  In62  1  0.51430744  0.32666778  0.13168725  1
  In  In63  1  0.50301478  0.33555433  0.61574213  1
  In  In64  1  0.50440205  0.68534099  0.12900353  1
  In  In65  1  0.48557776  0.65889798  0.61674006  1
  In  In66  1  0.81944871  0.00982309  0.13692182  1
  In  In67  1  0.83636477  0.01555979  0.62206352  1
  In  In68  1  0.82770683  0.32372130  0.11883378  1
  In  In69  1  0.84425424  0.33894362  0.62354977  1
  In  In70  1  0.82520329  0.65743499  0.12130018  1
  In  In71  1  0.83800008  0.65203943  0.62580618  1
  In  In72  1  0.17186141  0.83489937  0.49839609  1
  In  In73  1  0.16032777  0.49839860  -0.01473879  1
  In  In74  1  0.49809377  0.49728618  -0.00515325  1
  In  In75  1  -0.00070582  0.32535921  0.24449251  1
  In  In76  1  0.66851152  0.33758760  0.74391036  1
  In  In77  1  0.65784346  0.66444700  0.74448974  1
  In  In78  1  0.82756687  0.83342575  0.48920117  1
  In  In79  1  -0.00722445  0.67427377  0.25316620  1
  In  In80  1  0.33439149  0.67206301  0.25141711  1
  In  In81  1  0.66447422  0.00443116  0.74936773  1
  In  In82  1  0.32755777  0.33537724  0.74401054  1
  In  In83  1  0.00456251  0.66366277  0.75313485  1
  In  In84  1  0.82456703  0.83778276  0.01088184  1
  In  In85  1  0.34511036  0.31618791  0.26649385  1
  Cu  Cu86  1  0.32760477  0.33779195  0.50569810  1
  Cu  Cu87  1  0.66076884  0.66441332  0.00506494  1
  Cu  Cu88  1  0.66339861  0.00307503  0.49053666  1
  Cu  Cu89  1  0.16909952  0.49186070  0.25680302  1
  Cu  Cu90  1  0.33959748  0.31920927  -0.00053205  1
  Cu  Cu91  1  0.00635889  0.01115696  0.00009186  1
  Cu  Cu92  1  0.83816545  0.83717549  0.75394044  1
  Cu  Cu93  1  0.16973279  0.83875135  0.24234841  1
  Cu  Cu94  1  0.49130255  0.83563159  0.74802030  1
  Cu  Cu95  1  0.50736260  0.50716248  0.25304165  1
  Cu  Cu96  1  0.17099034  0.84821830  0.75227712  1
  Cu  Cu97  1  -0.00308492  0.00352115  0.50060707  1
  Cu  Cu98  1  0.33935566  0.67315861  0.50119529  1
  Cu  Cu99  1  -0.00754348  0.32224961  0.50243940  1
  Cu  Cu100  1  0.16555709  0.16375164  0.75047586  1
  Cu  Cu101  1  0.82913886  0.17529883  0.24949957  1
  Cu  Cu102  1  -0.00597962  0.67108867  -0.00184509  1
  Cu  Cu103  1  0.66731306  0.33260512  0.49626330  1
  Cu  Cu104  1  0.00070446  0.65417058  0.50388640  1
  Cu  Cu105  1  0.32820283  0.67083291  -0.00259773  1
  Cu  Cu106  1  0.00294370  0.33497215  -0.00040420  1
  Cu  Cu107  1  0.49928932  0.16077746  0.74662619  1
  Cu  Cu108  1  0.66692879  0.66691172  0.49520058  1
  Cu  Cu109  1  0.83088293  0.49978644  0.25383766  1
  Cu  Cu110  1  0.66400304  -0.00183702  0.01130036  1
  Cu  Cu111  1  0.33385832  -0.00485870  0.00000351  1
  Cu  Cu112  1  0.50136424  0.16421181  0.25214959  1
  Cu  Cu113  1  0.84447070  0.17100826  0.75185219  1
  Cu  Cu114  1  0.67187639  0.33174195  0.00773130  1
  Se  Se115  1  0.09325301  0.08784500  0.05584638  1
  Se  Se116  1  0.08058120  0.08295079  0.55729068  1
  Se  Se117  1  0.08155785  0.41607286  0.06255239  1
  Se  Se118  1  0.07705548  0.40831161  0.55332381  1
  Se  Se119  1  0.08620725  0.75045642  0.04413113  1
  Se  Se120  1  0.07937835  0.74193979  0.55843629  1
  Se  Se121  1  0.42104755  0.08071158  0.05011622  1
  Se  Se122  1  0.43109926  0.10418605  0.54976041  1
  Se  Se123  1  0.41178321  0.40602291  0.05966764  1
  Se  Se124  1  0.41657036  0.42134879  0.55270863  1
  Se  Se125  1  0.41495640  0.74589086  0.05370039  1
  Se  Se126  1  0.42097007  0.76065759  0.55168444  1
  Se  Se127  1  0.75104288  0.08458119  0.05653627  1
  Se  Se128  1  0.74928231  0.07959994  0.54730857  1
  Se  Se129  1  0.75212667  0.42193368  0.05636080  1
  Se  Se130  1  0.74837751  0.41055420  0.55659991  1
  Se  Se131  1  0.73190892  0.75018605  0.06675637  1
  Se  Se132  1  0.74771433  0.74273797  0.56044163  1
  Se  Se133  1  0.24757637  0.24550441  0.05156365  1
  Se  Se134  1  0.24492591  0.24704387  0.55163202  1
  Se  Se135  1  0.24982703  0.58387708  0.05476780  1
  Se  Se136  1  0.25407173  0.58953053  0.55221287  1
  Se  Se137  1  0.24799432  0.91492396  0.05502279  1
  Se  Se138  1  0.25408849  0.92353375  0.56281562  1
  Se  Se139  1  0.58332658  0.24775197  0.05434997  1
  Se  Se140  1  0.58049166  0.24968462  0.54691930  1
  Se  Se141  1  0.58152293  0.57988389  0.06442407  1
  Se  Se142  1  0.58505052  0.58750110  0.55400274  1
  Se  Se143  1  0.58437762  0.91338252  0.06561407  1
  Se  Se144  1  0.58256000  0.91431886  0.54076382  1
  Se  Se145  1  0.92262651  0.25045664  0.05504212  1
  Se  Se146  1  0.90965823  0.23988957  0.55705371  1
  Se  Se147  1  0.91159927  0.58460164  0.04771652  1
  Se  Se148  1  0.91183759  0.57287864  0.55211615  1
  Se  Se149  1  0.92001149  0.93323903  0.05949256  1
  Se  Se150  1  0.92031406  0.91499799  0.55774856  1
  Se  Se151  1  0.07935550  0.24128832  0.45007958  1
  Se  Se152  1  0.08822830  0.25271979  0.94810050  1
  Se  Se153  1  0.09090898  0.57602814  0.45268336  1
  Se  Se154  1  0.06787667  0.59207707  0.93121190  1
  Se  Se155  1  0.07725543  0.92221576  0.44122598  1
  Se  Se156  1  0.08584933  0.92092440  0.94997694  1
  Se  Se157  1  0.40413337  0.25974092  0.44187507  1
  Se  Se158  1  0.42549572  0.23968079  0.94646471  1
  Se  Se159  1  0.42232171  0.58535549  0.45030498  1
  Se  Se160  1  0.40181721  0.58458865  0.93686623  1
  Se  Se161  1  0.41621314  0.92665248  0.44781553  1
  Se  Se162  1  0.41945351  0.91118257  0.94792642  1
  Se  Se163  1  0.74929002  0.24698552  0.44373932  1
  Se  Se164  1  0.75333552  0.24719301  0.95199015  1
  Se  Se165  1  0.75111407  0.57899804  0.44784012  1
  Se  Se166  1  0.74593788  0.58206927  0.95327417  1
  Se  Se167  1  0.74146739  0.92231961  0.42848063  1
  Se  Se168  1  0.74179560  0.92701833  0.94025126  1
  Se  Se169  1  0.23542245  0.07696878  0.44608483  1
  Se  Se170  1  0.25228230  0.08381359  0.94903520  1
  Se  Se171  1  0.24075424  0.42130219  0.45377004  1
  Se  Se172  1  0.26286450  0.40508707  0.93894828  1
  Se  Se173  1  0.26221590  0.74796335  0.43414992  1
  Se  Se174  1  0.24487320  0.75218936  0.94355332  1
  Se  Se175  1  0.58076991  0.08896960  0.43891248  1
  Se  Se176  1  0.58388419  0.07683130  0.94905583  1
  Se  Se177  1  0.58198097  0.41906388  0.44665575  1
  Se  Se178  1  0.59169631  0.40343724  0.93935168  1
  Se  Se179  1  0.59203111  0.75534732  0.44051270  1
  Se  Se180  1  0.57544293  0.74786490  0.95395254  1
  Se  Se181  1  0.90724380  0.07721784  0.44494623  1
  Se  Se182  1  0.91773695  0.09188759  0.94923805  1
  Se  Se183  1  0.91255121  0.41237371  0.45166348  1
  Se  Se184  1  0.91843677  0.41770135  0.94712617  1
  Se  Se185  1  0.92912234  0.73956217  0.44078974  1
  Se  Se186  1  0.91371657  0.75491431  0.93944088  1
  Se  Se187  1  0.24072096  0.23272156  0.31364865  1
  Se  Se188  1  0.25021324  0.24160993  0.81118593  1
  Se  Se189  1  0.24989255  0.57443456  0.31313894  1
  Se  Se190  1  0.24220570  0.58769606  0.79137759  1
  Se  Se191  1  0.25507668  0.92055730  0.29457063  1
  Se  Se192  1  0.25582297  0.92653668  0.80790282  1
  Se  Se193  1  0.58324097  0.25364936  0.30075041  1
  Se  Se194  1  0.58130394  0.23987079  0.80510274  1
  Se  Se195  1  0.58953430  0.58871548  0.30717502  1
  Se  Se196  1  0.56958275  0.57710582  0.80885140  1
  Se  Se197  1  0.58730557  0.92314373  0.29673683  1
  Se  Se198  1  0.57932276  0.90766506  0.80902776  1
  Se  Se199  1  0.91261044  0.24651885  0.31367055  1
  Se  Se200  1  0.92295962  0.25571658  0.80697933  1
  Se  Se201  1  0.91989882  0.56910550  0.31421589  1
  Se  Se202  1  0.90447097  0.57852551  0.80796138  1
  Se  Se203  1  0.90835256  0.90645549  0.29341537  1
  Se  Se204  1  0.91922093  0.92613379  0.80094096  1
  Se  Se205  1  0.06110129  0.06597073  0.30273857  1
  Se  Se206  1  0.08326437  0.08444302  0.80883489  1
  Se  Se207  1  0.08957392  0.40896121  0.31302000  1
  Se  Se208  1  0.10724981  0.43708739  0.80298614  1
  Se  Se209  1  0.09469671  0.76083463  0.30837453  1
  Se  Se210  1  0.08839599  0.76461183  0.81014830  1
  Se  Se211  1  0.41838708  0.08497005  0.30816866  1
  Se  Se212  1  0.41888848  0.07721558  0.80123908  1
  Se  Se213  1  0.42615374  0.42667582  0.31264441  1
  Se  Se214  1  0.42243445  0.42310125  0.80455829  1
  Se  Se215  1  0.42544653  0.75794980  0.31031050  1
  Se  Se216  1  0.41152591  0.75205009  0.80355420  1
  Se  Se217  1  0.74835051  0.08609418  0.29973089  1
  Se  Se218  1  0.75663901  0.09362728  0.80997993  1
  Se  Se219  1  0.74619987  0.41482733  0.30399263  1
  Se  Se220  1  0.75330876  0.41870762  0.81357555  1
  Se  Se221  1  0.77560679  0.75949946  0.30330701  1
  Se  Se222  1  0.75208112  0.75699247  0.80671917  1
  Se  Se223  1  0.25873170  0.07770935  0.19946075  1
  Se  Se224  1  0.25470580  0.08704394  0.69682870  1
  Se  Se225  1  0.25141200  0.41029318  0.20085873  1
  Se  Se226  1  0.24247455  0.42230855  0.68114990  1
  Se  Se227  1  0.24575944  0.75342489  0.18405053  1
  Se  Se228  1  0.24952635  0.75940570  0.69985355  1
  Se  Se229  1  0.58489318  0.08438569  0.19493072  1
  Se  Se230  1  0.57695976  0.08410066  0.68225478  1
  Se  Se231  1  0.58395892  0.41624400  0.20155501  1
  Se  Se232  1  0.57053723  0.42682539  0.69234412  1
  Se  Se233  1  0.59126143  0.73928577  0.20592716  1
  Se  Se234  1  0.57531999  0.76192951  0.68606927  1
  Se  Se235  1  0.91379949  0.09267880  0.19633753  1
  Se  Se236  1  0.92023322  0.08159034  0.69775457  1
  Se  Se237  1  0.91133621  0.42460970  0.19001807  1
  Se  Se238  1  0.91433496  0.41271235  0.70226903  1
  Se  Se239  1  0.91948744  0.75291194  0.17727098  1
  Se  Se240  1  0.91173447  0.75541493  0.69070367  1
  Se  Se241  1  0.09782711  0.23377792  0.19680382  1
  Se  Se242  1  0.08166502  0.25030356  0.70091351  1
  Se  Se243  1  0.09028393  0.57600017  0.19895002  1
  Se  Se244  1  0.08080947  0.58125554  0.68099293  1
  Se  Se245  1  0.08192759  0.92065641  0.19297237  1
  Se  Se246  1  0.08143365  0.92608927  0.70118896  1
  Se  Se247  1  0.41772008  0.23797301  0.18788878  1
  Se  Se248  1  0.42312236  0.24640176  0.68785176  1
  Se  Se249  1  0.42126345  0.57605853  0.18987382  1
  Se  Se250  1  0.41145712  0.59433052  0.69698619  1
  Se  Se251  1  0.42347001  0.91335246  0.19928997  1
  Se  Se252  1  0.41933611  0.92603856  0.69138775  1
  Se  Se253  1  0.74561038  0.25759917  0.19588313  1
  Se  Se254  1  0.75463266  0.23829487  0.68976828  1
  Se  Se255  1  0.75056592  0.58652974  0.20132693  1
  Se  Se256  1  0.75438456  0.56975127  0.69655757  1
  Se  Se257  1  0.76761070  0.90386882  0.20175135  1
  Se  Se258  1  0.75802812  0.91299115  0.69011114  1
