# generated using pymatgen
data_In86Cu29Se144
_symmetry_space_group_name_H-M   'P 1'
_cell_length_a   17.57866798
_cell_length_b   17.57661000
_cell_length_c   23.43198531
_cell_angle_alpha   90.01679564
_cell_angle_beta   89.99731686
_cell_angle_gamma   89.99899490
_symmetry_Int_Tables_number   1
_chemical_formula_structural   In86Cu29Se144
_chemical_formula_sum   'In86 Cu29 Se144'
_cell_volume   7239.85965119
_cell_formula_units_Z   1
loop_
 _symmetry_equiv_pos_site_id
 _symmetry_equiv_pos_as_xyz
  1  'x, y, z'
loop_
 _atom_site_type_symbol
 _atom_site_label
 _atom_site_symmetry_multiplicity
 _atom_site_fract_x
 _atom_site_fract_y
 _atom_site_fract_z
 _atom_site_occupancy
  In  In0  1  0.00164500  0.16560090  0.14077384  1
  In  In1  1  0.00459229  0.17086178  0.61404950  1
  In  In2  1  -0.01050905  0.50256995  0.12754517  1
  In  In3  1  -0.00146290  0.48711977  0.62142849  1
  In  In4  1  0.00191822  0.83953292  0.12503884  1
  In  In5  1  0.00409858  0.83816294  0.61592225  1
  In  In6  1  0.34577855  0.17747424  0.13372576  1
  In  In7  1  0.32978543  0.16260608  0.60974555  1
  In  In8  1  0.35513365  0.48763427  0.12982503  1
  In  In9  1  0.35002090  0.50213690  0.61041777  1
  In  In10  1  0.31507386  0.82932752  0.12794124  1
  In  In11  1  0.33133829  0.84075890  0.62796721  1
  In  In12  1  0.65637881  0.16919249  0.14233008  1
  In  In13  1  0.67664404  0.17488977  0.61825331  1
  In  In14  1  0.66657170  0.49760903  0.11664620  1
  In  In15  1  0.65647440  0.50772804  0.63191826  1
  In  In16  1  0.67503546  0.82925575  0.12528821  1
  In  In17  1  0.66305792  0.82002222  0.62368003  1
  In  In18  1  0.16131571  0.00290172  0.37697399  1
  In  In19  1  0.16168067  -0.01148095  0.87197364  1
  In  In20  1  0.17067349  0.33687590  0.37404716  1
  In  In21  1  0.16280185  0.34145475  0.87423300  1
  In  In22  1  0.17424492  0.65511815  0.38264377  1
  In  In23  1  0.18240981  0.66797427  0.87494484  1
  In  In24  1  0.51620417  0.00853753  0.36914591  1
  In  In25  1  0.49482820  0.00986415  0.87358596  1
  In  In26  1  0.50261490  0.33626485  0.38148987  1
  In  In27  1  0.51153786  0.33224879  0.87974113  1
  In  In28  1  0.49037731  0.65248957  0.36759082  1
  In  In29  1  0.49048306  0.65806388  0.87426998  1
  In  In30  1  0.83355629  -0.00163934  0.37291464  1
  In  In31  1  0.82689285  -0.01626980  0.88151742  1
  In  In32  1  0.81885715  0.31711252  0.36382710  1
  In  In33  1  0.81213403  0.36419011  0.89401599  1
  In  In34  1  0.83234445  0.67954216  0.37355887  1
  In  In35  1  0.81640823  0.67128303  0.89087637  1
  In  In36  1  -0.00143468  0.16258644  0.37156563  1
  In  In37  1  0.00253730  0.17430454  0.87152058  1
  In  In38  1  0.01652226  0.49909651  0.37302762  1
  In  In39  1  -0.00689648  0.49196511  0.87748836  1
  In  In40  1  -0.00514384  0.83791893  0.37710735  1
  In  In41  1  -0.00108458  0.82693010  0.88241779  1
  In  In42  1  0.32895484  0.18528409  0.38792507  1
  In  In43  1  0.34526243  0.16371286  0.86806132  1
  In  In44  1  0.33323443  0.49505582  0.37983464  1
  In  In45  1  0.32825706  0.50857958  0.87619767  1
  In  In46  1  0.33032081  0.81833076  0.36915136  1
  In  In47  1  0.32816619  0.82674914  0.87398183  1
  In  In48  1  0.66797498  0.17068255  0.37806901  1
  In  In49  1  0.65529927  0.16763999  0.87460104  1
  In  In50  1  0.65401151  0.48712488  0.36426947  1
  In  In51  1  0.65549197  0.50134144  0.87903520  1
  In  In52  1  0.67448679  0.84067142  0.36416595  1
  In  In53  1  0.68051218  0.83016250  0.88643208  1
  In  In54  1  0.16100962  -0.01888589  0.13344139  1
  In  In55  1  0.17799954  0.00803655  0.61205694  1
  In  In56  1  0.17677808  0.32956545  0.13814891  1
  In  In57  1  0.18637163  0.34479777  0.59423628  1
  In  In58  1  0.17011510  0.68363714  0.12975762  1
  In  In59  1  0.17989838  0.67896599  0.61680216  1
  In  In60  1  0.50576251  0.01182125  0.13469271  1
  In  In61  1  0.48831625  -0.00305979  0.62192666  1
  In  In62  1  0.49556551  0.34318651  0.12922391  1
  In  In63  1  0.50720972  0.34322287  0.61036607  1
  In  In64  1  0.52152923  0.64694470  0.13390728  1
  In  In65  1  0.50475195  0.66243400  0.63059045  1
  In  In66  1  0.83705272  -0.00355383  0.13022065  1
  In  In67  1  0.83661172  0.00339195  0.61868208  1
  In  In68  1  0.82166904  0.34598695  0.13761366  1
  In  In69  1  0.82887016  0.32506538  0.62418190  1
  In  In70  1  0.81502478  0.65870678  0.11039895  1
  In  In71  1  0.81374015  0.66456489  0.62356851  1
  In  In72  1  0.17545553  0.15982609  0.01781928  1
  In  In73  1  0.33819139  0.33200948  0.73754114  1
  In  In74  1  0.33644332  0.00809726  0.25804580  1
  In  In75  1  0.50086929  0.82688743  0.00870277  1
  In  In76  1  -0.00547006  0.32316065  0.73969636  1
  In  In77  1  0.50432986  0.83558269  0.49367745  1
  In  In78  1  0.16652895  0.50505643  -0.00079861  1
  In  In79  1  0.66356297  -0.00467595  0.75651964  1
  In  In80  1  0.00274438  0.00259433  0.73654943  1
  In  In81  1  0.83038199  0.16365126  0.00712177  1
  In  In82  1  -0.00307304  0.66641623  0.74961639  1
  In  In83  1  0.83769551  0.50258743  0.49462519  1
  In  In84  1  -0.00019551  0.66863108  0.24888583  1
  In  In85  1  0.50315953  0.17047366  0.00589397  1
  Cu  Cu86  1  0.49887807  0.49837351  0.74973414  1
  Cu  Cu87  1  0.33648498  -0.00162925  0.49486492  1
  Cu  Cu88  1  -0.00328316  0.67130907  0.00635214  1
  Cu  Cu89  1  0.00450588  0.32631770  0.00868051  1
  Cu  Cu90  1  0.00104792  0.67317385  0.49597656  1
  Cu  Cu91  1  0.83115787  0.83104809  0.24739012  1
  Cu  Cu92  1  0.16875871  0.50600512  0.74342824  1
  Cu  Cu93  1  0.83285284  0.49983742  0.24466272  1
  Cu  Cu94  1  0.66192891  0.66485891  0.49896504  1
  Cu  Cu95  1  0.67401226  0.00407771  0.49259324  1
  Cu  Cu96  1  0.33739238  0.66610678  0.49657857  1
  Cu  Cu97  1  0.16862276  0.16612273  0.25889532  1
  Cu  Cu98  1  -0.00711761  -0.00848832  0.00117057  1
  Cu  Cu99  1  0.33072955  0.66927745  0.00344469  1
  Cu  Cu100  1  0.32626762  -0.00434055  0.00062241  1
  Cu  Cu101  1  0.50216023  0.50050049  0.25179535  1
  Cu  Cu102  1  0.50030028  0.83199802  0.24902668  1
  Cu  Cu103  1  0.17830873  0.50076074  0.25441077  1
  Cu  Cu104  1  0.82660319  0.18146866  0.75270127  1
  Cu  Cu105  1  0.17617383  0.16679536  0.73642788  1
  Cu  Cu106  1  0.50274229  0.16423337  0.74680483  1
  Cu  Cu107  1  0.66983335  0.33609381  0.49423082  1
  Cu  Cu108  1  0.18320908  0.83236033  0.74868919  1
  Cu  Cu109  1  0.49714305  0.82401674  0.75196062  1
  Cu  Cu110  1  -0.00487492  -0.00275541  0.49358947  1
  Cu  Cu111  1  0.83308980  0.16038696  0.25431491  1
  Cu  Cu112  1  0.83062844  0.82966361  0.75409871  1
  Cu  Cu113  1  -0.00175594  0.32864090  0.49137808  1
  Cu  Cu114  1  0.81546271  0.50262453  0.75861769  1
  Se  Se115  1  0.07063469  0.07200961  0.06329030  1
  Se  Se116  1  0.07934989  0.07857109  0.54900315  1
  Se  Se117  1  0.08565356  0.41059056  0.06515517  1
  Se  Se118  1  0.07647241  0.41824381  0.54437724  1
  Se  Se119  1  0.08352720  0.75275380  0.05650553  1
  Se  Se120  1  0.08745685  0.75366736  0.55056441  1
  Se  Se121  1  0.40602584  0.07574428  0.06014814  1
  Se  Se122  1  0.42257823  0.08096406  0.54624201  1
  Se  Se123  1  0.42868121  0.42099652  0.04914764  1
  Se  Se124  1  0.39440735  0.38840757  0.54689825  1
  Se  Se125  1  0.41057232  0.74068803  0.06959215  1
  Se  Se126  1  0.41740852  0.74815909  0.55819781  1
  Se  Se127  1  0.73863585  0.08176067  0.06939807  1
  Se  Se128  1  0.75500657  0.08634938  0.55112919  1
  Se  Se129  1  0.75891233  0.41403527  0.05414581  1
  Se  Se130  1  0.74573291  0.41892322  0.55867778  1
  Se  Se131  1  0.74133309  0.75186671  0.04572031  1
  Se  Se132  1  0.74727607  0.75056159  0.54841688  1
  Se  Se133  1  0.26612045  0.26335456  0.05962387  1
  Se  Se134  1  0.23058014  0.22545584  0.54303266  1
  Se  Se135  1  0.25430879  0.58618464  0.06617358  1
  Se  Se136  1  0.25323396  0.58353235  0.55168661  1
  Se  Se137  1  0.24279695  0.91538063  0.05491375  1
  Se  Se138  1  0.25584875  0.91261845  0.54925030  1
  Se  Se139  1  0.59380802  0.25840926  0.06368332  1
  Se  Se140  1  0.58869733  0.25041668  0.54904457  1
  Se  Se141  1  0.58243577  0.58126019  0.04880898  1
  Se  Se142  1  0.58052889  0.58337963  0.55488138  1
  Se  Se143  1  0.58445605  0.92638227  0.06366381  1
  Se  Se144  1  0.59459787  0.92508427  0.55689909  1
  Se  Se145  1  0.92154751  0.25107796  0.06813309  1
  Se  Se146  1  0.91502945  0.25415631  0.55175032  1
  Se  Se147  1  0.91623885  0.58037276  0.05243029  1
  Se  Se148  1  0.92272501  0.59409440  0.56048259  1
  Se  Se149  1  0.90948924  0.91184914  0.05597326  1
  Se  Se150  1  0.91324026  0.91545440  0.55114231  1
  Se  Se151  1  0.08329523  0.24813867  0.43802699  1
  Se  Se152  1  0.08650785  0.24977108  0.94851783  1
  Se  Se153  1  0.08198369  0.58145528  0.45054311  1
  Se  Se154  1  0.07402198  0.59547249  0.93802527  1
  Se  Se155  1  0.08412725  0.91438248  0.44573030  1
  Se  Se156  1  0.08206965  0.91562166  0.94642922  1
  Se  Se157  1  0.41148161  0.26930500  0.45567571  1
  Se  Se158  1  0.40874218  0.25375489  0.94256336  1
  Se  Se159  1  0.42109264  0.57924686  0.44798669  1
  Se  Se160  1  0.40968643  0.58379257  0.94930354  1
  Se  Se161  1  0.41436385  0.92174617  0.43058022  1
  Se  Se162  1  0.41319691  0.91997881  0.94334361  1
  Se  Se163  1  0.75627548  0.24867101  0.44941388  1
  Se  Se164  1  0.73814175  0.25132386  0.94639339  1
  Se  Se165  1  0.74221200  0.58675540  0.43563894  1
  Se  Se166  1  0.76477130  0.55500460  0.94364760  1
  Se  Se167  1  0.75086049  0.91259044  0.44248376  1
  Se  Se168  1  0.74358712  0.92249409  0.95702133  1
  Se  Se169  1  0.25131623  0.08156307  0.44327881  1
  Se  Se170  1  0.25308126  0.08056297  0.93843017  1
  Se  Se171  1  0.23474443  0.42882774  0.44615361  1
  Se  Se172  1  0.25691979  0.40760297  0.94449337  1
  Se  Se173  1  0.25167602  0.75068798  0.44773502  1
  Se  Se174  1  0.24782171  0.75331605  0.95062171  1
  Se  Se175  1  0.58364893  0.08689027  0.44781683  1
  Se  Se176  1  0.59008500  0.07214172  0.94717188  1
  Se  Se177  1  0.58474897  0.42578342  0.44987727  1
  Se  Se178  1  0.56856476  0.42617119  0.95098897  1
  Se  Se179  1  0.58821312  0.74372207  0.43205171  1
  Se  Se180  1  0.58362801  0.74012856  0.94196933  1
  Se  Se181  1  0.91362592  0.08400210  0.44257879  1
  Se  Se182  1  0.92460125  0.07954655  0.93889850  1
  Se  Se183  1  0.91798655  0.40936286  0.43089809  1
  Se  Se184  1  0.92535675  0.41313048  0.95540292  1
  Se  Se185  1  0.91274331  0.75403778  0.44724416  1
  Se  Se186  1  0.91153395  0.75262343  0.95089370  1
  Se  Se187  1  0.25421302  0.25220029  0.30566543  1
  Se  Se188  1  0.24414386  0.24846233  0.80493889  1
  Se  Se189  1  0.25850976  0.58543400  0.30800389  1
  Se  Se190  1  0.25149851  0.58435642  0.79989244  1
  Se  Se191  1  0.24400964  0.91164651  0.30755823  1
  Se  Se192  1  0.25675116  0.92140042  0.80476311  1
  Se  Se193  1  0.60188100  0.27189301  0.31483256  1
  Se  Se194  1  0.58008612  0.24950405  0.80235432  1
  Se  Se195  1  0.58882645  0.58852907  0.29953011  1
  Se  Se196  1  0.57899669  0.58315271  0.80461362  1
  Se  Se197  1  0.58401709  0.91873988  0.29800943  1
  Se  Se198  1  0.57490122  0.90328019  0.81632932  1
  Se  Se199  1  0.91981768  0.24846870  0.30101498  1
  Se  Se200  1  0.90350969  0.25986391  0.81686949  1
  Se  Se201  1  0.91087735  0.57620174  0.31042500  1
  Se  Se202  1  0.90714950  0.57990730  0.81208879  1
  Se  Se203  1  0.91429703  0.91244619  0.30270373  1
  Se  Se204  1  0.91790178  0.91252356  0.80561580  1
  Se  Se205  1  0.08179012  0.07830092  0.30218582  1
  Se  Se206  1  0.09112373  0.09457318  0.80021573  1
  Se  Se207  1  0.08825808  0.41658939  0.29956648  1
  Se  Se208  1  0.08411482  0.42438715  0.79873273  1
  Se  Se209  1  0.08772444  0.74751260  0.31595914  1
  Se  Se210  1  0.09243232  0.75816114  0.80604023  1
  Se  Se211  1  0.42066723  0.10174220  0.31644015  1
  Se  Se212  1  0.41648432  0.07923149  0.79513458  1
  Se  Se213  1  0.42137149  0.41936668  0.30968204  1
  Se  Se214  1  0.41682491  0.41787211  0.80901031  1
  Se  Se215  1  0.41809858  0.74613798  0.29949594  1
  Se  Se216  1  0.41057271  0.74415362  0.80561400  1
  Se  Se217  1  0.74574434  0.08159855  0.30824837  1
  Se  Se218  1  0.76008459  0.08817110  0.81251250  1
  Se  Se219  1  0.75034565  0.41623794  0.29929956  1
  Se  Se220  1  0.73601847  0.41295269  0.80769147  1
  Se  Se221  1  0.74744857  0.74491176  0.29761815  1
  Se  Se222  1  0.74962741  0.74844560  0.80961945  1
  Se  Se223  1  0.24347658  0.08966125  0.18962047  1
  Se  Se224  1  0.25917075  0.08039024  0.68774628  1
  Se  Se225  1  0.26189607  0.41762349  0.19970554  1
  Se  Se226  1  0.24422523  0.42320590  0.68252129  1
  Se  Se227  1  0.25012159  0.75028199  0.20632848  1
  Se  Se228  1  0.26089362  0.74430048  0.69561900  1
  Se  Se229  1  0.57227722  0.09043705  0.21120890  1
  Se  Se230  1  0.58428577  0.08300284  0.68740287  1
  Se  Se231  1  0.58675595  0.42274480  0.19405563  1
  Se  Se232  1  0.57693628  0.41285633  0.69340221  1
  Se  Se233  1  0.58649869  0.75241071  0.19441971  1
  Se  Se234  1  0.58650857  0.74693755  0.69971330  1
  Se  Se235  1  0.91786730  0.07649515  0.20212174  1
  Se  Se236  1  0.90699179  0.10250219  0.69132252  1
  Se  Se237  1  0.92382544  0.41432828  0.20116378  1
  Se  Se238  1  0.89912442  0.42770284  0.69516933  1
  Se  Se239  1  0.90521004  0.74722047  0.18445429  1
  Se  Se240  1  0.91026133  0.75752143  0.68736483  1
  Se  Se241  1  0.08716925  0.25162359  0.20388327  1
  Se  Se242  1  0.09943974  0.25313801  0.67923498  1
  Se  Se243  1  0.09421460  0.57604739  0.19135394  1
  Se  Se244  1  0.08476477  0.58123732  0.68379769  1
  Se  Se245  1  0.07787305  0.90812113  0.20421187  1
  Se  Se246  1  0.10012480  0.90947146  0.68780875  1
  Se  Se247  1  0.42638569  0.25473806  0.20204899  1
  Se  Se248  1  0.42691446  0.23993094  0.68024771  1
  Se  Se249  1  0.41774991  0.58580323  0.19878380  1
  Se  Se250  1  0.41470242  0.57782858  0.69301558  1
  Se  Se251  1  0.41678191  0.91317911  0.19093575  1
  Se  Se252  1  0.42161654  0.91357468  0.69807061  1
  Se  Se253  1  0.75277107  0.24798269  0.20241159  1
  Se  Se254  1  0.74038367  0.25790107  0.69777562  1
  Se  Se255  1  0.74905827  0.58033262  0.18978326  1
  Se  Se256  1  0.74125347  0.58932489  0.70084391  1
  Se  Se257  1  0.74724594  0.91760136  0.19696936  1
  Se  Se258  1  0.75546711  0.91270507  0.69137703  1
