# generated using pymatgen
data_In86Cu29Se144
_symmetry_space_group_name_H-M   'P 1'
_cell_length_a   17.58461034
_cell_length_b   17.58791204
_cell_length_c   23.45274160
_cell_angle_alpha   89.99509075
_cell_angle_beta   90.02065653
_cell_angle_gamma   89.96878524
_symmetry_Int_Tables_number   1
_chemical_formula_structural   In86Cu29Se144
_chemical_formula_sum   'In86 Cu29 Se144'
_cell_volume   7253.38213607
_cell_formula_units_Z   1
loop_
 _symmetry_equiv_pos_site_id
 _symmetry_equiv_pos_as_xyz
  1  'x, y, z'
loop_
 _atom_site_type_symbol
 _atom_site_label
 _atom_site_symmetry_multiplicity
 _atom_site_fract_x
 _atom_site_fract_y
 _atom_site_fract_z
 _atom_site_occupancy
  In  In0  1  -0.00477583  0.17124716  0.12668272  1
  In  In1  1  -0.01380404  0.15337995  0.61866531  1
  In  In2  1  0.00178838  0.50351119  0.12101887  1
  In  In3  1  0.01446652  0.50231307  0.62425478  1
  In  In4  1  -0.02305025  0.84696496  0.14762273  1
  In  In5  1  0.00358530  0.83376339  0.62392704  1
  In  In6  1  0.34239034  0.15844209  0.11747662  1
  In  In7  1  0.32495903  0.17449426  0.63209172  1
  In  In8  1  0.34025538  0.50821825  0.11569608  1
  In  In9  1  0.32321777  0.50953880  0.64385921  1
  In  In10  1  0.31504272  0.83160437  0.12513711  1
  In  In11  1  0.32203562  0.84387534  0.63808194  1
  In  In12  1  0.66908788  0.16008643  0.12033284  1
  In  In13  1  0.68518505  0.16690451  0.63224522  1
  In  In14  1  0.66518754  0.49993146  0.11313788  1
  In  In15  1  0.65782151  0.49925460  0.63676900  1
  In  In16  1  0.69502959  0.83324657  0.12731867  1
  In  In17  1  0.67633950  0.82817458  0.61939278  1
  In  In18  1  0.14926404  0.00883754  0.38618311  1
  In  In19  1  0.16000763  -0.00467882  0.86394385  1
  In  In20  1  0.15478531  0.34484892  0.38487875  1
  In  In21  1  0.18370519  0.33862805  0.86971171  1
  In  In22  1  0.16033114  0.66151650  0.38040321  1
  In  In23  1  0.15832980  0.66018165  0.87305857  1
  In  In24  1  0.49862546  -0.01392668  0.37066838  1
  In  In25  1  0.50501701  0.00772121  0.87238893  1
  In  In26  1  0.50372839  0.33946950  0.37806071  1
  In  In27  1  0.49660610  0.33517574  0.87287633  1
  In  In28  1  0.48823102  0.68141733  0.37236048  1
  In  In29  1  0.48208962  0.66378281  0.86774996  1
  In  In30  1  0.84066424  -0.00134996  0.37392812  1
  In  In31  1  0.84324184  0.00219412  0.88408364  1
  In  In32  1  0.83504021  0.31656422  0.37915755  1
  In  In33  1  0.82869883  0.33510796  0.87670163  1
  In  In34  1  0.85288601  0.67775287  0.36919539  1
  In  In35  1  0.84649809  0.66703685  0.88835219  1
  In  In36  1  -0.00055087  0.16373028  0.37572273  1
  In  In37  1  -0.00484256  0.15700665  0.87274845  1
  In  In38  1  0.01784836  0.51158636  0.36266542  1
  In  In39  1  -0.00613367  0.51921838  0.88908492  1
  In  In40  1  -0.00269773  0.83257743  0.38179886  1
  In  In41  1  -0.00812263  0.83153016  0.87683918  1
  In  In42  1  0.32669441  0.14714092  0.37686099  1
  In  In43  1  0.34188078  0.17931798  0.86427890  1
  In  In44  1  0.31256048  0.50154884  0.37919024  1
  In  In45  1  0.33350127  0.49944152  0.87571272  1
  In  In46  1  0.32627594  0.81530761  0.37333835  1
  In  In47  1  0.33224959  0.82419729  0.85159777  1
  In  In48  1  0.68942163  0.16796596  0.37730568  1
  In  In49  1  0.66406354  0.16804924  0.88252158  1
  In  In50  1  0.66524780  0.49449923  0.37100238  1
  In  In51  1  0.67550273  0.48985454  0.88006975  1
  In  In52  1  0.66876860  0.85204217  0.36724961  1
  In  In53  1  0.67737877  0.84227468  0.87555997  1
  In  In54  1  0.15679950  -0.00823985  0.12512546  1
  In  In55  1  0.16123967  -0.00299229  0.62363379  1
  In  In56  1  0.14966517  0.33530892  0.12435977  1
  In  In57  1  0.17086385  0.33743966  0.62008448  1
  In  In58  1  0.17159357  0.66533406  0.13054568  1
  In  In59  1  0.16408200  0.66837149  0.62574822  1
  In  In60  1  0.50622657  0.01406287  0.11603612  1
  In  In61  1  0.49020735  -0.01308960  0.62894257  1
  In  In62  1  0.50493939  0.33444717  0.11359525  1
  In  In63  1  0.49922256  0.34463728  0.64751210  1
  In  In64  1  0.49706743  0.65636752  0.11883712  1
  In  In65  1  0.48812064  0.66501800  0.63713186  1
  In  In66  1  0.83700209  -0.00622914  0.12715256  1
  In  In67  1  0.84305230  0.00909454  0.62173042  1
  In  In68  1  0.84501512  0.34184615  0.11560304  1
  In  In69  1  0.83336339  0.32016587  0.63503102  1
  In  In70  1  0.86324857  0.68626725  0.09577303  1
  In  In71  1  0.84123399  0.68409765  0.61878231  1
  In  In72  1  0.67253835  0.33094223  0.23969441  1
  In  In73  1  0.00704704  0.33525412  0.75090310  1
  In  In74  1  0.16798407  0.17116548  -0.00018234  1
  In  In75  1  0.50101760  0.16888453  0.50355998  1
  In  In76  1  0.50100323  0.83005969  0.50382791  1
  In  In77  1  0.15642001  0.82988869  -0.00386683  1
  In  In78  1  0.50187209  0.83452263  -0.01003846  1
  In  In79  1  0.66708337  0.66611969  0.74952466  1
  In  In80  1  0.49469938  0.50305340  0.51987631  1
  In  In81  1  0.84099161  0.49938686  0.49883151  1
  In  In82  1  0.32508632  0.33255103  0.25024676  1
  In  In83  1  0.32743255  -0.00678945  0.24573913  1
  In  In84  1  0.67366361  0.66524879  0.24294090  1
  In  In85  1  0.66434902  0.00169724  0.75586474  1
  Cu  Cu86  1  0.67653400  0.00870014  0.49599382  1
  Cu  Cu87  1  0.16094802  0.16868633  0.25252568  1
  Cu  Cu88  1  0.84293217  0.15554476  0.25169386  1
  Cu  Cu89  1  0.32520830  0.65934610  0.50503853  1
  Cu  Cu90  1  0.49692603  0.16546611  0.75471902  1
  Cu  Cu91  1  0.66442963  0.65831578  -0.00410195  1
  Cu  Cu92  1  0.32838412  0.66619907  -0.00299261  1
  Cu  Cu93  1  0.84211137  0.83647321  0.75015458  1
  Cu  Cu94  1  0.16004460  0.83286990  0.74567367  1
  Cu  Cu95  1  0.51007297  0.16698601  0.24353213  1
  Cu  Cu96  1  0.67911463  0.66911586  0.49761896  1
  Cu  Cu97  1  0.16356558  0.50437214  0.25181609  1
  Cu  Cu98  1  0.48791015  0.51040241  0.24581042  1
  Cu  Cu99  1  -0.00336680  -0.00431913  0.50004081  1
  Cu  Cu100  1  0.67427019  -0.00210585  0.00100548  1
  Cu  Cu101  1  0.33398140  0.00608201  -0.01150262  1
  Cu  Cu102  1  0.16742135  0.50492238  0.75315011  1
  Cu  Cu103  1  0.66931593  0.33058644  0.51105762  1
  Cu  Cu104  1  0.33704132  0.33705492  -0.00623715  1
  Cu  Cu105  1  0.32428383  0.32779748  0.50403320  1
  Cu  Cu106  1  0.16236899  0.15913349  0.74619609  1
  Cu  Cu107  1  0.32106093  -0.00389961  0.50513914  1
  Cu  Cu108  1  0.00415607  0.33793416  -0.00357622  1
  Cu  Cu109  1  0.84092361  0.50893055  0.75921917  1
  Cu  Cu110  1  0.49974990  0.83264904  0.24432321  1
  Cu  Cu111  1  0.66104969  0.32172498  -0.00504949  1
  Cu  Cu112  1  -0.00243241  0.32675922  0.50249033  1
  Cu  Cu113  1  0.16074312  0.82645827  0.25579609  1
  Cu  Cu114  1  0.84230827  0.49833176  0.24068903  1
  Se  Se115  1  0.07854155  0.07913438  0.05625397  1
  Se  Se116  1  0.08011292  0.08057192  0.55303348  1
  Se  Se117  1  0.08683121  0.42141946  0.04941132  1
  Se  Se118  1  0.08097517  0.41326283  0.55203081  1
  Se  Se119  1  0.08084072  0.75934360  0.07438892  1
  Se  Se120  1  0.09274060  0.75760459  0.55645443  1
  Se  Se121  1  0.42026285  0.08506611  0.04227005  1
  Se  Se122  1  0.40941133  0.07521145  0.55948327  1
  Se  Se123  1  0.41982054  0.41935852  0.04981914  1
  Se  Se124  1  0.40475830  0.40358735  0.56859527  1
  Se  Se125  1  0.40691994  0.75211541  0.05496312  1
  Se  Se126  1  0.40684242  0.74370184  0.56229103  1
  Se  Se127  1  0.75718267  0.07941739  0.05534466  1
  Se  Se128  1  0.75465815  0.08999074  0.55369153  1
  Se  Se129  1  0.74208079  0.40523055  0.05139503  1
  Se  Se130  1  0.74758935  0.41881902  0.56580721  1
  Se  Se131  1  0.74424922  0.74583869  0.04740737  1
  Se  Se132  1  0.75994496  0.75931388  0.54464947  1
  Se  Se133  1  0.25966203  0.26135396  0.06140484  1
  Se  Se134  1  0.24308999  0.24051402  0.55394253  1
  Se  Se135  1  0.24549276  0.58648835  0.05323233  1
  Se  Se136  1  0.24902932  0.57558067  0.56236286  1
  Se  Se137  1  0.25493925  0.92862361  0.05066345  1
  Se  Se138  1  0.24446986  0.90758815  0.55725539  1
  Se  Se139  1  0.58138958  0.23944392  0.05257942  1
  Se  Se140  1  0.58269469  0.25758349  0.57008413  1
  Se  Se141  1  0.57565522  0.57906125  0.04652391  1
  Se  Se142  1  0.59551643  0.60087270  0.56353494  1
  Se  Se143  1  0.59071092  0.91419121  0.05847348  1
  Se  Se144  1  0.59420327  0.92950669  0.55622046  1
  Se  Se145  1  0.92411558  0.25163716  0.04974470  1
  Se  Se146  1  0.90951188  0.25109697  0.55584772  1
  Se  Se147  1  0.89992616  0.55892883  0.05167469  1
  Se  Se148  1  0.92890888  0.59096996  0.55672532  1
  Se  Se149  1  0.91656680  0.90692467  0.05882823  1
  Se  Se150  1  0.91394498  0.91469444  0.55591673  1
  Se  Se151  1  0.08165220  0.24639112  0.44644777  1
  Se  Se152  1  0.08319947  0.25850987  0.93405022  1
  Se  Se153  1  0.08945226  0.56661810  0.44730138  1
  Se  Se154  1  0.08103608  0.59984366  0.95462851  1
  Se  Se155  1  0.08498021  0.91107280  0.45254413  1
  Se  Se156  1  0.07416937  0.93135727  0.94246415  1
  Se  Se157  1  0.40738568  0.25603966  0.43971297  1
  Se  Se158  1  0.41723996  0.24733055  0.94456285  1
  Se  Se159  1  0.41362715  0.58666541  0.44437600  1
  Se  Se160  1  0.41539319  0.58438990  0.94586029  1
  Se  Se161  1  0.40437909  0.91832096  0.44323140  1
  Se  Se162  1  0.40407738  0.91619733  0.93000791  1
  Se  Se163  1  0.75208342  0.24930205  0.45617262  1
  Se  Se164  1  0.75597300  0.24555482  0.94750070  1
  Se  Se165  1  0.74868435  0.58573745  0.43417351  1
  Se  Se166  1  0.75464000  0.57961223  0.94590374  1
  Se  Se167  1  0.75143494  0.91834085  0.44319802  1
  Se  Se168  1  0.75775077  0.91442647  0.94889616  1
  Se  Se169  1  0.24269635  0.08460221  0.45301843  1
  Se  Se170  1  0.25077450  0.08464545  0.93113578  1
  Se  Se171  1  0.24559581  0.41807882  0.45402105  1
  Se  Se172  1  0.24797643  0.42033089  0.94786521  1
  Se  Se173  1  0.24762874  0.74507869  0.44896508  1
  Se  Se174  1  0.25788437  0.75181005  0.93562691  1
  Se  Se175  1  0.58532950  0.07876585  0.43686562  1
  Se  Se176  1  0.58503023  0.07620753  0.94854373  1
  Se  Se177  1  0.59024287  0.41592748  0.45291328  1
  Se  Se178  1  0.58260504  0.41192038  0.94417002  1
  Se  Se179  1  0.59305143  0.74625422  0.43801670  1
  Se  Se180  1  0.58947127  0.73991266  0.93204489  1
  Se  Se181  1  0.91592182  0.08361071  0.44652290  1
  Se  Se182  1  0.91463964  0.09607940  0.95137977  1
  Se  Se183  1  0.92540570  0.40958114  0.43618430  1
  Se  Se184  1  0.91650190  0.41636019  0.94354566  1
  Se  Se185  1  0.91794443  0.74631745  0.45101285  1
  Se  Se186  1  0.92012226  0.75742377  0.95590394  1
  Se  Se187  1  0.24285567  0.24196696  0.31538076  1
  Se  Se188  1  0.24449244  0.24615497  0.79674839  1
  Se  Se189  1  0.24788619  0.58679135  0.30492291  1
  Se  Se190  1  0.25187430  0.58667642  0.80688348  1
  Se  Se191  1  0.24117523  0.91389913  0.31430985  1
  Se  Se192  1  0.24691376  0.91819615  0.79550888  1
  Se  Se193  1  0.58314135  0.24771912  0.30950849  1
  Se  Se194  1  0.58198050  0.24424546  0.80994917  1
  Se  Se195  1  0.57354316  0.58298616  0.30814750  1
  Se  Se196  1  0.58476070  0.57756511  0.81404262  1
  Se  Se197  1  0.58064125  0.92001542  0.29409998  1
  Se  Se198  1  0.57430921  0.90306835  0.80813797  1
  Se  Se199  1  0.91745927  0.24732976  0.30461997  1
  Se  Se200  1  0.91217829  0.24784556  0.80600026  1
  Se  Se201  1  0.91771901  0.58212081  0.30053529  1
  Se  Se202  1  0.92169144  0.59442336  0.80924767  1
  Se  Se203  1  0.92765515  0.91876967  0.30846351  1
  Se  Se204  1  0.91740917  0.92195661  0.80757937  1
  Se  Se205  1  0.08162817  0.08061719  0.30431527  1
  Se  Se206  1  0.07526982  0.08118327  0.79909304  1
  Se  Se207  1  0.08658699  0.40946073  0.29986467  1
  Se  Se208  1  0.08441578  0.43017404  0.81614046  1
  Se  Se209  1  0.07960242  0.74618165  0.31182583  1
  Se  Se210  1  0.08300932  0.75568737  0.80920564  1
  Se  Se211  1  0.42458318  0.08752808  0.30149490  1
  Se  Se212  1  0.41397326  0.07743805  0.80298710  1
  Se  Se213  1  0.41838622  0.42456113  0.30927320  1
  Se  Se214  1  0.39592409  0.39992337  0.80869438  1
  Se  Se215  1  0.41217262  0.75304284  0.29512167  1
  Se  Se216  1  0.41730218  0.73952025  0.78816660  1
  Se  Se217  1  0.75172189  0.08026526  0.30377292  1
  Se  Se218  1  0.75586214  0.08821556  0.81347433  1
  Se  Se219  1  0.76164900  0.42019139  0.30479151  1
  Se  Se220  1  0.75600036  0.41999553  0.80285350  1
  Se  Se221  1  0.75491345  0.75832009  0.30556317  1
  Se  Se222  1  0.76068357  0.75434540  0.80825044  1
  Se  Se223  1  0.24119378  0.09321706  0.18834383  1
  Se  Se224  1  0.24870141  0.07768033  0.69305550  1
  Se  Se225  1  0.24383368  0.42573933  0.18774118  1
  Se  Se226  1  0.24127496  0.41163856  0.70060072  1
  Se  Se227  1  0.25079919  0.75066225  0.20230984  1
  Se  Se228  1  0.24746081  0.74557680  0.69892285  1
  Se  Se229  1  0.58944145  0.07915752  0.19346561  1
  Se  Se230  1  0.57451887  0.08878518  0.68883777  1
  Se  Se231  1  0.57190263  0.42583601  0.19141938  1
  Se  Se232  1  0.59321992  0.41640908  0.71186082  1
  Se  Se233  1  0.57979054  0.75494450  0.18149181  1
  Se  Se234  1  0.58080347  0.76213560  0.69038905  1
  Se  Se235  1  0.92520152  0.07720640  0.19432496  1
  Se  Se236  1  0.90501644  0.09317996  0.69823356  1
  Se  Se237  1  0.92568128  0.41190911  0.19181114  1
  Se  Se238  1  0.91374232  0.42768715  0.69180968  1
  Se  Se239  1  0.90634687  0.73416652  0.19355271  1
  Se  Se240  1  0.92189164  0.75030183  0.69624834  1
  Se  Se241  1  0.07943530  0.25155223  0.19762967  1
  Se  Se242  1  0.08423647  0.24209072  0.68459629  1
  Se  Se243  1  0.08103185  0.58408010  0.19474728  1
  Se  Se244  1  0.08340007  0.58564568  0.69882113  1
  Se  Se245  1  0.08560358  0.91694942  0.20249209  1
  Se  Se246  1  0.07767275  0.92057502  0.69619935  1
  Se  Se247  1  0.42365935  0.24676249  0.18966760  1
  Se  Se248  1  0.41324072  0.24884389  0.70157113  1
  Se  Se249  1  0.40657287  0.59310594  0.19325467  1
  Se  Se250  1  0.44458993  0.55193636  0.69672583  1
  Se  Se251  1  0.42204986  0.91318058  0.17996236  1
  Se  Se252  1  0.41938133  0.91065093  0.70393580  1
  Se  Se253  1  0.76706705  0.23900651  0.18771820  1
  Se  Se254  1  0.73923248  0.26030609  0.70541555  1
  Se  Se255  1  0.75680187  0.57298032  0.18270942  1
  Se  Se256  1  0.76568760  0.58314177  0.68856546  1
  Se  Se257  1  0.75075566  0.92234181  0.20133619  1
  Se  Se258  1  0.75440544  0.91263981  0.69242075  1
