# generated using pymatgen
data_In86Cu29Se144
_symmetry_space_group_name_H-M   'P 1'
_cell_length_a   17.56970245
_cell_length_b   17.57166064
_cell_length_c   23.42765649
_cell_angle_alpha   89.98781713
_cell_angle_beta   89.99087159
_cell_angle_gamma   89.96920026
_symmetry_Int_Tables_number   1
_chemical_formula_structural   In86Cu29Se144
_chemical_formula_sum   'In86 Cu29 Se144'
_cell_volume   7232.79211968
_cell_formula_units_Z   1
loop_
 _symmetry_equiv_pos_site_id
 _symmetry_equiv_pos_as_xyz
  1  'x, y, z'
loop_
 _atom_site_type_symbol
 _atom_site_label
 _atom_site_symmetry_multiplicity
 _atom_site_fract_x
 _atom_site_fract_y
 _atom_site_fract_z
 _atom_site_occupancy
  In  In0  1  0.01545477  0.17853225  0.11571056  1
  In  In1  1  0.00438422  0.17675817  0.64434061  1
  In  In2  1  0.00540189  0.49181066  0.12887444  1
  In  In3  1  -0.00857963  0.50334462  0.63178518  1
  In  In4  1  -0.01255398  0.82324307  0.11819470  1
  In  In5  1  -0.01101979  0.83001308  0.63076792  1
  In  In6  1  0.31529286  0.15920606  0.12113481  1
  In  In7  1  0.31076481  0.17927605  0.64731340  1
  In  In8  1  0.32685123  0.49086050  0.10800776  1
  In  In9  1  0.31009045  0.49577903  0.63465146  1
  In  In10  1  0.34355236  0.84466893  0.11717127  1
  In  In11  1  0.33774355  0.83711047  0.62809268  1
  In  In12  1  0.66231351  0.14747312  0.12033448  1
  In  In13  1  0.67815932  0.17537144  0.62937471  1
  In  In14  1  0.66317061  0.51344268  0.12103131  1
  In  In15  1  0.67855561  0.49712916  0.62919277  1
  In  In16  1  0.67862456  0.84391859  0.11530468  1
  In  In17  1  0.66656300  0.82604914  0.62348928  1
  In  In18  1  0.17179856  -0.00368401  0.36618975  1
  In  In19  1  0.15920993  -0.00200658  0.87320628  1
  In  In20  1  0.16253689  0.34971744  0.38010448  1
  In  In21  1  0.16968903  0.33334482  0.86985231  1
  In  In22  1  0.14108433  0.66313506  0.37808809  1
  In  In23  1  0.16486080  0.66990401  0.87836767  1
  In  In24  1  0.49656397  -0.01569956  0.36991261  1
  In  In25  1  0.48564620  0.00107142  0.87887225  1
  In  In26  1  0.48902950  0.33533470  0.37549997  1
  In  In27  1  0.50468866  0.34204735  0.87095885  1
  In  In28  1  0.51892357  0.67778878  0.37776517  1
  In  In29  1  0.50497170  0.65931031  0.87784341  1
  In  In30  1  0.82068049  -0.00130814  0.37042379  1
  In  In31  1  0.85276478  -0.01686421  0.88108890  1
  In  In32  1  0.85143322  0.33316427  0.37720089  1
  In  In33  1  0.83198615  0.32999095  0.87098222  1
  In  In34  1  0.84342252  0.65809240  0.39795492  1
  In  In35  1  0.84785075  0.69395989  0.85167717  1
  In  In36  1  -0.01167721  0.17139624  0.37071215  1
  In  In37  1  0.00543059  0.16270409  0.87246698  1
  In  In38  1  0.00081150  0.50019061  0.38351930  1
  In  In39  1  0.01368741  0.50758829  0.86297850  1
  In  In40  1  0.00075403  0.82378941  0.36766339  1
  In  In41  1  -0.00217187  0.83854098  0.87401481  1
  In  In42  1  0.34167637  0.16255233  0.37196789  1
  In  In43  1  0.30655957  0.15705087  0.85148940  1
  In  In44  1  0.32498050  0.48655548  0.37822983  1
  In  In45  1  0.33487188  0.49859018  0.87436063  1
  In  In46  1  0.33546427  0.84418380  0.37524833  1
  In  In47  1  0.32286130  0.84180687  0.88459133  1
  In  In48  1  0.68545590  0.15804636  0.37037014  1
  In  In49  1  0.67438933  0.18188077  0.87559005  1
  In  In50  1  0.68623354  0.52598714  0.37901957  1
  In  In51  1  0.66278337  0.50218906  0.86816299  1
  In  In52  1  0.66239845  0.82722056  0.38658037  1
  In  In53  1  0.67550648  0.82448223  0.87838268  1
  In  In54  1  0.17618004  0.01279569  0.11896217  1
  In  In55  1  0.16040550  0.00697000  0.64401441  1
  In  In56  1  0.15504802  0.32551318  0.11312929  1
  In  In57  1  0.12283372  0.36552270  0.68542715  1
  In  In58  1  0.15348920  0.65475616  0.11535701  1
  In  In59  1  0.15581378  0.64782791  0.62433665  1
  In  In60  1  0.50861917  -0.01096378  0.12777588  1
  In  In61  1  0.49468228  -0.01266049  0.62791687  1
  In  In62  1  0.48491225  0.33375900  0.11571722  1
  In  In63  1  0.49863770  0.34003877  0.63630873  1
  In  In64  1  0.50156106  0.66599662  0.10996773  1
  In  In65  1  0.49608300  0.68809078  0.62082041  1
  In  In66  1  0.82396561  -0.01109486  0.11685421  1
  In  In67  1  0.84726172  -0.00616763  0.62933769  1
  In  In68  1  0.85627581  0.33764989  0.12093580  1
  In  In69  1  0.82239280  0.33977238  0.63385267  1
  In  In70  1  0.84100858  0.68561003  0.12371156  1
  In  In71  1  0.83964602  0.66355346  0.62949859  1
  In  In72  1  0.83088070  0.50398027  -0.00867850  1
  In  In73  1  0.00559781  0.00414751  0.24204152  1
  In  In74  1  0.66791821  0.32540646  0.25337882  1
  In  In75  1  0.31613543  0.31933796  0.23826007  1
  In  In76  1  0.50112204  0.50926835  0.49808682  1
  In  In77  1  0.16645708  0.82513934  0.50706995  1
  In  In78  1  0.66741675  0.00175525  0.74885756  1
  In  In79  1  0.16509230  0.17016222  0.50924461  1
  In  In80  1  0.32794604  0.66710070  0.24525439  1
  In  In81  1  0.49785556  0.15817126  0.50136758  1
  In  In82  1  0.32966917  0.66935084  0.74896920  1
  In  In83  1  0.83710245  0.16302890  0.50204548  1
  In  In84  1  0.49475227  0.17338067  -0.00547548  1
  In  In85  1  0.67817003  0.67505665  0.25142598  1
  Cu  Cu86  1  0.49680683  0.83534097  0.75341589  1
  Cu  Cu87  1  0.84552821  0.50405128  0.25580482  1
  Cu  Cu88  1  0.00499857  -0.01070244  0.50461610  1
  Cu  Cu89  1  0.66460037  0.34253321  0.50425666  1
  Cu  Cu90  1  0.15254893  0.50173315  0.25133368  1
  Cu  Cu91  1  0.50275674  0.16873782  0.75857861  1
  Cu  Cu92  1  0.50005589  0.14759214  0.24963864  1
  Cu  Cu93  1  0.67023194  -0.00136169  -0.00457799  1
  Cu  Cu94  1  -0.00633460  0.66568623  -0.00997938  1
  Cu  Cu95  1  0.33656021  0.00075669  0.50288130  1
  Cu  Cu96  1  0.32980495  0.66811152  -0.00429649  1
  Cu  Cu97  1  0.32903738  0.00388005  -0.00430864  1
  Cu  Cu98  1  0.49725533  0.49862043  0.24180857  1
  Cu  Cu99  1  0.00674695  0.33434295  -0.00717363  1
  Cu  Cu100  1  0.50721160  0.51038354  0.74651144  1
  Cu  Cu101  1  0.66444310  -0.01070534  0.50151118  1
  Cu  Cu102  1  0.33219770  0.33441665  -0.01244560  1
  Cu  Cu103  1  0.83539938  0.16637290  0.24110499  1
  Cu  Cu104  1  0.00594235  0.34181752  0.51358526  1
  Cu  Cu105  1  0.67155592  0.33815623  -0.00689986  1
  Cu  Cu106  1  0.15969900  0.83243414  0.75482220  1
  Cu  Cu107  1  0.83349172  0.16664618  0.75534293  1
  Cu  Cu108  1  0.83284087  0.49949011  0.75283258  1
  Cu  Cu109  1  0.31971616  0.34054546  0.51157662  1
  Cu  Cu110  1  0.66679943  0.66439131  -0.00707189  1
  Cu  Cu111  1  0.17155987  0.83461864  0.24313668  1
  Cu  Cu112  1  0.33084164  0.66673531  0.50259677  1
  Cu  Cu113  1  0.50844156  0.83517618  0.24736028  1
  Cu  Cu114  1  0.00375743  0.00162248  -0.00002419  1
  Se  Se115  1  0.09023998  0.08787438  0.04766361  1
  Se  Se116  1  0.07274839  0.07694857  0.56525476  1
  Se  Se117  1  0.08197893  0.42284908  0.04924937  1
  Se  Se118  1  0.08713558  0.40631019  0.58053000  1
  Se  Se119  1  0.07576999  0.74599992  0.04949875  1
  Se  Se120  1  0.07049342  0.73727430  0.55993637  1
  Se  Se121  1  0.41544229  0.07845601  0.05831256  1
  Se  Se122  1  0.40527009  0.08386197  0.56861046  1
  Se  Se123  1  0.41896938  0.41704360  0.03988406  1
  Se  Se124  1  0.41298794  0.41923337  0.56246161  1
  Se  Se125  1  0.41507260  0.75167635  0.04854758  1
  Se  Se126  1  0.40822176  0.75939759  0.54925251  1
  Se  Se127  1  0.75275063  0.08353670  0.04787489  1
  Se  Se128  1  0.74275370  0.07281070  0.56116626  1
  Se  Se129  1  0.74713731  0.41386108  0.06031161  1
  Se  Se130  1  0.75586514  0.41829998  0.55384012  1
  Se  Se131  1  0.74865741  0.74498097  0.04997979  1
  Se  Se132  1  0.76604302  0.75759520  0.56226384  1
  Se  Se133  1  0.25550833  0.25462107  0.04992771  1
  Se  Se134  1  0.24075121  0.26474916  0.57228646  1
  Se  Se135  1  0.24533045  0.58189897  0.04713436  1
  Se  Se136  1  0.25213480  0.58122202  0.55551369  1
  Se  Se137  1  0.24918851  0.91906915  0.05174940  1
  Se  Se138  1  0.24785803  0.92847545  0.56317852  1
  Se  Se139  1  0.59201305  0.25773473  0.05684246  1
  Se  Se140  1  0.58630413  0.25637083  0.55945545  1
  Se  Se141  1  0.58252764  0.57805811  0.04309289  1
  Se  Se142  1  0.58556339  0.58939233  0.56657164  1
  Se  Se143  1  0.58408314  0.91802814  0.04914074  1
  Se  Se144  1  0.57919292  0.91216923  0.55745480  1
  Se  Se145  1  0.92235340  0.25175832  0.04647854  1
  Se  Se146  1  0.92278119  0.25271024  0.56587406  1
  Se  Se147  1  0.92007211  0.58588941  0.05819487  1
  Se  Se148  1  0.90229744  0.56624904  0.55824513  1
  Se  Se149  1  0.91700056  0.91619200  0.04915116  1
  Se  Se150  1  0.91516464  0.91040971  0.55364815  1
  Se  Se151  1  0.07086021  0.25493360  0.44619418  1
  Se  Se152  1  0.08898926  0.25006868  0.93944807  1
  Se  Se153  1  0.09485057  0.56888334  0.45253445  1
  Se  Se154  1  0.08150268  0.58096683  0.94399202  1
  Se  Se155  1  0.08701390  0.92023970  0.44000783  1
  Se  Se156  1  0.08369832  0.91404857  0.94643742  1
  Se  Se157  1  0.40045661  0.25993351  0.45039102  1
  Se  Se158  1  0.40630518  0.24932155  0.92617167  1
  Se  Se159  1  0.40832048  0.59279404  0.43354988  1
  Se  Se160  1  0.41363341  0.58373153  0.94435038  1
  Se  Se161  1  0.41844646  0.91640073  0.44993948  1
  Se  Se162  1  0.41700693  0.91540236  0.95196822  1
  Se  Se163  1  0.74482967  0.25835061  0.44349693  1
  Se  Se164  1  0.75916731  0.25189988  0.94962944  1
  Se  Se165  1  0.74415852  0.59243501  0.46430553  1
  Se  Se166  1  0.75265185  0.59693665  0.92786183  1
  Se  Se167  1  0.75396715  0.91568753  0.44645212  1
  Se  Se168  1  0.75394921  0.91255658  0.94563089  1
  Se  Se169  1  0.25394269  0.07892593  0.44347093  1
  Se  Se170  1  0.24907816  0.08504787  0.93781356  1
  Se  Se171  1  0.23998047  0.42431266  0.45601271  1
  Se  Se172  1  0.24515966  0.42166345  0.94202788  1
  Se  Se173  1  0.25249030  0.74334909  0.43544912  1
  Se  Se174  1  0.24242947  0.75322536  0.94975702  1
  Se  Se175  1  0.59267756  0.07603445  0.43902166  1
  Se  Se176  1  0.59002956  0.08193312  0.93783616  1
  Se  Se177  1  0.58948529  0.41622833  0.43529142  1
  Se  Se178  1  0.58651234  0.42103156  0.94303741  1
  Se  Se179  1  0.58427513  0.74696337  0.45881366  1
  Se  Se180  1  0.58036328  0.75160477  0.94487004  1
  Se  Se181  1  0.92654739  0.07046486  0.44151321  1
  Se  Se182  1  0.92069640  0.08379277  0.94462923  1
  Se  Se183  1  0.91866177  0.41393129  0.45364292  1
  Se  Se184  1  0.92620920  0.41662148  0.93466716  1
  Se  Se185  1  0.93293126  0.75455122  0.44815442  1
  Se  Se186  1  0.91083001  0.75249479  0.94151116  1
  Se  Se187  1  0.23886724  0.24574171  0.31688062  1
  Se  Se188  1  0.27499020  0.28258164  0.79939279  1
  Se  Se189  1  0.24210474  0.57542566  0.30908976  1
  Se  Se190  1  0.24109401  0.57735487  0.80597950  1
  Se  Se191  1  0.25511880  0.91419215  0.29838453  1
  Se  Se192  1  0.24696100  0.91266169  0.80634600  1
  Se  Se193  1  0.57138102  0.23487027  0.31271872  1
  Se  Se194  1  0.58820817  0.25481721  0.80515603  1
  Se  Se195  1  0.57978113  0.57627120  0.30381908  1
  Se  Se196  1  0.58771191  0.59458200  0.79994592  1
  Se  Se197  1  0.59288539  0.90894587  0.30727886  1
  Se  Se198  1  0.57805339  0.91603664  0.81352001  1
  Se  Se199  1  0.91320050  0.25171537  0.29695497  1
  Se  Se200  1  0.92034396  0.24941338  0.80524479  1
  Se  Se201  1  0.91744297  0.58672400  0.31647819  1
  Se  Se202  1  0.91875234  0.58394856  0.80080809  1
  Se  Se203  1  0.91590621  0.91828933  0.30543954  1
  Se  Se204  1  0.91335391  0.91001744  0.79911128  1
  Se  Se205  1  0.08983229  0.09531296  0.30753515  1
  Se  Se206  1  0.08058516  0.07826611  0.80059815  1
  Se  Se207  1  0.07478550  0.41586838  0.30704165  1
  Se  Se208  1  0.07857260  0.40512872  0.79875613  1
  Se  Se209  1  0.09090387  0.75143957  0.29815149  1
  Se  Se210  1  0.08042757  0.74755449  0.80853413  1
  Se  Se211  1  0.41272838  0.07118527  0.30421101  1
  Se  Se212  1  0.41660744  0.08105469  0.80272691  1
  Se  Se213  1  0.41196142  0.41731009  0.29801918  1
  Se  Se214  1  0.42565776  0.42937484  0.80281918  1
  Se  Se215  1  0.42584693  0.75244595  0.30555250  1
  Se  Se216  1  0.41551866  0.75602772  0.81428478  1
  Se  Se217  1  0.75308410  0.08071010  0.29222527  1
  Se  Se218  1  0.75663590  0.08342905  0.81534484  1
  Se  Se219  1  0.75595285  0.42425316  0.31125904  1
  Se  Se220  1  0.74828772  0.41515790  0.80494279  1
  Se  Se221  1  0.76261511  0.74994210  0.32240779  1
  Se  Se222  1  0.73254015  0.74613678  0.79639045  1
  Se  Se223  1  0.24666710  0.08533730  0.19952597  1
  Se  Se224  1  0.26311977  0.06672978  0.70722911  1
  Se  Se225  1  0.23722653  0.42683920  0.18715174  1
  Se  Se226  1  0.26650426  0.39748428  0.70752429  1
  Se  Se227  1  0.24514745  0.75293853  0.17857552  1
  Se  Se228  1  0.23583374  0.75566006  0.68724169  1
  Se  Se229  1  0.59034338  0.07175546  0.19787838  1
  Se  Se230  1  0.57546019  0.09284702  0.68850834  1
  Se  Se231  1  0.57916911  0.41495001  0.18686729  1
  Se  Se232  1  0.58980373  0.42000575  0.69858949  1
  Se  Se233  1  0.58156878  0.75013008  0.18497184  1
  Se  Se234  1  0.57834905  0.75560375  0.69734558  1
  Se  Se235  1  0.91525315  0.08921541  0.17858392  1
  Se  Se236  1  0.91510448  0.08499099  0.69958852  1
  Se  Se237  1  0.92077133  0.41531514  0.20107734  1
  Se  Se238  1  0.91470956  0.41116836  0.70109773  1
  Se  Se239  1  0.91736288  0.75459412  0.20060288  1
  Se  Se240  1  0.92519758  0.73770665  0.70193120  1
  Se  Se241  1  0.08747823  0.25392203  0.19357262  1
  Se  Se242  1  0.11869018  0.21908274  0.70337974  1
  Se  Se243  1  0.07512839  0.58867476  0.19593581  1
  Se  Se244  1  0.08412122  0.57483299  0.70149412  1
  Se  Se245  1  0.09003239  0.91113473  0.18087776  1
  Se  Se246  1  0.07510233  0.91282352  0.69922888  1
  Se  Se247  1  0.42522319  0.23402345  0.18846000  1
  Se  Se248  1  0.42155292  0.24885145  0.70036075  1
  Se  Se249  1  0.41710365  0.57612130  0.18167419  1
  Se  Se250  1  0.42013744  0.58235590  0.68430783  1
  Se  Se251  1  0.41820014  0.91524427  0.19732060  1
  Se  Se252  1  0.41049203  0.91844702  0.70344192  1
  Se  Se253  1  0.75241162  0.24783155  0.18141679  1
  Se  Se254  1  0.74759309  0.25251609  0.70603132  1
  Se  Se255  1  0.76357131  0.57664724  0.19083148  1
  Se  Se256  1  0.75063930  0.58458142  0.69990421  1
  Se  Se257  1  0.75482227  0.90960873  0.19407217  1
  Se  Se258  1  0.75695106  0.90967950  0.69377197  1
