# generated using pymatgen
data_In86Cu29Se144
_symmetry_space_group_name_H-M   'P 1'
_cell_length_a   17.58412499
_cell_length_b   17.58169636
_cell_length_c   23.44089088
_cell_angle_alpha   90.00008315
_cell_angle_beta   89.99444618
_cell_angle_gamma   89.99123922
_symmetry_Int_Tables_number   1
_chemical_formula_structural   In86Cu29Se144
_chemical_formula_sum   'In86 Cu29 Se144'
_cell_volume   7246.95631729
_cell_formula_units_Z   1
loop_
 _symmetry_equiv_pos_site_id
 _symmetry_equiv_pos_as_xyz
  1  'x, y, z'
loop_
 _atom_site_type_symbol
 _atom_site_label
 _atom_site_symmetry_multiplicity
 _atom_site_fract_x
 _atom_site_fract_y
 _atom_site_fract_z
 _atom_site_occupancy
  In  In0  1  -0.00819550  0.15166009  0.11646613  1
  In  In1  1  -0.01133836  0.17037737  0.64552361  1
  In  In2  1  0.01146125  0.50692130  0.11313664  1
  In  In3  1  0.00475894  0.50377787  0.64220710  1
  In  In4  1  -0.01011982  0.84095759  0.12691481  1
  In  In5  1  0.00041087  0.82852233  0.62611576  1
  In  In6  1  0.33571193  0.17253757  0.11559628  1
  In  In7  1  0.33950060  0.16755716  0.63213565  1
  In  In8  1  0.33207491  0.50868756  0.11119950  1
  In  In9  1  0.35016754  0.49003182  0.65072727  1
  In  In10  1  0.34436300  0.82151536  0.12135980  1
  In  In11  1  0.32913490  0.83134297  0.61821812  1
  In  In12  1  0.65366838  0.16373027  0.12281631  1
  In  In13  1  0.66132333  0.15998346  0.62051523  1
  In  In14  1  0.66699559  0.51950170  0.12181207  1
  In  In15  1  0.66194499  0.51788179  0.63141978  1
  In  In16  1  0.66311160  0.83104360  0.12146098  1
  In  In17  1  0.66606619  0.83026018  0.61505380  1
  In  In18  1  0.14811776  -0.00232839  0.37276115  1
  In  In19  1  0.16281146  0.01757589  0.87476053  1
  In  In20  1  0.17171956  0.33569641  0.37695904  1
  In  In21  1  0.17306875  0.33439836  0.86121152  1
  In  In22  1  0.16765489  0.67948995  0.38007413  1
  In  In23  1  0.16126574  0.65399376  0.86444270  1
  In  In24  1  0.52221018  -0.01753246  0.38704531  1
  In  In25  1  0.51699460  -0.00398077  0.89205437  1
  In  In26  1  0.49692592  0.33226839  0.38920794  1
  In  In27  1  0.48418245  0.34428752  0.87916745  1
  In  In28  1  0.50240716  0.66355788  0.37970585  1
  In  In29  1  0.50093589  0.66653767  0.86232001  1
  In  In30  1  0.83264152  -0.00721206  0.37766036  1
  In  In31  1  0.83590785  -0.00564293  0.87171535  1
  In  In32  1  0.81994912  0.33315217  0.38422609  1
  In  In33  1  0.85143443  0.32609782  0.86855092  1
  In  In34  1  0.84107721  0.67810881  0.37239845  1
  In  In35  1  0.83698034  0.68407276  0.86361054  1
  In  In36  1  -0.00108650  0.14679548  0.37620729  1
  In  In37  1  0.02212766  0.18964324  0.84273858  1
  In  In38  1  -0.01593279  0.50751844  0.38204066  1
  In  In39  1  0.01464489  0.50744088  0.86361286  1
  In  In40  1  -0.00260066  0.83134775  0.37933037  1
  In  In41  1  -0.01370751  0.83525887  0.86407915  1
  In  In42  1  0.33674172  0.17901810  0.37551899  1
  In  In43  1  0.32540252  0.17547853  0.87834757  1
  In  In44  1  0.33941443  0.51432991  0.37890668  1
  In  In45  1  0.33461650  0.49723463  0.85893423  1
  In  In46  1  0.33732792  0.82640568  0.38574812  1
  In  In47  1  0.35262438  0.83585176  0.87340989  1
  In  In48  1  0.67962253  0.15423460  0.38709349  1
  In  In49  1  0.66386261  0.15247051  0.88138851  1
  In  In50  1  0.65277554  0.49943173  0.37771752  1
  In  In51  1  0.64613270  0.50460073  0.87063991  1
  In  In52  1  0.66618396  0.83459185  0.37387534  1
  In  In53  1  0.67999668  0.82620282  0.88123868  1
  In  In54  1  0.14836084  -0.00409625  0.11786022  1
  In  In55  1  0.16788487  -0.01263410  0.62601956  1
  In  In56  1  0.17163272  0.33771508  0.10846933  1
  In  In57  1  0.16938195  0.33684594  0.65069139  1
  In  In58  1  0.16951519  0.65897125  0.12033474  1
  In  In59  1  0.16321530  0.67321443  0.63977383  1
  In  In60  1  0.50815339  -0.00158728  0.12387466  1
  In  In61  1  0.50231866  0.00375609  0.61624358  1
  In  In62  1  0.49001428  0.33312553  0.11585938  1
  In  In63  1  0.49657103  0.32835990  0.62916820  1
  In  In64  1  0.51792073  0.68316447  0.10243595  1
  In  In65  1  0.50086835  0.66773745  0.62387850  1
  In  In66  1  0.83924032  -0.00928397  0.12801316  1
  In  In67  1  0.84057160  0.00022847  0.62208406  1
  In  In68  1  0.83692277  0.32303069  0.12265376  1
  In  In69  1  0.84300986  0.32620916  0.63067292  1
  In  In70  1  0.81693656  0.68364135  0.13074641  1
  In  In71  1  0.82599080  0.67914248  0.63978830  1
  In  In72  1  0.17068673  0.50192331  0.52444849  1
  In  In73  1  0.83665680  0.16258665  -0.00787465  1
  In  In74  1  -0.00655892  0.33210477  0.24448169  1
  In  In75  1  0.82882507  0.50535378  0.00006942  1
  In  In76  1  0.17297958  0.83012044  -0.00130699  1
  In  In77  1  0.33227507  0.33545013  0.24516186  1
  In  In78  1  0.16721379  0.16065918  0.50946056  1
  In  In79  1  0.83016217  0.50030489  0.51396240  1
  In  In80  1  0.67101841  -0.00539220  0.75003745  1
  In  In81  1  0.66792820  0.33330011  0.75197116  1
  In  In82  1  0.33456214  0.66793327  0.25016837  1
  In  In83  1  0.66316169  0.33458712  0.25182097  1
  In  In84  1  0.33240948  0.00428703  0.75495770  1
  In  In85  1  0.33407882  0.00064132  0.24808851  1
  Cu  Cu86  1  0.16444746  0.83357662  0.75323323  1
  Cu  Cu87  1  0.32941473  0.33485943  -0.01081181  1
  Cu  Cu88  1  -0.00452564  -0.00672357  0.50172330  1
  Cu  Cu89  1  -0.00304243  0.67255158  -0.01257858  1
  Cu  Cu90  1  -0.00055152  0.31740568  0.51172221  1
  Cu  Cu91  1  0.83315088  0.50504552  0.75307557  1
  Cu  Cu92  1  0.49403934  0.17082353  0.75893980  1
  Cu  Cu93  1  0.51093233  0.15682754  0.25571286  1
  Cu  Cu94  1  0.83583123  0.15620238  0.25362945  1
  Cu  Cu95  1  0.66280096  0.66764461  -0.00685620  1
  Cu  Cu96  1  0.34081598  0.66513340  0.50669564  1
  Cu  Cu97  1  0.83826077  0.51390916  0.24884800  1
  Cu  Cu98  1  0.15211968  0.50303960  0.24574491  1
  Cu  Cu99  1  0.50266173  0.83185171  0.74398972  1
  Cu  Cu100  1  0.15769024  0.83671639  0.25396895  1
  Cu  Cu101  1  0.67071995  0.66918387  0.50021285  1
  Cu  Cu102  1  0.15513980  0.16001510  0.24029577  1
  Cu  Cu103  1  0.66759986  -0.00326163  0.49913745  1
  Cu  Cu104  1  0.00121654  0.00307363  -0.00651021  1
  Cu  Cu105  1  0.33106458  0.65346478  -0.01489376  1
  Cu  Cu106  1  0.83312242  0.83464892  0.25270600  1
  Cu  Cu107  1  0.33348421  0.00411008  0.50079090  1
  Cu  Cu108  1  0.66127630  0.32829408  0.50585832  1
  Cu  Cu109  1  0.50229935  0.50703648  0.24892390  1
  Cu  Cu110  1  0.66115076  0.33604830  -0.00447751  1
  Cu  Cu111  1  0.33596180  0.33953319  0.50979189  1
  Cu  Cu112  1  0.00695459  0.66753893  0.50589577  1
  Cu  Cu113  1  0.33917998  0.00469796  -0.00213609  1
  Cu  Cu114  1  0.01505361  0.33603960  -0.01559017  1
  Se  Se115  1  0.08541336  0.08764847  0.04504155  1
  Se  Se116  1  0.07176263  0.07533225  0.56494181  1
  Se  Se117  1  0.08818716  0.42281159  0.04307076  1
  Se  Se118  1  0.07537279  0.40190760  0.57080084  1
  Se  Se119  1  0.07479014  0.74645543  0.05645934  1
  Se  Se120  1  0.09274430  0.74742131  0.55936824  1
  Se  Se121  1  0.42177930  0.08266759  0.05695200  1
  Se  Se122  1  0.41167594  0.08941659  0.55564184  1
  Se  Se123  1  0.41098973  0.41757162  0.04771098  1
  Se  Se124  1  0.41650071  0.42232367  0.56516242  1
  Se  Se125  1  0.40624386  0.73960902  0.04296458  1
  Se  Se126  1  0.42301690  0.75608184  0.55373362  1
  Se  Se127  1  0.75204627  0.08216964  0.06187704  1
  Se  Se128  1  0.74897720  0.07849483  0.55610845  1
  Se  Se129  1  0.74225999  0.40787245  0.06098227  1
  Se  Se130  1  0.73816961  0.40747097  0.57050344  1
  Se  Se131  1  0.74692792  0.75013507  0.04803925  1
  Se  Se132  1  0.75910502  0.74489972  0.55382142  1
  Se  Se133  1  0.25022806  0.24767546  0.04494714  1
  Se  Se134  1  0.25000269  0.26264483  0.56734883  1
  Se  Se135  1  0.24161224  0.58216788  0.04289119  1
  Se  Se136  1  0.26583820  0.59179720  0.57537391  1
  Se  Se137  1  0.26026085  0.92321018  0.06093387  1
  Se  Se138  1  0.24919243  0.91845863  0.54992662  1
  Se  Se139  1  0.58243441  0.25290216  0.05328860  1
  Se  Se140  1  0.57503927  0.24582033  0.55760758  1
  Se  Se141  1  0.58266354  0.57607541  0.04205946  1
  Se  Se142  1  0.58581797  0.58578255  0.55228886  1
  Se  Se143  1  0.56668669  0.89996080  0.05480758  1
  Se  Se144  1  0.58002236  0.91519815  0.55017515  1
  Se  Se145  1  0.93182045  0.26084661  0.04815690  1
  Se  Se146  1  0.91425492  0.23434548  0.56142765  1
  Se  Se147  1  0.91714887  0.59912843  0.05715278  1
  Se  Se148  1  0.92767990  0.58792247  0.56671634  1
  Se  Se149  1  0.92016596  0.92121906  0.04946490  1
  Se  Se150  1  0.91562857  0.90759968  0.55482496  1
  Se  Se151  1  0.07996591  0.25140293  0.44278296  1
  Se  Se152  1  0.08978153  0.24653402  0.93110817  1
  Se  Se153  1  0.08486816  0.58024454  0.44821349  1
  Se  Se154  1  0.08283457  0.58476274  0.94390986  1
  Se  Se155  1  0.08334026  0.91395431  0.44873611  1
  Se  Se156  1  0.08175562  0.91628200  0.93748175  1
  Se  Se157  1  0.41097914  0.24975322  0.45484678  1
  Se  Se158  1  0.41906106  0.24613070  0.94683852  1
  Se  Se159  1  0.42290673  0.58128065  0.45283615  1
  Se  Se160  1  0.41814824  0.57884446  0.92998207  1
  Se  Se161  1  0.41650383  0.91881333  0.44868029  1
  Se  Se162  1  0.42040463  0.91482438  0.95094209  1
  Se  Se163  1  0.75063462  0.24788487  0.45649519  1
  Se  Se164  1  0.74600333  0.26162216  0.93697775  1
  Se  Se165  1  0.74997818  0.58322645  0.44090368  1
  Se  Se166  1  0.74639138  0.59008838  0.93234898  1
  Se  Se167  1  0.74959853  0.91156404  0.44698067  1
  Se  Se168  1  0.73379202  0.93956538  0.93863302  1
  Se  Se169  1  0.25174249  0.07950975  0.43635248  1
  Se  Se170  1  0.25121910  0.08427861  0.94769278  1
  Se  Se171  1  0.25520431  0.41901739  0.44871914  1
  Se  Se172  1  0.25169571  0.41820855  0.93238039  1
  Se  Se173  1  0.25258121  0.74637397  0.45467049  1
  Se  Se174  1  0.25466458  0.74431472  0.93049561  1
  Se  Se175  1  0.58078209  0.08693854  0.45260311  1
  Se  Se176  1  0.58648577  0.08823080  0.95976973  1
  Se  Se177  1  0.58295506  0.41660864  0.45296160  1
  Se  Se178  1  0.57743423  0.42063266  0.94542769  1
  Se  Se179  1  0.58571477  0.74948048  0.44517364  1
  Se  Se180  1  0.57835971  0.74855010  0.93771327  1
  Se  Se181  1  0.91321723  0.07921583  0.44903506  1
  Se  Se182  1  0.93163129  0.08655807  0.92916299  1
  Se  Se183  1  0.92280407  0.40517621  0.45306779  1
  Se  Se184  1  0.92200727  0.41889015  0.93951029  1
  Se  Se185  1  0.92029670  0.74488754  0.45085986  1
  Se  Se186  1  0.91182577  0.75882119  0.94204080  1
  Se  Se187  1  0.23553505  0.24042404  0.30048719  1
  Se  Se188  1  0.25660800  0.24406325  0.79789181  1
  Se  Se189  1  0.23766675  0.57639625  0.30804893  1
  Se  Se190  1  0.24419276  0.57799631  0.79316038  1
  Se  Se191  1  0.24626322  0.90948089  0.31246581  1
  Se  Se192  1  0.24405401  0.91145427  0.81580390  1
  Se  Se193  1  0.58063788  0.24565499  0.31799777  1
  Se  Se194  1  0.58023550  0.24589415  0.81655498  1
  Se  Se195  1  0.58437483  0.58633489  0.30495106  1
  Se  Se196  1  0.58825717  0.58876797  0.79347615  1
  Se  Se197  1  0.58923631  0.92069495  0.30336715  1
  Se  Se198  1  0.57531204  0.91179465  0.80885504  1
  Se  Se199  1  0.90805763  0.24656362  0.31341913  1
  Se  Se200  1  0.90548731  0.24362138  0.78905873  1
  Se  Se201  1  0.92356983  0.59095419  0.30437433  1
  Se  Se202  1  0.91779840  0.58781390  0.80500843  1
  Se  Se203  1  0.91818704  0.91446797  0.30784063  1
  Se  Se204  1  0.91606450  0.92640996  0.79413456  1
  Se  Se205  1  0.07578101  0.07844827  0.29699773  1
  Se  Se206  1  0.07390033  0.06614216  0.79642817  1
  Se  Se207  1  0.08065972  0.42151881  0.31077573  1
  Se  Se208  1  0.06205285  0.39554547  0.80314485  1
  Se  Se209  1  0.08098688  0.74829840  0.30789409  1
  Se  Se210  1  0.08065842  0.75132122  0.80620834  1
  Se  Se211  1  0.42097467  0.08620783  0.31411118  1
  Se  Se212  1  0.42729244  0.08071677  0.82004009  1
  Se  Se213  1  0.42205018  0.42366132  0.30945690  1
  Se  Se214  1  0.42053515  0.41075533  0.79519393  1
  Se  Se215  1  0.42390960  0.75816177  0.30916954  1
  Se  Se216  1  0.41398685  0.75226551  0.79555538  1
  Se  Se217  1  0.74980352  0.07911008  0.30838671  1
  Se  Se218  1  0.75557491  0.09382899  0.80521271  1
  Se  Se219  1  0.75913481  0.42788907  0.30763575  1
  Se  Se220  1  0.75692027  0.42373203  0.81504321  1
  Se  Se221  1  0.74970263  0.74996314  0.30471721  1
  Se  Se222  1  0.74797441  0.76161663  0.79773748  1
  Se  Se223  1  0.24385495  0.08728136  0.18323977  1
  Se  Se224  1  0.24084739  0.08770602  0.69259952  1
  Se  Se225  1  0.24009823  0.42680044  0.18791029  1
  Se  Se226  1  0.23634312  0.44002755  0.71047109  1
  Se  Se227  1  0.23874005  0.75901483  0.19135322  1
  Se  Se228  1  0.25508570  0.76156020  0.69838423  1
  Se  Se229  1  0.58938276  0.07690890  0.19794618  1
  Se  Se230  1  0.57085905  0.08890844  0.69739042  1
  Se  Se231  1  0.57544902  0.42168939  0.18687128  1
  Se  Se232  1  0.57836592  0.42396007  0.69480543  1
  Se  Se233  1  0.58443307  0.73927412  0.18833409  1
  Se  Se234  1  0.58819154  0.75309795  0.68956344  1
  Se  Se235  1  0.91985975  0.07997718  0.19583468  1
  Se  Se236  1  0.92516910  0.05948721  0.70165745  1
  Se  Se237  1  0.90813958  0.42922273  0.18453269  1
  Se  Se238  1  0.91191626  0.41760229  0.69995709  1
  Se  Se239  1  0.91543809  0.75227646  0.19590497  1
  Se  Se240  1  0.93999464  0.72997528  0.69595196  1
  Se  Se241  1  0.08534761  0.24890293  0.17970731  1
  Se  Se242  1  0.08807895  0.24106890  0.70700823  1
  Se  Se243  1  0.07652734  0.59019674  0.19123618  1
  Se  Se244  1  0.09967343  0.57369822  0.70698678  1
  Se  Se245  1  0.07974860  0.91829935  0.19562378  1
  Se  Se246  1  0.08283764  0.91318347  0.69631453  1
  Se  Se247  1  0.42846754  0.23808561  0.19611576  1
  Se  Se248  1  0.41339509  0.25318862  0.70354117  1
  Se  Se249  1  0.41990239  0.58034059  0.18569007  1
  Se  Se250  1  0.42054976  0.59804926  0.70114439  1
  Se  Se251  1  0.42211886  0.90558281  0.19316279  1
  Se  Se252  1  0.42173620  0.91958089  0.68945010  1
  Se  Se253  1  0.75600841  0.23998486  0.19531178  1
  Se  Se254  1  0.74988401  0.23725882  0.69190635  1
  Se  Se255  1  0.74529154  0.58928075  0.19875535  1
  Se  Se256  1  0.74680272  0.58799486  0.70386898  1
  Se  Se257  1  0.75086696  0.91018444  0.19214128  1
  Se  Se258  1  0.75614574  0.90615437  0.68738051  1
