# generated using pymatgen
data_In86Cu29Se144
_symmetry_space_group_name_H-M   'P 1'
_cell_length_a   17.68391785
_cell_length_b   17.68081453
_cell_length_c   23.54348774
_cell_angle_alpha   90.02084976
_cell_angle_beta   89.98486130
_cell_angle_gamma   89.98803138
_symmetry_Int_Tables_number   1
_chemical_formula_structural   In86Cu29Se144
_chemical_formula_sum   'In86 Cu29 Se144'
_cell_volume   7361.24891959
_cell_formula_units_Z   1
loop_
 _symmetry_equiv_pos_site_id
 _symmetry_equiv_pos_as_xyz
  1  'x, y, z'
loop_
 _atom_site_type_symbol
 _atom_site_label
 _atom_site_symmetry_multiplicity
 _atom_site_fract_x
 _atom_site_fract_y
 _atom_site_fract_z
 _atom_site_occupancy
  In  In0  1  -0.00431820  0.17795633  0.13180853  1
  In  In1  1  -0.00642657  0.16736061  0.62263923  1
  In  In2  1  0.00221260  0.50202365  0.13350739  1
  In  In3  1  -0.01011177  0.48463013  0.61935228  1
  In  In4  1  -0.00141909  0.83237511  0.12616992  1
  In  In5  1  0.00991274  0.83840044  0.61676024  1
  In  In6  1  0.34027526  0.17035328  0.12622758  1
  In  In7  1  0.33504477  0.18046871  0.62220058  1
  In  In8  1  0.33371032  0.49198547  0.13274590  1
  In  In9  1  0.33987528  0.50414801  0.62258107  1
  In  In10  1  0.32874574  0.84982768  0.12413087  1
  In  In11  1  0.31995199  0.83072564  0.62428797  1
  In  In12  1  0.67826152  0.17887211  0.11084632  1
  In  In13  1  0.68063823  0.16293157  0.63621207  1
  In  In14  1  0.65718837  0.48490258  0.10597223  1
  In  In15  1  0.65757230  0.50038067  0.62714259  1
  In  In16  1  0.68958155  0.83284046  0.10984742  1
  In  In17  1  0.68129488  0.83266869  0.62832670  1
  In  In18  1  0.15683399  0.01378007  0.38286493  1
  In  In19  1  0.14957655  0.00081196  0.87080146  1
  In  In20  1  0.16160439  0.33347501  0.37743586  1
  In  In21  1  0.16352698  0.34258304  0.86978885  1
  In  In22  1  0.13732018  0.68547220  0.40181907  1
  In  In23  1  0.17936335  0.66231146  0.87049588  1
  In  In24  1  0.49219873  0.00935794  0.37264637  1
  In  In25  1  0.52321739  -0.00148108  0.87765515  1
  In  In26  1  0.51387507  0.34693270  0.36448314  1
  In  In27  1  0.55345344  0.29356173  0.93337826  1
  In  In28  1  0.49080906  0.66095636  0.37443354  1
  In  In29  1  0.49315621  0.66026567  0.87144507  1
  In  In30  1  0.83966390  -0.01010131  0.37904294  1
  In  In31  1  0.83487280  -0.00242754  0.87645785  1
  In  In32  1  0.82189752  0.32339957  0.36817025  1
  In  In33  1  0.83367768  0.33004465  0.87886630  1
  In  In34  1  0.84793058  0.66358318  0.37694840  1
  In  In35  1  0.83079685  0.65921050  0.88565390  1
  In  In36  1  -0.00599758  0.16408834  0.37251977  1
  In  In37  1  -0.01006589  0.15437793  0.86704283  1
  In  In38  1  -0.00106584  0.50625043  0.36925107  1
  In  In39  1  -0.00679478  0.48533230  0.86672071  1
  In  In40  1  -0.00353870  0.83982616  0.37321889  1
  In  In41  1  -0.00986281  0.83725448  0.88026387  1
  In  In42  1  0.32774735  0.16855256  0.37376589  1
  In  In43  1  0.34548620  0.18560458  0.87401623  1
  In  In44  1  0.33390969  0.49646720  0.37758621  1
  In  In45  1  0.33847495  0.50242622  0.86857870  1
  In  In46  1  0.32865069  0.81958198  0.37569111  1
  In  In47  1  0.33212607  0.81747078  0.87312274  1
  In  In48  1  0.66927337  0.18041640  0.37145425  1
  In  In49  1  0.67990559  0.15828097  0.88058947  1
  In  In50  1  0.67518497  0.48758724  0.37325020  1
  In  In51  1  0.70402958  0.46587981  0.92769748  1
  In  In52  1  0.67004821  0.84469793  0.37526680  1
  In  In53  1  0.67280314  0.84474959  0.87511329  1
  In  In54  1  0.16499093  -0.01523462  0.12453362  1
  In  In55  1  0.15168494  -0.00580438  0.61807334  1
  In  In56  1  0.17089387  0.33855251  0.14347399  1
  In  In57  1  0.15512453  0.32143687  0.61091549  1
  In  In58  1  0.15143007  0.66953052  0.13164238  1
  In  In59  1  0.17044712  0.67375469  0.61781599  1
  In  In60  1  0.50910435  0.01617147  0.11190585  1
  In  In61  1  0.50820683  0.01475654  0.63427899  1
  In  In62  1  0.49519199  0.33625514  0.12600604  1
  In  In63  1  0.50368774  0.34330292  0.62784024  1
  In  In64  1  0.52326367  0.66752429  0.11539880  1
  In  In65  1  0.50550134  0.64327315  0.63283346  1
  In  In66  1  0.84187781  0.01407471  0.11144014  1
  In  In67  1  0.83557635  0.00285067  0.62828463  1
  In  In68  1  0.83420250  0.33725468  0.11747036  1
  In  In69  1  0.84367894  0.32637135  0.63615582  1
  In  In70  1  0.84348793  0.66694889  0.11741317  1
  In  In71  1  0.82185235  0.67153733  0.61633114  1
  In  In72  1  0.83056458  0.50074312  0.50043379  1
  In  In73  1  0.49879815  0.17004555  0.49776746  1
  In  In74  1  0.48894699  0.82786294  -0.00682535  1
  In  In75  1  0.32922092  0.65652741  0.25483262  1
  In  In76  1  0.67230095  0.01476541  0.23237161  1
  In  In77  1  0.15858386  0.50301834  0.00350051  1
  In  In78  1  0.33030447  0.00535007  0.25399103  1
  In  In79  1  0.33293313  0.00096763  0.74630662  1
  In  In80  1  0.68098932  0.66297559  0.24074026  1
  In  In81  1  0.33642768  0.34185667  0.74627871  1
  In  In82  1  0.66793285  0.65994718  0.75225316  1
  In  In83  1  0.16497362  0.16214398  -0.00278355  1
  In  In84  1  -0.00140337  0.66716153  0.74581159  1
  In  In85  1  0.50339691  0.82615174  0.50493287  1
  Cu  Cu86  1  0.33269858  0.66014567  0.49907252  1
  Cu  Cu87  1  0.32244025  0.67035495  0.00025341  1
  Cu  Cu88  1  0.16073448  0.50602477  0.26341329  1
  Cu  Cu89  1  0.50913027  0.84228932  0.24486842  1
  Cu  Cu90  1  0.67431416  0.00219129  0.50392177  1
  Cu  Cu91  1  0.83850358  0.84045082  0.75052404  1
  Cu  Cu92  1  0.66553992  0.33349822  0.49789333  1
  Cu  Cu93  1  0.16573641  0.83013074  0.74296031  1
  Cu  Cu94  1  0.33152091  0.33695167  0.00684263  1
  Cu  Cu95  1  0.50736957  0.48678798  0.75766879  1
  Cu  Cu96  1  0.51507137  0.17271306  0.76420342  1
  Cu  Cu97  1  0.84292877  0.83255263  0.24827870  1
  Cu  Cu98  1  0.33219212  0.33872413  0.49907081  1
  Cu  Cu99  1  -0.00263397  0.32649815  0.00037495  1
  Cu  Cu100  1  -0.00465645  0.00472451  0.49982777  1
  Cu  Cu101  1  0.16000921  0.83180798  0.25451796  1
  Cu  Cu102  1  -0.00696836  0.32701361  0.49575364  1
  Cu  Cu103  1  0.32841777  -0.00512033  0.49940491  1
  Cu  Cu104  1  -0.00143704  -0.00434448  -0.00177262  1
  Cu  Cu105  1  0.50071553  0.83156643  0.75665010  1
  Cu  Cu106  1  0.15862601  0.17035622  0.74123775  1
  Cu  Cu107  1  0.83311764  0.16696041  0.24234463  1
  Cu  Cu108  1  0.50760586  0.50111797  0.24510442  1
  Cu  Cu109  1  0.00597668  0.66727397  0.00252701  1
  Cu  Cu110  1  0.16191585  0.16636433  0.25696694  1
  Cu  Cu111  1  0.16334171  0.49854941  0.74515455  1
  Cu  Cu112  1  0.32570444  0.00158679  -0.00288913  1
  Cu  Cu113  1  0.83534443  0.16999518  0.75379839  1
  Cu  Cu114  1  0.83179287  0.48883470  0.24609443  1
  Se  Se115  1  0.07722079  0.07634019  0.06054822  1
  Se  Se116  1  0.07990371  0.08797726  0.55294686  1
  Se  Se117  1  0.08071749  0.40269389  0.06218694  1
  Se  Se118  1  0.07521616  0.41228274  0.54742897  1
  Se  Se119  1  0.08556967  0.75216146  0.05619449  1
  Se  Se120  1  0.08273090  0.74792261  0.55072085  1
  Se  Se121  1  0.40652887  0.08393439  0.05143032  1
  Se  Se122  1  0.41047699  0.07472462  0.55864012  1
  Se  Se123  1  0.41291349  0.42298505  0.05705651  1
  Se  Se124  1  0.41830199  0.41402068  0.55605964  1
  Se  Se125  1  0.40543556  0.74332415  0.06458612  1
  Se  Se126  1  0.41203578  0.73795884  0.56413429  1
  Se  Se127  1  0.72827512  0.06388383  0.05503389  1
  Se  Se128  1  0.75194703  0.08660959  0.55901550  1
  Se  Se129  1  0.75394872  0.41387627  0.04237400  1
  Se  Se130  1  0.74571641  0.40864956  0.56221878  1
  Se  Se131  1  0.73897560  0.72206943  0.05038221  1
  Se  Se132  1  0.73883683  0.75125812  0.55000751  1
  Se  Se133  1  0.24351862  0.25872699  0.06067035  1
  Se  Se134  1  0.25270180  0.24806869  0.54756973  1
  Se  Se135  1  0.25033624  0.58952893  0.06582730  1
  Se  Se136  1  0.25065669  0.57984692  0.55553742  1
  Se  Se137  1  0.24595152  0.91507249  0.04775585  1
  Se  Se138  1  0.24568779  0.91574641  0.55483557  1
  Se  Se139  1  0.57727006  0.25619189  0.05423275  1
  Se  Se140  1  0.59006611  0.25195890  0.56180387  1
  Se  Se141  1  0.56694461  0.56842645  0.04401994  1
  Se  Se142  1  0.58871214  0.58649656  0.55538086  1
  Se  Se143  1  0.58310622  0.91173603  0.05411082  1
  Se  Se144  1  0.58639403  0.92740265  0.56188726  1
  Se  Se145  1  0.91574625  0.24384004  0.05387264  1
  Se  Se146  1  0.90940284  0.25179905  0.55499262  1
  Se  Se147  1  0.92965001  0.57814150  0.05577828  1
  Se  Se148  1  0.92269673  0.59169751  0.55633619  1
  Se  Se149  1  0.91764798  0.91265219  0.05435015  1
  Se  Se150  1  0.91704940  0.92162787  0.55751818  1
  Se  Se151  1  0.07784101  0.24584184  0.44193034  1
  Se  Se152  1  0.07905482  0.25403045  0.93655587  1
  Se  Se153  1  0.07893894  0.56858582  0.44806495  1
  Se  Se154  1  0.07600072  0.58701573  0.93420218  1
  Se  Se155  1  0.07847540  0.92187114  0.44506671  1
  Se  Se156  1  0.08363875  0.91542497  0.94495915  1
  Se  Se157  1  0.41486353  0.26202549  0.43699347  1
  Se  Se158  1  0.41280856  0.24857374  0.95774642  1
  Se  Se159  1  0.41767188  0.57962646  0.44652267  1
  Se  Se160  1  0.40264269  0.59052747  0.94299557  1
  Se  Se161  1  0.41271645  0.91821729  0.44103399  1
  Se  Se162  1  0.40642523  0.92544746  0.93273930  1
  Se  Se163  1  0.74942878  0.24870678  0.44780264  1
  Se  Se164  1  0.75828491  0.24459173  0.94854966  1
  Se  Se165  1  0.74285623  0.58992800  0.43747486  1
  Se  Se166  1  0.74054641  0.60245119  0.96060290  1
  Se  Se167  1  0.75094947  0.91588140  0.44905710  1
  Se  Se168  1  0.76045242  0.90986267  0.94604694  1
  Se  Se169  1  0.25458612  0.08513313  0.44606673  1
  Se  Se170  1  0.25595739  0.08167368  0.92999172  1
  Se  Se171  1  0.24707519  0.41714691  0.44445548  1
  Se  Se172  1  0.25245760  0.41416725  0.94376437  1
  Se  Se173  1  0.25157401  0.75166507  0.45274470  1
  Se  Se174  1  0.24207486  0.75152173  0.94553617  1
  Se  Se175  1  0.59153238  0.07642006  0.44142439  1
  Se  Se176  1  0.58619446  0.08478510  0.94930831  1
  Se  Se177  1  0.58550216  0.41882396  0.44492707  1
  Se  Se178  1  0.56372416  0.43813530  0.95160674  1
  Se  Se179  1  0.58674934  0.74591817  0.43476731  1
  Se  Se180  1  0.58455595  0.74774836  0.93403335  1
  Se  Se181  1  0.91158661  0.08459051  0.44426438  1
  Se  Se182  1  0.91846825  0.08206828  0.94586952  1
  Se  Se183  1  0.91267605  0.40875314  0.43597998  1
  Se  Se184  1  0.92219565  0.41588235  0.94669689  1
  Se  Se185  1  0.91236080  0.75939916  0.44131078  1
  Se  Se186  1  0.91930714  0.74477502  0.94721355  1
  Se  Se187  1  0.24537878  0.25088653  0.30698737  1
  Se  Se188  1  0.24261774  0.24510132  0.80234297  1
  Se  Se189  1  0.23554071  0.58987087  0.32393217  1
  Se  Se190  1  0.25013124  0.57605854  0.79860338  1
  Se  Se191  1  0.24373886  0.91151993  0.31304269  1
  Se  Se192  1  0.24405461  0.91012636  0.80645500  1
  Se  Se193  1  0.57762228  0.24428578  0.30331626  1
  Se  Se194  1  0.58484387  0.25245320  0.82836654  1
  Se  Se195  1  0.58497228  0.58326862  0.30548949  1
  Se  Se196  1  0.58501786  0.57168628  0.81477794  1
  Se  Se197  1  0.58287751  0.92650163  0.30366880  1
  Se  Se198  1  0.58856212  0.91600955  0.80089126  1
  Se  Se199  1  0.91275589  0.24687510  0.30231950  1
  Se  Se200  1  0.91878664  0.25368957  0.80614183  1
  Se  Se201  1  0.90827424  0.57819464  0.29942784  1
  Se  Se202  1  0.90792835  0.58161704  0.80744615  1
  Se  Se203  1  0.91828548  0.92245717  0.30068311  1
  Se  Se204  1  0.92231345  0.92007843  0.80515070  1
  Se  Se205  1  0.07855517  0.07942625  0.30418267  1
  Se  Se206  1  0.08179048  0.08440791  0.79666953  1
  Se  Se207  1  0.07805049  0.41349523  0.30666320  1
  Se  Se208  1  0.08162155  0.41363187  0.79610612  1
  Se  Se209  1  0.08232026  0.74861929  0.31103869  1
  Se  Se210  1  0.08798801  0.75353678  0.80860284  1
  Se  Se211  1  0.42597955  0.10162521  0.30098852  1
  Se  Se212  1  0.42371900  0.08714750  0.81067160  1
  Se  Se213  1  0.42076543  0.42827423  0.30346044  1
  Se  Se214  1  0.42803882  0.40599511  0.81738682  1
  Se  Se215  1  0.42712695  0.75982853  0.30091244  1
  Se  Se216  1  0.41479703  0.74497453  0.80048070  1
  Se  Se217  1  0.75655986  0.08762405  0.30708883  1
  Se  Se218  1  0.75624550  0.08097121  0.80525820  1
  Se  Se219  1  0.74452274  0.40916756  0.29720864  1
  Se  Se220  1  0.75161968  0.43205840  0.82760510  1
  Se  Se221  1  0.75620771  0.75851739  0.30675885  1
  Se  Se222  1  0.76128004  0.75358389  0.80846384  1
  Se  Se223  1  0.23836105  0.08908422  0.19006718  1
  Se  Se224  1  0.24540567  0.09148840  0.68511917  1
  Se  Se225  1  0.24834960  0.42905169  0.20881234  1
  Se  Se226  1  0.24000461  0.41667927  0.68247356  1
  Se  Se227  1  0.24888796  0.75956513  0.19546200  1
  Se  Se228  1  0.25032142  0.74372111  0.69633048  1
  Se  Se229  1  0.57523252  0.10601380  0.18485248  1
  Se  Se230  1  0.59065029  0.08798855  0.70560934  1
  Se  Se231  1  0.58694927  0.41869830  0.18963495  1
  Se  Se232  1  0.59126905  0.41056785  0.70036996  1
  Se  Se233  1  0.59058829  0.76397091  0.18688136  1
  Se  Se234  1  0.57853636  0.75342643  0.69143335  1
  Se  Se235  1  0.91651718  0.08159307  0.19195940  1
  Se  Se236  1  0.91650286  0.08766629  0.69652779  1
  Se  Se237  1  0.91847400  0.40971396  0.19213226  1
  Se  Se238  1  0.91302380  0.42473357  0.69910572  1
  Se  Se239  1  0.91829598  0.74414284  0.19352559  1
  Se  Se240  1  0.90890204  0.75736601  0.68652113  1
  Se  Se241  1  0.08213488  0.25167925  0.20201261  1
  Se  Se242  1  0.07718451  0.25480781  0.68965011  1
  Se  Se243  1  0.08139118  0.58559876  0.20389660  1
  Se  Se244  1  0.08536761  0.57761911  0.68368827  1
  Se  Se245  1  0.08137805  0.91420958  0.19737477  1
  Se  Se246  1  0.08122951  0.91568886  0.69523156  1
  Se  Se247  1  0.39637588  0.26988677  0.19188813  1
  Se  Se248  1  0.43194690  0.24079851  0.69663860  1
  Se  Se249  1  0.43072001  0.58811281  0.18821076  1
  Se  Se250  1  0.42163587  0.56759636  0.70289756  1
  Se  Se251  1  0.42776264  0.92424523  0.18871349  1
  Se  Se252  1  0.42488652  0.90831630  0.68879497  1
  Se  Se253  1  0.75383107  0.25161682  0.18773294  1
  Se  Se254  1  0.74995971  0.25548102  0.70425020  1
  Se  Se255  1  0.75700968  0.56616790  0.17917450  1
  Se  Se256  1  0.76016137  0.57648719  0.68947197  1
  Se  Se257  1  0.76285695  0.91175775  0.18714749  1
  Se  Se258  1  0.75123644  0.92053637  0.69827869  1
