# generated using pymatgen
data_In86Cu29Se144
_symmetry_space_group_name_H-M   'P 1'
_cell_length_a   17.58852472
_cell_length_b   17.59426147
_cell_length_c   23.45235051
_cell_angle_alpha   89.99694175
_cell_angle_beta   89.99846083
_cell_angle_gamma   90.03101472
_symmetry_Int_Tables_number   1
_chemical_formula_structural   In86Cu29Se144
_chemical_formula_sum   'In86 Cu29 Se144'
_cell_volume   7257.49536536
_cell_formula_units_Z   1
loop_
 _symmetry_equiv_pos_site_id
 _symmetry_equiv_pos_as_xyz
  1  'x, y, z'
loop_
 _atom_site_type_symbol
 _atom_site_label
 _atom_site_symmetry_multiplicity
 _atom_site_fract_x
 _atom_site_fract_y
 _atom_site_fract_z
 _atom_site_occupancy
  In  In0  1  -0.00320800  0.16555831  0.12401950  1
  In  In1  1  0.00451244  0.15298457  0.62224959  1
  In  In2  1  0.01347163  0.50775637  0.12047761  1
  In  In3  1  0.00707120  0.50755339  0.62553923  1
  In  In4  1  0.00175798  0.83112141  0.13469913  1
  In  In5  1  -0.01207556  0.83004709  0.61629405  1
  In  In6  1  0.33368160  0.18029884  0.12756516  1
  In  In7  1  0.33218084  0.16452085  0.62061005  1
  In  In8  1  0.32794888  0.50521076  0.11860448  1
  In  In9  1  0.33648342  0.48667588  0.62495624  1
  In  In10  1  0.33399426  0.81400567  0.12251904  1
  In  In11  1  0.33889374  0.83947663  0.61024782  1
  In  In12  1  0.66946075  0.16784685  0.13080591  1
  In  In13  1  0.64840119  0.16948000  0.62648238  1
  In  In14  1  0.64983139  0.49445230  0.11278210  1
  In  In15  1  0.66021239  0.51278176  0.62816963  1
  In  In16  1  0.66412269  0.83692964  0.12485841  1
  In  In17  1  0.66782116  0.83124975  0.62487965  1
  In  In18  1  0.15681569  0.00755923  0.37380689  1
  In  In19  1  0.17907752  0.00897450  0.87937240  1
  In  In20  1  0.18376682  0.31814552  0.37755113  1
  In  In21  1  0.18132298  0.32206766  0.87868840  1
  In  In22  1  0.17528652  0.66994280  0.36866199  1
  In  In23  1  0.15608318  0.67340037  0.87378989  1
  In  In24  1  0.50658755  -0.00819389  0.37900794  1
  In  In25  1  0.50062889  -0.02095176  0.87812951  1
  In  In26  1  0.49336460  0.32834346  0.37192091  1
  In  In27  1  0.49900834  0.34633293  0.87532023  1
  In  In28  1  0.50059845  0.66735402  0.37504179  1
  In  In29  1  0.51843344  0.65038218  0.89551144  1
  In  In30  1  0.82504965  -0.01071589  0.37007802  1
  In  In31  1  0.83343916  0.01356471  0.87740043  1
  In  In32  1  0.83010663  0.34435804  0.37050572  1
  In  In33  1  0.83525556  0.33104961  0.89120193  1
  In  In34  1  0.84383421  0.66781788  0.37066927  1
  In  In35  1  0.82699484  0.66183064  0.87311142  1
  In  In36  1  0.02653065  0.16181246  0.36957957  1
  In  In37  1  0.00353627  0.16597926  0.88363505  1
  In  In38  1  -0.00806111  0.50620195  0.36924226  1
  In  In39  1  -0.00762246  0.50539273  0.88365292  1
  In  In40  1  -0.00063651  0.83294136  0.37379480  1
  In  In41  1  0.01076535  0.82413191  0.87130591  1
  In  In42  1  0.32658118  0.17928936  0.38038054  1
  In  In43  1  0.31805590  0.16865372  0.87530018  1
  In  In44  1  0.34445302  0.49928947  0.36455612  1
  In  In45  1  0.34757407  0.49263791  0.88206576  1
  In  In46  1  0.34087374  0.82173548  0.38190284  1
  In  In47  1  0.35158749  0.83365382  0.88347180  1
  In  In48  1  0.65717177  0.15456858  0.36995992  1
  In  In49  1  0.67496294  0.17118745  0.87590386  1
  In  In50  1  0.65524643  0.48594698  0.36342404  1
  In  In51  1  0.66540463  0.50937308  0.88992850  1
  In  In52  1  0.66035499  0.84142329  0.38018279  1
  In  In53  1  0.65949034  0.82587596  0.86795591  1
  In  In54  1  0.15359116  0.00065659  0.12907135  1
  In  In55  1  0.17474206  0.00163833  0.61406469  1
  In  In56  1  0.17152088  0.33982746  0.12146848  1
  In  In57  1  0.18613839  0.32387172  0.62874568  1
  In  In58  1  0.18179127  0.65359354  0.13630649  1
  In  In59  1  0.15268895  0.66943126  0.62753100  1
  In  In60  1  0.50905609  0.00426399  0.12973588  1
  In  In61  1  0.50398747  0.00163895  0.62186002  1
  In  In62  1  0.47804897  0.36229946  0.14970902  1
  In  In63  1  0.47529598  0.31738920  0.60363177  1
  In  In64  1  0.47079017  0.64399089  0.09357315  1
  In  In65  1  0.50691557  0.67369446  0.61697915  1
  In  In66  1  0.82315959  0.00723618  0.13241588  1
  In  In67  1  0.83797874  -0.01417361  0.62610850  1
  In  In68  1  0.82489499  0.32570674  0.12078317  1
  In  In69  1  0.82793195  0.33691183  0.62436716  1
  In  In70  1  0.83695821  0.67390146  0.11950812  1
  In  In71  1  0.81746937  0.67116681  0.63557569  1
  In  In72  1  0.65795552  0.66601872  0.24303332  1
  In  In73  1  0.66080706  0.34508522  0.75080105  1
  In  In74  1  0.83252409  0.16096837  0.49638635  1
  In  In75  1  0.00234322  0.33652102  0.25248825  1
  In  In76  1  0.17342330  0.50029530  0.49515797  1
  In  In77  1  0.33100469  0.00359765  0.25309750  1
  In  In78  1  0.82686042  0.83379555  0.00516154  1
  In  In79  1  0.33242260  0.66558945  0.75429790  1
  In  In80  1  0.17140552  0.83547576  -0.00037729  1
  In  In81  1  0.50197904  0.16932107  0.01125863  1
  In  In82  1  0.82644555  0.50631268  0.49622882  1
  In  In83  1  0.33704506  0.00129955  0.75120183  1
  In  In84  1  0.00199370  -0.00516165  0.75734611  1
  In  In85  1  0.00174235  0.33701280  0.74502586  1
  Cu  Cu86  1  0.00508030  -0.00208788  0.49525271  1
  Cu  Cu87  1  0.33161998  0.66384240  0.49502444  1
  Cu  Cu88  1  0.50094110  0.83168089  0.25375256  1
  Cu  Cu89  1  0.83320270  0.50268146  0.24396350  1
  Cu  Cu90  1  0.66325986  0.33294833  0.00635081  1
  Cu  Cu91  1  0.66696416  -0.00493449  0.50188845  1
  Cu  Cu92  1  0.16936794  0.50059196  0.24644228  1
  Cu  Cu93  1  0.83768587  0.16392034  0.24924822  1
  Cu  Cu94  1  0.49504262  0.16449953  0.74405034  1
  Cu  Cu95  1  0.83025566  0.82633184  0.74600590  1
  Cu  Cu96  1  0.33499857  0.33599713  0.00366709  1
  Cu  Cu97  1  0.50770686  0.16703166  0.25156259  1
  Cu  Cu98  1  0.00529263  0.33502904  0.00487830  1
  Cu  Cu99  1  0.65435718  0.33228690  0.49286935  1
  Cu  Cu100  1  0.50118758  0.50204867  0.75396488  1
  Cu  Cu101  1  0.82900343  0.16679613  0.75790996  1
  Cu  Cu102  1  -0.00378547  0.00618853  0.00295289  1
  Cu  Cu103  1  0.66850733  0.67124989  0.49956874  1
  Cu  Cu104  1  0.01020325  0.32838988  0.50007611  1
  Cu  Cu105  1  0.83139300  0.50931521  0.76139468  1
  Cu  Cu106  1  0.16754875  0.83572701  0.74602052  1
  Cu  Cu107  1  0.83311500  0.83295909  0.24842031  1
  Cu  Cu108  1  0.16543567  0.83048084  0.25235440  1
  Cu  Cu109  1  0.16423264  0.49674608  0.75146874  1
  Cu  Cu110  1  0.66911803  0.00692691  0.00484722  1
  Cu  Cu111  1  -0.00309919  0.67591297  0.49958873  1
  Cu  Cu112  1  0.33353513  -0.00212538  0.49220658  1
  Cu  Cu113  1  0.00556229  0.66543672  0.00248037  1
  Cu  Cu114  1  0.51003751  0.82516392  0.74982587  1
  Se  Se115  1  0.08402901  0.08590206  0.05465900  1
  Se  Se116  1  0.08635545  0.08359659  0.54810678  1
  Se  Se117  1  0.09063716  0.42189602  0.05136502  1
  Se  Se118  1  0.08400081  0.41175697  0.56105254  1
  Se  Se119  1  0.08345259  0.74747517  0.06285797  1
  Se  Se120  1  0.08469447  0.75406976  0.55305465  1
  Se  Se121  1  0.40839346  0.07737430  0.06496093  1
  Se  Se122  1  0.41274567  0.07572955  0.55515659  1
  Se  Se123  1  0.41972722  0.41702682  0.05723614  1
  Se  Se124  1  0.42280993  0.43122876  0.54785212  1
  Se  Se125  1  0.42720689  0.76899160  0.04534817  1
  Se  Se126  1  0.41774565  0.74726058  0.54791949  1
  Se  Se127  1  0.75167513  0.08985023  0.05732790  1
  Se  Se128  1  0.74423380  0.07870139  0.56369234  1
  Se  Se129  1  0.75143636  0.41819173  0.05383117  1
  Se  Se130  1  0.73580571  0.41037830  0.55476603  1
  Se  Se131  1  0.73209049  0.73885310  0.05318490  1
  Se  Se132  1  0.75356211  0.74911908  0.55508179  1
  Se  Se133  1  0.25042375  0.25115039  0.05298142  1
  Se  Se134  1  0.25208340  0.24810711  0.55106430  1
  Se  Se135  1  0.24259140  0.58763692  0.05144262  1
  Se  Se136  1  0.25378771  0.59130406  0.56350480  1
  Se  Se137  1  0.25370446  0.92154849  0.06676730  1
  Se  Se138  1  0.24735171  0.91360972  0.54423341  1
  Se  Se139  1  0.58078414  0.26465477  0.07272233  1
  Se  Se140  1  0.57917328  0.24275960  0.54714669  1
  Se  Se141  1  0.58529187  0.58600158  0.04148224  1
  Se  Se142  1  0.58552897  0.58376125  0.54957174  1
  Se  Se143  1  0.58525272  0.92376822  0.05594431  1
  Se  Se144  1  0.58286757  0.91199610  0.55592704  1
  Se  Se145  1  0.91847514  0.25114578  0.05485416  1
  Se  Se146  1  0.92203729  0.25581306  0.55921167  1
  Se  Se147  1  0.91986610  0.58540319  0.05565437  1
  Se  Se148  1  0.91772453  0.59165038  0.55910769  1
  Se  Se149  1  0.92169934  0.92187171  0.06282956  1
  Se  Se150  1  0.91498551  0.91996824  0.54677341  1
  Se  Se151  1  0.09123382  0.24651940  0.44641913  1
  Se  Se152  1  0.08622973  0.25271725  0.94728948  1
  Se  Se153  1  0.07403284  0.58967412  0.44151871  1
  Se  Se154  1  0.08752542  0.58512006  0.94598242  1
  Se  Se155  1  0.08647752  0.91320725  0.44200494  1
  Se  Se156  1  0.07458058  0.92607639  0.94054687  1
  Se  Se157  1  0.42887357  0.23805891  0.44541863  1
  Se  Se158  1  0.41560679  0.25439204  0.94266949  1
  Se  Se159  1  0.41451352  0.58261355  0.44094001  1
  Se  Se160  1  0.41141648  0.58624775  0.95177340  1
  Se  Se161  1  0.42086285  0.91152542  0.44704032  1
  Se  Se162  1  0.39339672  0.94426031  0.94699639  1
  Se  Se163  1  0.74547798  0.25616565  0.43830644  1
  Se  Se164  1  0.74577502  0.24732232  0.95370651  1
  Se  Se165  1  0.73748211  0.58973755  0.43085712  1
  Se  Se166  1  0.76716541  0.57770475  0.95026991  1
  Se  Se167  1  0.75266608  0.91441448  0.44896570  1
  Se  Se168  1  0.74331204  0.92453596  0.94047008  1
  Se  Se169  1  0.24918755  0.08135506  0.44115747  1
  Se  Se170  1  0.24798842  0.09115559  0.95239093  1
  Se  Se171  1  0.26627232  0.41088129  0.44151195  1
  Se  Se172  1  0.25271898  0.41573813  0.94579922  1
  Se  Se173  1  0.24420544  0.74785289  0.44729845  1
  Se  Se174  1  0.25855995  0.74209992  0.94044607  1
  Se  Se175  1  0.58549298  0.07946352  0.44853508  1
  Se  Se176  1  0.58583732  0.08200432  0.94180293  1
  Se  Se177  1  0.57552637  0.41868301  0.44055121  1
  Se  Se178  1  0.58234273  0.41503315  0.94954430  1
  Se  Se179  1  0.58158516  0.75048122  0.44469955  1
  Se  Se180  1  0.56537583  0.77483471  0.94251275  1
  Se  Se181  1  0.92523493  0.07916777  0.43389016  1
  Se  Se182  1  0.91253712  0.08993212  0.95055935  1
  Se  Se183  1  0.92627218  0.41063155  0.44519914  1
  Se  Se184  1  0.91850291  0.41796890  0.95399723  1
  Se  Se185  1  0.91124801  0.75386672  0.44442613  1
  Se  Se186  1  0.92480814  0.74924438  0.94480993  1
  Se  Se187  1  0.25357574  0.24630237  0.29906163  1
  Se  Se188  1  0.25466580  0.25202396  0.79935152  1
  Se  Se189  1  0.25302938  0.58219773  0.30212239  1
  Se  Se190  1  0.24409902  0.57484109  0.81402185  1
  Se  Se191  1  0.24807078  0.90782437  0.31420332  1
  Se  Se192  1  0.24711559  0.90682090  0.81109514  1
  Se  Se193  1  0.58930299  0.25262546  0.30508780  1
  Se  Se194  1  0.57443765  0.24516059  0.80748067  1
  Se  Se195  1  0.56791084  0.57322491  0.29960717  1
  Se  Se196  1  0.58504988  0.57915822  0.81179539  1
  Se  Se197  1  0.58566507  0.91695013  0.30260098  1
  Se  Se198  1  0.58560829  0.91918637  0.79999608  1
  Se  Se199  1  0.91406769  0.24264370  0.31391076  1
  Se  Se200  1  0.91269978  0.24929555  0.81125299  1
  Se  Se201  1  0.91672713  0.58612803  0.29583605  1
  Se  Se202  1  0.92388254  0.58895654  0.80739839  1
  Se  Se203  1  0.91680991  0.91523596  0.30301060  1
  Se  Se204  1  0.90541534  0.90465657  0.81304212  1
  Se  Se205  1  0.08574506  0.07759001  0.29271897  1
  Se  Se206  1  0.09204010  0.09199685  0.80824095  1
  Se  Se207  1  0.09517367  0.42283189  0.31465329  1
  Se  Se208  1  0.08481657  0.41905050  0.81448471  1
  Se  Se209  1  0.08051929  0.74620219  0.30507674  1
  Se  Se210  1  0.08370552  0.74818836  0.79432072  1
  Se  Se211  1  0.42591493  0.08744214  0.31301880  1
  Se  Se212  1  0.42516849  0.08893403  0.81457431  1
  Se  Se213  1  0.41524377  0.40637934  0.29774881  1
  Se  Se214  1  0.41482044  0.41614363  0.80099708  1
  Se  Se215  1  0.41679696  0.74771490  0.30463506  1
  Se  Se216  1  0.43010868  0.74815189  0.81203226  1
  Se  Se217  1  0.75193977  0.08236804  0.30388095  1
  Se  Se218  1  0.74373920  0.08046784  0.80440989  1
  Se  Se219  1  0.75132711  0.41760497  0.29593820  1
  Se  Se220  1  0.75693600  0.41883377  0.81675490  1
  Se  Se221  1  0.74890548  0.75350359  0.30766996  1
  Se  Se222  1  0.74820588  0.74552365  0.80334103  1
  Se  Se223  1  0.24327667  0.09152818  0.19194832  1
  Se  Se224  1  0.24152704  0.08570720  0.69331785  1
  Se  Se225  1  0.25227072  0.41919105  0.19250897  1
  Se  Se226  1  0.25079767  0.41745343  0.69917894  1
  Se  Se227  1  0.25368311  0.74943529  0.20192588  1
  Se  Se228  1  0.25219732  0.75845847  0.68704469  1
  Se  Se229  1  0.59073931  0.08169973  0.20096396  1
  Se  Se230  1  0.58187834  0.07892379  0.69778753  1
  Se  Se231  1  0.59912412  0.41411654  0.19681002  1
  Se  Se232  1  0.56747318  0.41857073  0.68415960  1
  Se  Se233  1  0.56749455  0.75256738  0.18376616  1
  Se  Se234  1  0.58912792  0.74163396  0.69376004  1
  Se  Se235  1  0.91994127  0.08147777  0.19579064  1
  Se  Se236  1  0.90933546  0.08793766  0.69674440  1
  Se  Se237  1  0.91599347  0.42109583  0.18600845  1
  Se  Se238  1  0.90326707  0.43208443  0.69263598  1
  Se  Se239  1  0.91394409  0.74608110  0.19721413  1
  Se  Se240  1  0.91894792  0.74851857  0.69318511  1
  Se  Se241  1  0.08877780  0.24941773  0.19063062  1
  Se  Se242  1  0.08774686  0.23929905  0.69094360  1
  Se  Se243  1  0.08081231  0.58555631  0.20042494  1
  Se  Se244  1  0.08207060  0.58345798  0.70116730  1
  Se  Se245  1  0.08216697  0.91602447  0.20251651  1
  Se  Se246  1  0.08705257  0.91479404  0.68585220  1
  Se  Se247  1  0.41764145  0.24749290  0.20286880  1
  Se  Se248  1  0.41464857  0.24795284  0.69018081  1
  Se  Se249  1  0.41465124  0.58851868  0.18449987  1
  Se  Se250  1  0.42254385  0.58096159  0.69045224  1
  Se  Se251  1  0.41876314  0.91124864  0.19225726  1
  Se  Se252  1  0.42299260  0.90352275  0.69284449  1
  Se  Se253  1  0.75423981  0.25025905  0.19981800  1
  Se  Se254  1  0.75248691  0.24559462  0.69416106  1
  Se  Se255  1  0.75163622  0.57979178  0.18324857  1
  Se  Se256  1  0.74238624  0.58176820  0.70406706  1
  Se  Se257  1  0.74632798  0.91435477  0.19669065  1
  Se  Se258  1  0.74973934  0.91491755  0.69592226  1
