# generated using pymatgen
data_In86Cu29Se144
_symmetry_space_group_name_H-M   'P 1'
_cell_length_a   17.58180003
_cell_length_b   17.58448006
_cell_length_c   23.44604765
_cell_angle_alpha   89.97984125
_cell_angle_beta   90.01472582
_cell_angle_gamma   90.00684670
_symmetry_Int_Tables_number   1
_chemical_formula_structural   In86Cu29Se144
_chemical_formula_sum   'In86 Cu29 Se144'
_cell_volume   7248.73906565
_cell_formula_units_Z   1
loop_
 _symmetry_equiv_pos_site_id
 _symmetry_equiv_pos_as_xyz
  1  'x, y, z'
loop_
 _atom_site_type_symbol
 _atom_site_label
 _atom_site_symmetry_multiplicity
 _atom_site_fract_x
 _atom_site_fract_y
 _atom_site_fract_z
 _atom_site_occupancy
  In  In0  1  0.00426231  0.17399514  0.13320065  1
  In  In1  1  0.00468180  0.16785384  0.61978888  1
  In  In2  1  -0.00159728  0.50000251  0.12382195  1
  In  In3  1  0.00333242  0.49673376  0.63995447  1
  In  In4  1  0.00689168  0.82385468  0.12764433  1
  In  In5  1  -0.00366758  0.82638727  0.61923859  1
  In  In6  1  0.32808990  0.18321248  0.13587930  1
  In  In7  1  0.31979563  0.15884683  0.61630118  1
  In  In8  1  0.32534105  0.49484958  0.11449755  1
  In  In9  1  0.33918441  0.50367891  0.63499017  1
  In  In10  1  0.32272002  0.82400726  0.11821332  1
  In  In11  1  0.32731729  0.84445058  0.63213735  1
  In  In12  1  0.67342886  0.17039166  0.12929227  1
  In  In13  1  0.66741961  0.17287591  0.61073895  1
  In  In14  1  0.66714614  0.49667472  0.12382167  1
  In  In15  1  0.65927862  0.50247229  0.62349533  1
  In  In16  1  0.65154080  0.83423871  0.12046345  1
  In  In17  1  0.68375156  0.82151265  0.61610749  1
  In  In18  1  0.15032278  0.01424744  0.38166232  1
  In  In19  1  0.17945752  -0.00719301  0.88359108  1
  In  In20  1  0.14110700  0.29709367  0.33928011  1
  In  In21  1  0.14561808  0.34991115  0.89176569  1
  In  In22  1  0.16523020  0.67562240  0.37674432  1
  In  In23  1  0.16870374  0.66117092  0.87388729  1
  In  In24  1  0.51504680  0.00219822  0.37528973  1
  In  In25  1  0.48006187  0.00062198  0.87295654  1
  In  In26  1  0.47950480  0.31535899  0.34424220  1
  In  In27  1  0.50828602  0.33884131  0.88034991  1
  In  In28  1  0.50335695  0.65321269  0.36930031  1
  In  In29  1  0.49181363  0.68024825  0.89227734  1
  In  In30  1  0.84725411  -0.01257315  0.37937309  1
  In  In31  1  0.84702785  0.00578808  0.87851162  1
  In  In32  1  0.82532821  0.32626016  0.36933456  1
  In  In33  1  0.84143719  0.33221133  0.88519485  1
  In  In34  1  0.83486590  0.66950235  0.36704588  1
  In  In35  1  0.84414978  0.64744383  0.88787068  1
  In  In36  1  0.00007712  0.15813531  0.37322355  1
  In  In37  1  -0.00719794  0.17906573  0.88455236  1
  In  In38  1  -0.00209585  0.49770761  0.36245899  1
  In  In39  1  0.00790306  0.49756248  0.87782571  1
  In  In40  1  -0.00323650  0.82967252  0.37198986  1
  In  In41  1  0.01955314  0.83407000  0.87896581  1
  In  In42  1  0.32978456  0.17157392  0.37492430  1
  In  In43  1  0.32645658  0.15440258  0.87268502  1
  In  In44  1  0.34284539  0.48330664  0.37176189  1
  In  In45  1  0.31063057  0.52254713  0.89119768  1
  In  In46  1  0.31999654  0.82292458  0.37872449  1
  In  In47  1  0.33357358  0.83153569  0.87544835  1
  In  In48  1  0.66031416  0.17542445  0.37966768  1
  In  In49  1  0.66841575  0.18115245  0.87986949  1
  In  In50  1  0.65828206  0.49824050  0.35623851  1
  In  In51  1  0.66448125  0.51795184  0.90136704  1
  In  In52  1  0.67858139  0.83272505  0.37108860  1
  In  In53  1  0.66700200  0.80641361  0.88205850  1
  In  In54  1  0.16081370  -0.00426525  0.12405026  1
  In  In55  1  0.16969048  0.00459808  0.62218767  1
  In  In56  1  0.16499169  0.33223833  0.12809214  1
  In  In57  1  0.16785570  0.32122212  0.62589091  1
  In  In58  1  0.13553314  0.64784347  0.09530578  1
  In  In59  1  0.15319086  0.67579675  0.63621397  1
  In  In60  1  0.50497825  -0.00177805  0.12622374  1
  In  In61  1  0.48544437  -0.00177836  0.62195003  1
  In  In62  1  0.48684781  0.35250514  0.14644149  1
  In  In63  1  0.50451064  0.33721695  0.62164710  1
  In  In64  1  0.51018562  0.66824759  0.11529718  1
  In  In65  1  0.50051989  0.65935554  0.62710557  1
  In  In66  1  0.83199946  0.02088631  0.12330262  1
  In  In67  1  0.83506225  -0.00034445  0.61583178  1
  In  In68  1  0.83531320  0.33677498  0.12982907  1
  In  In69  1  0.84618719  0.33507066  0.61884354  1
  In  In70  1  0.84316912  0.65542916  0.12272353  1
  In  In71  1  0.83810755  0.67212335  0.61920369  1
  In  In72  1  0.50092947  0.16811758  0.00760306  1
  In  In73  1  0.50244937  0.83985187  0.49747769  1
  In  In74  1  0.67194864  0.33782166  0.75436699  1
  In  In75  1  0.50201828  0.49878556  0.49803695  1
  In  In76  1  0.32675181  0.00180596  0.25737683  1
  In  In77  1  0.66026853  -0.00343929  0.74918763  1
  In  In78  1  0.82910776  0.50086655  0.49001638  1
  In  In79  1  0.32631745  0.66324604  0.24418389  1
  In  In80  1  0.67414832  0.00164135  0.24822654  1
  In  In81  1  0.17438250  0.49460324  0.50065492  1
  In  In82  1  0.83369135  0.83941968  -0.00041323  1
  In  In83  1  0.66762498  0.66375751  0.74621326  1
  In  In84  1  0.32712529  0.33649538  0.75659845  1
  In  In85  1  0.00925914  0.00068729  0.75231207  1
  Cu  Cu86  1  0.67400188  0.33505256  0.00742223  1
  Cu  Cu87  1  -0.00138561  0.66651882  0.49742583  1
  Cu  Cu88  1  0.84220604  0.82371759  0.74592604  1
  Cu  Cu89  1  0.83740311  0.50560326  0.24314025  1
  Cu  Cu90  1  0.66282847  -0.00095730  0.00101633  1
  Cu  Cu91  1  0.33082721  0.32589457  0.49066917  1
  Cu  Cu92  1  0.15581203  0.82856301  0.24748399  1
  Cu  Cu93  1  0.33160242  0.00558020  0.49958937  1
  Cu  Cu94  1  0.00320057  -0.00483567  0.49884843  1
  Cu  Cu95  1  0.48914998  0.16373337  0.74299907  1
  Cu  Cu96  1  0.17026921  0.50319298  0.23972389  1
  Cu  Cu97  1  0.32827999  0.67064287  0.50484119  1
  Cu  Cu98  1  0.33792662  0.66982863  -0.00166041  1
  Cu  Cu99  1  0.83851284  0.49369351  0.75932638  1
  Cu  Cu100  1  0.67386961  0.00562378  0.49471353  1
  Cu  Cu101  1  0.17620465  0.82963120  0.75547728  1
  Cu  Cu102  1  0.49567233  0.83276697  0.75659885  1
  Cu  Cu103  1  0.49253643  0.51227489  0.76134296  1
  Cu  Cu104  1  -0.00061749  0.01481516  0.00438448  1
  Cu  Cu105  1  0.83558373  0.16941700  0.75385879  1
  Cu  Cu106  1  0.84115418  0.16518862  0.25349771  1
  Cu  Cu107  1  0.33539061  0.33165514  0.00606848  1
  Cu  Cu108  1  0.49392368  0.82616459  0.24226530  1
  Cu  Cu109  1  0.00614482  0.32423806  0.49523379  1
  Cu  Cu110  1  -0.00244934  0.33380991  0.00846714  1
  Cu  Cu111  1  0.66096011  0.33143883  0.48975528  1
  Cu  Cu112  1  0.83460358  0.82875188  0.24644085  1
  Cu  Cu113  1  0.16338737  0.16718308  0.74917076  1
  Cu  Cu114  1  0.33061801  -0.00166966  0.00177144  1
  Se  Se115  1  0.08454620  0.09149007  0.06066077  1
  Se  Se116  1  0.08448917  0.08155258  0.55252535  1
  Se  Se117  1  0.08613721  0.41611236  0.05741381  1
  Se  Se118  1  0.07514211  0.41004022  0.55930900  1
  Se  Se119  1  0.09417215  0.77272645  0.04761762  1
  Se  Se120  1  0.08476725  0.74537517  0.55295489  1
  Se  Se121  1  0.40555022  0.07947548  0.06520449  1
  Se  Se122  1  0.41802435  0.08821194  0.55073052  1
  Se  Se123  1  0.42392698  0.41180825  0.05679614  1
  Se  Se124  1  0.40207841  0.41105296  0.55538793  1
  Se  Se125  1  0.41888282  0.75364646  0.05362044  1
  Se  Se126  1  0.41591297  0.74871182  0.56024518  1
  Se  Se127  1  0.74153320  0.08817348  0.05139042  1
  Se  Se128  1  0.75651234  0.08851691  0.54965854  1
  Se  Se129  1  0.76006386  0.41953525  0.05583256  1
  Se  Se130  1  0.73767916  0.40996582  0.55557649  1
  Se  Se131  1  0.74966894  0.75089749  0.06268369  1
  Se  Se132  1  0.75303055  0.73700977  0.54483534  1
  Se  Se133  1  0.24971266  0.24964410  0.05707593  1
  Se  Se134  1  0.24514845  0.25010402  0.54852870  1
  Se  Se135  1  0.25085050  0.58375046  0.04577458  1
  Se  Se136  1  0.25371573  0.58811390  0.56560634  1
  Se  Se137  1  0.24515955  0.91605910  0.05415259  1
  Se  Se138  1  0.25334137  0.91942608  0.55456131  1
  Se  Se139  1  0.58525899  0.26113615  0.06620698  1
  Se  Se140  1  0.57549939  0.25420817  0.54831918  1
  Se  Se141  1  0.58483059  0.57458935  0.05189428  1
  Se  Se142  1  0.59440419  0.59781261  0.55129965  1
  Se  Se143  1  0.57428247  0.91845916  0.04923431  1
  Se  Se144  1  0.59601794  0.92606589  0.56101858  1
  Se  Se145  1  0.91608976  0.24864415  0.06171127  1
  Se  Se146  1  0.91793071  0.24632063  0.54958197  1
  Se  Se147  1  0.93638442  0.59415404  0.05125808  1
  Se  Se148  1  0.92667108  0.57697797  0.55675875  1
  Se  Se149  1  0.92025299  0.92854358  0.06219874  1
  Se  Se150  1  0.91702003  0.91268804  0.55151968  1
  Se  Se151  1  0.08884714  0.24768931  0.43624823  1
  Se  Se152  1  0.08255704  0.24768784  0.95672828  1
  Se  Se153  1  0.07710672  0.58086557  0.44088668  1
  Se  Se154  1  0.08729524  0.58334575  0.94613040  1
  Se  Se155  1  0.08214349  0.91100977  0.44226023  1
  Se  Se156  1  0.07919376  0.92934067  0.95012500  1
  Se  Se157  1  0.42415651  0.25479389  0.43675061  1
  Se  Se158  1  0.41038403  0.25121203  0.94016821  1
  Se  Se159  1  0.40396043  0.59055050  0.44287580  1
  Se  Se160  1  0.42194855  0.57683197  0.95195370  1
  Se  Se161  1  0.40741420  0.92500942  0.43576379  1
  Se  Se162  1  0.41403468  0.91641586  0.94766888  1
  Se  Se163  1  0.75433303  0.24852724  0.44766120  1
  Se  Se164  1  0.75305265  0.25039755  0.95205245  1
  Se  Se165  1  0.73700769  0.58585832  0.43096305  1
  Se  Se166  1  0.75467573  0.59463639  0.96444893  1
  Se  Se167  1  0.75097309  0.91423373  0.44525551  1
  Se  Se168  1  0.74016534  0.92522332  0.93422405  1
  Se  Se169  1  0.25011658  0.08662389  0.44326074  1
  Se  Se170  1  0.24908382  0.08774744  0.95226866  1
  Se  Se171  1  0.24755101  0.40308385  0.43242516  1
  Se  Se172  1  0.25183107  0.41418843  0.95218319  1
  Se  Se173  1  0.24093285  0.75118253  0.45455185  1
  Se  Se174  1  0.25121080  0.74814098  0.94318474  1
  Se  Se175  1  0.58272465  0.08679950  0.44902533  1
  Se  Se176  1  0.58355900  0.07953174  0.93672337  1
  Se  Se177  1  0.58235114  0.41231578  0.43144195  1
  Se  Se178  1  0.58565993  0.41417311  0.95431222  1
  Se  Se179  1  0.58446335  0.74699248  0.43554140  1
  Se  Se180  1  0.58685350  0.74695385  0.96030841  1
  Se  Se181  1  0.91886669  0.08059027  0.44722503  1
  Se  Se182  1  0.90995089  0.09284605  0.95271591  1
  Se  Se183  1  0.92622633  0.40817752  0.43844034  1
  Se  Se184  1  0.92081927  0.41971644  0.95063697  1
  Se  Se185  1  0.91389682  0.74583232  0.44252971  1
  Se  Se186  1  0.92750335  0.75085175  0.94329546  1
  Se  Se187  1  0.27333398  0.26371166  0.29991042  1
  Se  Se188  1  0.23572291  0.24780218  0.81525939  1
  Se  Se189  1  0.24406081  0.57385394  0.31265610  1
  Se  Se190  1  0.25304122  0.58311767  0.80289261  1
  Se  Se191  1  0.23573968  0.90476934  0.30951012  1
  Se  Se192  1  0.25451171  0.91978967  0.80570718  1
  Se  Se193  1  0.60268575  0.25957802  0.30182692  1
  Se  Se194  1  0.57134230  0.24168801  0.80357902  1
  Se  Se195  1  0.57505828  0.58375956  0.29114382  1
  Se  Se196  1  0.58208064  0.58524883  0.81778293  1
  Se  Se197  1  0.57684832  0.90572450  0.30168144  1
  Se  Se198  1  0.58181824  0.90588499  0.81718821  1
  Se  Se199  1  0.92126434  0.25099925  0.30660651  1
  Se  Se200  1  0.91484790  0.25355657  0.80786271  1
  Se  Se201  1  0.91974764  0.58860742  0.29885346  1
  Se  Se202  1  0.92048205  0.58139035  0.80813475  1
  Se  Se203  1  0.91645128  0.91265514  0.30000767  1
  Se  Se204  1  0.91390650  0.90769106  0.80862235  1
  Se  Se205  1  0.08494197  0.08387894  0.30058953  1
  Se  Se206  1  0.08910619  0.09137453  0.81783423  1
  Se  Se207  1  0.08618382  0.42158813  0.29488523  1
  Se  Se208  1  0.07802450  0.40746316  0.80621757  1
  Se  Se209  1  0.07826691  0.74211293  0.30355969  1
  Se  Se210  1  0.08668769  0.75018579  0.80448916  1
  Se  Se211  1  0.42804572  0.08620650  0.30975647  1
  Se  Se212  1  0.40855764  0.08127845  0.79785519  1
  Se  Se213  1  0.43417207  0.43820525  0.29432446  1
  Se  Se214  1  0.41714297  0.42463623  0.81818644  1
  Se  Se215  1  0.41668685  0.75395120  0.30829212  1
  Se  Se216  1  0.41886061  0.74501850  0.80929479  1
  Se  Se217  1  0.75954199  0.08533090  0.31510164  1
  Se  Se218  1  0.75199330  0.08939576  0.81000134  1
  Se  Se219  1  0.75929456  0.42125466  0.30038058  1
  Se  Se220  1  0.74864550  0.42876111  0.82190594  1
  Se  Se221  1  0.74665995  0.74783728  0.29700935  1
  Se  Se222  1  0.76429502  0.74483539  0.80862522  1
  Se  Se223  1  0.23937876  0.08904349  0.19519559  1
  Se  Se224  1  0.24720460  0.08515674  0.69597765  1
  Se  Se225  1  0.25508001  0.41724884  0.19276385  1
  Se  Se226  1  0.23835484  0.42287134  0.69267222  1
  Se  Se227  1  0.23159178  0.74736568  0.18629747  1
  Se  Se228  1  0.25589126  0.74817102  0.69678578  1
  Se  Se229  1  0.57623063  0.09107509  0.19575851  1
  Se  Se230  1  0.57959070  0.09227202  0.68550902  1
  Se  Se231  1  0.60984241  0.39731694  0.19487448  1
  Se  Se232  1  0.57029909  0.43017251  0.69984251  1
  Se  Se233  1  0.58329473  0.74708173  0.19380204  1
  Se  Se234  1  0.57905310  0.76362450  0.68985986  1
  Se  Se235  1  0.92062232  0.08208062  0.19814229  1
  Se  Se236  1  0.90997476  0.08494144  0.69317334  1
  Se  Se237  1  0.92302465  0.41715698  0.19760812  1
  Se  Se238  1  0.91315819  0.40904523  0.69970090  1
  Se  Se239  1  0.91765910  0.74525849  0.19335353  1
  Se  Se240  1  0.92412775  0.74042237  0.69320704  1
  Se  Se241  1  0.08575337  0.25618903  0.20342366  1
  Se  Se242  1  0.07855832  0.24791052  0.69563208  1
  Se  Se243  1  0.08649406  0.58814426  0.18912860  1
  Se  Se244  1  0.08548884  0.58171368  0.70283887  1
  Se  Se245  1  0.07757623  0.91833520  0.19607624  1
  Se  Se246  1  0.09227144  0.90637459  0.69134031  1
  Se  Se247  1  0.42879999  0.24006133  0.20172494  1
  Se  Se248  1  0.41395914  0.25196029  0.68622604  1
  Se  Se249  1  0.41552080  0.58322211  0.17970674  1
  Se  Se250  1  0.41533732  0.59338797  0.70227761  1
  Se  Se251  1  0.41153922  0.91127619  0.19017552  1
  Se  Se252  1  0.41868553  0.91982461  0.70049171  1
  Se  Se253  1  0.75713733  0.24693605  0.19962538  1
  Se  Se254  1  0.75417289  0.24481317  0.68983828  1
  Se  Se255  1  0.75019635  0.58512173  0.19114640  1
  Se  Se256  1  0.76151855  0.56882966  0.69074656  1
  Se  Se257  1  0.75784351  0.91090277  0.18376979  1
  Se  Se258  1  0.75961451  0.90843392  0.69230086  1
