# generated using pymatgen
data_In86Cu29Se144
_symmetry_space_group_name_H-M   'P 1'
_cell_length_a   17.57698883
_cell_length_b   17.57506977
_cell_length_c   23.44156869
_cell_angle_alpha   90.00534474
_cell_angle_beta   89.98740700
_cell_angle_gamma   90.02359257
_symmetry_Int_Tables_number   1
_chemical_formula_structural   In86Cu29Se144
_chemical_formula_sum   'In86 Cu29 Se144'
_cell_volume   7241.49368233
_cell_formula_units_Z   1
loop_
 _symmetry_equiv_pos_site_id
 _symmetry_equiv_pos_as_xyz
  1  'x, y, z'
loop_
 _atom_site_type_symbol
 _atom_site_label
 _atom_site_symmetry_multiplicity
 _atom_site_fract_x
 _atom_site_fract_y
 _atom_site_fract_z
 _atom_site_occupancy
  In  In0  1  0.00924928  0.15361304  0.13828376  1
  In  In1  1  -0.01053236  0.16603582  0.63000501  1
  In  In2  1  0.00398205  0.49889327  0.12578736  1
  In  In3  1  0.00804505  0.51611383  0.61577159  1
  In  In4  1  0.01179295  0.82060107  0.12908658  1
  In  In5  1  -0.00326594  0.83745247  0.63252349  1
  In  In6  1  0.33426134  0.16989133  0.12874324  1
  In  In7  1  0.34633319  0.15706134  0.61741450  1
  In  In8  1  0.32144465  0.51070511  0.13450561  1
  In  In9  1  0.33234511  0.50654516  0.62107593  1
  In  In10  1  0.32512224  0.84192269  0.13013720  1
  In  In11  1  0.32640533  0.82739732  0.62233613  1
  In  In12  1  0.66398299  0.17451308  0.11998860  1
  In  In13  1  0.65655820  0.18812910  0.63773165  1
  In  In14  1  0.68026526  0.49798325  0.12232277  1
  In  In15  1  0.66902119  0.49723674  0.62360359  1
  In  In16  1  0.65355898  0.82864262  0.12202419  1
  In  In17  1  0.65994986  0.82404364  0.63843957  1
  In  In18  1  0.16962185  0.00218467  0.36447345  1
  In  In19  1  0.16091672  0.00661560  0.88735644  1
  In  In20  1  0.17325587  0.33902087  0.36812444  1
  In  In21  1  0.16360935  0.33930046  0.88699182  1
  In  In22  1  0.16116319  0.66041055  0.36783604  1
  In  In23  1  0.16825329  0.66325699  0.87779344  1
  In  In24  1  0.49289397  0.01127485  0.37915563  1
  In  In25  1  0.50637220  -0.00237527  0.87239805  1
  In  In26  1  0.49521422  0.33558522  0.37807221  1
  In  In27  1  0.49197291  0.32434558  0.87238341  1
  In  In28  1  0.48800412  0.65330120  0.36973427  1
  In  In29  1  0.49624122  0.66312692  0.85348725  1
  In  In30  1  0.84004294  -0.00318265  0.37175397  1
  In  In31  1  0.82802545  -0.00062393  0.86454868  1
  In  In32  1  0.84703053  0.33681824  0.37147615  1
  In  In33  1  0.83615713  0.34373735  0.87594945  1
  In  In34  1  0.82692167  0.65697416  0.37125364  1
  In  In35  1  0.82805022  0.65791470  0.87007160  1
  In  In36  1  0.00545699  0.17627134  0.35679930  1
  In  In37  1  0.00813984  0.17325886  0.88065586  1
  In  In38  1  0.00191623  0.50224221  0.37404469  1
  In  In39  1  -0.00284289  0.50222751  0.87976768  1
  In  In40  1  0.00744596  0.83448720  0.36564898  1
  In  In41  1  0.00749486  0.83838858  0.87616778  1
  In  In42  1  0.34344435  0.16586811  0.36402027  1
  In  In43  1  0.33121424  0.16908441  0.88778112  1
  In  In44  1  0.33096591  0.49723053  0.37598255  1
  In  In45  1  0.32672556  0.50282545  0.87083929  1
  In  In46  1  0.33177281  0.82923233  0.36514510  1
  In  In47  1  0.32514019  0.81474818  0.87396748  1
  In  In48  1  0.65905970  0.16001287  0.37673248  1
  In  In49  1  0.65695267  0.15554744  0.86490176  1
  In  In50  1  0.65601051  0.50392744  0.38347130  1
  In  In51  1  0.67403649  0.50962827  0.86218244  1
  In  In52  1  0.68139759  0.82840628  0.37618710  1
  In  In53  1  0.65405079  0.83135144  0.85760785  1
  In  In54  1  0.16642311  -0.00011452  0.12274589  1
  In  In55  1  0.16681960  -0.00709575  0.62674537  1
  In  In56  1  0.16779018  0.33458452  0.12858332  1
  In  In57  1  0.15615836  0.34373816  0.62344485  1
  In  In58  1  0.16823141  0.66274680  0.12298279  1
  In  In59  1  0.17411053  0.65534859  0.64007420  1
  In  In60  1  0.48693005  0.00668000  0.13006251  1
  In  In61  1  0.49315555  0.01785164  0.61938381  1
  In  In62  1  0.49473400  0.31551693  0.12746192  1
  In  In63  1  0.50703399  0.34549078  0.61548134  1
  In  In64  1  0.50011512  0.66598518  0.13358657  1
  In  In65  1  0.51791305  0.63705252  0.65057608  1
  In  In66  1  0.84450757  0.00999834  0.12723241  1
  In  In67  1  0.83109733  0.01169984  0.64053814  1
  In  In68  1  0.83062305  0.34721886  0.12563470  1
  In  In69  1  0.80761035  0.33999895  0.63055605  1
  In  In70  1  0.84462013  0.65655460  0.12948452  1
  In  In71  1  0.84376757  0.66099248  0.63014258  1
  In  In72  1  0.33721395  -0.00608030  0.74699818  1
  In  In73  1  0.49821573  0.82597597  0.50327478  1
  In  In74  1  0.83112053  0.82996550  -0.00893641  1
  In  In75  1  0.49638480  0.49497473  -0.00477152  1
  In  In76  1  0.33408348  0.34373891  0.74629093  1
  In  In77  1  0.16760155  0.83013318  0.50706982  1
  In  In78  1  -0.00403897  0.33633985  0.75815165  1
  In  In79  1  0.83747710  0.83009798  0.50790036  1
  In  In80  1  0.83285915  0.17344376  0.50050035  1
  In  In81  1  0.17442063  0.17448563  0.48737143  1
  In  In82  1  0.83814398  0.17164970  0.00178164  1
  In  In83  1  0.67076675  -0.00401077  0.25193800  1
  In  In84  1  0.49512500  0.83283683  -0.01348163  1
  In  In85  1  0.66601172  0.33446226  0.24717092  1
  Cu  Cu86  1  0.66366922  0.00723890  0.50556821  1
  Cu  Cu87  1  -0.00011863  0.66247334  0.49796705  1
  Cu  Cu88  1  0.33268851  0.65977328  0.50162272  1
  Cu  Cu89  1  0.83588962  0.82733483  0.75211823  1
  Cu  Cu90  1  0.83786322  0.83026659  0.24923844  1
  Cu  Cu91  1  0.00734903  0.33359577  0.00502372  1
  Cu  Cu92  1  0.00271641  -0.00381160  0.00369541  1
  Cu  Cu93  1  0.66009850  0.33614271  0.50227893  1
  Cu  Cu94  1  0.16834641  0.16582661  0.75945406  1
  Cu  Cu95  1  0.33050337  0.33474786  0.49395116  1
  Cu  Cu96  1  0.00544899  0.65718349  0.00441098  1
  Cu  Cu97  1  0.67138591  0.65974614  -0.00542541  1
  Cu  Cu98  1  0.15863552  0.83365484  0.75375612  1
  Cu  Cu99  1  0.00590882  0.00897280  0.50011780  1
  Cu  Cu100  1  0.66593754  0.33350986  -0.00062186  1
  Cu  Cu101  1  0.33022077  0.33449429  0.00599334  1
  Cu  Cu102  1  0.32880100  0.00518168  0.00770332  1
  Cu  Cu103  1  0.83658152  0.50550080  0.24915774  1
  Cu  Cu104  1  0.50462966  0.82657563  0.25163054  1
  Cu  Cu105  1  0.49920355  0.49894912  0.25565033  1
  Cu  Cu106  1  0.33005636  0.66851336  0.00303857  1
  Cu  Cu107  1  0.65894178  0.65860544  0.50377698  1
  Cu  Cu108  1  0.16924234  0.16227480  0.24483299  1
  Cu  Cu109  1  0.16549900  0.49929648  0.25013080  1
  Cu  Cu110  1  0.50393364  0.16865873  0.74881613  1
  Cu  Cu111  1  -0.00555493  0.34751664  0.49861683  1
  Cu  Cu112  1  0.83463645  0.49796556  0.74705663  1
  Cu  Cu113  1  0.65603858  0.00571466  -0.00850345  1
  Cu  Cu114  1  0.16763738  0.83120658  0.24303040  1
  Se  Se115  1  0.08061704  0.08562537  0.05611829  1
  Se  Se116  1  0.08672535  0.08916872  0.55822013  1
  Se  Se117  1  0.09009108  0.41940582  0.05668356  1
  Se  Se118  1  0.08530359  0.42505272  0.54882447  1
  Se  Se119  1  0.08701188  0.74685859  0.05219032  1
  Se  Se120  1  0.07415824  0.74255693  0.56356986  1
  Se  Se121  1  0.41698419  0.08810517  0.05534825  1
  Se  Se122  1  0.41622175  0.08219480  0.54009958  1
  Se  Se123  1  0.41121094  0.41523264  0.06562747  1
  Se  Se124  1  0.40911997  0.41790287  0.55318824  1
  Se  Se125  1  0.41557216  0.74787415  0.05948152  1
  Se  Se126  1  0.41427146  0.73366277  0.56437215  1
  Se  Se127  1  0.74302550  0.07368140  0.05503104  1
  Se  Se128  1  0.74605385  0.08533497  0.56396172  1
  Se  Se129  1  0.75274229  0.41738730  0.04712172  1
  Se  Se130  1  0.75025687  0.41904259  0.54857888  1
  Se  Se131  1  0.74517063  0.74257604  0.05737576  1
  Se  Se132  1  0.73970830  0.74147024  0.56152386  1
  Se  Se133  1  0.24887948  0.24957526  0.05921581  1
  Se  Se134  1  0.25460310  0.25783145  0.56168356  1
  Se  Se135  1  0.25014367  0.57866218  0.05247657  1
  Se  Se136  1  0.24018882  0.58608698  0.55541995  1
  Se  Se137  1  0.24729233  0.91364631  0.05328969  1
  Se  Se138  1  0.26227202  0.93015487  0.55306129  1
  Se  Se139  1  0.58038279  0.25118681  0.04988320  1
  Se  Se140  1  0.58095452  0.24559692  0.55272978  1
  Se  Se141  1  0.58588622  0.58721538  0.05684617  1
  Se  Se142  1  0.57576057  0.57862247  0.55937621  1
  Se  Se143  1  0.57969028  0.92415624  0.05385330  1
  Se  Se144  1  0.59077622  0.91729058  0.56216155  1
  Se  Se145  1  0.92631589  0.25516757  0.06647371  1
  Se  Se146  1  0.92073367  0.26488058  0.56156371  1
  Se  Se147  1  0.91613159  0.57637375  0.05399492  1
  Se  Se148  1  0.90930629  0.58367957  0.54901051  1
  Se  Se149  1  0.91829238  0.91474847  0.05890671  1
  Se  Se150  1  0.92277919  0.93259648  0.56029145  1
  Se  Se151  1  0.07027341  0.26094751  0.43912219  1
  Se  Se152  1  0.08971911  0.24705609  0.95416246  1
  Se  Se153  1  0.08668026  0.58362169  0.44436010  1
  Se  Se154  1  0.08864975  0.57668788  0.94728217  1
  Se  Se155  1  0.08166479  0.92304614  0.44224177  1
  Se  Se156  1  0.08652994  0.91125885  0.95253273  1
  Se  Se157  1  0.41088599  0.24757147  0.44266907  1
  Se  Se158  1  0.41690913  0.25469226  0.95189175  1
  Se  Se159  1  0.41635708  0.57745340  0.44743104  1
  Se  Se160  1  0.41522610  0.59697692  0.93942487  1
  Se  Se161  1  0.40981190  0.91260358  0.44007816  1
  Se  Se162  1  0.39957682  0.92828475  0.93674202  1
  Se  Se163  1  0.74161717  0.26085251  0.43769263  1
  Se  Se164  1  0.74397658  0.25078542  0.93781736  1
  Se  Se165  1  0.74799559  0.58449359  0.44754721  1
  Se  Se166  1  0.75308798  0.57434062  0.94329201  1
  Se  Se167  1  0.74754482  0.92782399  0.44831479  1
  Se  Se168  1  0.73465325  0.91980096  0.93607570  1
  Se  Se169  1  0.25921764  0.07415087  0.43659585  1
  Se  Se170  1  0.24461565  0.08986424  0.95446017  1
  Se  Se171  1  0.24341049  0.41796221  0.44569821  1
  Se  Se172  1  0.25729377  0.42116394  0.94726973  1
  Se  Se173  1  0.25456287  0.74302994  0.44177976  1
  Se  Se174  1  0.24372922  0.75077558  0.95158636  1
  Se  Se175  1  0.57925613  0.08569505  0.45068470  1
  Se  Se176  1  0.57240713  0.09154935  0.94321811  1
  Se  Se177  1  0.57433003  0.41813185  0.44945569  1
  Se  Se178  1  0.59021203  0.41199475  0.93419481  1
  Se  Se179  1  0.58898118  0.74154828  0.43881701  1
  Se  Se180  1  0.58886995  0.73667128  0.93467985  1
  Se  Se181  1  0.92660533  0.08677756  0.43841831  1
  Se  Se182  1  0.91963616  0.07234000  0.94217421  1
  Se  Se183  1  0.91034875  0.42708575  0.44417365  1
  Se  Se184  1  0.92153301  0.41239766  0.94950961  1
  Se  Se185  1  0.92436526  0.74870340  0.43895358  1
  Se  Se186  1  0.92577270  0.73562811  0.94065456  1
  Se  Se187  1  0.24771166  0.24515779  0.30343016  1
  Se  Se188  1  0.24826719  0.25180993  0.81276444  1
  Se  Se189  1  0.25213230  0.58074446  0.30410387  1
  Se  Se190  1  0.26580598  0.60337530  0.80618536  1
  Se  Se191  1  0.24982305  0.91417734  0.29867395  1
  Se  Se192  1  0.24156534  0.91609071  0.81219323  1
  Se  Se193  1  0.57658801  0.24413904  0.30670038  1
  Se  Se194  1  0.58341612  0.25500680  0.80239759  1
  Se  Se195  1  0.58664779  0.58236926  0.30480646  1
  Se  Se196  1  0.58204118  0.57744979  0.79345452  1
  Se  Se197  1  0.58025187  0.90813433  0.31519322  1
  Se  Se198  1  0.58388120  0.92995828  0.79581652  1
  Se  Se199  1  0.91241555  0.25443873  0.29651816  1
  Se  Se200  1  0.90781466  0.23919187  0.81229855  1
  Se  Se201  1  0.92104238  0.58745767  0.30370185  1
  Se  Se202  1  0.91767568  0.57744272  0.80455611  1
  Se  Se203  1  0.91925607  0.91704578  0.30109478  1
  Se  Se204  1  0.91745966  0.91118239  0.80655803  1
  Se  Se205  1  0.08203649  0.07917511  0.29695173  1
  Se  Se206  1  0.08426665  0.08447768  0.81184089  1
  Se  Se207  1  0.08072791  0.41678972  0.30384781  1
  Se  Se208  1  0.09411309  0.42486707  0.81006714  1
  Se  Se209  1  0.08510406  0.74782488  0.29844843  1
  Se  Se210  1  0.08204985  0.74664046  0.80929824  1
  Se  Se211  1  0.41670658  0.07148680  0.29841369  1
  Se  Se212  1  0.41551765  0.09532475  0.80814192  1
  Se  Se213  1  0.41500541  0.41457443  0.30594782  1
  Se  Se214  1  0.42820250  0.42888092  0.80575602  1
  Se  Se215  1  0.41594845  0.74390805  0.30075719  1
  Se  Se216  1  0.43506622  0.78139643  0.80746933  1
  Se  Se217  1  0.75867683  0.09295816  0.30887636  1
  Se  Se218  1  0.74649648  0.08150395  0.79844971  1
  Se  Se219  1  0.75222493  0.42607417  0.30935471  1
  Se  Se220  1  0.75316572  0.41267893  0.80052512  1
  Se  Se221  1  0.75274758  0.74805959  0.30166256  1
  Se  Se222  1  0.74890789  0.74503261  0.80246465  1
  Se  Se223  1  0.25220394  0.07794122  0.19273865  1
  Se  Se224  1  0.24667865  0.09356027  0.69189586  1
  Se  Se225  1  0.25162107  0.41415913  0.20015805  1
  Se  Se226  1  0.23496230  0.42965277  0.69370891  1
  Se  Se227  1  0.25207033  0.74470131  0.19321816  1
  Se  Se228  1  0.24688774  0.75766764  0.69902809  1
  Se  Se229  1  0.58365453  0.08907705  0.19271295  1
  Se  Se230  1  0.58168417  0.08287448  0.69307286  1
  Se  Se231  1  0.57506825  0.42484238  0.18636530  1
  Se  Se232  1  0.59772234  0.40120920  0.68998114  1
  Se  Se233  1  0.59044126  0.74552146  0.19942225  1
  Se  Se234  1  0.57802811  0.74653772  0.70755984  1
  Se  Se235  1  0.91236146  0.08504751  0.20429450  1
  Se  Se236  1  0.93758827  0.07040031  0.70184241  1
  Se  Se237  1  0.91735791  0.41923869  0.19673588  1
  Se  Se238  1  0.91608453  0.41990806  0.68543807  1
  Se  Se239  1  0.92094153  0.74575312  0.19638286  1
  Se  Se240  1  0.92172252  0.74662856  0.69914053  1
  Se  Se241  1  0.08460723  0.25214504  0.19869610  1
  Se  Se242  1  0.09047943  0.24576560  0.69616230  1
  Se  Se243  1  0.08462500  0.58403709  0.19469714  1
  Se  Se244  1  0.06926070  0.58883887  0.69868409  1
  Se  Se245  1  0.08286444  0.91787008  0.19327494  1
  Se  Se246  1  0.08239287  0.92147410  0.69875894  1
  Se  Se247  1  0.41617303  0.24623976  0.20236801  1
  Se  Se248  1  0.42104995  0.24688441  0.68852029  1
  Se  Se249  1  0.41687659  0.58319814  0.20012254  1
  Se  Se250  1  0.39475132  0.59091123  0.69874921  1
  Se  Se251  1  0.42232089  0.91001582  0.19734163  1
  Se  Se252  1  0.42557709  0.91036545  0.68289523  1
  Se  Se253  1  0.75850019  0.24284784  0.19001499  1
  Se  Se254  1  0.77722862  0.22564230  0.69348255  1
  Se  Se255  1  0.74809274  0.58441200  0.19586778  1
  Se  Se256  1  0.75143613  0.58173116  0.69332587  1
  Se  Se257  1  0.75702481  0.90696795  0.18549446  1
  Se  Se258  1  0.75409500  0.90949218  0.69596409  1
