# generated using pymatgen
data_In86Cu29Se144
_symmetry_space_group_name_H-M   'P 1'
_cell_length_a   17.57908554
_cell_length_b   17.57615357
_cell_length_c   23.43872313
_cell_angle_alpha   89.97405467
_cell_angle_beta   89.98509250
_cell_angle_gamma   90.00696117
_symmetry_Int_Tables_number   1
_chemical_formula_structural   In86Cu29Se144
_chemical_formula_sum   'In86 Cu29 Se144'
_cell_volume   7241.92469674
_cell_formula_units_Z   1
loop_
 _symmetry_equiv_pos_site_id
 _symmetry_equiv_pos_as_xyz
  1  'x, y, z'
loop_
 _atom_site_type_symbol
 _atom_site_label
 _atom_site_symmetry_multiplicity
 _atom_site_fract_x
 _atom_site_fract_y
 _atom_site_fract_z
 _atom_site_occupancy
  In  In0  1  0.01180262  0.16214918  0.13142706  1
  In  In1  1  -0.00035705  0.18304417  0.62818124  1
  In  In2  1  -0.01459426  0.49500058  0.11822751  1
  In  In3  1  0.00937435  0.49076903  0.63106758  1
  In  In4  1  0.01707110  0.83277003  0.13843242  1
  In  In5  1  -0.00954464  0.82089894  0.61594595  1
  In  In6  1  0.31990971  0.18560076  0.13236045  1
  In  In7  1  0.34130856  0.17337181  0.62668384  1
  In  In8  1  0.32078846  0.51009590  0.11734014  1
  In  In9  1  0.33385676  0.50051980  0.62364749  1
  In  In10  1  0.33188410  0.81313242  0.14312122  1
  In  In11  1  0.32178107  0.81915109  0.61253563  1
  In  In12  1  0.67464598  0.17109392  0.12239304  1
  In  In13  1  0.67591800  0.16131189  0.62551368  1
  In  In14  1  0.67108658  0.50794385  0.11890127  1
  In  In15  1  0.65272274  0.51514479  0.62956821  1
  In  In16  1  0.65732836  0.82743053  0.13018089  1
  In  In17  1  0.64501897  0.79799405  0.59239198  1
  In  In18  1  0.15375540  -0.01984188  0.35823615  1
  In  In19  1  0.18057221  0.00121734  0.88281468  1
  In  In20  1  0.17363707  0.34227027  0.36674075  1
  In  In21  1  0.16538833  0.34010535  0.87688689  1
  In  In22  1  0.17818848  0.65144294  0.38144975  1
  In  In23  1  0.16283595  0.65401555  0.87196855  1
  In  In24  1  0.48079712  -0.01188003  0.36869132  1
  In  In25  1  0.50044698  0.00099029  0.87587340  1
  In  In26  1  0.49103134  0.35005119  0.37661674  1
  In  In27  1  0.51200797  0.35217138  0.86798605  1
  In  In28  1  0.50184439  0.66559760  0.37398072  1
  In  In29  1  0.48292445  0.64901128  0.86073979  1
  In  In30  1  0.85223319  -0.01422389  0.37754612  1
  In  In31  1  0.83897861  -0.00839887  0.87580174  1
  In  In32  1  0.83016649  0.32345471  0.37786381  1
  In  In33  1  0.84792745  0.34952920  0.86585233  1
  In  In34  1  0.83056302  0.68422701  0.37295749  1
  In  In35  1  0.82983337  0.66334046  0.86698507  1
  In  In36  1  -0.00282212  0.16123201  0.37099758  1
  In  In37  1  -0.00193353  0.18334100  0.87696957  1
  In  In38  1  0.01583822  0.50399656  0.37489313  1
  In  In39  1  0.00721520  0.50766221  0.87989639  1
  In  In40  1  -0.00640461  0.83870546  0.37954616  1
  In  In41  1  0.00993538  0.82253362  0.87212193  1
  In  In42  1  0.32712214  0.16257192  0.36574094  1
  In  In43  1  0.31561134  0.17691419  0.88480087  1
  In  In44  1  0.33592329  0.49989201  0.36883175  1
  In  In45  1  0.33598398  0.50401697  0.87797524  1
  In  In46  1  0.33077585  0.82663721  0.37780602  1
  In  In47  1  0.34515778  0.82892739  0.87299378  1
  In  In48  1  0.67625984  0.17470179  0.37957275  1
  In  In49  1  0.65527286  0.17585235  0.87663277  1
  In  In50  1  0.64489566  0.51479749  0.38422998  1
  In  In51  1  0.66746758  0.50451901  0.87280223  1
  In  In52  1  0.67924548  0.81256078  0.38645408  1
  In  In53  1  0.67595874  0.82422090  0.87259816  1
  In  In54  1  0.16127297  0.00225530  0.13576106  1
  In  In55  1  0.17692519  -0.00677280  0.62352625  1
  In  In56  1  0.16616022  0.33692305  0.12165447  1
  In  In57  1  0.16166600  0.34355591  0.63274284  1
  In  In58  1  0.17452375  0.66292359  0.12310386  1
  In  In59  1  0.16940099  0.66139699  0.62420615  1
  In  In60  1  0.49543951  -0.01647857  0.13074541  1
  In  In61  1  0.51342763  -0.00634760  0.62127432  1
  In  In62  1  0.48455383  0.34913908  0.12748497  1
  In  In63  1  0.48797974  0.34869353  0.63204266  1
  In  In64  1  0.49604654  0.65878057  0.13005569  1
  In  In65  1  0.49980112  0.65669500  0.61878844  1
  In  In66  1  0.83896579  0.00919894  0.12869159  1
  In  In67  1  0.82740065  -0.00809170  0.61551021  1
  In  In68  1  0.82827665  0.34976679  0.12533159  1
  In  In69  1  0.83703046  0.32858305  0.62909912  1
  In  In70  1  0.84069355  0.65131674  0.12737560  1
  In  In71  1  0.82845901  0.66940549  0.62728917  1
  In  In72  1  0.33812363  -0.00066293  0.75198563  1
  In  In73  1  0.50380452  0.16302008  0.50024098  1
  In  In74  1  0.83465612  0.82921990  -0.00326943  1
  In  In75  1  0.50005970  0.82574116  0.01081860  1
  In  In76  1  0.00167405  0.66725498  0.25359324  1
  In  In77  1  -0.00027474  -0.00020169  0.74814098  1
  In  In78  1  0.49803237  0.17224830  0.00384210  1
  In  In79  1  0.83630545  0.17339712  0.00491625  1
  In  In80  1  0.66379831  0.34176847  0.24991872  1
  In  In81  1  0.67088371  -0.00361969  0.75177219  1
  In  In82  1  0.66798985  -0.00420919  0.25054153  1
  In  In83  1  0.17013014  0.82637475  0.00799931  1
  In  In84  1  0.16277243  0.16278534  0.49928621  1
  In  In85  1  0.83035863  0.50378408  0.50121147  1
  Cu  Cu86  1  0.16390926  0.17481083  0.75582568  1
  Cu  Cu87  1  0.00091940  0.33377547  0.50504675  1
  Cu  Cu88  1  0.66294525  0.66434458  -0.00270865  1
  Cu  Cu89  1  0.16667546  0.81840708  0.74617395  1
  Cu  Cu90  1  -0.00090483  0.00256896  0.49365699  1
  Cu  Cu91  1  0.33064165  0.33946320  0.49775895  1
  Cu  Cu92  1  0.17194415  0.17411482  0.24838843  1
  Cu  Cu93  1  0.82745182  0.82263428  0.73809684  1
  Cu  Cu94  1  0.33119505  0.00264102  0.01031213  1
  Cu  Cu95  1  0.50101562  0.82309222  0.73848882  1
  Cu  Cu96  1  0.49886435  0.50294573  0.74900813  1
  Cu  Cu97  1  0.84662316  0.16567241  0.25496967  1
  Cu  Cu98  1  0.83425587  0.49775909  0.74939181  1
  Cu  Cu99  1  0.32969760  -0.00943600  0.49498282  1
  Cu  Cu100  1  0.66627067  0.33428706  0.50205874  1
  Cu  Cu101  1  0.66907977  0.34287824  -0.00396037  1
  Cu  Cu102  1  0.50016632  0.16976147  0.24901216  1
  Cu  Cu103  1  0.00452482  0.00128435  0.00909856  1
  Cu  Cu104  1  0.66944996  -0.00304718  0.49448628  1
  Cu  Cu105  1  0.17305727  0.49954454  0.75277720  1
  Cu  Cu106  1  0.83079643  0.17441594  0.74974512  1
  Cu  Cu107  1  0.49723278  0.82213010  0.25468266  1
  Cu  Cu108  1  0.00762187  0.66510232  0.49836746  1
  Cu  Cu109  1  0.00631896  0.33710158  -0.00373958  1
  Cu  Cu110  1  0.33213588  0.34260755  0.00205966  1
  Cu  Cu111  1  0.82889442  0.49636833  0.24960251  1
  Cu  Cu112  1  0.49678693  0.18119999  0.75211370  1
  Cu  Cu113  1  0.16760187  0.49411688  0.24684390  1
  Cu  Cu114  1  0.33670948  0.65954686  0.49756172  1
  Se  Se115  1  0.09092317  0.08358016  0.05807892  1
  Se  Se116  1  0.07294213  0.07572878  0.56458567  1
  Se  Se117  1  0.08238981  0.42088023  0.05449771  1
  Se  Se118  1  0.08768767  0.41644740  0.55392202  1
  Se  Se119  1  0.06885965  0.74079097  0.05934235  1
  Se  Se120  1  0.08946111  0.74865767  0.55416652  1
  Se  Se121  1  0.41339898  0.08250332  0.06863102  1
  Se  Se122  1  0.40729629  0.07131527  0.55781730  1
  Se  Se123  1  0.41489846  0.42890364  0.05176974  1
  Se  Se124  1  0.41719200  0.41912814  0.55133495  1
  Se  Se125  1  0.39921902  0.73910856  0.05881682  1
  Se  Se126  1  0.41865173  0.74558316  0.55062256  1
  Se  Se127  1  0.74347854  0.07394377  0.05370423  1
  Se  Se128  1  0.74799623  0.08221008  0.54986042  1
  Se  Se129  1  0.75398144  0.42474163  0.04925637  1
  Se  Se130  1  0.74347965  0.41482810  0.56442278  1
  Se  Se131  1  0.74261766  0.74346983  0.05909751  1
  Se  Se132  1  0.77383706  0.76063919  0.55078453  1
  Se  Se133  1  0.24942137  0.25373038  0.05039791  1
  Se  Se134  1  0.25363719  0.25485814  0.55784597  1
  Se  Se135  1  0.22573032  0.57488395  0.04422186  1
  Se  Se136  1  0.25037320  0.57969994  0.55294631  1
  Se  Se137  1  0.25821503  0.91646629  0.06938162  1
  Se  Se138  1  0.24253152  0.91061305  0.54761903  1
  Se  Se139  1  0.59099589  0.26647675  0.06109502  1
  Se  Se140  1  0.58457854  0.25541142  0.56447768  1
  Se  Se141  1  0.57864744  0.58672701  0.05464353  1
  Se  Se142  1  0.58941875  0.58631237  0.54743953  1
  Se  Se143  1  0.59423013  0.92631721  0.05730054  1
  Se  Se144  1  0.58071314  0.91543730  0.54387437  1
  Se  Se145  1  0.92705997  0.26156882  0.06327092  1
  Se  Se146  1  0.91457900  0.24950073  0.55317080  1
  Se  Se147  1  0.91030544  0.58160019  0.04817864  1
  Se  Se148  1  0.92755191  0.58529499  0.56131951  1
  Se  Se149  1  0.92432733  0.91650799  0.06303349  1
  Se  Se150  1  0.91991443  0.91713019  0.55050609  1
  Se  Se151  1  0.07988091  0.25782401  0.43924477  1
  Se  Se152  1  0.08851227  0.24896326  0.94741776  1
  Se  Se153  1  0.09040654  0.57545832  0.45259299  1
  Se  Se154  1  0.09767529  0.57839120  0.95246053  1
  Se  Se155  1  0.08594659  0.91866460  0.44496424  1
  Se  Se156  1  0.07866968  0.92056876  0.94393049  1
  Se  Se157  1  0.40799759  0.24955217  0.44191355  1
  Se  Se158  1  0.41593789  0.26407800  0.94044299  1
  Se  Se159  1  0.41803891  0.57811601  0.44123101  1
  Se  Se160  1  0.42001931  0.58702553  0.94612597  1
  Se  Se161  1  0.41851458  0.90781462  0.44820471  1
  Se  Se162  1  0.41054371  0.92547594  0.94849979  1
  Se  Se163  1  0.75308503  0.24968953  0.45520876  1
  Se  Se164  1  0.75002696  0.26036961  0.93870896  1
  Se  Se165  1  0.74456245  0.59732641  0.44352488  1
  Se  Se166  1  0.75057293  0.58754818  0.94217509  1
  Se  Se167  1  0.75579187  0.91501226  0.44324952  1
  Se  Se168  1  0.73937056  0.92483068  0.94306400  1
  Se  Se169  1  0.25063563  0.07461255  0.43799309  1
  Se  Se170  1  0.24903088  0.08571880  0.95685140  1
  Se  Se171  1  0.24969375  0.42048068  0.44113049  1
  Se  Se172  1  0.24892833  0.42196677  0.94522490  1
  Se  Se173  1  0.24980422  0.74514166  0.44921815  1
  Se  Se174  1  0.25511783  0.74703741  0.93741079  1
  Se  Se175  1  0.58668620  0.07406536  0.43329016  1
  Se  Se176  1  0.58982841  0.07676921  0.94664327  1
  Se  Se177  1  0.58050035  0.41468345  0.45040949  1
  Se  Se178  1  0.58302689  0.42662019  0.94634196  1
  Se  Se179  1  0.57513860  0.75111480  0.44733820  1
  Se  Se180  1  0.58244436  0.74518016  0.93804806  1
  Se  Se181  1  0.91427935  0.08803593  0.44497181  1
  Se  Se182  1  0.92561147  0.07709518  0.94403604  1
  Se  Se183  1  0.92316096  0.41399051  0.44137312  1
  Se  Se184  1  0.92001241  0.41982524  0.94538943  1
  Se  Se185  1  0.92035835  0.74682128  0.44770163  1
  Se  Se186  1  0.92593001  0.73931587  0.94026957  1
  Se  Se187  1  0.25663145  0.25775602  0.29987826  1
  Se  Se188  1  0.25044146  0.25651263  0.80677181  1
  Se  Se189  1  0.24811208  0.58100432  0.29968664  1
  Se  Se190  1  0.25685568  0.58517154  0.80359211  1
  Se  Se191  1  0.27535068  0.93207678  0.31077935  1
  Se  Se192  1  0.24129857  0.90536001  0.80641130  1
  Se  Se193  1  0.57810849  0.24630624  0.31174208  1
  Se  Se194  1  0.58811228  0.25858269  0.80171469  1
  Se  Se195  1  0.58083978  0.58315344  0.30187367  1
  Se  Se196  1  0.58773530  0.58599984  0.79944146  1
  Se  Se197  1  0.58044066  0.90538348  0.31086997  1
  Se  Se198  1  0.57180737  0.90416919  0.80596434  1
  Se  Se199  1  0.92114560  0.25769389  0.30642724  1
  Se  Se200  1  0.92070103  0.25311571  0.80007851  1
  Se  Se201  1  0.90812846  0.57590513  0.31319256  1
  Se  Se202  1  0.91885562  0.57877565  0.80539179  1
  Se  Se203  1  0.92837917  0.91838757  0.29964586  1
  Se  Se204  1  0.90763123  0.90023541  0.80217215  1
  Se  Se205  1  0.08928656  0.09063969  0.30275403  1
  Se  Se206  1  0.09049176  0.08542538  0.81346057  1
  Se  Se207  1  0.07930942  0.41610415  0.29996476  1
  Se  Se208  1  0.08366755  0.42181030  0.80700501  1
  Se  Se209  1  0.08884186  0.74716788  0.32042032  1
  Se  Se210  1  0.08220932  0.73895282  0.80070550  1
  Se  Se211  1  0.41716047  0.08385462  0.29959602  1
  Se  Se212  1  0.42005551  0.09805447  0.81390093  1
  Se  Se213  1  0.41229891  0.41211422  0.29886918  1
  Se  Se214  1  0.41437890  0.42085364  0.80369164  1
  Se  Se215  1  0.40889221  0.74203967  0.30607801  1
  Se  Se216  1  0.41376752  0.74936470  0.79625157  1
  Se  Se217  1  0.75862189  0.08730136  0.31072731  1
  Se  Se218  1  0.75858281  0.09171440  0.81334664  1
  Se  Se219  1  0.74948481  0.42563275  0.31810995  1
  Se  Se220  1  0.74722596  0.41694255  0.80326778  1
  Se  Se221  1  0.74749999  0.75418031  0.29978121  1
  Se  Se222  1  0.74478788  0.74417413  0.79695775  1
  Se  Se223  1  0.25385939  0.08569588  0.19726449  1
  Se  Se224  1  0.24240496  0.09296635  0.69508125  1
  Se  Se225  1  0.25268240  0.41658191  0.18977020  1
  Se  Se226  1  0.25571477  0.41699202  0.69706317  1
  Se  Se227  1  0.21266376  0.76602485  0.19611452  1
  Se  Se228  1  0.25667109  0.74309612  0.69355666  1
  Se  Se229  1  0.57953415  0.09114693  0.18847243  1
  Se  Se230  1  0.57368749  0.09087666  0.69670082  1
  Se  Se231  1  0.57610958  0.43284398  0.19189527  1
  Se  Se232  1  0.58455195  0.41867876  0.69738381  1
  Se  Se233  1  0.58055727  0.74254686  0.19807468  1
  Se  Se234  1  0.58716111  0.74433037  0.68541721  1
  Se  Se235  1  0.92498960  0.08126138  0.19912704  1
  Se  Se236  1  0.90522214  0.08710707  0.68949569  1
  Se  Se237  1  0.91642616  0.41606171  0.19863493  1
  Se  Se238  1  0.91811259  0.41327323  0.69677443  1
  Se  Se239  1  0.90915489  0.75450615  0.19326785  1
  Se  Se240  1  0.92324820  0.74258953  0.69517968  1
  Se  Se241  1  0.08606778  0.25605725  0.19551857  1
  Se  Se242  1  0.08124267  0.25620490  0.70087425  1
  Se  Se243  1  0.08226140  0.57431851  0.18883923  1
  Se  Se244  1  0.08849990  0.58038647  0.69643745  1
  Se  Se245  1  0.08843790  0.91790599  0.20851842  1
  Se  Se246  1  0.08878104  0.90700034  0.68991608  1
  Se  Se247  1  0.41895397  0.25543283  0.19659320  1
  Se  Se248  1  0.40904653  0.25875599  0.69958404  1
  Se  Se249  1  0.38862349  0.59996021  0.19010279  1
  Se  Se250  1  0.41586836  0.58443028  0.69312592  1
  Se  Se251  1  0.41465970  0.90827633  0.20240022  1
  Se  Se252  1  0.41998424  0.91042353  0.68465739  1
  Se  Se253  1  0.76111785  0.24472291  0.19653379  1
  Se  Se254  1  0.74390297  0.25193494  0.69606831  1
  Se  Se255  1  0.74860725  0.58191963  0.19676508  1
  Se  Se256  1  0.75183584  0.58185432  0.69573475  1
  Se  Se257  1  0.75878222  0.90915100  0.18959118  1
  Se  Se258  1  0.74429951  0.90506617  0.68335000  1
