# generated using pymatgen
data_In86Cu29Se144
_symmetry_space_group_name_H-M   'P 1'
_cell_length_a   17.58428401
_cell_length_b   17.58161999
_cell_length_c   23.44096974
_cell_angle_alpha   89.95367904
_cell_angle_beta   89.98726641
_cell_angle_gamma   89.98761868
_symmetry_Int_Tables_number   1
_chemical_formula_structural   In86Cu29Se144
_chemical_formula_sum   'In86 Cu29 Se144'
_cell_volume   7247.01216010
_cell_formula_units_Z   1
loop_
 _symmetry_equiv_pos_site_id
 _symmetry_equiv_pos_as_xyz
  1  'x, y, z'
loop_
 _atom_site_type_symbol
 _atom_site_label
 _atom_site_symmetry_multiplicity
 _atom_site_fract_x
 _atom_site_fract_y
 _atom_site_fract_z
 _atom_site_occupancy
  In  In0  1  -0.00205452  0.17429144  0.11832115  1
  In  In1  1  0.01255480  0.15964059  0.63758508  1
  In  In2  1  0.01758762  0.50489171  0.12025342  1
  In  In3  1  -0.00183507  0.48811051  0.62971884  1
  In  In4  1  -0.00613653  0.82590990  0.12321848  1
  In  In5  1  0.00731414  0.84531643  0.62061965  1
  In  In6  1  0.34620101  0.15915337  0.13439032  1
  In  In7  1  0.33169331  0.15307298  0.62479007  1
  In  In8  1  0.32865630  0.50020646  0.12482584  1
  In  In9  1  0.33326820  0.52176355  0.62322869  1
  In  In10  1  0.32806911  0.83862129  0.13889467  1
  In  In11  1  0.33965594  0.82349306  0.62749612  1
  In  In12  1  0.66584388  0.15040639  0.12148786  1
  In  In13  1  0.64750635  0.15512872  0.62377911  1
  In  In14  1  0.66535899  0.51997951  0.12250441  1
  In  In15  1  0.68116488  0.50569569  0.63096830  1
  In  In16  1  0.67385884  0.82447357  0.14058612  1
  In  In17  1  0.66591153  0.83313997  0.62548013  1
  In  In18  1  0.18458113  -0.00228791  0.37755871  1
  In  In19  1  0.15850316  -0.00628934  0.86414976  1
  In  In20  1  0.17469714  0.33054797  0.38433174  1
  In  In21  1  0.16982121  0.34569445  0.87352549  1
  In  In22  1  0.16337694  0.66840828  0.36917445  1
  In  In23  1  0.17003443  0.66142655  0.88397289  1
  In  In24  1  0.49739187  -0.00686290  0.38029574  1
  In  In25  1  0.49865443  0.00054651  0.85874708  1
  In  In26  1  0.48416455  0.33791539  0.37971620  1
  In  In27  1  0.50654891  0.33833384  0.87718559  1
  In  In28  1  0.51076591  0.69712424  0.34947020  1
  In  In29  1  0.49087851  0.66154248  0.87238563  1
  In  In30  1  0.81355702  -0.00969294  0.36970736  1
  In  In31  1  0.83445561  -0.00321224  0.87315006  1
  In  In32  1  0.83976116  0.33725212  0.37385028  1
  In  In33  1  0.82546556  0.31633529  0.87346616  1
  In  In34  1  0.84672855  0.69079341  0.35599030  1
  In  In35  1  0.83690458  0.68386758  0.87741125  1
  In  In36  1  0.00399029  0.17811797  0.38082394  1
  In  In37  1  -0.00867165  0.14891242  0.85919678  1
  In  In38  1  0.00520912  0.52669952  0.37964650  1
  In  In39  1  0.01227622  0.50896734  0.87464306  1
  In  In40  1  0.00018322  0.81554301  0.37566016  1
  In  In41  1  -0.00567840  0.83780682  0.88176475  1
  In  In42  1  0.33405716  0.16508942  0.38267680  1
  In  In43  1  0.33154746  0.15917306  0.86491605  1
  In  In44  1  0.33223376  0.49554297  0.37448955  1
  In  In45  1  0.32482756  0.50504499  0.88345588  1
  In  In46  1  0.34292189  0.85580903  0.35015834  1
  In  In47  1  0.32837193  0.82418678  0.87187321  1
  In  In48  1  0.66195292  0.14008804  0.37665070  1
  In  In49  1  0.67481618  0.16547828  0.87109283  1
  In  In50  1  0.65241652  0.51727876  0.37444340  1
  In  In51  1  0.65103499  0.49877950  0.87764150  1
  In  In52  1  0.66492452  0.83392958  0.37633192  1
  In  In53  1  0.67309094  0.84164968  0.86953765  1
  In  In54  1  0.18387587  -0.00071990  0.12725878  1
  In  In55  1  0.16362079  0.00832124  0.63389521  1
  In  In56  1  0.16874542  0.34289664  0.12265036  1
  In  In57  1  0.16000900  0.32429969  0.62146925  1
  In  In58  1  0.17145463  0.66982176  0.13045584  1
  In  In59  1  0.17857120  0.67533215  0.61769799  1
  In  In60  1  0.50723247  -0.01543447  0.14349985  1
  In  In61  1  0.50169005  -0.00587103  0.62810562  1
  In  In62  1  0.48176723  0.33377162  0.12785531  1
  In  In63  1  0.50708818  0.32275816  0.62022639  1
  In  In64  1  0.50324662  0.66736370  0.13245661  1
  In  In65  1  0.49788640  0.67568173  0.62715483  1
  In  In66  1  0.82433337  -0.01693963  0.11393763  1
  In  In67  1  0.84235246  -0.01126112  0.62747662  1
  In  In68  1  0.84567157  0.32890201  0.11719803  1
  In  In69  1  0.85032528  0.33925994  0.63225164  1
  In  In70  1  0.82723849  0.68737058  0.13787966  1
  In  In71  1  0.81859800  0.66292578  0.62414519  1
  In  In72  1  0.33085605  0.33041099  0.74275226  1
  In  In73  1  0.49958847  0.16539185  -0.00483436  1
  In  In74  1  0.83623416  0.50444868  0.50164101  1
  In  In75  1  0.66527841  0.33435905  0.25481392  1
  In  In76  1  0.00184004  -0.00417343  0.25029991  1
  In  In77  1  0.16920028  0.83222326  0.49503908  1
  In  In78  1  0.50114020  0.83266277  0.00754359  1
  In  In79  1  0.66733922  0.32960504  0.74772292  1
  In  In80  1  0.16581821  0.16543182  -0.00580192  1
  In  In81  1  0.00385410  0.33899726  0.24434457  1
  In  In82  1  0.83430965  0.50504787  -0.00094161  1
  In  In83  1  -0.00388699  0.66828104  0.75047658  1
  In  In84  1  0.49341192  0.50501452  0.49596444  1
  In  In85  1  0.83490151  0.15972154  0.50336329  1
  Cu  Cu86  1  0.01438724  0.33450777  0.50496910  1
  Cu  Cu87  1  0.32963672  0.33021841  0.50319249  1
  Cu  Cu88  1  0.33573285  -0.00308572  0.50096898  1
  Cu  Cu89  1  0.66216064  0.67415599  0.49743396  1
  Cu  Cu90  1  0.83314986  0.83756334  0.75115012  1
  Cu  Cu91  1  0.83290840  0.51240053  0.24880398  1
  Cu  Cu92  1  0.32777171  0.33757781  0.00225106  1
  Cu  Cu93  1  0.16950099  0.83268475  0.74864035  1
  Cu  Cu94  1  0.17105722  0.50791964  0.75373449  1
  Cu  Cu95  1  0.17754173  0.16732482  0.25684659  1
  Cu  Cu96  1  0.83017216  0.15917826  0.24401047  1
  Cu  Cu97  1  0.49557353  0.49846576  0.25031696  1
  Cu  Cu98  1  0.50380884  0.82921528  0.74773935  1
  Cu  Cu99  1  0.32717160  0.66289726  0.00175900  1
  Cu  Cu100  1  0.65824879  -0.01398086  0.49988574  1
  Cu  Cu101  1  0.49564000  0.50607558  0.75066015  1
  Cu  Cu102  1  0.33707520  0.67037734  0.49151184  1
  Cu  Cu103  1  -0.00041851  0.00277938  0.50371131  1
  Cu  Cu104  1  0.67039829  0.32292491  0.50138442  1
  Cu  Cu105  1  0.83095666  0.15931776  0.74795178  1
  Cu  Cu106  1  0.49660524  0.16299702  0.25678929  1
  Cu  Cu107  1  -0.00376772  0.32738086  -0.00615289  1
  Cu  Cu108  1  0.00224913  -0.00286075  -0.00858267  1
  Cu  Cu109  1  0.00460646  0.66972223  0.00522099  1
  Cu  Cu110  1  0.66229596  0.33478759  -0.00239218  1
  Cu  Cu111  1  0.67805379  -0.00410716  -0.00255412  1
  Cu  Cu112  1  0.33830309  -0.00795271  0.00261432  1
  Cu  Cu113  1  0.66331246  0.67595667  0.00676095  1
  Cu  Cu114  1  0.16761486  0.49696214  0.24902375  1
  Se  Se115  1  0.08009151  0.07365294  0.05795538  1
  Se  Se116  1  0.08268275  0.08353587  0.55801903  1
  Se  Se117  1  0.07871041  0.40798557  0.04973417  1
  Se  Se118  1  0.09025930  0.42465649  0.55683120  1
  Se  Se119  1  0.08941189  0.75125959  0.05889145  1
  Se  Se120  1  0.07509314  0.74371324  0.55368983  1
  Se  Se121  1  0.42234313  0.06987460  0.06103954  1
  Se  Se122  1  0.41981306  0.07724373  0.55630476  1
  Se  Se123  1  0.41425569  0.41878073  0.05386092  1
  Se  Se124  1  0.41040280  0.41329927  0.56226998  1
  Se  Se125  1  0.40501451  0.74503362  0.06212191  1
  Se  Se126  1  0.41817827  0.74871934  0.55115678  1
  Se  Se127  1  0.75652719  0.08519814  0.04966240  1
  Se  Se128  1  0.74084430  0.06943578  0.55860421  1
  Se  Se129  1  0.74260712  0.41324474  0.06031611  1
  Se  Se130  1  0.74755959  0.40505708  0.55953935  1
  Se  Se131  1  0.74876471  0.75646416  0.05903395  1
  Se  Se132  1  0.74827722  0.75121528  0.55334345  1
  Se  Se133  1  0.25886030  0.24605715  0.06147889  1
  Se  Se134  1  0.25219381  0.24490708  0.55905279  1
  Se  Se135  1  0.24284446  0.58072059  0.05666090  1
  Se  Se136  1  0.25305207  0.58935014  0.54530230  1
  Se  Se137  1  0.25555296  0.91066139  0.05677014  1
  Se  Se138  1  0.25171874  0.92002147  0.56303816  1
  Se  Se139  1  0.58445221  0.25520548  0.06178217  1
  Se  Se140  1  0.58130109  0.24052917  0.54744745  1
  Se  Se141  1  0.57604367  0.59056914  0.05286676  1
  Se  Se142  1  0.59126710  0.58464765  0.55840822  1
  Se  Se143  1  0.59458332  0.92404008  0.06172700  1
  Se  Se144  1  0.57475318  0.90596531  0.55569405  1
  Se  Se145  1  0.91249887  0.24216577  0.04336880  1
  Se  Se146  1  0.92567928  0.25340564  0.55886045  1
  Se  Se147  1  0.91758047  0.59280654  0.06470524  1
  Se  Se148  1  0.92550648  0.59017986  0.56360786  1
  Se  Se149  1  0.92293399  0.91438791  0.05004320  1
  Se  Se150  1  0.91589764  0.91382324  0.54932260  1
  Se  Se151  1  0.09181605  0.24526603  0.45273317  1
  Se  Se152  1  0.07617778  0.25032854  0.93130100  1
  Se  Se153  1  0.09599365  0.58995551  0.44925810  1
  Se  Se154  1  0.08389763  0.58169484  0.95344468  1
  Se  Se155  1  0.07585042  0.92508406  0.43777396  1
  Se  Se156  1  0.09165831  0.91514493  0.94371281  1
  Se  Se157  1  0.41755031  0.24963690  0.45210366  1
  Se  Se158  1  0.40337011  0.25676977  0.93860311  1
  Se  Se159  1  0.42195578  0.59823674  0.42822376  1
  Se  Se160  1  0.41594172  0.58383387  0.94861721  1
  Se  Se161  1  0.40627253  0.90808708  0.44241633  1
  Se  Se162  1  0.41959601  0.91981675  0.93801584  1
  Se  Se163  1  0.74871505  0.24927547  0.43606742  1
  Se  Se164  1  0.74318694  0.24625736  0.94882759  1
  Se  Se165  1  0.74597828  0.59237892  0.44053560  1
  Se  Se166  1  0.74018998  0.59455829  0.94208820  1
  Se  Se167  1  0.75077660  0.91046546  0.44939346  1
  Se  Se168  1  0.75766783  0.90963846  0.94474581  1
  Se  Se169  1  0.24930085  0.08336812  0.45302941  1
  Se  Se170  1  0.25916402  0.07157621  0.94092018  1
  Se  Se171  1  0.25334100  0.42038446  0.45072533  1
  Se  Se172  1  0.24216033  0.42068378  0.95159703  1
  Se  Se173  1  0.26216374  0.75467495  0.43066263  1
  Se  Se174  1  0.24934600  0.75264130  0.94906608  1
  Se  Se175  1  0.57748816  0.07783478  0.45291099  1
  Se  Se176  1  0.58955574  0.07079601  0.93884660  1
  Se  Se177  1  0.59262830  0.41058547  0.44320731  1
  Se  Se178  1  0.57520982  0.42067725  0.95303204  1
  Se  Se179  1  0.57410496  0.75002611  0.44168066  1
  Se  Se180  1  0.58610221  0.74930885  0.93883934  1
  Se  Se181  1  0.91913930  0.07397179  0.43526534  1
  Se  Se182  1  0.91812320  0.08249026  0.94133665  1
  Se  Se183  1  0.93126809  0.41119735  0.44289372  1
  Se  Se184  1  0.91762554  0.41237666  0.93569788  1
  Se  Se185  1  0.91372989  0.74248947  0.44512901  1
  Se  Se186  1  0.91850403  0.75187215  0.95325587  1
  Se  Se187  1  0.25503965  0.25254556  0.31200380  1
  Se  Se188  1  0.23764163  0.24672383  0.80501766  1
  Se  Se189  1  0.24764510  0.57709675  0.30674991  1
  Se  Se190  1  0.25302875  0.58863571  0.80893614  1
  Se  Se191  1  0.22864661  0.91322111  0.29576575  1
  Se  Se192  1  0.25391781  0.91424517  0.80309357  1
  Se  Se193  1  0.57783051  0.24427719  0.31678075  1
  Se  Se194  1  0.57307596  0.24199374  0.80719436  1
  Se  Se195  1  0.58130712  0.58752109  0.29465265  1
  Se  Se196  1  0.58246836  0.58504146  0.80443594  1
  Se  Se197  1  0.59019827  0.92714146  0.31065535  1
  Se  Se198  1  0.58731718  0.91531304  0.79815586  1
  Se  Se199  1  0.91032430  0.24215128  0.30170690  1
  Se  Se200  1  0.91085440  0.24725421  0.80036777  1
  Se  Se201  1  0.92382125  0.58795355  0.30011441  1
  Se  Se202  1  0.90791917  0.58029349  0.81341993  1
  Se  Se203  1  0.91053148  0.90839153  0.30948785  1
  Se  Se204  1  0.92161634  0.91583517  0.80470664  1
  Se  Se205  1  0.08723842  0.09253355  0.31193519  1
  Se  Se206  1  0.09368915  0.08833644  0.79598914  1
  Se  Se207  1  0.08655542  0.42034060  0.31412496  1
  Se  Se208  1  0.08523655  0.42330357  0.80262015  1
  Se  Se209  1  0.08767274  0.75656353  0.30051586  1
  Se  Se210  1  0.08879393  0.75380956  0.81176102  1
  Se  Se211  1  0.41440047  0.08183943  0.31281558  1
  Se  Se212  1  0.41290590  0.08282126  0.79568813  1
  Se  Se213  1  0.41386243  0.41388757  0.30227854  1
  Se  Se214  1  0.41734007  0.42128840  0.80853775  1
  Se  Se215  1  0.38573225  0.73328773  0.29646081  1
  Se  Se216  1  0.41728777  0.74950279  0.80259759  1
  Se  Se217  1  0.74514201  0.07999548  0.29757591  1
  Se  Se218  1  0.74862182  0.07723451  0.80277291  1
  Se  Se219  1  0.75659016  0.43208057  0.31101324  1
  Se  Se220  1  0.74881478  0.42001460  0.81284811  1
  Se  Se221  1  0.72749897  0.73727477  0.30522453  1
  Se  Se222  1  0.75155990  0.75087293  0.80267676  1
  Se  Se223  1  0.25563686  0.08268989  0.20085734  1
  Se  Se224  1  0.24759064  0.08900759  0.70124581  1
  Se  Se225  1  0.25108131  0.41237390  0.19683494  1
  Se  Se226  1  0.24570812  0.42950285  0.68709437  1
  Se  Se227  1  0.26975767  0.73088528  0.20153373  1
  Se  Se228  1  0.25119745  0.74613433  0.69714015  1
  Se  Se229  1  0.58324371  0.08807984  0.19937234  1
  Se  Se230  1  0.58233515  0.07553452  0.69987823  1
  Se  Se231  1  0.58069124  0.42178210  0.18885138  1
  Se  Se232  1  0.57391472  0.42454809  0.68947619  1
  Se  Se233  1  0.55553932  0.77742502  0.19387261  1
  Se  Se234  1  0.58956588  0.74516333  0.69657636  1
  Se  Se235  1  0.91528237  0.08521969  0.18482865  1
  Se  Se236  1  0.91784651  0.07725072  0.69626191  1
  Se  Se237  1  0.90872096  0.43017371  0.18722692  1
  Se  Se238  1  0.90560517  0.43273746  0.70418548  1
  Se  Se239  1  0.92510281  0.75154796  0.20311119  1
  Se  Se240  1  0.91210997  0.75968746  0.68725719  1
  Se  Se241  1  0.09571603  0.23976763  0.19148766  1
  Se  Se242  1  0.06603933  0.27172947  0.69603824  1
  Se  Se243  1  0.08515248  0.58290134  0.19767112  1
  Se  Se244  1  0.09248172  0.58557213  0.68907790  1
  Se  Se245  1  0.09065456  0.91188445  0.18693088  1
  Se  Se246  1  0.08301553  0.91596892  0.69819414  1
  Se  Se247  1  0.41637743  0.25048484  0.20443913  1
  Se  Se248  1  0.42746828  0.24048778  0.69146256  1
  Se  Se249  1  0.41518993  0.57949549  0.19325338  1
  Se  Se250  1  0.41553460  0.59205251  0.69723773  1
  Se  Se251  1  0.40095866  0.93055152  0.20553594  1
  Se  Se252  1  0.41595122  0.91084268  0.69600263  1
  Se  Se253  1  0.75452214  0.24927699  0.18793607  1
  Se  Se254  1  0.75552929  0.23959879  0.68386631  1
  Se  Se255  1  0.74460489  0.59145375  0.19730266  1
  Se  Se256  1  0.75438317  0.58480036  0.70341038  1
  Se  Se257  1  0.75573948  0.92051276  0.19775242  1
  Se  Se258  1  0.74876489  0.91758109  0.69475733  1
