# generated using pymatgen
data_In86Cu29Se144
_symmetry_space_group_name_H-M   'P 1'
_cell_length_a   17.57983571
_cell_length_b   17.57548937
_cell_length_c   23.43783920
_cell_angle_alpha   89.99588939
_cell_angle_beta   90.01426739
_cell_angle_gamma   89.99132779
_symmetry_Int_Tables_number   1
_chemical_formula_structural   In86Cu29Se144
_chemical_formula_sum   'In86 Cu29 Se144'
_cell_volume   7241.68765644
_cell_formula_units_Z   1
loop_
 _symmetry_equiv_pos_site_id
 _symmetry_equiv_pos_as_xyz
  1  'x, y, z'
loop_
 _atom_site_type_symbol
 _atom_site_label
 _atom_site_symmetry_multiplicity
 _atom_site_fract_x
 _atom_site_fract_y
 _atom_site_fract_z
 _atom_site_occupancy
  In  In0  1  -0.00538980  0.17529168  0.11972387  1
  In  In1  1  0.00205167  0.15562265  0.62756430  1
  In  In2  1  0.02056829  0.52129641  0.10978774  1
  In  In3  1  0.01163032  0.51532147  0.61125116  1
  In  In4  1  -0.00612292  0.81780052  0.11914620  1
  In  In5  1  -0.00088908  0.82243669  0.63998644  1
  In  In6  1  0.32829459  0.14778959  0.12451618  1
  In  In7  1  0.33115426  0.16204394  0.62023029  1
  In  In8  1  0.32347002  0.51706413  0.12932923  1
  In  In9  1  0.33469236  0.50226517  0.62605481  1
  In  In10  1  0.33473592  0.82961922  0.11329635  1
  In  In11  1  0.32744662  0.83290528  0.63866193  1
  In  In12  1  0.63343712  0.12347640  0.08271723  1
  In  In13  1  0.66341027  0.16692626  0.63191681  1
  In  In14  1  0.67193802  0.48963132  0.12063530  1
  In  In15  1  0.65975409  0.49048316  0.62252648  1
  In  In16  1  0.67057471  0.84274225  0.11011831  1
  In  In17  1  0.67954530  0.84039466  0.63389005  1
  In  In18  1  0.18119196  -0.00951741  0.37683560  1
  In  In19  1  0.15647303  -0.01517565  0.86784756  1
  In  In20  1  0.16512940  0.33578578  0.38574880  1
  In  In21  1  0.17430538  0.35218002  0.87801709  1
  In  In22  1  0.15686613  0.64940795  0.35517497  1
  In  In23  1  0.16867616  0.66949009  0.87519678  1
  In  In24  1  0.50623062  0.00443320  0.36970916  1
  In  In25  1  0.50207840  0.00521357  0.87803010  1
  In  In26  1  0.49934531  0.33195293  0.38242848  1
  In  In27  1  0.49323706  0.31165534  0.87796426  1
  In  In28  1  0.48733772  0.67149777  0.37675774  1
  In  In29  1  0.49800243  0.68131898  0.87916883  1
  In  In30  1  0.82546532  0.00955789  0.36859148  1
  In  In31  1  0.83354890  -0.00226086  0.88479834  1
  In  In32  1  0.84379421  0.33791261  0.37558354  1
  In  In33  1  0.82612169  0.34232237  0.87381370  1
  In  In34  1  0.84123068  0.65342818  0.37595279  1
  In  In35  1  0.83885072  0.66179481  0.88169266  1
  In  In36  1  -0.00435086  0.17772799  0.37775211  1
  In  In37  1  0.00283773  0.14448387  0.87238653  1
  In  In38  1  0.00414626  0.50689002  0.38146463  1
  In  In39  1  -0.00223860  0.51408066  0.87057400  1
  In  In40  1  0.01385503  0.82130274  0.37501349  1
  In  In41  1  -0.00090195  0.83321106  0.87798630  1
  In  In42  1  0.34401517  0.15992626  0.37962019  1
  In  In43  1  0.35221876  0.17172659  0.87959678  1
  In  In44  1  0.32350349  0.51328292  0.38546347  1
  In  In45  1  0.31827076  0.50843655  0.88351116  1
  In  In46  1  0.32731340  0.82616520  0.36422116  1
  In  In47  1  0.32838564  0.82985087  0.87439214  1
  In  In48  1  0.66651859  0.14955269  0.37041255  1
  In  In49  1  0.66560771  0.16379372  0.87816175  1
  In  In50  1  0.67014642  0.49316417  0.38287209  1
  In  In51  1  0.67905499  0.50145230  0.87072926  1
  In  In52  1  0.65644515  0.84006904  0.36900847  1
  In  In53  1  0.66085073  0.85222211  0.89021572  1
  In  In54  1  0.18594981  -0.00231678  0.12380736  1
  In  In55  1  0.16306841  0.00193693  0.63231248  1
  In  In56  1  0.15643241  0.34282050  0.12402095  1
  In  In57  1  0.17376821  0.33873209  0.61956835  1
  In  In58  1  0.16753389  0.66237585  0.12001901  1
  In  In59  1  0.16545430  0.66079578  0.63513254  1
  In  In60  1  0.49245670  -0.00736200  0.11499804  1
  In  In61  1  0.49081229  0.00526719  0.63210199  1
  In  In62  1  0.51300103  0.32861281  0.12408200  1
  In  In63  1  0.50452868  0.33397195  0.62345581  1
  In  In64  1  0.48093654  0.67249936  0.11918261  1
  In  In65  1  0.49724544  0.65237302  0.62863430  1
  In  In66  1  0.81624165  -0.01373114  0.10606396  1
  In  In67  1  0.83346009  -0.01142017  0.64480526  1
  In  In68  1  0.83173588  0.32995285  0.11578539  1
  In  In69  1  0.81893291  0.33376042  0.63009049  1
  In  In70  1  0.84434366  0.67465430  0.11812588  1
  In  In71  1  0.86549018  0.65740961  0.63904705  1
  In  In72  1  0.67115761  0.32606423  0.24903222  1
  In  In73  1  0.66540812  0.67392116  0.24671826  1
  In  In74  1  -0.00147782  0.33509317  0.75343490  1
  In  In75  1  0.16986517  0.82850612  0.50960598  1
  In  In76  1  0.66677453  0.67709542  0.75660316  1
  In  In77  1  0.49545310  0.49692136  0.00242358  1
  In  In78  1  0.33744476  0.33693301  0.75022516  1
  In  In79  1  0.16721884  0.17037914  -0.00227356  1
  In  In80  1  -0.00278905  0.33626090  0.25250284  1
  In  In81  1  0.82803177  0.17169969  0.50310888  1
  In  In82  1  -0.00067046  -0.00485839  0.24918389  1
  In  In83  1  0.33233158  0.33751888  0.24545582  1
  In  In84  1  0.83349549  0.82714543  0.50698475  1
  In  In85  1  0.50091707  0.83188123  0.49779123  1
  Cu  Cu86  1  0.16500016  0.82720720  0.75744636  1
  Cu  Cu87  1  0.33165017  -0.00293140  -0.00684991  1
  Cu  Cu88  1  0.00269871  0.33683474  0.50038833  1
  Cu  Cu89  1  0.33193224  0.66292265  0.50293734  1
  Cu  Cu90  1  0.83270253  0.50131873  0.74969140  1
  Cu  Cu91  1  0.49754547  0.49607999  0.74829102  1
  Cu  Cu92  1  0.17607204  0.16467602  0.74992015  1
  Cu  Cu93  1  0.33975263  0.00821447  0.49839672  1
  Cu  Cu94  1  0.17452953  0.82915450  0.24120388  1
  Cu  Cu95  1  0.50944408  0.15848517  0.75408083  1
  Cu  Cu96  1  0.67076503  0.33430603  -0.00528191  1
  Cu  Cu97  1  0.82790279  0.15928439  0.75442173  1
  Cu  Cu98  1  0.66855426  0.66627421  -0.00361509  1
  Cu  Cu99  1  0.81841409  0.15734720  0.23679965  1
  Cu  Cu100  1  0.00377273  0.00413933  0.50941651  1
  Cu  Cu101  1  0.49574825  0.84250124  0.24239374  1
  Cu  Cu102  1  0.49397917  0.50857036  0.25466235  1
  Cu  Cu103  1  0.83231520  0.83528893  0.24055558  1
  Cu  Cu104  1  0.49991251  0.15236997  0.24350265  1
  Cu  Cu105  1  0.66391909  0.00338284  0.50037395  1
  Cu  Cu106  1  0.33569650  0.33349263  0.50297086  1
  Cu  Cu107  1  0.00351700  0.66539848  -0.00368663  1
  Cu  Cu108  1  0.84676316  0.50571628  0.24526566  1
  Cu  Cu109  1  0.17114960  0.16234310  0.25563351  1
  Cu  Cu110  1  -0.00375696  0.34012150  -0.00867257  1
  Cu  Cu111  1  0.49661486  0.83687548  0.75900026  1
  Cu  Cu112  1  0.66206914  0.33138359  0.50438057  1
  Cu  Cu113  1  0.00252581  -0.00528634  -0.00176173  1
  Cu  Cu114  1  0.67185120  0.65591561  0.50568802  1
  Se  Se115  1  0.08104657  0.07639359  0.06062376  1
  Se  Se116  1  0.09215253  0.08629503  0.55640163  1
  Se  Se117  1  0.08405936  0.41698282  0.04604881  1
  Se  Se118  1  0.08941703  0.41935008  0.55109810  1
  Se  Se119  1  0.08631200  0.74871359  0.05065200  1
  Se  Se120  1  0.07252571  0.74169344  0.56238132  1
  Se  Se121  1  0.41089396  0.08324234  0.04756295  1
  Se  Se122  1  0.42497810  0.08642830  0.55345185  1
  Se  Se123  1  0.41155736  0.41422694  0.07142748  1
  Se  Se124  1  0.41680241  0.41672330  0.55896747  1
  Se  Se125  1  0.42828347  0.76191787  0.04313783  1
  Se  Se126  1  0.40957765  0.74777634  0.56214528  1
  Se  Se127  1  0.77302136  0.10697057  0.05354499  1
  Se  Se128  1  0.75127418  0.07182665  0.56368065  1
  Se  Se129  1  0.75379735  0.41861151  0.04688861  1
  Se  Se130  1  0.74975395  0.41428251  0.55319140  1
  Se  Se131  1  0.75315317  0.74872416  0.05055828  1
  Se  Se132  1  0.74501309  0.73751820  0.56795195  1
  Se  Se133  1  0.25175570  0.25413590  0.06574965  1
  Se  Se134  1  0.25037478  0.24864311  0.55340728  1
  Se  Se135  1  0.24470270  0.57619596  0.04940084  1
  Se  Se136  1  0.24758597  0.58605050  0.56060117  1
  Se  Se137  1  0.24753690  0.91482515  0.04615242  1
  Se  Se138  1  0.26341160  0.92564312  0.56018937  1
  Se  Se139  1  0.58140916  0.25414172  0.04503507  1
  Se  Se140  1  0.58459936  0.24340831  0.55722142  1
  Se  Se141  1  0.58925816  0.58943159  0.06144817  1
  Se  Se142  1  0.57951309  0.57914240  0.55541133  1
  Se  Se143  1  0.59351093  0.93410218  0.04568807  1
  Se  Se144  1  0.58941889  0.91887128  0.56092729  1
  Se  Se145  1  0.91920872  0.25316984  0.04578262  1
  Se  Se146  1  0.92294976  0.25773284  0.56311765  1
  Se  Se147  1  0.91422195  0.58236563  0.04824520  1
  Se  Se148  1  0.90278649  0.57779034  0.55315359  1
  Se  Se149  1  0.91964553  0.91041892  0.05186410  1
  Se  Se150  1  0.92308337  0.92170206  0.56541543  1
  Se  Se151  1  0.08173942  0.24681555  0.44978853  1
  Se  Se152  1  0.07682749  0.25662884  0.93246086  1
  Se  Se153  1  0.09268949  0.59172584  0.44273948  1
  Se  Se154  1  0.08652616  0.58106171  0.94379400  1
  Se  Se155  1  0.07834613  0.92163486  0.44670123  1
  Se  Se156  1  0.08829890  0.91145978  0.94867006  1
  Se  Se157  1  0.41785298  0.24814723  0.44961104  1
  Se  Se158  1  0.40221767  0.26391159  0.95611407  1
  Se  Se159  1  0.42174744  0.58439372  0.45096339  1
  Se  Se160  1  0.41117151  0.59502734  0.94689731  1
  Se  Se161  1  0.40941386  0.91927337  0.43660223  1
  Se  Se162  1  0.41618669  0.91524051  0.93992118  1
  Se  Se163  1  0.73943365  0.25719213  0.43513145  1
  Se  Se164  1  0.75390569  0.25085253  0.94191541  1
  Se  Se165  1  0.75457541  0.57984179  0.44644229  1
  Se  Se166  1  0.75054300  0.57876727  0.94744190  1
  Se  Se167  1  0.74506404  0.92123265  0.44204531  1
  Se  Se168  1  0.74748952  0.92796671  0.95919518  1
  Se  Se169  1  0.24884247  0.08388145  0.44509032  1
  Se  Se170  1  0.24965670  0.07859958  0.93383085  1
  Se  Se171  1  0.25136927  0.41828267  0.45083962  1
  Se  Se172  1  0.26275374  0.40853590  0.95326152  1
  Se  Se173  1  0.25470516  0.74446394  0.44167232  1
  Se  Se174  1  0.23603116  0.76328195  0.94487542  1
  Se  Se175  1  0.58100402  0.08459398  0.44607513  1
  Se  Se176  1  0.57304601  0.09592874  0.94888373  1
  Se  Se177  1  0.58123207  0.41682335  0.44945366  1
  Se  Se178  1  0.58659643  0.41420503  0.93604551  1
  Se  Se179  1  0.59747021  0.73931040  0.44262632  1
  Se  Se180  1  0.58313562  0.75332761  0.95065435  1
  Se  Se181  1  0.91972799  0.07546740  0.44466049  1
  Se  Se182  1  0.92094662  0.08515963  0.95177959  1
  Se  Se183  1  0.91897683  0.41905911  0.44650240  1
  Se  Se184  1  0.91625368  0.42454505  0.93659291  1
  Se  Se185  1  0.92612806  0.74221199  0.44541940  1
  Se  Se186  1  0.91617468  0.75101158  0.94886731  1
  Se  Se187  1  0.24748119  0.24865976  0.31268542  1
  Se  Se188  1  0.24682045  0.24722854  0.81295687  1
  Se  Se189  1  0.27140292  0.59325053  0.30255010  1
  Se  Se190  1  0.24875034  0.58293786  0.80613282  1
  Se  Se191  1  0.25020566  0.91635911  0.29730895  1
  Se  Se192  1  0.25274451  0.91571260  0.80109949  1
  Se  Se193  1  0.57248488  0.23894450  0.30590855  1
  Se  Se194  1  0.58570429  0.24922967  0.80583460  1
  Se  Se195  1  0.58338637  0.58106184  0.31256657  1
  Se  Se196  1  0.57460682  0.57979540  0.81095680  1
  Se  Se197  1  0.58317987  0.92125834  0.29643027  1
  Se  Se198  1  0.58300495  0.91823681  0.80918003  1
  Se  Se199  1  0.89847616  0.23578483  0.30021529  1
  Se  Se200  1  0.91200580  0.24021822  0.81182245  1
  Se  Se201  1  0.92746471  0.58388204  0.30318692  1
  Se  Se202  1  0.91150410  0.59066781  0.79996287  1
  Se  Se203  1  0.90984680  0.90536400  0.31271031  1
  Se  Se204  1  0.93409108  0.93797934  0.81659153  1
  Se  Se205  1  0.08422405  0.08683389  0.31419020  1
  Se  Se206  1  0.08835653  0.07944042  0.79733844  1
  Se  Se207  1  0.09159255  0.42154736  0.31015644  1
  Se  Se208  1  0.09183688  0.42943003  0.80392552  1
  Se  Se209  1  0.08526298  0.75172174  0.29468856  1
  Se  Se210  1  0.07610251  0.74629438  0.80686181  1
  Se  Se211  1  0.41333180  0.07867722  0.30245898  1
  Se  Se212  1  0.41649870  0.08371458  0.80534703  1
  Se  Se213  1  0.41961154  0.42151806  0.31271222  1
  Se  Se214  1  0.42252719  0.42246303  0.81721931  1
  Se  Se215  1  0.42263990  0.75301115  0.29897263  1
  Se  Se216  1  0.41325449  0.74719624  0.80382852  1
  Se  Se217  1  0.73958488  0.07351213  0.29275937  1
  Se  Se218  1  0.74934326  0.07776376  0.81221698  1
  Se  Se219  1  0.76258404  0.42533641  0.30348208  1
  Se  Se220  1  0.74710362  0.41506372  0.79634673  1
  Se  Se221  1  0.75919624  0.75686288  0.31097858  1
  Se  Se222  1  0.74952261  0.75959831  0.82424342  1
  Se  Se223  1  0.25221155  0.07764086  0.20323175  1
  Se  Se224  1  0.25739313  0.08122705  0.69518842  1
  Se  Se225  1  0.23427124  0.42845045  0.19684554  1
  Se  Se226  1  0.24012422  0.42554138  0.69675796  1
  Se  Se227  1  0.25547819  0.74782871  0.18555571  1
  Se  Se228  1  0.24892591  0.74368416  0.70304559  1
  Se  Se229  1  0.58111606  0.07891785  0.18151572  1
  Se  Se230  1  0.58853694  0.07416203  0.69797340  1
  Se  Se231  1  0.57730312  0.42693115  0.19810253  1
  Se  Se232  1  0.58275663  0.41279429  0.69799645  1
  Se  Se233  1  0.57780294  0.76049128  0.18316265  1
  Se  Se234  1  0.57204548  0.75885905  0.69102330  1
  Se  Se235  1  0.91282387  0.08258252  0.18523138  1
  Se  Se236  1  0.91829551  0.08446834  0.70055864  1
  Se  Se237  1  0.91662750  0.42044528  0.18287384  1
  Se  Se238  1  0.91369989  0.42229434  0.68807821  1
  Se  Se239  1  0.91770441  0.74632735  0.19817964  1
  Se  Se240  1  0.88234633  0.77795055  0.69822305  1
  Se  Se241  1  0.09044159  0.24024283  0.19564681  1
  Se  Se242  1  0.09327485  0.24657483  0.69197384  1
  Se  Se243  1  0.08295024  0.58742964  0.19369829  1
  Se  Se244  1  0.06087274  0.59395830  0.69545046  1
  Se  Se245  1  0.08858976  0.91055256  0.18492331  1
  Se  Se246  1  0.08675099  0.91138114  0.69860343  1
  Se  Se247  1  0.42217373  0.24054944  0.18908354  1
  Se  Se248  1  0.42540361  0.23971665  0.69407816  1
  Se  Se249  1  0.41582769  0.58998670  0.19739643  1
  Se  Se250  1  0.41175788  0.58223817  0.70139598  1
  Se  Se251  1  0.40801014  0.91791475  0.18724875  1
  Se  Se252  1  0.41447560  0.91824483  0.70105642  1
  Se  Se253  1  0.74311878  0.24014053  0.17744752  1
  Se  Se254  1  0.74835947  0.24660820  0.70123243  1
  Se  Se255  1  0.75523958  0.57918698  0.18918189  1
  Se  Se256  1  0.74737976  0.58236300  0.69091585  1
  Se  Se257  1  0.74760596  0.91608458  0.18931646  1
  Se  Se258  1  0.74110556  0.91996820  0.71225901  1
