# generated using pymatgen
data_In86Cu29Se144
_symmetry_space_group_name_H-M   'P 1'
_cell_length_a   17.56736263
_cell_length_b   17.56924457
_cell_length_c   23.42100979
_cell_angle_alpha   89.97683044
_cell_angle_beta   89.99638989
_cell_angle_gamma   89.98676321
_symmetry_Int_Tables_number   1
_chemical_formula_structural   In86Cu29Se144
_chemical_formula_sum   'In86 Cu29 Se144'
_cell_volume   7228.78357235
_cell_formula_units_Z   1
loop_
 _symmetry_equiv_pos_site_id
 _symmetry_equiv_pos_as_xyz
  1  'x, y, z'
loop_
 _atom_site_type_symbol
 _atom_site_label
 _atom_site_symmetry_multiplicity
 _atom_site_fract_x
 _atom_site_fract_y
 _atom_site_fract_z
 _atom_site_occupancy
  In  In0  1  0.02450959  0.16186781  0.11687140  1
  In  In1  1  -0.01159485  0.15797403  0.61800582  1
  In  In2  1  -0.01086175  0.47910446  0.10666293  1
  In  In3  1  0.01957323  0.50203426  0.62726862  1
  In  In4  1  -0.00808623  0.84862753  0.11952025  1
  In  In5  1  -0.00137165  0.83412903  0.63568741  1
  In  In6  1  0.32831720  0.18019320  0.13362312  1
  In  In7  1  0.33624570  0.17230367  0.62994139  1
  In  In8  1  0.31242309  0.47938612  0.10580686  1
  In  In9  1  0.32997888  0.50206593  0.64136066  1
  In  In10  1  0.34085454  0.83862433  0.12738740  1
  In  In11  1  0.33542454  0.83396455  0.61967114  1
  In  In12  1  0.67913813  0.17068292  0.12382081  1
  In  In13  1  0.66475058  0.16070274  0.63703665  1
  In  In14  1  0.66987923  0.50483526  0.10595859  1
  In  In15  1  0.64670966  0.49446874  0.63494922  1
  In  In16  1  0.66595695  0.82646028  0.11918024  1
  In  In17  1  0.67545277  0.84938880  0.62368955  1
  In  In18  1  0.17424423  -0.00458075  0.38812829  1
  In  In19  1  0.17342632  0.00587480  0.86489370  1
  In  In20  1  0.16967027  0.33211784  0.37887929  1
  In  In21  1  0.16489421  0.32572747  0.88535928  1
  In  In22  1  0.17468465  0.66364501  0.39622412  1
  In  In23  1  0.16109400  0.66165444  0.86702005  1
  In  In24  1  0.49162857  0.01458526  0.39114392  1
  In  In25  1  0.49772629  0.00967666  0.85622350  1
  In  In26  1  0.48416517  0.33831255  0.37693866  1
  In  In27  1  0.51204826  0.34584248  0.85006731  1
  In  In28  1  0.50375515  0.67151561  0.38501431  1
  In  In29  1  0.48857343  0.66329478  0.86528312  1
  In  In30  1  0.83667247  -0.00068741  0.38686724  1
  In  In31  1  0.82816011  -0.01516891  0.86558956  1
  In  In32  1  0.83320351  0.31824020  0.37662398  1
  In  In33  1  0.83960701  0.34661439  0.87695991  1
  In  In34  1  0.84296007  0.67399203  0.38283080  1
  In  In35  1  0.84202577  0.65766778  0.87435130  1
  In  In36  1  -0.00172510  0.17131449  0.38290819  1
  In  In37  1  0.01672561  0.16763064  0.87666231  1
  In  In38  1  0.01469050  0.50159121  0.37559315  1
  In  In39  1  -0.00736949  0.49964178  0.88525697  1
  In  In40  1  -0.00083414  0.83468075  0.39019312  1
  In  In41  1  -0.00937664  0.82922426  0.85802895  1
  In  In42  1  0.33315860  0.16847466  0.38074696  1
  In  In43  1  0.32468059  0.16312298  0.86145339  1
  In  In44  1  0.33159763  0.48513195  0.37469129  1
  In  In45  1  0.33794361  0.49671415  0.86894482  1
  In  In46  1  0.31870223  0.84556968  0.39425692  1
  In  In47  1  0.34127935  0.83701649  0.86016305  1
  In  In48  1  0.67759704  0.15863037  0.38885238  1
  In  In49  1  0.65328824  0.15823780  0.86162272  1
  In  In50  1  0.65564178  0.49928387  0.37552802  1
  In  In51  1  0.67435326  0.49212519  0.87599711  1
  In  In52  1  0.66113681  0.84262709  0.39180023  1
  In  In53  1  0.67870199  0.84775033  0.86538028  1
  In  In54  1  0.16966704  0.01892572  0.12025790  1
  In  In55  1  0.16627394  0.00251512  0.62447777  1
  In  In56  1  0.16839901  0.32993943  0.12379560  1
  In  In57  1  0.17445170  0.34487693  0.61780758  1
  In  In58  1  0.17834740  0.65718629  0.12552441  1
  In  In59  1  0.17014803  0.66677119  0.62547553  1
  In  In60  1  0.49107684  -0.00711465  0.12464732  1
  In  In61  1  0.50301037  0.00758820  0.63039288  1
  In  In62  1  0.48553723  0.32448597  0.11929222  1
  In  In63  1  0.50734915  0.31825305  0.64631917  1
  In  In64  1  0.50993279  0.66829841  0.11825464  1
  In  In65  1  0.46199663  0.66780048  0.62738836  1
  In  In66  1  0.84781263  0.00019747  0.10528577  1
  In  In67  1  0.83190318  -0.00234107  0.63712575  1
  In  In68  1  0.83225003  0.34156807  0.12065643  1
  In  In69  1  0.83097906  0.31784962  0.62700317  1
  In  In70  1  0.84173158  0.66921669  0.11307806  1
  In  In71  1  0.83318984  0.69340772  0.63667185  1
  In  In72  1  0.49385729  0.16723863  -0.01647688  1
  In  In73  1  0.16015868  0.83010738  -0.00657853  1
  In  In74  1  0.00357886  0.33395862  0.75249889  1
  In  In75  1  0.66600233  0.66874452  0.24745225  1
  In  In76  1  0.00811453  0.66754683  0.25083423  1
  In  In77  1  0.66341689  0.00303907  0.24448311  1
  In  In78  1  0.48833633  0.49649929  0.50680115  1
  In  In79  1  0.83291998  0.50437452  0.50157235  1
  In  In80  1  0.00731604  0.00681642  0.24645593  1
  In  In81  1  0.33836528  0.66193214  0.25409412  1
  In  In82  1  0.66343468  0.66808990  0.74689289  1
  In  In83  1  0.83227487  0.16122748  -0.00990825  1
  In  In84  1  0.65149574  0.33786859  0.25533415  1
  In  In85  1  0.50362586  0.83346256  -0.01208174  1
  Cu  Cu86  1  0.16704009  0.48857719  0.24776103  1
  Cu  Cu87  1  0.49663075  0.83115590  0.74017331  1
  Cu  Cu88  1  0.66383256  0.67507106  0.51197424  1
  Cu  Cu89  1  0.33263750  0.33156019  -0.00533414  1
  Cu  Cu90  1  0.49206586  0.16425083  0.25773026  1
  Cu  Cu91  1  -0.00240685  0.00008459  0.50933535  1
  Cu  Cu92  1  0.48620476  0.84862599  0.25855456  1
  Cu  Cu93  1  0.00316386  0.33236328  0.50416657  1
  Cu  Cu94  1  0.32710172  0.01009806  -0.00567504  1
  Cu  Cu95  1  0.17509638  0.83746467  0.74338011  1
  Cu  Cu96  1  0.17073609  0.50629738  0.75294453  1
  Cu  Cu97  1  0.84082110  0.49380850  0.24168790  1
  Cu  Cu98  1  0.17526432  0.16992378  0.25169501  1
  Cu  Cu99  1  0.66862416  0.66447646  -0.00834522  1
  Cu  Cu100  1  0.82989805  0.84089686  0.25166252  1
  Cu  Cu101  1  0.66665394  0.32363422  0.51207163  1
  Cu  Cu102  1  0.33455213  0.66013755  -0.00961507  1
  Cu  Cu103  1  0.00345616  0.66788084  -0.00684049  1
  Cu  Cu104  1  0.33733967  0.00468969  0.50972739  1
  Cu  Cu105  1  -0.00448294  0.67392874  0.51023291  1
  Cu  Cu106  1  0.33454238  0.33053294  0.50448763  1
  Cu  Cu107  1  0.48800097  0.49776803  0.23730250  1
  Cu  Cu108  1  0.16270328  0.16972886  0.74346611  1
  Cu  Cu109  1  0.66244298  0.33219633  -0.00802639  1
  Cu  Cu110  1  0.83720111  0.50056129  0.75068773  1
  Cu  Cu111  1  0.67079724  0.00360142  0.51271077  1
  Cu  Cu112  1  0.84402680  0.16930024  0.25294995  1
  Cu  Cu113  1  0.83102117  0.16309317  0.75041474  1
  Cu  Cu114  1  0.16954964  0.83887584  0.26086359  1
  Se  Se115  1  0.06377597  0.05300775  0.04983470  1
  Se  Se116  1  0.08557491  0.08675307  0.55359493  1
  Se  Se117  1  0.10845953  0.43152359  0.05654230  1
  Se  Se118  1  0.08621075  0.42240784  0.54871362  1
  Se  Se119  1  0.07723878  0.74174289  0.06385538  1
  Se  Se120  1  0.08156130  0.75425187  0.56266790  1
  Se  Se121  1  0.40983650  0.08434950  0.05709050  1
  Se  Se122  1  0.42019986  0.09033042  0.56007976  1
  Se  Se123  1  0.42058238  0.41405695  0.04673310  1
  Se  Se124  1  0.41378091  0.40244439  0.57198544  1
  Se  Se125  1  0.40932499  0.74644544  0.05149832  1
  Se  Se126  1  0.40873005  0.74769255  0.54630221  1
  Se  Se127  1  0.73592771  0.07422285  0.05146859  1
  Se  Se128  1  0.75464497  0.08562060  0.56656810  1
  Se  Se129  1  0.75050207  0.41210160  0.04470572  1
  Se  Se130  1  0.74261601  0.41622447  0.56405617  1
  Se  Se131  1  0.74842415  0.74766569  0.04981211  1
  Se  Se132  1  0.75389777  0.75746038  0.55673591  1
  Se  Se133  1  0.25426709  0.24764980  0.05310089  1
  Se  Se134  1  0.24953061  0.24729683  0.55638979  1
  Se  Se135  1  0.24593619  0.58408271  0.04438706  1
  Se  Se136  1  0.25128118  0.57190987  0.56496025  1
  Se  Se137  1  0.25620758  0.91961203  0.05411645  1
  Se  Se138  1  0.24854590  0.91962211  0.55486405  1
  Se  Se139  1  0.58853411  0.24919073  0.05331947  1
  Se  Se140  1  0.58188223  0.24564577  0.56662250  1
  Se  Se141  1  0.57872204  0.58526102  0.04291387  1
  Se  Se142  1  0.58092915  0.59018157  0.56351356  1
  Se  Se143  1  0.58602736  0.92428073  0.05478893  1
  Se  Se144  1  0.57990662  0.92021052  0.55816332  1
  Se  Se145  1  0.91545641  0.24196896  0.06234387  1
  Se  Se146  1  0.91349214  0.25075582  0.55078349  1
  Se  Se147  1  0.91830803  0.58169289  0.04595318  1
  Se  Se148  1  0.91692296  0.58929743  0.56871489  1
  Se  Se149  1  0.90744180  0.90036054  0.03977182  1
  Se  Se150  1  0.91626792  0.91804309  0.56510595  1
  Se  Se151  1  0.08721417  0.24993022  0.44895567  1
  Se  Se152  1  0.07172551  0.25654883  0.95320186  1
  Se  Se153  1  0.07408336  0.58694455  0.45363822  1
  Se  Se154  1  0.08834089  0.58431719  0.94347984  1
  Se  Se155  1  0.08349190  0.91843465  0.45479097  1
  Se  Se156  1  0.08015673  0.91670276  0.92719727  1
  Se  Se157  1  0.42019638  0.25003661  0.45011525  1
  Se  Se158  1  0.40973971  0.26073171  0.92589599  1
  Se  Se159  1  0.40507840  0.58629503  0.44064958  1
  Se  Se160  1  0.42181142  0.57855730  0.94088352  1
  Se  Se161  1  0.41957054  0.91835669  0.45533502  1
  Se  Se162  1  0.41023657  0.92964722  0.93622559  1
  Se  Se163  1  0.75463250  0.24994810  0.45457949  1
  Se  Se164  1  0.73844531  0.25027070  0.93114826  1
  Se  Se165  1  0.73490580  0.59424693  0.44369849  1
  Se  Se166  1  0.75477837  0.57896602  0.94262011  1
  Se  Se167  1  0.75274927  0.91997614  0.45558709  1
  Se  Se168  1  0.75274480  0.91359941  0.94516736  1
  Se  Se169  1  0.25395436  0.08561149  0.45248906  1
  Se  Se170  1  0.24460094  0.09146316  0.94015414  1
  Se  Se171  1  0.25181921  0.41477127  0.45067942  1
  Se  Se172  1  0.25270370  0.41948265  0.94156305  1
  Se  Se173  1  0.25084673  0.75140223  0.46098191  1
  Se  Se174  1  0.26060838  0.75031220  0.93383200  1
  Se  Se175  1  0.58754786  0.08658055  0.45651669  1
  Se  Se176  1  0.58699716  0.06680959  0.93855199  1
  Se  Se177  1  0.58853327  0.40563830  0.44851282  1
  Se  Se178  1  0.57811164  0.41167258  0.93676129  1
  Se  Se179  1  0.57839979  0.75545038  0.45617715  1
  Se  Se180  1  0.59227256  0.74295907  0.92818489  1
  Se  Se181  1  0.91846867  0.08517829  0.45132033  1
  Se  Se182  1  0.92108485  0.07386806  0.93052710  1
  Se  Se183  1  0.92137793  0.41214072  0.44104268  1
  Se  Se184  1  0.92589035  0.40441376  0.95317087  1
  Se  Se185  1  0.90987882  0.75684420  0.45773098  1
  Se  Se186  1  0.92291480  0.74948106  0.93794854  1
  Se  Se187  1  0.25547685  0.25268462  0.30898725  1
  Se  Se188  1  0.23549067  0.25478976  0.80367417  1
  Se  Se189  1  0.23738751  0.57767651  0.31061158  1
  Se  Se190  1  0.25841384  0.58978006  0.80283944  1
  Se  Se191  1  0.25401823  0.92152593  0.31185003  1
  Se  Se192  1  0.25752672  0.92364593  0.79670836  1
  Se  Se193  1  0.57877686  0.23772825  0.31873928  1
  Se  Se194  1  0.56684906  0.23247551  0.79378604  1
  Se  Se195  1  0.56604576  0.57726695  0.30270584  1
  Se  Se196  1  0.58169714  0.57324721  0.80702864  1
  Se  Se197  1  0.57869881  0.92053528  0.31456786  1
  Se  Se198  1  0.57671836  0.90908002  0.80014452  1
  Se  Se199  1  0.92585824  0.25308337  0.30562032  1
  Se  Se200  1  0.91146661  0.24328823  0.81156885  1
  Se  Se201  1  0.90903888  0.57857624  0.30798542  1
  Se  Se202  1  0.92492062  0.57640802  0.80452266  1
  Se  Se203  1  0.91702692  0.91550362  0.31030729  1
  Se  Se204  1  0.91544017  0.91912527  0.79074640  1
  Se  Se205  1  0.09374591  0.08892262  0.31319092  1
  Se  Se206  1  0.08246027  0.08587284  0.79849349  1
  Se  Se207  1  0.08378177  0.41111824  0.30640154  1
  Se  Se208  1  0.08962928  0.42492448  0.81316095  1
  Se  Se209  1  0.09138144  0.75554179  0.31877859  1
  Se  Se210  1  0.09245528  0.75501701  0.79894747  1
  Se  Se211  1  0.41252135  0.07938333  0.31105741  1
  Se  Se212  1  0.41173410  0.08919658  0.79196985  1
  Se  Se213  1  0.41342189  0.41544026  0.29820343  1
  Se  Se214  1  0.40207185  0.40823831  0.79360623  1
  Se  Se215  1  0.41675923  0.75835266  0.31762552  1
  Se  Se216  1  0.41413758  0.74508151  0.79225157  1
  Se  Se217  1  0.76083279  0.08591666  0.30772421  1
  Se  Se218  1  0.74726979  0.07715311  0.80125774  1
  Se  Se219  1  0.75482034  0.42602999  0.30877041  1
  Se  Se220  1  0.75503244  0.41448853  0.80188016  1
  Se  Se221  1  0.75263801  0.75896258  0.31328389  1
  Se  Se222  1  0.76095997  0.74932614  0.80506566  1
  Se  Se223  1  0.25326776  0.08278060  0.19722108  1
  Se  Se224  1  0.24837124  0.08568393  0.69379969  1
  Se  Se225  1  0.25571793  0.41202318  0.19358123  1
  Se  Se226  1  0.24349038  0.41177766  0.70191868  1
  Se  Se227  1  0.24506739  0.75807497  0.19661441  1
  Se  Se228  1  0.25635398  0.75048531  0.69235649  1
  Se  Se229  1  0.57220273  0.09816371  0.18738036  1
  Se  Se230  1  0.59346028  0.06899675  0.70522970  1
  Se  Se231  1  0.57947004  0.42526854  0.18057907  1
  Se  Se232  1  0.59358285  0.40424449  0.70990898  1
  Se  Se233  1  0.56743413  0.76705264  0.19648639  1
  Se  Se234  1  0.57589659  0.75094810  0.67992276  1
  Se  Se235  1  0.91132601  0.08941866  0.18477738  1
  Se  Se236  1  0.92135900  0.08556962  0.69962562  1
  Se  Se237  1  0.92386417  0.40938901  0.19186811  1
  Se  Se238  1  0.91394557  0.42040962  0.68657796  1
  Se  Se239  1  0.91151408  0.75881824  0.19331272  1
  Se  Se240  1  0.93144371  0.74173333  0.70795487  1
  Se  Se241  1  0.08833123  0.24487284  0.19440748  1
  Se  Se242  1  0.08273633  0.24962436  0.68216956  1
  Se  Se243  1  0.08714992  0.57197743  0.18831773  1
  Se  Se244  1  0.08595303  0.58892735  0.70053968  1
  Se  Se245  1  0.09545934  0.91004590  0.18951639  1
  Se  Se246  1  0.08649629  0.92250693  0.69731939  1
  Se  Se247  1  0.41815949  0.25517556  0.20244398  1
  Se  Se248  1  0.40116388  0.25683122  0.70785633  1
  Se  Se249  1  0.41392967  0.58209262  0.17716211  1
  Se  Se250  1  0.44084799  0.56140070  0.69935771  1
  Se  Se251  1  0.40527071  0.92810960  0.20096729  1
  Se  Se252  1  0.41352337  0.91823395  0.69108138  1
  Se  Se253  1  0.75554173  0.25148259  0.19998064  1
  Se  Se254  1  0.74804677  0.25199727  0.70278603  1
  Se  Se255  1  0.75824444  0.57749581  0.18558626  1
  Se  Se256  1  0.75744041  0.57613353  0.68712780  1
  Se  Se257  1  0.75707180  0.91607459  0.18437645  1
  Se  Se258  1  0.75600102  0.90635139  0.70456040  1
