# generated using pymatgen
data_In86Cu29Se144
_symmetry_space_group_name_H-M   'P 1'
_cell_length_a   17.58026071
_cell_length_b   17.58040135
_cell_length_c   23.42630519
_cell_angle_alpha   89.98098761
_cell_angle_beta   89.99071446
_cell_angle_gamma   90.00576931
_symmetry_Int_Tables_number   1
_chemical_formula_structural   In86Cu29Se144
_chemical_formula_sum   'In86 Cu29 Se144'
_cell_volume   7240.32167974
_cell_formula_units_Z   1
loop_
 _symmetry_equiv_pos_site_id
 _symmetry_equiv_pos_as_xyz
  1  'x, y, z'
loop_
 _atom_site_type_symbol
 _atom_site_label
 _atom_site_symmetry_multiplicity
 _atom_site_fract_x
 _atom_site_fract_y
 _atom_site_fract_z
 _atom_site_occupancy
  In  In0  1  0.00261859  0.17918682  0.12480555  1
  In  In1  1  -0.00639140  0.16227643  0.61913442  1
  In  In2  1  0.00316414  0.49284341  0.13414205  1
  In  In3  1  0.00333253  0.51435049  0.62329596  1
  In  In4  1  -0.01125643  0.83221684  0.11042667  1
  In  In5  1  0.01029072  0.82633313  0.63068986  1
  In  In6  1  0.31850067  0.16713145  0.14311733  1
  In  In7  1  0.32462988  0.17086435  0.61797312  1
  In  In8  1  0.32600009  0.49152797  0.11866664  1
  In  In9  1  0.34573692  0.49665081  0.62247388  1
  In  In10  1  0.33462800  0.84764806  0.12786121  1
  In  In11  1  0.32228077  0.82478773  0.61665171  1
  In  In12  1  0.69027486  0.16347758  0.15098342  1
  In  In13  1  0.68186159  0.16500537  0.62130295  1
  In  In14  1  0.67179442  0.50439659  0.13408945  1
  In  In15  1  0.65941619  0.49121621  0.61624034  1
  In  In16  1  0.67253140  0.82437362  0.13480527  1
  In  In17  1  0.66769740  0.84489187  0.61448210  1
  In  In18  1  0.16629653  -0.00944876  0.38255044  1
  In  In19  1  0.13518761  0.00299920  0.87699526  1
  In  In20  1  0.14667729  0.31551498  0.35953398  1
  In  In21  1  0.17378140  0.33193370  0.87869813  1
  In  In22  1  0.15993118  0.67316776  0.37763205  1
  In  In23  1  0.16725582  0.66960741  0.87882185  1
  In  In24  1  0.49403162  -0.01464566  0.36236011  1
  In  In25  1  0.49972286  0.00005487  0.87727941  1
  In  In26  1  0.50532992  0.34243250  0.36847513  1
  In  In27  1  0.51791238  0.33459977  0.88020920  1
  In  In28  1  0.50528033  0.65282045  0.38392428  1
  In  In29  1  0.48717390  0.67056087  0.87641839  1
  In  In30  1  0.83088801  0.01487271  0.36759623  1
  In  In31  1  0.86695101  -0.02528112  0.91109390  1
  In  In32  1  0.83211639  0.32718845  0.36867560  1
  In  In33  1  0.82438406  0.33902539  0.87723267  1
  In  In34  1  0.81510094  0.64282935  0.35122216  1
  In  In35  1  0.84903844  0.66283674  0.87456808  1
  In  In36  1  -0.01604413  0.17348699  0.37883865  1
  In  In37  1  0.00104809  0.14608472  0.88021073  1
  In  In38  1  -0.02331020  0.47938431  0.35034628  1
  In  In39  1  -0.00542053  0.51429044  0.87592076  1
  In  In40  1  0.00754958  0.82694969  0.37728105  1
  In  In41  1  0.00560912  0.83043869  0.88021401  1
  In  In42  1  0.31535601  0.15370431  0.36349657  1
  In  In43  1  0.32367250  0.17391405  0.87430706  1
  In  In44  1  0.34397194  0.49606394  0.37795271  1
  In  In45  1  0.32452659  0.50822733  0.88525367  1
  In  In46  1  0.32459138  0.83445414  0.38205990  1
  In  In47  1  0.33443433  0.81900485  0.87414762  1
  In  In48  1  0.68210634  0.17443693  0.35881944  1
  In  In49  1  0.67613118  0.17766132  0.87148368  1
  In  In50  1  0.66873082  0.49086397  0.36952008  1
  In  In51  1  0.67230846  0.48608056  0.87955967  1
  In  In52  1  0.65259880  0.81873297  0.35912572  1
  In  In53  1  0.67095224  0.84860625  0.87990863  1
  In  In54  1  0.17263123  0.00837697  0.12500426  1
  In  In55  1  0.15892645  -0.00723098  0.62052835  1
  In  In56  1  0.14998142  0.34173153  0.14140140  1
  In  In57  1  0.17224562  0.33253354  0.61784731  1
  In  In58  1  0.16010887  0.66024475  0.11762361  1
  In  In59  1  0.15940649  0.67861133  0.63198311  1
  In  In60  1  0.49257501  -0.00429040  0.14096918  1
  In  In61  1  0.51763633  -0.00259070  0.61537824  1
  In  In62  1  0.49326727  0.33644361  0.13108738  1
  In  In63  1  0.50183264  0.34856460  0.61986430  1
  In  In64  1  0.52150675  0.66569971  0.13269307  1
  In  In65  1  0.49149994  0.65689199  0.61616828  1
  In  In66  1  0.83727885  -0.00380094  0.11582459  1
  In  In67  1  0.83198112  0.01251268  0.62145905  1
  In  In68  1  0.86298550  0.32167915  0.16681465  1
  In  In69  1  0.82520960  0.32451553  0.61735936  1
  In  In70  1  0.82947810  0.66886570  0.13429135  1
  In  In71  1  0.85017298  0.67088405  0.62372864  1
  In  In72  1  0.16229362  0.16982758  0.00489104  1
  In  In73  1  0.83504621  0.83201334  0.49418247  1
  In  In74  1  0.33415065  0.34085468  0.75563204  1
  In  In75  1  0.83676156  0.49241540  0.00818723  1
  In  In76  1  0.33107390  0.66603345  0.25583310  1
  In  In77  1  0.67419866  0.00598994  0.74847304  1
  In  In78  1  0.16539972  0.50109532  0.49684963  1
  In  In79  1  0.50316934  0.16708821  0.48732419  1
  In  In80  1  0.00041672  0.33546148  0.74872994  1
  In  In81  1  0.00420119  0.00354222  0.24627458  1
  In  In82  1  0.50317307  0.82710676  0.01003175  1
  In  In83  1  0.50538878  0.16597518  0.01033804  1
  In  In84  1  0.66961358  0.66628396  0.74802685  1
  In  In85  1  0.33000183  -0.00412072  0.74347415  1
  Cu  Cu86  1  0.33767806  0.33845614  0.00392577  1
  Cu  Cu87  1  0.67412062  0.66716550  0.00825192  1
  Cu  Cu88  1  -0.00971018  0.33121571  0.49013910  1
  Cu  Cu89  1  0.16853985  0.51323501  0.75410041  1
  Cu  Cu90  1  0.49683457  0.16738388  0.25383620  1
  Cu  Cu91  1  0.66919931  0.65963229  0.48904206  1
  Cu  Cu92  1  -0.00021423  -0.00007707  0.49644335  1
  Cu  Cu93  1  0.33118976  0.66953147  0.49884338  1
  Cu  Cu94  1  0.66675344  0.33604944  0.00897479  1
  Cu  Cu95  1  0.66889219  0.33358709  0.49033108  1
  Cu  Cu96  1  -0.00565316  0.66035213  0.49580305  1
  Cu  Cu97  1  0.49802146  0.17749644  0.75216858  1
  Cu  Cu98  1  0.00375896  0.66834994  -0.00083231  1
  Cu  Cu99  1  0.84568369  0.83772831  0.75760649  1
  Cu  Cu100  1  0.50354104  0.50325514  0.74685488  1
  Cu  Cu101  1  0.32972801  0.00086339  0.00481828  1
  Cu  Cu102  1  0.83211249  0.49854088  0.75146777  1
  Cu  Cu103  1  0.50019621  0.50573750  0.25159394  1
  Cu  Cu104  1  0.83689176  0.16511464  0.74890843  1
  Cu  Cu105  1  0.49705601  0.82662229  0.74383397  1
  Cu  Cu106  1  0.67363170  0.00691463  0.01079605  1
  Cu  Cu107  1  0.16763532  0.83544637  0.25203647  1
  Cu  Cu108  1  0.83895325  0.83754208  0.24317317  1
  Cu  Cu109  1  0.33216117  0.66225841  0.00144949  1
  Cu  Cu110  1  0.32906423  0.32928271  0.49475593  1
  Cu  Cu111  1  0.66583639  -0.00242260  0.48800975  1
  Cu  Cu112  1  0.33350149  0.00051444  0.49340419  1
  Cu  Cu113  1  0.16753485  0.49618776  0.24526388  1
  Cu  Cu114  1  0.16594974  0.83465379  0.75390632  1
  Se  Se115  1  0.07020986  0.07528951  0.05751173  1
  Se  Se116  1  0.08202659  0.08227303  0.55250007  1
  Se  Se117  1  0.07596318  0.40813405  0.06217098  1
  Se  Se118  1  0.07002616  0.40876362  0.55505897  1
  Se  Se119  1  0.08710040  0.75346300  0.05060968  1
  Se  Se120  1  0.07613221  0.74231053  0.55314116  1
  Se  Se121  1  0.40748559  0.07968381  0.06609086  1
  Se  Se122  1  0.41492962  0.07929128  0.55538210  1
  Se  Se123  1  0.42488888  0.42001679  0.05395545  1
  Se  Se124  1  0.41345395  0.41397057  0.54600936  1
  Se  Se125  1  0.40995215  0.73823021  0.06762865  1
  Se  Se126  1  0.41790860  0.75223161  0.55120703  1
  Se  Se127  1  0.75035295  0.09644898  0.06250023  1
  Se  Se128  1  0.74641674  0.07897033  0.54582295  1
  Se  Se129  1  0.75191094  0.40630599  0.07170549  1
  Se  Se130  1  0.74987895  0.41462602  0.54954696  1
  Se  Se131  1  0.75488799  0.75229081  0.05942765  1
  Se  Se132  1  0.74425803  0.73899360  0.55577167  1
  Se  Se133  1  0.25977477  0.25403142  0.06161294  1
  Se  Se134  1  0.24384107  0.24705438  0.54531496  1
  Se  Se135  1  0.24599234  0.57741792  0.05120993  1
  Se  Se136  1  0.25187564  0.58854316  0.56250906  1
  Se  Se137  1  0.24621358  0.91670186  0.05566511  1
  Se  Se138  1  0.25037052  0.91992461  0.55173211  1
  Se  Se139  1  0.59487361  0.25055559  0.07185885  1
  Se  Se140  1  0.58946801  0.25391551  0.55539569  1
  Se  Se141  1  0.59113605  0.58192595  0.05798011  1
  Se  Se142  1  0.58441383  0.58303189  0.54999995  1
  Se  Se143  1  0.58696728  0.92635061  0.06575097  1
  Se  Se144  1  0.58296449  0.91291594  0.53958740  1
  Se  Se145  1  0.91494748  0.27283627  0.07134176  1
  Se  Se146  1  0.91296742  0.24649169  0.55012608  1
  Se  Se147  1  0.92407532  0.59060635  0.06263985  1
  Se  Se148  1  0.91150793  0.57819481  0.55039802  1
  Se  Se149  1  0.92111999  0.92622916  0.04126738  1
  Se  Se150  1  0.92147299  0.91846167  0.56024101  1
  Se  Se151  1  0.08041551  0.24803591  0.44443231  1
  Se  Se152  1  0.07391257  0.25594761  0.94017611  1
  Se  Se153  1  0.06922666  0.57703152  0.43370676  1
  Se  Se154  1  0.08506351  0.58207783  0.94659936  1
  Se  Se155  1  0.08164112  0.90847436  0.45121295  1
  Se  Se156  1  0.08625996  0.91128145  0.95188313  1
  Se  Se157  1  0.40879019  0.25362673  0.43110056  1
  Se  Se158  1  0.41428039  0.25356079  0.94339393  1
  Se  Se159  1  0.41364098  0.57937381  0.45268828  1
  Se  Se160  1  0.42129047  0.58295142  0.94979600  1
  Se  Se161  1  0.41858446  0.91695906  0.44356929  1
  Se  Se162  1  0.41316383  0.91959714  0.94653512  1
  Se  Se163  1  0.75096545  0.24541923  0.44151068  1
  Se  Se164  1  0.74668606  0.25608248  0.94915587  1
  Se  Se165  1  0.75303512  0.57620777  0.43812220  1
  Se  Se166  1  0.75032652  0.58743293  0.94322803  1
  Se  Se167  1  0.74664667  0.91581591  0.42939255  1
  Se  Se168  1  0.74814401  0.91299325  0.95920911  1
  Se  Se169  1  0.24611562  0.08468303  0.44653136  1
  Se  Se170  1  0.25158583  0.07696212  0.94033190  1
  Se  Se171  1  0.24561645  0.40688210  0.43403520  1
  Se  Se172  1  0.24837218  0.41517865  0.95019031  1
  Se  Se173  1  0.24161678  0.74977149  0.45017890  1
  Se  Se174  1  0.25251002  0.75070907  0.94952901  1
  Se  Se175  1  0.59128633  0.08031939  0.42584466  1
  Se  Se176  1  0.59355225  0.07776279  0.94331408  1
  Se  Se177  1  0.58163739  0.41912818  0.44433673  1
  Se  Se178  1  0.58561612  0.41989493  0.95497790  1
  Se  Se179  1  0.58599536  0.75020044  0.44401039  1
  Se  Se180  1  0.59350339  0.74320902  0.94205785  1
  Se  Se181  1  0.91072950  0.08064295  0.44702863  1
  Se  Se182  1  0.89545234  0.10795518  0.95012602  1
  Se  Se183  1  0.91069123  0.41716223  0.43729910  1
  Se  Se184  1  0.92658395  0.41103299  0.94084153  1
  Se  Se185  1  0.91176517  0.73455066  0.43269739  1
  Se  Se186  1  0.91519930  0.74901903  0.94785719  1
  Se  Se187  1  0.25976864  0.26226555  0.30266195  1
  Se  Se188  1  0.23569389  0.24234520  0.79884573  1
  Se  Se189  1  0.24002997  0.57238287  0.31350415  1
  Se  Se190  1  0.25567832  0.58990204  0.80879920  1
  Se  Se191  1  0.24841646  0.91572598  0.30815170  1
  Se  Se192  1  0.24615354  0.91554871  0.81455573  1
  Se  Se193  1  0.58163781  0.25272705  0.30190699  1
  Se  Se194  1  0.58748542  0.25489782  0.80307893  1
  Se  Se195  1  0.58544539  0.58421454  0.30648568  1
  Se  Se196  1  0.58195628  0.57946035  0.81269048  1
  Se  Se197  1  0.59682694  0.92646336  0.29746398  1
  Se  Se198  1  0.57463465  0.91045934  0.80306201  1
  Se  Se199  1  0.91992179  0.25131720  0.29837638  1
  Se  Se200  1  0.91204788  0.24832206  0.81114833  1
  Se  Se201  1  0.94358875  0.60871661  0.30536062  1
  Se  Se202  1  0.91864823  0.58498042  0.79675095  1
  Se  Se203  1  0.91659411  0.91164781  0.30968780  1
  Se  Se204  1  0.92063639  0.92169055  0.81583409  1
  Se  Se205  1  0.08245432  0.08488024  0.31862375  1
  Se  Se206  1  0.08668696  0.09403283  0.80024845  1
  Se  Se207  1  0.07771253  0.40805037  0.28998109  1
  Se  Se208  1  0.09133281  0.42599496  0.81082033  1
  Se  Se209  1  0.08400002  0.74977323  0.30134074  1
  Se  Se210  1  0.08399441  0.74911095  0.80746317  1
  Se  Se211  1  0.41275542  0.07928650  0.30161345  1
  Se  Se212  1  0.42049890  0.09190634  0.80784887  1
  Se  Se213  1  0.41485052  0.41959544  0.30027599  1
  Se  Se214  1  0.42697228  0.42630405  0.81499889  1
  Se  Se215  1  0.41988983  0.74851364  0.31928378  1
  Se  Se216  1  0.41489163  0.74629158  0.79847985  1
  Se  Se217  1  0.75327261  0.08279238  0.29023698  1
  Se  Se218  1  0.76395385  0.08308777  0.81427580  1
  Se  Se219  1  0.73779530  0.39900343  0.29988245  1
  Se  Se220  1  0.74706235  0.41455501  0.80068035  1
  Se  Se221  1  0.75331726  0.75321370  0.29443502  1
  Se  Se222  1  0.75530662  0.75986078  0.81138317  1
  Se  Se223  1  0.24723019  0.07079189  0.20648572  1
  Se  Se224  1  0.24144967  0.09024149  0.68870482  1
  Se  Se225  1  0.25658155  0.41404315  0.19717862  1
  Se  Se226  1  0.24166303  0.42842379  0.69184109  1
  Se  Se227  1  0.24434066  0.75211028  0.19015951  1
  Se  Se228  1  0.25168361  0.75428185  0.69859842  1
  Se  Se229  1  0.58023623  0.08695087  0.19838440  1
  Se  Se230  1  0.57649843  0.09545621  0.69071353  1
  Se  Se231  1  0.57920105  0.42137651  0.19615510  1
  Se  Se232  1  0.58505592  0.41680487  0.69565767  1
  Se  Se233  1  0.56965687  0.76765106  0.20117438  1
  Se  Se234  1  0.58377442  0.75530326  0.68338760  1
  Se  Se235  1  0.91155446  0.09028710  0.18860762  1
  Se  Se236  1  0.91787142  0.08101149  0.69497061  1
  Se  Se237  1  0.90000633  0.45179421  0.20738081  1
  Se  Se238  1  0.91072278  0.42200665  0.68570340  1
  Se  Se239  1  0.92455737  0.75487442  0.19155434  1
  Se  Se240  1  0.92030629  0.75090205  0.70007488  1
  Se  Se241  1  0.11281952  0.21756168  0.19197157  1
  Se  Se242  1  0.08768756  0.24791578  0.68581038  1
  Se  Se243  1  0.08750801  0.58531164  0.19552598  1
  Se  Se244  1  0.08062147  0.58897447  0.69877314  1
  Se  Se245  1  0.08676519  0.90752669  0.18586744  1
  Se  Se246  1  0.08390085  0.91799894  0.69878470  1
  Se  Se247  1  0.41386707  0.25067796  0.19967443  1
  Se  Se248  1  0.41915647  0.25076783  0.68730400  1
  Se  Se249  1  0.41695713  0.58047050  0.18906008  1
  Se  Se250  1  0.41658805  0.58334620  0.69525560  1
  Se  Se251  1  0.41434543  0.90779561  0.20690419  1
  Se  Se252  1  0.42635048  0.91315146  0.68229332  1
  Se  Se253  1  0.73371661  0.28033607  0.21054753  1
  Se  Se254  1  0.75175895  0.24795807  0.69626672  1
  Se  Se255  1  0.74470862  0.59314811  0.20393579  1
  Se  Se256  1  0.75624384  0.57742556  0.68549895  1
  Se  Se257  1  0.75646176  0.92161740  0.19066162  1
  Se  Se258  1  0.76242250  0.90750895  0.69126700  1
