# generated using pymatgen
data_In86Cu29Se144
_symmetry_space_group_name_H-M   'P 1'
_cell_length_a   17.58191041
_cell_length_b   17.58620702
_cell_length_c   23.44375403
_cell_angle_alpha   89.99725420
_cell_angle_beta   90.00134766
_cell_angle_gamma   90.01773846
_symmetry_Int_Tables_number   1
_chemical_formula_structural   In86Cu29Se144
_chemical_formula_sum   'In86 Cu29 Se144'
_cell_volume   7248.78766853
_cell_formula_units_Z   1
loop_
 _symmetry_equiv_pos_site_id
 _symmetry_equiv_pos_as_xyz
  1  'x, y, z'
loop_
 _atom_site_type_symbol
 _atom_site_label
 _atom_site_symmetry_multiplicity
 _atom_site_fract_x
 _atom_site_fract_y
 _atom_site_fract_z
 _atom_site_occupancy
  In  In0  1  -0.00861944  0.16895738  0.12759406  1
  In  In1  1  0.00550963  0.17096639  0.61970995  1
  In  In2  1  0.01979189  0.49786883  0.12262183  1
  In  In3  1  -0.00871413  0.48971478  0.61896887  1
  In  In4  1  0.00938843  0.84041683  0.12054974  1
  In  In5  1  0.00799879  0.82597194  0.62452087  1
  In  In6  1  0.32383273  0.16130664  0.13191485  1
  In  In7  1  0.32853399  0.15730672  0.61787212  1
  In  In8  1  0.35285053  0.52445736  0.09419366  1
  In  In9  1  0.33705408  0.50521844  0.61629401  1
  In  In10  1  0.34198110  0.83826790  0.11769123  1
  In  In11  1  0.33721186  0.83632787  0.62317664  1
  In  In12  1  0.67052178  0.16453426  0.13846384  1
  In  In13  1  0.65814694  0.15984534  0.61313545  1
  In  In14  1  0.65113193  0.51910232  0.14785908  1
  In  In15  1  0.67019727  0.50709253  0.61629454  1
  In  In16  1  0.66536010  0.83583893  0.12546993  1
  In  In17  1  0.66370700  0.83873978  0.62719361  1
  In  In18  1  0.16944972  -0.00040213  0.37682578  1
  In  In19  1  0.17015648  -0.01706369  0.87149856  1
  In  In20  1  0.16457151  0.33495348  0.38110820  1
  In  In21  1  0.16097424  0.34507897  0.87188924  1
  In  In22  1  0.17358500  0.66314638  0.38200394  1
  In  In23  1  0.16711674  0.67028503  0.88252788  1
  In  In24  1  0.49897316  -0.00178623  0.37416268  1
  In  In25  1  0.48836714  -0.01033262  0.86570520  1
  In  In26  1  0.50392871  0.33095661  0.37589734  1
  In  In27  1  0.50061041  0.34346367  0.87959995  1
  In  In28  1  0.52525597  0.65191156  0.39282497  1
  In  In29  1  0.50132163  0.65967961  0.88200986  1
  In  In30  1  0.84165868  0.00686700  0.37247707  1
  In  In31  1  0.81676825  0.00066995  0.87351988  1
  In  In32  1  0.82240816  0.34388299  0.38499328  1
  In  In33  1  0.83786077  0.32066916  0.86848994  1
  In  In34  1  0.81076305  0.66831372  0.38100624  1
  In  In35  1  0.83544689  0.68251721  0.87692437  1
  In  In36  1  0.00741681  0.16135423  0.38324210  1
  In  In37  1  -0.01619816  0.17001885  0.86353394  1
  In  In38  1  0.00414713  0.49463602  0.38159690  1
  In  In39  1  0.00668647  0.49660943  0.87231056  1
  In  In40  1  -0.00259829  0.84983242  0.37548628  1
  In  In41  1  0.00433768  0.82818585  0.88561162  1
  In  In42  1  0.34331323  0.15736102  0.38158031  1
  In  In43  1  0.34404502  0.15661026  0.86798194  1
  In  In44  1  0.34165466  0.49517737  0.37707515  1
  In  In45  1  0.32421793  0.50963594  0.89162551  1
  In  In46  1  0.33432392  0.83532282  0.37608704  1
  In  In47  1  0.32767928  0.83779111  0.88534513  1
  In  In48  1  0.66762688  0.16538047  0.37711013  1
  In  In49  1  0.67605999  0.15610083  0.87006375  1
  In  In50  1  0.66606194  0.50074737  0.37507492  1
  In  In51  1  0.64942327  0.50320959  0.87706059  1
  In  In52  1  0.65065126  0.82380157  0.37102672  1
  In  In53  1  0.66136704  0.83174535  0.87545971  1
  In  In54  1  0.17682604  -0.01061300  0.13621739  1
  In  In55  1  0.17132658  0.00113504  0.62278889  1
  In  In56  1  0.17265590  0.35058547  0.11425793  1
  In  In57  1  0.16130659  0.32573918  0.61928039  1
  In  In58  1  0.18325533  0.67463453  0.10650804  1
  In  In59  1  0.17392320  0.67195450  0.61871810  1
  In  In60  1  0.50939861  -0.00818195  0.13382913  1
  In  In61  1  0.50041946  -0.00274046  0.62070350  1
  In  In62  1  0.50281292  0.35432041  0.12915688  1
  In  In63  1  0.50628507  0.33789804  0.61450238  1
  In  In64  1  0.50506533  0.67589392  0.11883154  1
  In  In65  1  0.51300957  0.67848031  0.61197334  1
  In  In66  1  0.83989547  -0.00069440  0.13327213  1
  In  In67  1  0.81632961  -0.00010193  0.62414100  1
  In  In68  1  0.83163695  0.32677467  0.12671629  1
  In  In69  1  0.83527930  0.33454786  0.62050530  1
  In  In70  1  0.81515543  0.66575058  0.12700706  1
  In  In71  1  0.83008425  0.65409077  0.62349312  1
  In  In72  1  0.33542466  0.33190774  0.75253179  1
  In  In73  1  -0.00491498  0.67227339  0.24909216  1
  In  In74  1  0.49844297  0.16935643  -0.00224227  1
  In  In75  1  -0.00406369  0.00017825  0.74465815  1
  In  In76  1  -0.00019095  0.33075626  0.24574384  1
  In  In77  1  0.83154494  0.16343619  0.00042437  1
  In  In78  1  0.00089505  0.66666402  0.75558661  1
  In  In79  1  0.34510394  0.67295981  0.23937181  1
  In  In80  1  0.66361311  0.32912549  0.75062836  1
  In  In81  1  0.83334689  0.83360470  0.50038120  1
  In  In82  1  0.83308217  0.50146523  0.00386417  1
  In  In83  1  0.33833361  0.33218765  0.25251265  1
  In  In84  1  0.33352815  0.67311293  0.75677895  1
  In  In85  1  0.16159066  0.17016505  -0.00060504  1
  Cu  Cu86  1  0.16331979  0.84151834  0.25260684  1
  Cu  Cu87  1  0.50701033  0.83551180  0.74541476  1
  Cu  Cu88  1  0.82482704  0.83930407  0.25174065  1
  Cu  Cu89  1  0.83185424  0.50028337  0.25679993  1
  Cu  Cu90  1  0.00230501  -0.00404670  0.00396509  1
  Cu  Cu91  1  0.50116517  0.16279252  0.25777130  1
  Cu  Cu92  1  0.33413587  -0.00146608  0.49909771  1
  Cu  Cu93  1  0.83475917  0.16751004  0.25780776  1
  Cu  Cu94  1  0.65998443  -0.01020443  0.00047246  1
  Cu  Cu95  1  -0.00184503  0.67153724  -0.00005431  1
  Cu  Cu96  1  0.49887026  0.83171777  0.25005230  1
  Cu  Cu97  1  0.49861774  0.51157572  0.75019594  1
  Cu  Cu98  1  0.82677610  0.83416119  0.75328064  1
  Cu  Cu99  1  0.00203645  0.33135921  0.50176687  1
  Cu  Cu100  1  0.00566291  0.00351035  0.50048743  1
  Cu  Cu101  1  0.17777363  0.50364509  0.24417246  1
  Cu  Cu102  1  0.82673462  0.49726109  0.74249315  1
  Cu  Cu103  1  0.16297807  0.16057262  0.25368134  1
  Cu  Cu104  1  0.33098659  0.33498746  0.49830206  1
  Cu  Cu105  1  0.50314770  0.16053950  0.74098683  1
  Cu  Cu106  1  0.33511839  -0.00137496  0.00160971  1
  Cu  Cu107  1  0.16075061  0.49553699  0.74576919  1
  Cu  Cu108  1  0.00485844  0.66432932  0.50076132  1
  Cu  Cu109  1  0.66337285  -0.00153895  0.49623002  1
  Cu  Cu110  1  0.66334280  0.67173324  0.00329627  1
  Cu  Cu111  1  0.66799551  0.33198165  0.49721324  1
  Cu  Cu112  1  0.33329142  0.67124971  0.49881502  1
  Cu  Cu113  1  0.66291497  0.34051853  0.00583562  1
  Cu  Cu114  1  0.16480438  0.16479857  0.74119071  1
  Se  Se115  1  0.07980535  0.07753147  0.06453618  1
  Se  Se116  1  0.08964688  0.08545820  0.55460305  1
  Se  Se117  1  0.06709029  0.40163578  0.04918464  1
  Se  Se118  1  0.08632373  0.41819438  0.55284164  1
  Se  Se119  1  0.08565275  0.75503977  0.04995768  1
  Se  Se120  1  0.08697573  0.75217025  0.55031647  1
  Se  Se121  1  0.41343865  0.07899404  0.06228056  1
  Se  Se122  1  0.41970901  0.08254500  0.55121262  1
  Se  Se123  1  0.41394366  0.40433507  0.05204242  1
  Se  Se124  1  0.41677559  0.41796961  0.55002076  1
  Se  Se125  1  0.39225329  0.72573542  0.05851213  1
  Se  Se126  1  0.41662649  0.75532294  0.55156019  1
  Se  Se127  1  0.73925457  0.07507142  0.05921963  1
  Se  Se128  1  0.75001773  0.08107713  0.54666616  1
  Se  Se129  1  0.74196410  0.41861770  0.06752606  1
  Se  Se130  1  0.74999388  0.41569387  0.55302732  1
  Se  Se131  1  0.74921247  0.75421675  0.05433398  1
  Se  Se132  1  0.74412151  0.74317413  0.55852377  1
  Se  Se133  1  0.26105965  0.25325059  0.05679486  1
  Se  Se134  1  0.25129494  0.24925155  0.55292095  1
  Se  Se135  1  0.21786732  0.54979309  0.05650969  1
  Se  Se136  1  0.24914758  0.58465480  0.54996603  1
  Se  Se137  1  0.24770860  0.91855030  0.05490091  1
  Se  Se138  1  0.25096128  0.91576056  0.55402992  1
  Se  Se139  1  0.59052947  0.25012838  0.06356720  1
  Se  Se140  1  0.57995041  0.24826342  0.54624751  1
  Se  Se141  1  0.58960842  0.58149994  0.05882113  1
  Se  Se142  1  0.56473221  0.56526785  0.55426404  1
  Se  Se143  1  0.57464343  0.91101992  0.05500022  1
  Se  Se144  1  0.58459286  0.91370749  0.55195789  1
  Se  Se145  1  0.92483080  0.26016200  0.05214621  1
  Se  Se146  1  0.91593905  0.24841910  0.55252743  1
  Se  Se147  1  0.92413273  0.59239954  0.06505162  1
  Se  Se148  1  0.91753228  0.58364207  0.55260101  1
  Se  Se149  1  0.91366876  0.91921841  0.05796882  1
  Se  Se150  1  0.92455826  0.92371618  0.56216193  1
  Se  Se151  1  0.08785460  0.24867171  0.44977076  1
  Se  Se152  1  0.07061416  0.25102687  0.93421069  1
  Se  Se153  1  0.08787903  0.57990311  0.44713958  1
  Se  Se154  1  0.07490854  0.58648167  0.94296438  1
  Se  Se155  1  0.08566618  0.91668439  0.44778820  1
  Se  Se156  1  0.08814829  0.91682462  0.94905224  1
  Se  Se157  1  0.41645820  0.25331634  0.44487869  1
  Se  Se158  1  0.40403233  0.25702674  0.93890730  1
  Se  Se159  1  0.41447672  0.58481927  0.44650356  1
  Se  Se160  1  0.42330848  0.57733651  0.95281554  1
  Se  Se161  1  0.41839199  0.91581177  0.44555701  1
  Se  Se162  1  0.42160068  0.91819528  0.94860735  1
  Se  Se163  1  0.75246487  0.24474075  0.44824308  1
  Se  Se164  1  0.73783026  0.25864182  0.94318225  1
  Se  Se165  1  0.75165518  0.57309409  0.44922502  1
  Se  Se166  1  0.74398489  0.59064950  0.94189560  1
  Se  Se167  1  0.74603264  0.91916350  0.43576293  1
  Se  Se168  1  0.74800224  0.91336617  0.94552913  1
  Se  Se169  1  0.24932472  0.08370692  0.44730772  1
  Se  Se170  1  0.25552462  0.07881272  0.94141805  1
  Se  Se171  1  0.25025071  0.42061128  0.44434939  1
  Se  Se172  1  0.24691165  0.40830572  0.94518286  1
  Se  Se173  1  0.24953755  0.75521558  0.44632828  1
  Se  Se174  1  0.26247539  0.73657729  0.94840775  1
  Se  Se175  1  0.57985251  0.08323785  0.44359351  1
  Se  Se176  1  0.58686211  0.07592879  0.93886670  1
  Se  Se177  1  0.58382778  0.41563294  0.44469402  1
  Se  Se178  1  0.57855057  0.42202547  0.95297944  1
  Se  Se179  1  0.58493462  0.75705343  0.45483139  1
  Se  Se180  1  0.57957233  0.75168622  0.94742370  1
  Se  Se181  1  0.91647873  0.08310345  0.44961278  1
  Se  Se182  1  0.92358390  0.07286965  0.94035348  1
  Se  Se183  1  0.91865721  0.41653146  0.44960535  1
  Se  Se184  1  0.91502365  0.41107741  0.93857745  1
  Se  Se185  1  0.92422605  0.74322276  0.43834266  1
  Se  Se186  1  0.91079574  0.75666305  0.95338731  1
  Se  Se187  1  0.24420293  0.24428095  0.31141082  1
  Se  Se188  1  0.24129198  0.24049682  0.80884766  1
  Se  Se189  1  0.25520835  0.58324922  0.30503643  1
  Se  Se190  1  0.23933605  0.57451053  0.80816100  1
  Se  Se191  1  0.25232960  0.91760560  0.30630248  1
  Se  Se192  1  0.26607685  0.91862483  0.80549102  1
  Se  Se193  1  0.58513080  0.24830407  0.30659093  1
  Se  Se194  1  0.56974711  0.23990363  0.81179390  1
  Se  Se195  1  0.58759257  0.58855836  0.30663148  1
  Se  Se196  1  0.58390447  0.59135079  0.80361426  1
  Se  Se197  1  0.58197164  0.91754180  0.30245830  1
  Se  Se198  1  0.58783543  0.91944061  0.80287773  1
  Se  Se199  1  0.91576993  0.25049203  0.31585761  1
  Se  Se200  1  0.90697896  0.24652264  0.79085808  1
  Se  Se201  1  0.91444127  0.58045145  0.31460444  1
  Se  Se202  1  0.90344723  0.57554150  0.80948736  1
  Se  Se203  1  0.91563601  0.91922761  0.30051898  1
  Se  Se204  1  0.91505449  0.90759099  0.81207306  1
  Se  Se205  1  0.07989319  0.07970494  0.30818616  1
  Se  Se206  1  0.08972189  0.08621663  0.80876357  1
  Se  Se207  1  0.09379071  0.42512243  0.30201694  1
  Se  Se208  1  0.07552313  0.41275141  0.79646691  1
  Se  Se209  1  0.08996429  0.75444463  0.31198840  1
  Se  Se210  1  0.09352997  0.76011744  0.80837623  1
  Se  Se211  1  0.41268960  0.07893716  0.30379755  1
  Se  Se212  1  0.41676901  0.07830182  0.79337141  1
  Se  Se213  1  0.43195985  0.42730890  0.30310287  1
  Se  Se214  1  0.41744072  0.43280352  0.81058755  1
  Se  Se215  1  0.42749746  0.74764402  0.31351496  1
  Se  Se216  1  0.42892813  0.76040280  0.81237704  1
  Se  Se217  1  0.74893585  0.08203396  0.30622986  1
  Se  Se218  1  0.76015711  0.08861263  0.79742877  1
  Se  Se219  1  0.74887108  0.41371563  0.30558293  1
  Se  Se220  1  0.75039718  0.42356755  0.81199390  1
  Se  Se221  1  0.74627170  0.75171815  0.30399770  1
  Se  Se222  1  0.74522583  0.74785674  0.80536687  1
  Se  Se223  1  0.25250633  0.07840504  0.20503071  1
  Se  Se224  1  0.25264400  0.08152096  0.69466903  1
  Se  Se225  1  0.25922765  0.42506634  0.18631852  1
  Se  Se226  1  0.24940666  0.42170180  0.68854714  1
  Se  Se227  1  0.24078679  0.76007353  0.19034160  1
  Se  Se228  1  0.24302357  0.75848128  0.69478147  1
  Se  Se229  1  0.58485991  0.08014923  0.20239739  1
  Se  Se230  1  0.58792227  0.07850366  0.68976465  1
  Se  Se231  1  0.60274720  0.40013380  0.20041013  1
  Se  Se232  1  0.57548247  0.42388206  0.69349571  1
  Se  Se233  1  0.58301874  0.75062630  0.19437698  1
  Se  Se234  1  0.58562665  0.74684430  0.69382083  1
  Se  Se235  1  0.91902627  0.08780203  0.20121497  1
  Se  Se236  1  0.90851288  0.08906404  0.68521383  1
  Se  Se237  1  0.91245210  0.43062234  0.18967742  1
  Se  Se238  1  0.91399466  0.41470552  0.69490593  1
  Se  Se239  1  0.90584048  0.76113183  0.18843038  1
  Se  Se240  1  0.90767468  0.75461634  0.69251747  1
  Se  Se241  1  0.09787500  0.24627754  0.18746259  1
  Se  Se242  1  0.08131520  0.25205951  0.69463865  1
  Se  Se243  1  0.09578311  0.59063044  0.19060587  1
  Se  Se244  1  0.08554625  0.58199020  0.68704816  1
  Se  Se245  1  0.07550937  0.92061500  0.19970051  1
  Se  Se246  1  0.09228005  0.90785199  0.69473830  1
  Se  Se247  1  0.42781471  0.24160953  0.18993718  1
  Se  Se248  1  0.42427979  0.24812009  0.68652226  1
  Se  Se249  1  0.42766671  0.57223090  0.18538090  1
  Se  Se250  1  0.41909941  0.58896577  0.68899480  1
  Se  Se251  1  0.41369440  0.91360776  0.19638546  1
  Se  Se252  1  0.42018538  0.91589029  0.69328028  1
  Se  Se253  1  0.75533146  0.25191708  0.20220767  1
  Se  Se254  1  0.74627006  0.24424667  0.68442675  1
  Se  Se255  1  0.75079821  0.59179167  0.20915517  1
  Se  Se256  1  0.74254144  0.58323367  0.69557377  1
  Se  Se257  1  0.74437389  0.92234784  0.19536528  1
  Se  Se258  1  0.74616162  0.91792263  0.69914686  1
