# generated using pymatgen
data_In86Cu29Se144
_symmetry_space_group_name_H-M   'P 1'
_cell_length_a   17.58101205
_cell_length_b   17.58132750
_cell_length_c   23.44636529
_cell_angle_alpha   89.99385503
_cell_angle_beta   90.00536054
_cell_angle_gamma   89.98924257
_symmetry_Int_Tables_number   1
_chemical_formula_structural   In86Cu29Se144
_chemical_formula_sum   'In86 Cu29 Se144'
_cell_volume   7247.21341018
_cell_formula_units_Z   1
loop_
 _symmetry_equiv_pos_site_id
 _symmetry_equiv_pos_as_xyz
  1  'x, y, z'
loop_
 _atom_site_type_symbol
 _atom_site_label
 _atom_site_symmetry_multiplicity
 _atom_site_fract_x
 _atom_site_fract_y
 _atom_site_fract_z
 _atom_site_occupancy
  In  In0  1  -0.01413636  0.17554348  0.13657848  1
  In  In1  1  0.00603625  0.14902238  0.62365510  1
  In  In2  1  -0.01993989  0.50387320  0.12411606  1
  In  In3  1  0.00266250  0.49037174  0.62501719  1
  In  In4  1  0.00837544  0.84005000  0.11601900  1
  In  In5  1  0.01464073  0.83931178  0.62181612  1
  In  In6  1  0.33207221  0.16463378  0.12437782  1
  In  In7  1  0.33775891  0.16307626  0.61714500  1
  In  In8  1  0.33764167  0.49802687  0.12364215  1
  In  In9  1  0.33514149  0.49932309  0.62600597  1
  In  In10  1  0.32722940  0.83574730  0.11636572  1
  In  In11  1  0.31986732  0.84731583  0.63576449  1
  In  In12  1  0.67678930  0.16270477  0.12653160  1
  In  In13  1  0.65547460  0.17413970  0.63017100  1
  In  In14  1  0.68374520  0.48970039  0.13199299  1
  In  In15  1  0.65323590  0.51295094  0.63777547  1
  In  In16  1  0.66518886  0.83032453  0.12339430  1
  In  In17  1  0.66275277  0.83590233  0.63683874  1
  In  In18  1  0.15902559  -0.00264092  0.38948918  1
  In  In19  1  0.16045095  -0.00579190  0.86479183  1
  In  In20  1  0.16604143  0.33266563  0.37939822  1
  In  In21  1  0.16699894  0.32323328  0.86660905  1
  In  In22  1  0.16821468  0.66274525  0.38451086  1
  In  In23  1  0.17834449  0.67323898  0.86802413  1
  In  In24  1  0.50951251  0.00310759  0.37745860  1
  In  In25  1  0.49232695  -0.00738190  0.86670714  1
  In  In26  1  0.50414163  0.32982167  0.38170613  1
  In  In27  1  0.50731065  0.33632295  0.86289887  1
  In  In28  1  0.49728035  0.66367756  0.37673994  1
  In  In29  1  0.50847113  0.67270388  0.86917063  1
  In  In30  1  0.83184684  0.00010657  0.36580354  1
  In  In31  1  0.83211351  -0.00057952  0.87883627  1
  In  In32  1  0.83185813  0.32895414  0.36577682  1
  In  In33  1  0.81219791  0.34278701  0.89817346  1
  In  In34  1  0.82288959  0.67765520  0.36892807  1
  In  In35  1  0.82877716  0.67538963  0.88514813  1
  In  In36  1  0.00071987  0.16291372  0.37351731  1
  In  In37  1  -0.00191894  0.15404267  0.87226755  1
  In  In38  1  0.01518181  0.49655655  0.37551685  1
  In  In39  1  -0.01198703  0.49485585  0.87999734  1
  In  In40  1  0.00668491  0.84086633  0.36687884  1
  In  In41  1  -0.01272709  0.84372004  0.89041150  1
  In  In42  1  0.33000243  0.15653688  0.39388941  1
  In  In43  1  0.33835704  0.16811329  0.85853672  1
  In  In44  1  0.33764616  0.50363151  0.38691677  1
  In  In45  1  0.33896083  0.50283434  0.85974896  1
  In  In46  1  0.33216985  0.83106620  0.38051961  1
  In  In47  1  0.33418013  0.83478566  0.87149933  1
  In  In48  1  0.66372038  0.16494201  0.36956069  1
  In  In49  1  0.67623390  0.17128064  0.87189480  1
  In  In50  1  0.66316672  0.49484206  0.37227573  1
  In  In51  1  0.67732299  0.49851313  0.86802501  1
  In  In52  1  0.65815522  0.84204562  0.35706745  1
  In  In53  1  0.66579043  0.83301968  0.87777781  1
  In  In54  1  0.15387191  -0.02263205  0.12623035  1
  In  In55  1  0.16898170  0.00037771  0.61539836  1
  In  In56  1  0.16248010  0.31430952  0.12798763  1
  In  In57  1  0.17663784  0.34216758  0.61726950  1
  In  In58  1  0.15170141  0.68296557  0.12502984  1
  In  In59  1  0.17856002  0.67845167  0.62112212  1
  In  In60  1  0.51487709  -0.00556861  0.12919919  1
  In  In61  1  0.49072981  0.01230649  0.62991326  1
  In  In62  1  0.51187525  0.34751065  0.12189267  1
  In  In63  1  0.49691264  0.33112694  0.62299099  1
  In  In64  1  0.50632505  0.68900893  0.11846030  1
  In  In65  1  0.50430789  0.66212957  0.63133800  1
  In  In66  1  0.83342041  0.00097637  0.12314297  1
  In  In67  1  0.83449173  -0.00233896  0.63605370  1
  In  In68  1  0.82855764  0.33483196  0.12381758  1
  In  In69  1  0.82897111  0.33058819  0.63278981  1
  In  In70  1  0.82790405  0.65500917  0.11170768  1
  In  In71  1  0.81732755  0.66536350  0.63812898  1
  In  In72  1  0.33455791  0.00049758  0.25784093  1
  In  In73  1  0.33436726  0.33080597  0.26490220  1
  In  In74  1  0.34041287  0.67067707  0.25431157  1
  In  In75  1  0.84041540  0.83662555  0.49387018  1
  In  In76  1  0.83610641  0.16584382  0.49623242  1
  In  In77  1  0.16320833  0.15920727  -0.00560668  1
  In  In78  1  0.49640453  0.83792130  0.50005858  1
  In  In79  1  -0.00602770  0.66442190  0.24857115  1
  In  In80  1  0.51074016  0.50743159  -0.01420585  1
  In  In81  1  0.16242365  0.50629496  -0.00054673  1
  In  In82  1  0.50956739  0.16174426  0.00499324  1
  In  In83  1  -0.00668589  0.33174363  0.75001066  1
  In  In84  1  -0.00487840  0.67209040  0.75801800  1
  In  In85  1  0.83420428  0.49842799  0.50608161  1
  Cu  Cu86  1  0.82762821  0.83259576  0.24100362  1
  Cu  Cu87  1  0.00538770  0.32978216  0.49953747  1
  Cu  Cu88  1  0.33442019  0.33521103  0.50317829  1
  Cu  Cu89  1  0.66412104  0.66906432  0.50591889  1
  Cu  Cu90  1  0.15712858  0.15191531  0.25420479  1
  Cu  Cu91  1  0.66611426  0.00764332  0.49886628  1
  Cu  Cu92  1  0.83310916  0.16327403  0.24745169  1
  Cu  Cu93  1  0.83321216  0.16330889  0.75417850  1
  Cu  Cu94  1  0.16479945  0.49142265  0.25271768  1
  Cu  Cu95  1  0.16959914  0.84206141  0.74617475  1
  Cu  Cu96  1  0.33805650  0.33437167  -0.01406645  1
  Cu  Cu97  1  0.33304622  -0.00740909  -0.00613633  1
  Cu  Cu98  1  0.32660931  0.67650959  -0.00278472  1
  Cu  Cu99  1  0.49594923  0.48980113  0.74585157  1
  Cu  Cu100  1  0.17452067  0.16650241  0.74026586  1
  Cu  Cu101  1  0.83109102  0.49713536  0.24559584  1
  Cu  Cu102  1  0.33632787  0.66572403  0.50644893  1
  Cu  Cu103  1  0.50407364  0.16143364  0.74441415  1
  Cu  Cu104  1  0.83474731  0.83586041  0.76110475  1
  Cu  Cu105  1  0.00485533  0.66109817  0.50243074  1
  Cu  Cu106  1  0.50298185  0.82748589  0.75170017  1
  Cu  Cu107  1  0.51295481  0.51026545  0.24995600  1
  Cu  Cu108  1  -0.00795153  0.33308638  0.00683170  1
  Cu  Cu109  1  0.16793724  0.50439421  0.74389544  1
  Cu  Cu110  1  0.65659019  0.33894256  0.50265981  1
  Cu  Cu111  1  0.66855620  -0.00768843  0.00014487  1
  Cu  Cu112  1  -0.00305608  0.00372959  0.00177867  1
  Cu  Cu113  1  0.66249869  0.66775829  -0.00165360  1
  Cu  Cu114  1  0.50412763  0.18006305  0.25016777  1
  Se  Se115  1  0.07579428  0.08300676  0.06479913  1
  Se  Se116  1  0.08735885  0.08659764  0.54692627  1
  Se  Se117  1  0.08162118  0.40835049  0.06292807  1
  Se  Se118  1  0.08401505  0.41930325  0.55091525  1
  Se  Se119  1  0.08426608  0.75363155  0.04561126  1
  Se  Se120  1  0.08576425  0.74962029  0.55243955  1
  Se  Se121  1  0.40942090  0.07118093  0.05839075  1
  Se  Se122  1  0.42394984  0.08266803  0.54920376  1
  Se  Se123  1  0.41440525  0.41471751  0.04777625  1
  Se  Se124  1  0.41830109  0.41963283  0.55495435  1
  Se  Se125  1  0.41441573  0.75631319  0.04880686  1
  Se  Se126  1  0.41363849  0.74976587  0.56596861  1
  Se  Se127  1  0.74858531  0.08068066  0.05185262  1
  Se  Se128  1  0.74828816  0.08044194  0.56219592  1
  Se  Se129  1  0.75639838  0.42332419  0.05253900  1
  Se  Se130  1  0.73957885  0.41294177  0.56442991  1
  Se  Se131  1  0.74717268  0.75017359  0.05175118  1
  Se  Se132  1  0.74725076  0.75205184  0.55968644  1
  Se  Se133  1  0.25969461  0.25647519  0.04970343  1
  Se  Se134  1  0.24975050  0.24882166  0.55199385  1
  Se  Se135  1  0.25588215  0.59367083  0.06155790  1
  Se  Se136  1  0.24994795  0.58117532  0.55661008  1
  Se  Se137  1  0.24320923  0.91925253  0.04942223  1
  Se  Se138  1  0.24825000  0.90606673  0.55265846  1
  Se  Se139  1  0.59657236  0.26043742  0.05719297  1
  Se  Se140  1  0.57959073  0.24684799  0.55267765  1
  Se  Se141  1  0.58867198  0.58434552  0.06220954  1
  Se  Se142  1  0.58227509  0.58317720  0.55625604  1
  Se  Se143  1  0.58068139  0.91281285  0.05222461  1
  Se  Se144  1  0.59199055  0.92264368  0.56030618  1
  Se  Se145  1  0.91174921  0.24540033  0.05751425  1
  Se  Se146  1  0.92222319  0.25652784  0.56150612  1
  Se  Se147  1  0.93139396  0.59349842  0.04716984  1
  Se  Se148  1  0.91900427  0.59497539  0.56611747  1
  Se  Se149  1  0.91411592  0.91731160  0.05278150  1
  Se  Se150  1  0.92166545  0.92667409  0.55842608  1
  Se  Se151  1  0.08246751  0.24476304  0.44373571  1
  Se  Se152  1  0.07247155  0.25928839  0.94186007  1
  Se  Se153  1  0.08749091  0.57540919  0.45124952  1
  Se  Se154  1  0.08041041  0.59225244  0.93293785  1
  Se  Se155  1  0.08072637  0.89953306  0.44905397  1
  Se  Se156  1  0.08559431  0.92767830  0.94618395  1
  Se  Se157  1  0.41629852  0.25182079  0.44863718  1
  Se  Se158  1  0.41991756  0.24692514  0.93638360  1
  Se  Se159  1  0.42343508  0.58655225  0.45278548  1
  Se  Se160  1  0.40434626  0.59223769  0.93818853  1
  Se  Se161  1  0.40753496  0.93200248  0.44317504  1
  Se  Se162  1  0.42059653  0.91245270  0.94300857  1
  Se  Se163  1  0.74207739  0.26146781  0.44368970  1
  Se  Se164  1  0.75660927  0.22961982  0.95322466  1
  Se  Se165  1  0.74685987  0.59115619  0.44481509  1
  Se  Se166  1  0.74364346  0.58232726  0.94504490  1
  Se  Se167  1  0.73847310  0.92182703  0.43790990  1
  Se  Se168  1  0.75398353  0.91033107  0.94691105  1
  Se  Se169  1  0.23773167  0.08319837  0.45716007  1
  Se  Se170  1  0.26064728  0.07985861  0.93361793  1
  Se  Se171  1  0.25040198  0.41585497  0.44668345  1
  Se  Se172  1  0.25084160  0.41541220  0.93442028  1
  Se  Se173  1  0.25458713  0.74618709  0.44911798  1
  Se  Se174  1  0.24512560  0.75889756  0.94284353  1
  Se  Se175  1  0.58428169  0.09209498  0.44637866  1
  Se  Se176  1  0.58833004  0.07202820  0.93783711  1
  Se  Se177  1  0.57910905  0.42505776  0.44713790  1
  Se  Se178  1  0.59458655  0.40255624  0.93963753  1
  Se  Se179  1  0.59366623  0.75219580  0.44074749  1
  Se  Se180  1  0.57840643  0.75135881  0.94662249  1
  Se  Se181  1  0.92107070  0.06755941  0.44225536  1
  Se  Se182  1  0.91492975  0.08595619  0.94737237  1
  Se  Se183  1  0.91984877  0.40852133  0.44144633  1
  Se  Se184  1  0.91175265  0.42142698  0.95618018  1
  Se  Se185  1  0.92616423  0.73639503  0.43794232  1
  Se  Se186  1  0.92529641  0.74107494  0.95208712  1
  Se  Se187  1  0.24362725  0.23024919  0.31250335  1
  Se  Se188  1  0.25269256  0.25390480  0.79436985  1
  Se  Se189  1  0.24680669  0.57346076  0.30868063  1
  Se  Se190  1  0.25156470  0.58755176  0.79678674  1
  Se  Se191  1  0.24190025  0.91038412  0.31292155  1
  Se  Se192  1  0.25678607  0.92213197  0.80048733  1
  Se  Se193  1  0.58692473  0.26053376  0.30553679  1
  Se  Se194  1  0.58601450  0.24302264  0.80129350  1
  Se  Se195  1  0.58971084  0.59274219  0.30816645  1
  Se  Se196  1  0.57460798  0.56917697  0.80758266  1
  Se  Se197  1  0.57662209  0.93236482  0.29674151  1
  Se  Se198  1  0.58581176  0.91272297  0.80451487  1
  Se  Se199  1  0.91776951  0.24400694  0.30348585  1
  Se  Se200  1  0.90751819  0.24799529  0.81571569  1
  Se  Se201  1  0.90812404  0.57246927  0.31348805  1
  Se  Se202  1  0.90430182  0.57826293  0.81128906  1
  Se  Se203  1  0.91020528  0.90900876  0.30094628  1
  Se  Se204  1  0.92161309  0.91987793  0.80939816  1
  Se  Se205  1  0.07950549  0.06850506  0.31049323  1
  Se  Se206  1  0.08900729  0.09071744  0.79922624  1
  Se  Se207  1  0.08273988  0.40672968  0.30390198  1
  Se  Se208  1  0.08732408  0.42738773  0.80679806  1
  Se  Se209  1  0.09374956  0.74486918  0.30636047  1
  Se  Se210  1  0.08622343  0.76789345  0.80999188  1
  Se  Se211  1  0.42203577  0.10148385  0.31067527  1
  Se  Se212  1  0.41717894  0.07790783  0.79482552  1
  Se  Se213  1  0.42715664  0.43225861  0.30985689  1
  Se  Se214  1  0.41019423  0.40497363  0.79710098  1
  Se  Se215  1  0.43024569  0.76612958  0.30870148  1
  Se  Se216  1  0.41502020  0.74703307  0.80358843  1
  Se  Se217  1  0.74598094  0.08285544  0.30094641  1
  Se  Se218  1  0.74999535  0.07740536  0.80570203  1
  Se  Se219  1  0.74826001  0.41654130  0.30286730  1
  Se  Se220  1  0.75213813  0.39945955  0.80836287  1
  Se  Se221  1  0.74322948  0.75178549  0.29581674  1
  Se  Se222  1  0.75043359  0.74883221  0.80877893  1
  Se  Se223  1  0.24138263  0.08334318  0.18984185  1
  Se  Se224  1  0.25341515  0.08058450  0.68664934  1
  Se  Se225  1  0.24846891  0.41457405  0.19176515  1
  Se  Se226  1  0.25016701  0.41594822  0.69523901  1
  Se  Se227  1  0.24615501  0.75634456  0.19403161  1
  Se  Se228  1  0.25138728  0.74832831  0.70174503  1
  Se  Se229  1  0.58027964  0.09317301  0.19417926  1
  Se  Se230  1  0.59135843  0.07467139  0.69713694  1
  Se  Se231  1  0.58841045  0.41752654  0.19924093  1
  Se  Se232  1  0.58317216  0.40758610  0.69515107  1
  Se  Se233  1  0.58360524  0.75242219  0.19659108  1
  Se  Se234  1  0.58852136  0.74202483  0.70127564  1
  Se  Se235  1  0.91695866  0.07497634  0.19866631  1
  Se  Se236  1  0.91979291  0.08461715  0.69969899  1
  Se  Se237  1  0.91664741  0.41269755  0.19578360  1
  Se  Se238  1  0.90399519  0.43130682  0.69694309  1
  Se  Se239  1  0.91018621  0.75142625  0.18324326  1
  Se  Se240  1  0.91133484  0.76342626  0.69051920  1
  Se  Se241  1  0.08213273  0.24621416  0.20386109  1
  Se  Se242  1  0.08714323  0.24956120  0.68670983  1
  Se  Se243  1  0.09000464  0.57293700  0.18982912  1
  Se  Se244  1  0.08312026  0.58621565  0.68957384  1
  Se  Se245  1  0.07532391  0.90678315  0.20070650  1
  Se  Se246  1  0.08609311  0.92509448  0.69295642  1
  Se  Se247  1  0.42024602  0.25352431  0.18855902  1
  Se  Se248  1  0.41775048  0.24345842  0.69116415  1
  Se  Se249  1  0.42716208  0.58116356  0.18849449  1
  Se  Se250  1  0.41586768  0.58116580  0.69722217  1
  Se  Se251  1  0.41563461  0.91257444  0.18974027  1
  Se  Se252  1  0.42424432  0.91316577  0.69612731  1
  Se  Se253  1  0.75098774  0.25111974  0.19645296  1
  Se  Se254  1  0.74973359  0.24486785  0.69890146  1
  Se  Se255  1  0.75420542  0.58943020  0.19519701  1
  Se  Se256  1  0.74641399  0.57970149  0.70701768  1
  Se  Se257  1  0.74552722  0.92023394  0.19051357  1
  Se  Se258  1  0.75069199  0.91578642  0.70306144  1
