# generated using pymatgen
data_Sr64Ca21Nb43O192
_symmetry_space_group_name_H-M   'P 1'
_cell_length_a   16.56049471
_cell_length_b   16.59235306
_cell_length_c   16.71671153
_cell_angle_alpha   89.94984586
_cell_angle_beta   89.96432736
_cell_angle_gamma   90.02070916
_symmetry_Int_Tables_number   1
_chemical_formula_structural   Sr64Ca21Nb43O192
_chemical_formula_sum   'Sr64 Ca21 Nb43 O192'
_cell_volume   4593.37450845
_cell_formula_units_Z   1
loop_
 _symmetry_equiv_pos_site_id
 _symmetry_equiv_pos_as_xyz
  1  'x, y, z'
loop_
 _atom_type_symbol
 _atom_type_oxidation_number
  Sr2+  2.0
  Ca2+  2.0
  Nb5+  5.0
  O2-  -2.0
loop_
 _atom_site_type_symbol
 _atom_site_label
 _atom_site_symmetry_multiplicity
 _atom_site_fract_x
 _atom_site_fract_y
 _atom_site_fract_z
 _atom_site_occupancy
  Sr2+  Sr0  1  0.12763933  0.12462414  0.12533743  1
  Sr2+  Sr1  1  0.11279454  0.14648615  0.63271721  1
  Sr2+  Sr2  1  0.11382016  0.62232207  0.12826043  1
  Sr2+  Sr3  1  0.11707991  0.61944183  0.62548806  1
  Sr2+  Sr4  1  0.62358225  0.13068329  0.12530773  1
  Sr2+  Sr5  1  0.62814717  0.13900481  0.61944486  1
  Sr2+  Sr6  1  0.61531924  0.62773033  0.13510270  1
  Sr2+  Sr7  1  0.61552756  0.61642273  0.63892333  1
  Sr2+  Sr8  1  0.36765284  0.36452910  0.12338812  1
  Sr2+  Sr9  1  0.37356878  0.38071385  0.62180920  1
  Sr2+  Sr10  1  0.37218980  0.88659336  0.12160341  1
  Sr2+  Sr11  1  0.36436601  0.88528239  0.62969687  1
  Sr2+  Sr12  1  0.87322401  0.36788109  0.12472214  1
  Sr2+  Sr13  1  0.87237951  0.36901968  0.61689898  1
  Sr2+  Sr14  1  0.87591046  0.86670463  0.12832188  1
  Sr2+  Sr15  1  0.87513547  0.88466243  0.63137075  1
  Sr2+  Sr16  1  0.13015663  0.37875795  0.38619743  1
  Sr2+  Sr17  1  0.14031409  0.37382009  0.87788388  1
  Sr2+  Sr18  1  0.13489183  0.86844560  0.37301862  1
  Sr2+  Sr19  1  0.13368302  0.86400771  0.87345250  1
  Sr2+  Sr20  1  0.62384381  0.37468497  0.39098636  1
  Sr2+  Sr21  1  0.62865567  0.37446598  0.86526544  1
  Sr2+  Sr22  1  0.62892763  0.86825175  0.37876089  1
  Sr2+  Sr23  1  0.63141502  0.87589987  0.87914438  1
  Sr2+  Sr24  1  0.38679370  0.11776495  0.37382781  1
  Sr2+  Sr25  1  0.39110727  0.12075160  0.87661969  1
  Sr2+  Sr26  1  0.37404050  0.62746232  0.37627082  1
  Sr2+  Sr27  1  0.39807642  0.62155597  0.87579231  1
  Sr2+  Sr28  1  0.88128589  0.11685037  0.37631692  1
  Sr2+  Sr29  1  0.87406516  0.11107417  0.87574312  1
  Sr2+  Sr30  1  0.84748427  0.62566558  0.37303096  1
  Sr2+  Sr31  1  0.87110691  0.62175451  0.87630007  1
  Sr2+  Sr32  1  0.12726180  0.10602019  0.37035169  1
  Sr2+  Sr33  1  0.13505420  0.11490201  0.87262040  1
  Sr2+  Sr34  1  0.12562969  0.62800562  0.38435736  1
  Sr2+  Sr35  1  0.11984580  0.61683892  0.87996846  1
  Sr2+  Sr36  1  0.62518488  0.13013378  0.37707970  1
  Sr2+  Sr37  1  0.63076417  0.11712781  0.87700631  1
  Sr2+  Sr38  1  0.62591956  0.61423905  0.37222833  1
  Sr2+  Sr39  1  0.63258826  0.60411481  0.87265806  1
  Sr2+  Sr40  1  0.38605536  0.35724295  0.37450535  1
  Sr2+  Sr41  1  0.38493879  0.36671674  0.87113319  1
  Sr2+  Sr42  1  0.37360897  0.86719556  0.38264639  1
  Sr2+  Sr43  1  0.38510432  0.86805449  0.87383518  1
  Sr2+  Sr44  1  0.87716397  0.36434756  0.37746004  1
  Sr2+  Sr45  1  0.87832023  0.36952281  0.88138827  1
  Sr2+  Sr46  1  0.87409285  0.86706209  0.36948223  1
  Sr2+  Sr47  1  0.87112801  0.87024072  0.86781172  1
  Sr2+  Sr48  1  0.13397126  0.37589917  0.12413494  1
  Sr2+  Sr49  1  0.12444208  0.38479437  0.62737878  1
  Sr2+  Sr50  1  0.12977229  0.87832290  0.13048606  1
  Sr2+  Sr51  1  0.11264617  0.86924111  0.62573740  1
  Sr2+  Sr52  1  0.64892707  0.37664766  0.12480522  1
  Sr2+  Sr53  1  0.59688846  0.37382768  0.62854698  1
  Sr2+  Sr54  1  0.60951283  0.88560388  0.12299870  1
  Sr2+  Sr55  1  0.63214968  0.89183522  0.61812986  1
  Sr2+  Sr56  1  0.36426204  0.12481462  0.12739513  1
  Sr2+  Sr57  1  0.36492796  0.13544717  0.61457276  1
  Sr2+  Sr58  1  0.37624935  0.63080919  0.12870089  1
  Sr2+  Sr59  1  0.36462871  0.61936652  0.63007040  1
  Sr2+  Sr60  1  0.86764738  0.13490320  0.13211934  1
  Sr2+  Sr61  1  0.87633989  0.12477015  0.63623304  1
  Sr2+  Sr62  1  0.87055374  0.62107285  0.12083548  1
  Sr2+  Sr63  1  0.87370784  0.62252591  0.61653220  1
  Ca2+  Ca64  1  0.50286694  0.49596812  0.00492961  1
  Ca2+  Ca65  1  -0.00077443  -0.00206101  0.50028343  1
  Ca2+  Ca66  1  -0.00001073  -0.00291395  0.00064177  1
  Ca2+  Ca67  1  0.49948952  -0.00354143  0.49987707  1
  Ca2+  Ca68  1  0.49735761  0.50566433  0.49650281  1
  Ca2+  Ca69  1  0.75160080  0.24970192  0.50125288  1
  Ca2+  Ca70  1  0.24504791  0.24896636  0.49781158  1
  Ca2+  Ca71  1  0.75056723  0.74905952  0.00241585  1
  Ca2+  Ca72  1  0.74908440  0.75182843  0.50829855  1
  Ca2+  Ca73  1  0.25164059  0.74696730  0.00421263  1
  Ca2+  Ca74  1  0.50117406  0.24916775  0.24425679  1
  Ca2+  Ca75  1  0.75297262  0.49897415  0.24865429  1
  Ca2+  Ca76  1  0.50274748  0.75225072  0.74837707  1
  Ca2+  Ca77  1  0.49755340  0.24476174  0.75108014  1
  Ca2+  Ca78  1  0.74901084  -0.00260613  0.24726099  1
  Ca2+  Ca79  1  0.25236279  0.50055269  0.24948378  1
  Ca2+  Ca80  1  0.24797725  0.50217870  0.75319003  1
  Ca2+  Ca81  1  0.75695331  0.49855458  0.74449195  1
  Ca2+  Ca82  1  0.25060052  0.00243379  0.74885077  1
  Ca2+  Ca83  1  -0.00368251  0.25528946  0.75464270  1
  Ca2+  Ca84  1  0.00095026  0.25071984  0.24978528  1
  Nb5+  Nb85  1  -0.00055950  0.49810593  0.00763030  1
  Nb5+  Nb86  1  -0.00313578  0.50112927  0.50232952  1
  Nb5+  Nb87  1  0.50013727  0.00106240  -0.00138431  1
  Nb5+  Nb88  1  0.75677373  0.24617193  -0.00460463  1
  Nb5+  Nb89  1  0.25007696  0.75068718  0.50645584  1
  Nb5+  Nb90  1  0.25596336  0.24684933  -0.00430449  1
  Nb5+  Nb91  1  0.49526119  0.75435799  0.25078160  1
  Nb5+  Nb92  1  0.25283651  -0.00142555  0.25292246  1
  Nb5+  Nb93  1  0.00027415  0.74662985  0.74785256  1
  Nb5+  Nb94  1  -0.00267626  0.74622671  0.24913710  1
  Nb5+  Nb95  1  0.74661013  0.00197007  0.74944967  1
  Nb5+  Nb96  1  -0.00181647  -0.00087933  0.24541860  1
  Nb5+  Nb97  1  0.00510926  -0.00083859  0.75694097  1
  Nb5+  Nb98  1  -0.00065697  0.49912411  0.25699768  1
  Nb5+  Nb99  1  -0.00541317  0.49934721  0.75574303  1
  Nb5+  Nb100  1  0.50172339  -0.00346523  0.25316350  1
  Nb5+  Nb101  1  0.49923115  0.00376644  0.74128530  1
  Nb5+  Nb102  1  0.49761393  0.49563843  0.24451955  1
  Nb5+  Nb103  1  0.49777725  0.49962943  0.75131417  1
  Nb5+  Nb104  1  0.24447216  0.24727418  0.25555397  1
  Nb5+  Nb105  1  0.24998970  0.25293328  0.74728870  1
  Nb5+  Nb106  1  0.24714366  0.74943981  0.24768371  1
  Nb5+  Nb107  1  0.25047374  0.74577931  0.75875910  1
  Nb5+  Nb108  1  0.74548545  0.24834548  0.25590758  1
  Nb5+  Nb109  1  0.75367984  0.25136126  0.75083661  1
  Nb5+  Nb110  1  0.74134513  0.75473175  0.24844248  1
  Nb5+  Nb111  1  0.74529233  0.75095967  0.74632925  1
  Nb5+  Nb112  1  0.00189933  0.24625777  0.49411094  1
  Nb5+  Nb113  1  0.00869895  0.24815671  0.99800264  1
  Nb5+  Nb114  1  -0.00157424  0.74865772  0.49402256  1
  Nb5+  Nb115  1  0.00043447  0.74966282  0.99562898  1
  Nb5+  Nb116  1  0.49767026  0.24769779  0.49767730  1
  Nb5+  Nb117  1  0.50828650  0.25248160  1.00334526  1
  Nb5+  Nb118  1  0.49948300  0.74896736  0.50802940  1
  Nb5+  Nb119  1  0.50702754  0.74821057  0.99775623  1
  Nb5+  Nb120  1  0.25313630  -0.00202159  -0.00600863  1
  Nb5+  Nb121  1  0.24209514  0.00027902  0.50809220  1
  Nb5+  Nb122  1  0.25346968  0.50369919  0.00254870  1
  Nb5+  Nb123  1  0.25212452  0.49934909  0.49620242  1
  Nb5+  Nb124  1  0.75408697  -0.00112439  0.00492894  1
  Nb5+  Nb125  1  0.75304346  0.00230332  0.49448864  1
  Nb5+  Nb126  1  0.75016991  0.49879304  -0.00141891  1
  Nb5+  Nb127  1  0.74510241  0.49687059  0.50331282  1
  O2-  O128  1  0.03572584  -0.00353831  0.13259637  1
  O2-  O129  1  0.01398198  -0.00165028  0.63845195  1
  O2-  O130  1  -0.00969960  0.51568296  0.12229721  1
  O2-  O131  1  -0.00701708  0.51237240  0.61918680  1
  O2-  O132  1  0.51548872  0.01424950  0.12146971  1
  O2-  O133  1  0.53562669  0.01658101  0.63382636  1
  O2-  O134  1  0.49239070  0.53766511  0.13196618  1
  O2-  O135  1  0.49518572  0.52135532  0.63168302  1
  O2-  O136  1  -0.02205626  -0.01555875  0.36198622  1
  O2-  O137  1  -0.03328866  -0.01192303  0.86819917  1
  O2-  O138  1  0.01647499  0.49495750  0.37319217  1
  O2-  O139  1  0.00327499  0.49545412  0.87330332  1
  O2-  O140  1  0.47352547  -0.02076495  0.36314752  1
  O2-  O141  1  0.48008519  -0.01519354  0.88178633  1
  O2-  O142  1  0.52034144  0.49048047  0.36127233  1
  O2-  O143  1  0.50532834  0.47744772  0.86906918  1
  O2-  O144  1  0.26596446  0.25597176  0.11635326  1
  O2-  O145  1  0.27533039  0.26588602  0.63441130  1
  O2-  O146  1  0.26654798  0.77956708  0.13736950  1
  O2-  O147  1  0.26189677  0.77176565  0.61956445  1
  O2-  O148  1  0.76754139  0.24809889  0.11418109  1
  O2-  O149  1  0.77629787  0.23952394  0.63719693  1
  O2-  O150  1  0.77775589  0.74384460  0.13739670  1
  O2-  O151  1  0.79413231  0.75092365  0.64051879  1
  O2-  O152  1  0.21555997  0.22912559  0.36449028  1
  O2-  O153  1  0.22035070  0.23582716  0.88331763  1
  O2-  O154  1  0.24208186  0.73670115  0.37090356  1
  O2-  O155  1  0.22400861  0.72832844  0.86895208  1
  O2-  O156  1  0.71863082  0.25474568  0.36658686  1
  O2-  O157  1  0.72241033  0.25059375  0.88030239  1
  O2-  O158  1  0.74249036  0.75939967  0.36939380  1
  O2-  O159  1  0.74151058  0.76409585  0.86454141  1
  O2-  O160  1  -0.02654691  0.24325512  0.11059251  1
  O2-  O161  1  -0.02423140  0.24056341  0.61321537  1
  O2-  O162  1  -0.01333607  0.73513231  0.13357765  1
  O2-  O163  1  -0.00681992  0.73543324  0.63111903  1
  O2-  O164  1  0.47948443  0.21860124  0.11199042  1
  O2-  O165  1  0.48177168  0.22892160  0.61550408  1
  O2-  O166  1  0.49407043  0.73534042  0.12725531  1
  O2-  O167  1  0.48809321  0.71212166  0.61497373  1
  O2-  O168  1  0.26649550  0.02098999  0.36804360  1
  O2-  O169  1  0.27353498  0.02508586  0.88347668  1
  O2-  O170  1  0.23359642  0.52767569  0.38269177  1
  O2-  O171  1  0.22659099  0.51079640  0.88834827  1
  O2-  O172  1  0.77852111  -0.00445684  0.38257472  1
  O2-  O173  1  0.75828104  -0.00042747  0.87898625  1
  O2-  O174  1  0.74049546  0.50416859  0.38355015  1
  O2-  O175  1  0.75859942  0.49847411  0.88056794  1
  O2-  O176  1  0.01961858  0.28077143  0.38138075  1
  O2-  O177  1  0.00951576  0.28535746  0.88771287  1
  O2-  O178  1  0.01805530  0.76216924  0.37881376  1
  O2-  O179  1  0.02132728  0.75390117  0.88070513  1
  O2-  O180  1  0.51712487  0.26951637  0.37838866  1
  O2-  O181  1  0.51188854  0.27014093  0.88680806  1
  O2-  O182  1  0.50443847  0.78348224  0.36467800  1
  O2-  O183  1  0.51263634  0.77916761  0.88528797  1
  O2-  O184  1  0.24246410  -0.01490596  0.12383747  1
  O2-  O185  1  0.22837174  -0.03483266  0.61568569  1
  O2-  O186  1  0.25650384  0.46514876  0.11468102  1
  O2-  O187  1  0.25150493  0.47907721  0.61401642  1
  O2-  O188  1  0.71744949  0.00222976  0.11368766  1
  O2-  O189  1  0.72998451  0.01121219  0.63438870  1
  O2-  O190  1  0.77374097  0.48859997  0.11338566  1
  O2-  O191  1  0.78413469  0.49755591  0.61377824  1
  O2-  O192  1  0.13358374  0.25423855  0.21403895  1
  O2-  O193  1  0.12979584  0.27563800  0.73213136  1
  O2-  O194  1  0.13021808  0.77039456  0.24306894  1
  O2-  O195  1  0.12234565  0.77286719  0.74137736  1
  O2-  O196  1  0.63350578  0.26372357  0.21591404  1
  O2-  O197  1  0.63510632  0.26096872  0.73216944  1
  O2-  O198  1  0.62709973  0.77759359  0.23531592  1
  O2-  O199  1  0.63683163  0.77352127  0.71584828  1
  O2-  O200  1  0.36154255  0.22428136  0.26146781  1
  O2-  O201  1  0.36211760  0.23047668  0.77946114  1
  O2-  O202  1  0.37796349  0.73858839  0.26028164  1
  O2-  O203  1  0.36571135  0.72906126  0.76954304  1
  O2-  O204  1  0.86419547  0.22179779  0.26507838  1
  O2-  O205  1  0.86471395  0.22437980  0.78301997  1
  O2-  O206  1  0.88595032  0.73407372  0.27326086  1
  O2-  O207  1  0.88640966  0.73906733  0.77808053  1
  O2-  O208  1  0.26208205  0.36167226  0.26822225  1
  O2-  O209  1  0.26280318  0.36742559  0.77884015  1
  O2-  O210  1  0.26612394  0.87847110  0.27036795  1
  O2-  O211  1  0.26658738  0.86456457  0.76759425  1
  O2-  O212  1  0.77390845  0.36378882  0.24406314  1
  O2-  O213  1  0.77414961  0.36399628  0.75928764  1
  O2-  O214  1  0.78306590  0.86614151  0.24866687  1
  O2-  O215  1  0.76665317  0.88143824  0.74782945  1
  O2-  O216  1  0.23429448  0.11672061  0.23153239  1
  O2-  O217  1  0.22016802  0.13576738  0.73749289  1
  O2-  O218  1  0.23922282  0.63793163  0.22413484  1
  O2-  O219  1  0.23273560  0.63769690  0.71674555  1
  O2-  O220  1  0.72683185  0.12998388  0.24454468  1
  O2-  O221  1  0.73413850  0.12059681  0.76138670  1
  O2-  O222  1  0.72989560  0.63651857  0.25629670  1
  O2-  O223  1  0.72692616  0.63615065  0.75211857  1
  O2-  O224  1  0.11372778  0.49051266  0.22882820  1
  O2-  O225  1  0.11030682  0.49085322  0.73587169  1
  O2-  O226  1  0.13343883  0.98049587  0.26631783  1
  O2-  O227  1  0.11641152  0.98071356  0.78164004  1
  O2-  O228  1  0.61698454  0.48974605  0.22376162  1
  O2-  O229  1  0.62034232  0.48050073  0.74063872  1
  O2-  O230  1  0.61382839  0.97006023  0.26510182  1
  O2-  O231  1  0.62747493  0.98033117  0.76990148  1
  O2-  O232  1  0.37330940  0.00954684  0.23002784  1
  O2-  O233  1  0.38536754  0.02426707  0.71735037  1
  O2-  O234  1  0.38584835  0.53692403  0.25778428  1
  O2-  O235  1  0.38127130  0.52682229  0.75784384  1
  O2-  O236  1  0.88711585  0.00916277  0.21602007  1
  O2-  O237  1  0.86847592  0.01223404  0.73819589  1
  O2-  O238  1  0.89000197  0.54190587  0.25468929  1
  O2-  O239  1  0.88855038  0.54721969  0.74861274  1
  O2-  O240  1  0.46715015  0.38544139  0.23321663  1
  O2-  O241  1  0.47686931  0.38152328  0.73071987  1
  O2-  O242  1  0.48415968  0.87479258  0.22049001  1
  O2-  O243  1  0.47631290  0.88702126  0.73927428  1
  O2-  O244  1  0.97127620  0.38893957  0.24284323  1
  O2-  O245  1  0.96309773  0.39029811  0.74037208  1
  O2-  O246  1  0.99249812  0.86752725  0.24095690  1
  O2-  O247  1  0.98567018  0.86954680  0.74618166  1
  O2-  O248  1  0.01973150  0.11265725  0.26030732  1
  O2-  O249  1  0.01439763  0.11595346  0.76029753  1
  O2-  O250  1  0.03281290  0.63405391  0.26187472  1
  O2-  O251  1  0.02729183  0.63219537  0.76144555  1
  O2-  O252  1  0.51527745  0.11134192  0.26564096  1
  O2-  O253  1  0.51563879  0.11249618  0.78171400  1
  O2-  O254  1  0.52614918  0.64282163  0.26375609  1
  O2-  O255  1  0.52516572  0.61829290  0.77354094  1
  O2-  O256  1  0.11758945  0.47645131  0.00710938  1
  O2-  O257  1  0.12106470  0.48812004  0.50457113  1
  O2-  O258  1  0.13802698  0.98503751  -0.02207383  1
  O2-  O259  1  0.13306143  0.98394347  0.46604718  1
  O2-  O260  1  0.63817127  0.46720779  -0.00117545  1
  O2-  O261  1  0.63316891  0.47181154  0.51761073  1
  O2-  O262  1  0.62012306  0.98684120  -0.01774299  1
  O2-  O263  1  0.63446526  0.97302159  0.48331037  1
  O2-  O264  1  0.37805522  0.01951030  0.01764921  1
  O2-  O265  1  0.36007920  0.01331062  0.51243520  1
  O2-  O266  1  0.36644655  0.51977185  -0.01064893  1
  O2-  O267  1  0.36318997  0.53105781  0.49790209  1
  O2-  O268  1  0.86389806  0.03101013  0.02067272  1
  O2-  O269  1  0.86660021  0.03077290  0.52269376  1
  O2-  O270  1  0.88149339  0.51779533  -0.01062119  1
  O2-  O271  1  0.88518065  0.52942062  0.48196944  1
  O2-  O272  1  0.47767001  0.36193341  0.02361571  1
  O2-  O273  1  0.47328374  0.36887183  0.51007087  1
  O2-  O274  1  0.48380580  0.88266514  0.01843427  1
  O2-  O275  1  0.46469743  0.86197301  0.51903566  1
  O2-  O276  1  0.97825414  0.38118013  0.01403330  1
  O2-  O277  1  0.97747686  0.38626264  0.50636813  1
  O2-  O278  1  0.97113753  0.86115977  0.00675242  1
  O2-  O279  1  0.98595887  0.86106179  0.52013045  1
  O2-  O280  1  0.02066229  0.13551913  -0.02079063  1
  O2-  O281  1  0.02469410  0.13447979  0.48008830  1
  O2-  O282  1  0.02487982  0.62014081  -0.00376847  1
  O2-  O283  1  0.02445779  0.62826050  0.49911175  1
  O2-  O284  1  0.51429088  0.12240552  -0.01963416  1
  O2-  O285  1  0.51433802  0.13031252  0.47667597  1
  O2-  O286  1  0.52937643  0.63575907  -0.02055934  1
  O2-  O287  1  0.50737941  0.64229972  0.45947483  1
  O2-  O288  1  0.12223990  0.26650410  0.01827544  1
  O2-  O289  1  0.11403013  0.27936288  0.52312762  1
  O2-  O290  1  0.11430924  0.76608767  0.02567277  1
  O2-  O291  1  0.12675038  0.76427931  0.50799213  1
  O2-  O292  1  0.62361515  0.26182596  0.02003214  1
  O2-  O293  1  0.61515745  0.26999013  0.51956281  1
  O2-  O294  1  0.61905905  0.77921399  0.02094376  1
  O2-  O295  1  0.61158211  0.77738276  0.51075021  1
  O2-  O296  1  0.36997688  0.23238624  -0.02080957  1
  O2-  O297  1  0.37799664  0.23003136  0.47403420  1
  O2-  O298  1  0.38791190  0.73147402  -0.00727062  1
  O2-  O299  1  0.36635518  0.73395003  0.48648035  1
  O2-  O300  1  0.87078533  0.23059282  -0.02338038  1
  O2-  O301  1  0.88474358  0.23778677  0.46773231  1
  O2-  O302  1  0.88709137  0.71554734  -0.00642559  1
  O2-  O303  1  0.88634293  0.72694389  0.48225933  1
  O2-  O304  1  0.26352160  0.36668407  -0.01809203  1
  O2-  O305  1  0.26569281  0.38655560  0.47019409  1
  O2-  O306  1  0.27380736  0.88429837  -0.01827834  1
  O2-  O307  1  0.25793585  0.87014886  0.47820004  1
  O2-  O308  1  0.77211522  0.36683442  -0.00420819  1
  O2-  O309  1  0.78192769  0.38341216  0.49235481  1
  O2-  O310  1  0.77685139  0.88587339  0.00320619  1
  O2-  O311  1  0.77076201  0.88717440  0.52269812  1
  O2-  O312  1  0.23430007  0.12566650  0.01512137  1
  O2-  O313  1  0.22433936  0.11357980  0.52934502  1
  O2-  O314  1  0.22958113  0.61263574  0.03102139  1
  O2-  O315  1  0.22938325  0.63250161  0.51837376  1
  O2-  O316  1  0.72939911  0.12795038  -0.00306780  1
  O2-  O317  1  0.71946164  0.11661305  0.49768450  1
  O2-  O318  1  0.72785447  0.61256040  0.00336042  1
  O2-  O319  1  0.72714235  0.61673288  0.50766134  1
