# generated using pymatgen
data_Sr64Ca21Nb43O192
_symmetry_space_group_name_H-M   'P 1'
_cell_length_a   16.55060702
_cell_length_b   16.56906497
_cell_length_c   16.69793830
_cell_angle_alpha   89.97940993
_cell_angle_beta   90.00044249
_cell_angle_gamma   89.94637148
_symmetry_Int_Tables_number   1
_chemical_formula_structural   Sr64Ca21Nb43O192
_chemical_formula_sum   'Sr64 Ca21 Nb43 O192'
_cell_volume   4579.04130852
_cell_formula_units_Z   1
loop_
 _symmetry_equiv_pos_site_id
 _symmetry_equiv_pos_as_xyz
  1  'x, y, z'
loop_
 _atom_type_symbol
 _atom_type_oxidation_number
  Sr2+  2.0
  Ca2+  2.0
  Nb5+  5.0
  O2-  -2.0
loop_
 _atom_site_type_symbol
 _atom_site_label
 _atom_site_symmetry_multiplicity
 _atom_site_fract_x
 _atom_site_fract_y
 _atom_site_fract_z
 _atom_site_occupancy
  Sr2+  Sr0  1  0.11522492  0.11793008  0.13362176  1
  Sr2+  Sr1  1  0.11834145  0.12113593  0.62273727  1
  Sr2+  Sr2  1  0.12009622  0.61844091  0.13382970  1
  Sr2+  Sr3  1  0.11428761  0.61504219  0.61660804  1
  Sr2+  Sr4  1  0.61383816  0.11641689  0.12940268  1
  Sr2+  Sr5  1  0.62129149  0.12196984  0.63486089  1
  Sr2+  Sr6  1  0.62317144  0.61758260  0.12467083  1
  Sr2+  Sr7  1  0.62390806  0.61833996  0.61536875  1
  Sr2+  Sr8  1  0.37033869  0.37780980  0.12475787  1
  Sr2+  Sr9  1  0.37345184  0.36600061  0.62688796  1
  Sr2+  Sr10  1  0.36750343  0.85689198  0.12075170  1
  Sr2+  Sr11  1  0.36542161  0.86133415  0.62513214  1
  Sr2+  Sr12  1  0.87409156  0.38273762  0.12095007  1
  Sr2+  Sr13  1  0.87374761  0.37455018  0.63069214  1
  Sr2+  Sr14  1  0.86739157  0.86418224  0.12814339  1
  Sr2+  Sr15  1  0.86940623  0.86304746  0.61713335  1
  Sr2+  Sr16  1  0.13868894  0.37537306  0.37956474  1
  Sr2+  Sr17  1  0.13086151  0.37538913  0.87522504  1
  Sr2+  Sr18  1  0.12554687  0.88128651  0.36351190  1
  Sr2+  Sr19  1  0.14224992  0.88303423  0.87344790  1
  Sr2+  Sr20  1  0.63800425  0.37083539  0.37358767  1
  Sr2+  Sr21  1  0.63727578  0.37778904  0.87462451  1
  Sr2+  Sr22  1  0.63307206  0.88137863  0.38457560  1
  Sr2+  Sr23  1  0.62232501  0.87976688  0.88131418  1
  Sr2+  Sr24  1  0.38689306  0.13897507  0.37697881  1
  Sr2+  Sr25  1  0.37491093  0.12528453  0.87458332  1
  Sr2+  Sr26  1  0.38766124  0.62712254  0.36972700  1
  Sr2+  Sr27  1  0.38648492  0.62835907  0.87335908  1
  Sr2+  Sr28  1  0.90123256  0.11935068  0.37641696  1
  Sr2+  Sr29  1  0.89090973  0.13048138  0.87636590  1
  Sr2+  Sr30  1  0.88816909  0.63559346  0.37154141  1
  Sr2+  Sr31  1  0.88573675  0.62878190  0.86965692  1
  Sr2+  Sr32  1  0.13267215  0.13482601  0.37434878  1
  Sr2+  Sr33  1  0.12879653  0.11782995  0.87044828  1
  Sr2+  Sr34  1  0.13540553  0.63528973  0.37185840  1
  Sr2+  Sr35  1  0.12855055  0.64055479  0.87753725  1
  Sr2+  Sr36  1  0.62704955  0.11679532  0.36832124  1
  Sr2+  Sr37  1  0.62528325  0.11573490  0.87237844  1
  Sr2+  Sr38  1  0.62645643  0.64145447  0.37367844  1
  Sr2+  Sr39  1  0.62999248  0.63663893  0.86975342  1
  Sr2+  Sr40  1  0.38003423  0.38001111  0.37624469  1
  Sr2+  Sr41  1  0.38583449  0.37736567  0.87887296  1
  Sr2+  Sr42  1  0.38764940  0.87494412  0.38182754  1
  Sr2+  Sr43  1  0.37943078  0.87533004  0.86692823  1
  Sr2+  Sr44  1  0.87758413  0.38579118  0.37488556  1
  Sr2+  Sr45  1  0.88917955  0.37595217  0.87520468  1
  Sr2+  Sr46  1  0.87919260  0.89063588  0.37673504  1
  Sr2+  Sr47  1  0.88021183  0.88448247  0.87955210  1
  Sr2+  Sr48  1  0.12887446  0.37628342  0.12525646  1
  Sr2+  Sr49  1  0.11679229  0.36862306  0.62153641  1
  Sr2+  Sr50  1  0.11144135  0.86723227  0.12770886  1
  Sr2+  Sr51  1  0.11465273  0.86981130  0.62968803  1
  Sr2+  Sr52  1  0.64608141  0.37372305  0.12121390  1
  Sr2+  Sr53  1  0.64903595  0.37470356  0.63349275  1
  Sr2+  Sr54  1  0.62482282  0.87389107  0.12246659  1
  Sr2+  Sr55  1  0.62323216  0.86879995  0.61677073  1
  Sr2+  Sr56  1  0.36648709  0.12387443  0.13158080  1
  Sr2+  Sr57  1  0.36244602  0.12382095  0.62167010  1
  Sr2+  Sr58  1  0.36034892  0.61700327  0.12881789  1
  Sr2+  Sr59  1  0.36305586  0.61903179  0.62754510  1
  Sr2+  Sr60  1  0.86829719  0.12367215  0.14012717  1
  Sr2+  Sr61  1  0.86877347  0.12590282  0.62216345  1
  Sr2+  Sr62  1  0.87423379  0.62165603  0.12211474  1
  Sr2+  Sr63  1  0.87087075  0.61772900  0.61111039  1
  Ca2+  Ca64  1  0.00497655  0.00064543  0.50410450  1
  Ca2+  Ca65  1  0.00182063  0.00078931  0.00138501  1
  Ca2+  Ca66  1  -0.00000707  0.49785783  0.49583536  1
  Ca2+  Ca67  1  0.49652504  0.00353315  0.50243338  1
  Ca2+  Ca68  1  0.50241102  0.49504813  0.49898328  1
  Ca2+  Ca69  1  0.74967332  0.24691206  0.49773192  1
  Ca2+  Ca70  1  0.75103698  0.24873541  -0.00078529  1
  Ca2+  Ca71  1  0.24945772  0.75110273  -0.00003266  1
  Ca2+  Ca72  1  0.24845263  0.24960900  -0.00202005  1
  Ca2+  Ca73  1  0.25041489  0.74990079  0.49914177  1
  Ca2+  Ca74  1  0.00148926  0.25444252  0.24995878  1
  Ca2+  Ca75  1  0.75077566  0.50379496  0.75324975  1
  Ca2+  Ca76  1  -0.00402023  0.74769656  0.74790363  1
  Ca2+  Ca77  1  0.74848830  -0.00222948  0.24950345  1
  Ca2+  Ca78  1  0.24922983  0.49625727  0.75298194  1
  Ca2+  Ca79  1  0.75156309  -0.00923043  0.75052652  1
  Ca2+  Ca80  1  0.50177557  0.75199147  0.24894579  1
  Ca2+  Ca81  1  0.50499912  0.75193872  0.74726681  1
  Ca2+  Ca82  1  0.25263663  0.00035774  0.25191218  1
  Ca2+  Ca83  1  -0.00305819  0.74839460  0.24941346  1
  Ca2+  Ca84  1  0.74729386  0.50517950  0.25487413  1
  Nb5+  Nb85  1  0.50353424  0.49442247  0.00417053  1
  Nb5+  Nb86  1  0.49430331  -0.00414558  0.00248465  1
  Nb5+  Nb87  1  0.00746928  0.50093131  -0.00078868  1
  Nb5+  Nb88  1  0.75368014  0.74810173  0.49093849  1
  Nb5+  Nb89  1  0.25066331  0.24957541  0.50080772  1
  Nb5+  Nb90  1  0.75133544  0.74811087  -0.00751696  1
  Nb5+  Nb91  1  0.50278847  0.25571952  0.25271975  1
  Nb5+  Nb92  1  0.25185367  -0.00047606  0.74742877  1
  Nb5+  Nb93  1  0.00723068  0.24912046  0.74999028  1
  Nb5+  Nb94  1  0.50406570  0.25117403  0.75523167  1
  Nb5+  Nb95  1  0.24910083  0.50036016  0.25188934  1
  Nb5+  Nb96  1  0.00096774  0.00036927  0.24683340  1
  Nb5+  Nb97  1  -0.00455640  -0.00209967  0.74992810  1
  Nb5+  Nb98  1  0.00151180  0.49598838  0.25366685  1
  Nb5+  Nb99  1  0.00302833  0.50128983  0.75075300  1
  Nb5+  Nb100  1  0.49333723  -0.00303237  0.24957487  1
  Nb5+  Nb101  1  0.49494318  0.00153147  0.74556496  1
  Nb5+  Nb102  1  0.50336630  0.49616258  0.24938698  1
  Nb5+  Nb103  1  0.49759969  0.50088840  0.74952190  1
  Nb5+  Nb104  1  0.25117100  0.25319366  0.24722746  1
  Nb5+  Nb105  1  0.25389941  0.24640598  0.75124706  1
  Nb5+  Nb106  1  0.25417699  0.75646993  0.25426477  1
  Nb5+  Nb107  1  0.24655190  0.74185289  0.74617054  1
  Nb5+  Nb108  1  0.75516861  0.24829007  0.25323014  1
  Nb5+  Nb109  1  0.75917061  0.24439272  0.75321880  1
  Nb5+  Nb110  1  0.74706932  0.75097482  0.24264008  1
  Nb5+  Nb111  1  0.75060649  0.74792403  0.73988750  1
  Nb5+  Nb112  1  -0.00261204  0.25161392  0.49661002  1
  Nb5+  Nb113  1  0.00238454  0.24861867  1.00078375  1
  Nb5+  Nb114  1  0.00636205  0.75336400  0.49506051  1
  Nb5+  Nb115  1  -0.00120979  0.75381624  0.99789379  1
  Nb5+  Nb116  1  0.50378340  0.25299482  0.51063846  1
  Nb5+  Nb117  1  0.50136197  0.24476570  1.00486973  1
  Nb5+  Nb118  1  0.49636969  0.74620324  0.50476208  1
  Nb5+  Nb119  1  0.50065484  0.74101771  1.00187727  1
  Nb5+  Nb120  1  0.25098434  -0.00283970  0.00709777  1
  Nb5+  Nb121  1  0.24950860  -0.00231856  0.49723621  1
  Nb5+  Nb122  1  0.25372049  0.50580930  -0.00350856  1
  Nb5+  Nb123  1  0.25303663  0.49903148  0.50401923  1
  Nb5+  Nb124  1  0.75083994  0.00314762  0.00024700  1
  Nb5+  Nb125  1  0.74774157  0.00355691  0.50435055  1
  Nb5+  Nb126  1  0.75726616  0.50459297  -0.00314597  1
  Nb5+  Nb127  1  0.74849440  0.49783500  0.49648423  1
  O2-  O128  1  -0.01210587  0.03352023  0.13055309  1
  O2-  O129  1  -0.00959655  0.03552399  0.63870414  1
  O2-  O130  1  -0.01110124  0.52245165  0.11613386  1
  O2-  O131  1  -0.01265834  0.51747829  0.63626444  1
  O2-  O132  1  0.48371458  0.02608185  0.11830023  1
  O2-  O133  1  0.48626592  0.03544121  0.63638357  1
  O2-  O134  1  0.47630731  0.51722010  0.12066149  1
  O2-  O135  1  0.47420666  0.51227617  0.63797306  1
  O2-  O136  1  0.01015617  -0.02103026  0.36632353  1
  O2-  O137  1  0.02527525  -0.01748699  0.86486846  1
  O2-  O138  1  0.01593014  0.46402330  0.36260036  1
  O2-  O139  1  0.01636928  0.47624044  0.88093536  1
  O2-  O140  1  0.50961670  -0.01652353  0.36334131  1
  O2-  O141  1  0.50493479  -0.01057850  0.87999900  1
  O2-  O142  1  0.51189912  0.46761911  0.36011088  1
  O2-  O143  1  0.51133436  0.47938420  0.88767353  1
  O2-  O144  1  0.25829856  0.27326991  0.13353319  1
  O2-  O145  1  0.25234142  0.26765903  0.62355536  1
  O2-  O146  1  0.23386431  0.77759925  0.13568326  1
  O2-  O147  1  0.23335850  0.77907673  0.63382214  1
  O2-  O148  1  0.76622743  0.27448159  0.13525836  1
  O2-  O149  1  0.76216878  0.26939426  0.63506212  1
  O2-  O150  1  0.73495127  0.76663949  0.12588992  1
  O2-  O151  1  0.73943852  0.76585201  0.62486875  1
  O2-  O152  1  0.25379731  0.23662575  0.37862225  1
  O2-  O153  1  0.24171115  0.22017736  0.86258997  1
  O2-  O154  1  0.27143457  0.71999085  0.36701060  1
  O2-  O155  1  0.26991772  0.72762440  0.86419181  1
  O2-  O156  1  0.71658604  0.23427651  0.36517415  1
  O2-  O157  1  0.72980496  0.22480069  0.86532442  1
  O2-  O158  1  0.76370282  0.72811050  0.37782774  1
  O2-  O159  1  0.76307402  0.72456284  0.88093183  1
  O2-  O160  1  -0.00841911  0.22801845  0.11339135  1
  O2-  O161  1  -0.00216542  0.22868567  0.63164699  1
  O2-  O162  1  0.01144062  0.72402350  0.11174946  1
  O2-  O163  1  0.01922485  0.72930638  0.61336119  1
  O2-  O164  1  0.48850391  0.23154163  0.11943942  1
  O2-  O165  1  0.49368235  0.23061343  0.62490498  1
  O2-  O166  1  0.53257257  0.74718193  0.11415868  1
  O2-  O167  1  0.53586038  0.74063230  0.61666353  1
  O2-  O168  1  0.21635889  0.01042997  0.38761098  1
  O2-  O169  1  0.24148151  0.01950824  0.86959981  1
  O2-  O170  1  0.22637638  0.50803898  0.36837025  1
  O2-  O171  1  0.22717574  0.52557273  0.88682823  1
  O2-  O172  1  0.72828622  0.00402473  0.38470128  1
  O2-  O173  1  0.71899202  -0.00190684  0.88625242  1
  O2-  O174  1  0.70711889  0.51323638  0.38677326  1
  O2-  O175  1  0.72000069  0.51976728  0.88772425  1
  O2-  O176  1  -0.00157621  0.27938261  0.38562971  1
  O2-  O177  1  0.01174936  0.27319503  0.86774393  1
  O2-  O178  1  -0.03102226  0.76784740  0.38280948  1
  O2-  O179  1  -0.03498772  0.75836151  0.88426210  1
  O2-  O180  1  0.50177439  0.27264621  0.36700429  1
  O2-  O181  1  0.50933747  0.26934181  0.86995706  1
  O2-  O182  1  0.48251963  0.75996416  0.38528420  1
  O2-  O183  1  0.48898530  0.76725856  0.88696730  1
  O2-  O184  1  0.27992690  -0.01918163  0.11661336  1
  O2-  O185  1  0.27937794  -0.00988168  0.63202324  1
  O2-  O186  1  0.26140672  0.48226214  0.12754803  1
  O2-  O187  1  0.27919369  0.48234039  0.61561825  1
  O2-  O188  1  0.75867821  -0.03031838  0.11218698  1
  O2-  O189  1  0.76443765  -0.02966342  0.61690242  1
  O2-  O190  1  0.76553543  0.49336758  0.11622154  1
  O2-  O191  1  0.77830754  0.49109203  0.61736899  1
  O2-  O192  1  0.13693438  0.27582678  0.25716985  1
  O2-  O193  1  0.12636247  0.25854255  0.74032364  1
  O2-  O194  1  0.13442263  0.75935747  0.26992563  1
  O2-  O195  1  0.13310978  0.76875409  0.77495892  1
  O2-  O196  1  0.61606509  0.27644163  0.23304332  1
  O2-  O197  1  0.61828465  0.25791895  0.73482279  1
  O2-  O198  1  0.63403546  0.78196049  0.27152718  1
  O2-  O199  1  0.63930409  0.78362973  0.77045562  1
  O2-  O200  1  0.37632653  0.23857981  0.25295952  1
  O2-  O201  1  0.37354681  0.23031606  0.74718807  1
  O2-  O202  1  0.36745836  0.73017145  0.22478376  1
  O2-  O203  1  0.36719405  0.73644914  0.72847877  1
  O2-  O204  1  0.86686418  0.22427540  0.26865554  1
  O2-  O205  1  0.87697375  0.23294739  0.76162608  1
  O2-  O206  1  0.86251558  0.71682820  0.23451839  1
  O2-  O207  1  0.86299838  0.70414601  0.73442625  1
  O2-  O208  1  0.26824318  0.37771690  0.26824667  1
  O2-  O209  1  0.26547627  0.36005520  0.77178682  1
  O2-  O210  1  0.27184838  0.86745044  0.28228336  1
  O2-  O211  1  0.26519074  0.88311699  0.76646955  1
  O2-  O212  1  0.76219080  0.36801388  0.27515993  1
  O2-  O213  1  0.75714075  0.36331735  0.77225012  1
  O2-  O214  1  0.78080767  0.86317216  0.26519676  1
  O2-  O215  1  0.79306707  0.85639830  0.76464808  1
  O2-  O216  1  0.23297832  0.13810622  0.23415793  1
  O2-  O217  1  0.23832014  0.12464642  0.72482239  1
  O2-  O218  1  0.23657555  0.61778398  0.23413323  1
  O2-  O219  1  0.22857243  0.63005341  0.72056489  1
  O2-  O220  1  0.72570569  0.13543006  0.22560462  1
  O2-  O221  1  0.73911134  0.12928260  0.72659988  1
  O2-  O222  1  0.71199979  0.63629358  0.24170773  1
  O2-  O223  1  0.70914491  0.63430479  0.73944245  1
  O2-  O224  1  0.12984217  0.48378316  0.22997885  1
  O2-  O225  1  0.11591596  0.46517000  0.74061474  1
  O2-  O226  1  0.12019769  0.98064619  0.22604014  1
  O2-  O227  1  0.13230317  0.99186648  0.73570875  1
  O2-  O228  1  0.61245600  0.48136367  0.21873168  1
  O2-  O229  1  0.61020967  0.46828608  0.74583635  1
  O2-  O230  1  0.60931778  0.99218596  0.22436526  1
  O2-  O231  1  0.61126682  0.99169626  0.74091707  1
  O2-  O232  1  0.38425029  0.04117253  0.25955391  1
  O2-  O233  1  0.37355210  0.02154002  0.76811730  1
  O2-  O234  1  0.37092048  0.51228046  0.25947313  1
  O2-  O235  1  0.38320168  0.50417268  0.78546047  1
  O2-  O236  1  0.88237310  0.02439817  0.26139008  1
  O2-  O237  1  0.88509949  0.01645183  0.77685375  1
  O2-  O238  1  0.88604026  0.51387675  0.26503465  1
  O2-  O239  1  0.88740332  0.50134221  0.77966846  1
  O2-  O240  1  0.47564659  0.37318209  0.22650603  1
  O2-  O241  1  0.47495163  0.36582116  0.73979530  1
  O2-  O242  1  0.46489565  0.88797507  0.23029892  1
  O2-  O243  1  0.47314080  0.88893178  0.73480436  1
  O2-  O244  1  0.99164542  0.38541233  0.21091416  1
  O2-  O245  1  0.98265787  0.36617503  0.73462088  1
  O2-  O246  1  0.98357503  0.88303290  0.22267043  1
  O2-  O247  1  0.98736194  0.88556879  0.72336777  1
  O2-  O248  1  0.02671861  0.11989310  0.27103984  1
  O2-  O249  1  0.01350480  0.13074656  0.77450235  1
  O2-  O250  1  0.02604844  0.61138594  0.26495647  1
  O2-  O251  1  0.02534691  0.61200904  0.77287585  1
  O2-  O252  1  0.51949889  0.13723011  0.26050292  1
  O2-  O253  1  0.50854688  0.13061781  0.77401116  1
  O2-  O254  1  0.51139966  0.61184302  0.26644875  1
  O2-  O255  1  0.51359606  0.61371705  0.77278079  1
  O2-  O256  1  0.12229189  0.48762872  0.01684506  1
  O2-  O257  1  0.13587406  0.47520095  0.51336988  1
  O2-  O258  1  0.13760867  0.97142774  0.01490810  1
  O2-  O259  1  0.13984816  0.98837382  0.54007910  1
  O2-  O260  1  0.61778829  0.49168824  0.02405434  1
  O2-  O261  1  0.63426072  0.48636345  0.53600754  1
  O2-  O262  1  0.61424064  0.98548983  0.01546685  1
  O2-  O263  1  0.62966725  0.97576991  0.51440545  1
  O2-  O264  1  0.37885198  0.02749459  -0.01240515  1
  O2-  O265  1  0.36149863  0.03592092  0.48726720  1
  O2-  O266  1  0.37227008  0.52170033  -0.01209731  1
  O2-  O267  1  0.36444117  0.51263918  0.46612086  1
  O2-  O268  1  0.86392953  0.01421061  -0.02414794  1
  O2-  O269  1  0.86636019  0.01815706  0.48611111  1
  O2-  O270  1  0.87245000  0.51894312  -0.01778585  1
  O2-  O271  1  0.86469008  0.52008386  0.46822091  1
  O2-  O272  1  0.47860237  0.38057965  0.01666940  1
  O2-  O273  1  0.46287208  0.36234546  0.50685779  1
  O2-  O274  1  0.48046732  0.88096396  0.01503292  1
  O2-  O275  1  0.48003349  0.86702561  0.51602056  1
  O2-  O276  1  0.97804643  0.38427143  0.01239390  1
  O2-  O277  1  0.98555860  0.36405102  0.53261771  1
  O2-  O278  1  0.97755954  0.86548197  0.02090789  1
  O2-  O279  1  0.98608593  0.86760164  0.52437276  1
  O2-  O280  1  0.02056225  0.13730522  -0.02668762  1
  O2-  O281  1  0.02905744  0.13677559  0.48302548  1
  O2-  O282  1  0.00852580  0.61978428  -0.02512837  1
  O2-  O283  1  0.01790006  0.63249923  0.47622295  1
  O2-  O284  1  0.52050447  0.13103263  -0.01630271  1
  O2-  O285  1  0.51520169  0.14258745  0.47075191  1
  O2-  O286  1  0.51493028  0.62514246  -0.01545824  1
  O2-  O287  1  0.52061440  0.63018124  0.48387017  1
  O2-  O288  1  0.11468078  0.28484029  0.00127782  1
  O2-  O289  1  0.12918648  0.27094973  0.50086405  1
  O2-  O290  1  0.11228387  0.76616832  -0.02459717  1
  O2-  O291  1  0.11861215  0.77260662  0.47072260  1
  O2-  O292  1  0.61272463  0.28044913  0.00350658  1
  O2-  O293  1  0.61407542  0.28281585  0.51287080  1
  O2-  O294  1  0.62880146  0.76286799  -0.01741343  1
  O2-  O295  1  0.63305748  0.76585645  0.48334116  1
  O2-  O296  1  0.38650071  0.24530522  -0.02149801  1
  O2-  O297  1  0.36926260  0.22930614  0.50467959  1
  O2-  O298  1  0.38718065  0.73239163  0.02313490  1
  O2-  O299  1  0.38431661  0.72699719  0.52940125  1
  O2-  O300  1  0.88611095  0.24801062  -0.02529885  1
  O2-  O301  1  0.88477471  0.22179493  0.49869069  1
  O2-  O302  1  0.86702179  0.73358971  0.02048273  1
  O2-  O303  1  0.87101379  0.73448948  0.51712908  1
  O2-  O304  1  0.26356589  0.38852614  -0.01805701  1
  O2-  O305  1  0.26630863  0.37065025  0.48243151  1
  O2-  O306  1  0.27653581  0.88558325  -0.02847160  1
  O2-  O307  1  0.27872120  0.88626938  0.48809833  1
  O2-  O308  1  0.75780839  0.38848641  -0.01582926  1
  O2-  O309  1  0.76714611  0.38294780  0.48014450  1
  O2-  O310  1  0.76257690  0.86619874  -0.01743046  1
  O2-  O311  1  0.76908363  0.86689770  0.48353485  1
  O2-  O312  1  0.23039638  0.11443736  0.02039788  1
  O2-  O313  1  0.22831869  0.13279181  0.51572277  1
  O2-  O314  1  0.23288853  0.61760946  0.03091529  1
  O2-  O315  1  0.23199442  0.61324318  0.51859583  1
  O2-  O316  1  0.72984806  0.11399057  0.02280662  1
  O2-  O317  1  0.72691341  0.11518962  0.52768719  1
  O2-  O318  1  0.73254141  0.62807106  0.01971682  1
  O2-  O319  1  0.73717772  0.62937184  0.51665931  1
