# generated using pymatgen
data_Sr64Ca21Nb43O192
_symmetry_space_group_name_H-M   'P 1'
_cell_length_a   16.59048686
_cell_length_b   16.56783389
_cell_length_c   16.73519644
_cell_angle_alpha   90.02699148
_cell_angle_beta   89.93143809
_cell_angle_gamma   90.07749562
_symmetry_Int_Tables_number   1
_chemical_formula_structural   Sr64Ca21Nb43O192
_chemical_formula_sum   'Sr64 Ca21 Nb43 O192'
_cell_volume   4599.96917290
_cell_formula_units_Z   1
loop_
 _symmetry_equiv_pos_site_id
 _symmetry_equiv_pos_as_xyz
  1  'x, y, z'
loop_
 _atom_type_symbol
 _atom_type_oxidation_number
  Sr2+  2.0
  Ca2+  2.0
  Nb5+  5.0
  O2-  -2.0
loop_
 _atom_site_type_symbol
 _atom_site_label
 _atom_site_symmetry_multiplicity
 _atom_site_fract_x
 _atom_site_fract_y
 _atom_site_fract_z
 _atom_site_occupancy
  Sr2+  Sr0  1  0.12956780  0.11545234  0.11996436  1
  Sr2+  Sr1  1  0.13638907  0.12196508  0.63435244  1
  Sr2+  Sr2  1  0.13668088  0.61910050  0.12579124  1
  Sr2+  Sr3  1  0.12310226  0.62545801  0.61211051  1
  Sr2+  Sr4  1  0.63013228  0.11807582  0.11473408  1
  Sr2+  Sr5  1  0.63597686  0.11575386  0.62267508  1
  Sr2+  Sr6  1  0.62915269  0.61638318  0.13277711  1
  Sr2+  Sr7  1  0.62744977  0.61116388  0.62869328  1
  Sr2+  Sr8  1  0.38407448  0.36916902  0.13146001  1
  Sr2+  Sr9  1  0.37800719  0.36957026  0.61709876  1
  Sr2+  Sr10  1  0.38116369  0.86934437  0.12485454  1
  Sr2+  Sr11  1  0.38243975  0.86178767  0.63042030  1
  Sr2+  Sr12  1  0.88109676  0.35777522  0.12551089  1
  Sr2+  Sr13  1  0.88119749  0.36940974  0.62848465  1
  Sr2+  Sr14  1  0.88393539  0.87292508  0.12748738  1
  Sr2+  Sr15  1  0.88423894  0.85916070  0.62713079  1
  Sr2+  Sr16  1  0.11491835  0.38216873  0.37316007  1
  Sr2+  Sr17  1  0.11108809  0.37502611  0.86758080  1
  Sr2+  Sr18  1  0.11638413  0.88325269  0.37524433  1
  Sr2+  Sr19  1  0.10950299  0.87611659  0.87217881  1
  Sr2+  Sr20  1  0.62387678  0.37464249  0.37789034  1
  Sr2+  Sr21  1  0.61766644  0.38524395  0.87619498  1
  Sr2+  Sr22  1  0.62675382  0.87895375  0.37137410  1
  Sr2+  Sr23  1  0.62353631  0.88099849  0.86715568  1
  Sr2+  Sr24  1  0.36549914  0.13247191  0.36897106  1
  Sr2+  Sr25  1  0.36680882  0.13203230  0.88087408  1
  Sr2+  Sr26  1  0.37536193  0.62896955  0.37621349  1
  Sr2+  Sr27  1  0.36230774  0.63682225  0.88107903  1
  Sr2+  Sr28  1  0.85736867  0.13457547  0.37368875  1
  Sr2+  Sr29  1  0.86959772  0.12761610  0.88069814  1
  Sr2+  Sr30  1  0.87130260  0.62663883  0.38606844  1
  Sr2+  Sr31  1  0.85792011  0.62727706  0.87305584  1
  Sr2+  Sr32  1  0.12477247  0.13695201  0.37466190  1
  Sr2+  Sr33  1  0.11140403  0.13437853  0.87025332  1
  Sr2+  Sr34  1  0.11314869  0.63147848  0.37282227  1
  Sr2+  Sr35  1  0.12404062  0.63533189  0.88869589  1
  Sr2+  Sr36  1  0.62358195  0.12345487  0.38686294  1
  Sr2+  Sr37  1  0.61183047  0.13696242  0.87541715  1
  Sr2+  Sr38  1  0.61824972  0.64323663  0.38118844  1
  Sr2+  Sr39  1  0.62391307  0.63502449  0.87119312  1
  Sr2+  Sr40  1  0.36455940  0.38405092  0.37465072  1
  Sr2+  Sr41  1  0.36749802  0.38947862  0.86797222  1
  Sr2+  Sr42  1  0.37513324  0.89191551  0.37395754  1
  Sr2+  Sr43  1  0.37244263  0.88049392  0.87369710  1
  Sr2+  Sr44  1  0.87191382  0.37651937  0.37319561  1
  Sr2+  Sr45  1  0.86546130  0.38898500  0.87646293  1
  Sr2+  Sr46  1  0.86238035  0.88667061  0.36834091  1
  Sr2+  Sr47  1  0.87092001  0.88039007  0.87857599  1
  Sr2+  Sr48  1  0.12879938  0.37437954  0.12616822  1
  Sr2+  Sr49  1  0.13663249  0.36977668  0.62542257  1
  Sr2+  Sr50  1  0.12975656  0.87133997  0.12532111  1
  Sr2+  Sr51  1  0.12721646  0.87188502  0.62402950  1
  Sr2+  Sr52  1  0.63360345  0.36354845  0.12296388  1
  Sr2+  Sr53  1  0.63347955  0.36828554  0.63134035  1
  Sr2+  Sr54  1  0.64215781  0.86402173  0.12710677  1
  Sr2+  Sr55  1  0.63604527  0.86838756  0.62494098  1
  Sr2+  Sr56  1  0.38770472  0.11572528  0.12412989  1
  Sr2+  Sr57  1  0.38293991  0.12728515  0.61535368  1
  Sr2+  Sr58  1  0.38008026  0.62300009  0.12219944  1
  Sr2+  Sr59  1  0.38355016  0.61986335  0.63032579  1
  Sr2+  Sr60  1  0.89149056  0.12073315  0.12654386  1
  Sr2+  Sr61  1  0.88380700  0.11714179  0.62430233  1
  Sr2+  Sr62  1  0.88647173  0.61636591  0.12256842  1
  Sr2+  Sr63  1  0.88753446  0.61219910  0.62091233  1
  Ca2+  Ca64  1  0.50054207  0.50018648  0.49727059  1
  Ca2+  Ca65  1  0.00019832  0.00365369  0.49759521  1
  Ca2+  Ca66  1  0.50036376  0.50308435  0.00026764  1
  Ca2+  Ca67  1  0.49772826  -0.00030192  0.50177762  1
  Ca2+  Ca68  1  -0.00081822  0.50207120  -0.00020326  1
  Ca2+  Ca69  1  0.74887246  0.74807225  0.50123600  1
  Ca2+  Ca70  1  0.25438051  0.75045343  0.49582244  1
  Ca2+  Ca71  1  0.74727769  0.74892694  0.00027448  1
  Ca2+  Ca72  1  0.75031676  0.24845854  -0.00415223  1
  Ca2+  Ca73  1  0.24826614  0.24993645  0.00102208  1
  Ca2+  Ca74  1  0.00163897  0.74865511  0.24999651  1
  Ca2+  Ca75  1  0.25208818  -0.00117399  0.75569541  1
  Ca2+  Ca76  1  0.74955588  0.00431250  0.24797240  1
  Ca2+  Ca77  1  -0.00409804  0.25039887  0.74651252  1
  Ca2+  Ca78  1  0.49924783  0.25166083  0.74697352  1
  Ca2+  Ca79  1  0.24775489  0.50408440  0.75033801  1
  Ca2+  Ca80  1  0.00031774  0.74591361  0.74927184  1
  Ca2+  Ca81  1  0.00111677  0.24769904  0.25128712  1
  Ca2+  Ca82  1  0.50252544  0.24645286  0.25178077  1
  Ca2+  Ca83  1  0.74994625  0.49967359  0.25420036  1
  Ca2+  Ca84  1  0.75086095  -0.00053076  0.75213810  1
  Nb5+  Nb85  1  0.50866884  -0.00430055  0.00078775  1
  Nb5+  Nb86  1  0.00050736  0.49545290  0.49914215  1
  Nb5+  Nb87  1  0.00653778  -0.00101517  0.00088837  1
  Nb5+  Nb88  1  0.25300593  0.24994946  0.49818693  1
  Nb5+  Nb89  1  0.24950950  0.75440238  0.00318464  1
  Nb5+  Nb90  1  0.75683652  0.25037109  0.50466605  1
  Nb5+  Nb91  1  0.75011122  0.49855567  0.74857865  1
  Nb5+  Nb92  1  0.24826702  0.50789042  0.25269469  1
  Nb5+  Nb93  1  0.49822799  0.75107340  0.25348725  1
  Nb5+  Nb94  1  0.24892638  0.00420084  0.25043899  1
  Nb5+  Nb95  1  0.49901434  0.74834019  0.75842794  1
  Nb5+  Nb96  1  0.00091225  0.00381085  0.25471556  1
  Nb5+  Nb97  1  -0.00176352  -0.00371844  0.74495279  1
  Nb5+  Nb98  1  -0.00490865  0.50110036  0.24960700  1
  Nb5+  Nb99  1  0.00415783  0.50147733  0.75196746  1
  Nb5+  Nb100  1  0.50525930  -0.00297997  0.24539673  1
  Nb5+  Nb101  1  0.49806010  0.00239409  0.74696408  1
  Nb5+  Nb102  1  0.50051621  0.49568721  0.25008553  1
  Nb5+  Nb103  1  0.49611196  0.50139229  0.75456156  1
  Nb5+  Nb104  1  0.24798491  0.25604364  0.24682171  1
  Nb5+  Nb105  1  0.25447292  0.25304918  0.75506579  1
  Nb5+  Nb106  1  0.25489051  0.75937444  0.25129886  1
  Nb5+  Nb107  1  0.24748577  0.74936539  0.74691174  1
  Nb5+  Nb108  1  0.74675398  0.24892135  0.24508506  1
  Nb5+  Nb109  1  0.74976970  0.24699834  0.75213294  1
  Nb5+  Nb110  1  0.75625824  0.74449263  0.24812628  1
  Nb5+  Nb111  1  0.75347411  0.74771188  0.74325404  1
  Nb5+  Nb112  1  0.00769764  0.24845393  0.50196506  1
  Nb5+  Nb113  1  -0.00205774  0.25511098  0.99484186  1
  Nb5+  Nb114  1  -0.00258037  0.75634822  0.49418934  1
  Nb5+  Nb115  1  -0.00305069  0.74795217  1.00416343  1
  Nb5+  Nb116  1  0.50834526  0.25222473  0.49732785  1
  Nb5+  Nb117  1  0.49303892  0.25746819  0.99588614  1
  Nb5+  Nb118  1  0.50080622  0.75104874  0.51060231  1
  Nb5+  Nb119  1  0.50300424  0.75377464  1.00582691  1
  Nb5+  Nb120  1  0.25338917  -0.00200540  -0.00145575  1
  Nb5+  Nb121  1  0.25360721  -0.00116703  0.50749676  1
  Nb5+  Nb122  1  0.25054906  0.49401993  0.00215076  1
  Nb5+  Nb123  1  0.24760732  0.50458806  0.49704120  1
  Nb5+  Nb124  1  0.75895733  0.00013881  0.00142992  1
  Nb5+  Nb125  1  0.75434701  -0.00427572  0.50497324  1
  Nb5+  Nb126  1  0.75033195  0.50197860  0.00812793  1
  Nb5+  Nb127  1  0.74693159  0.49594666  0.50064103  1
  O2-  O128  1  -0.01454411  -0.01387477  0.12165449  1
  O2-  O129  1  -0.01850392  -0.02256898  0.63226993  1
  O2-  O130  1  -0.02435042  0.48287690  0.13572280  1
  O2-  O131  1  -0.01373393  0.48086755  0.61650091  1
  O2-  O132  1  0.47827623  -0.01709603  0.12027644  1
  O2-  O133  1  0.46300387  -0.01079433  0.63852078  1
  O2-  O134  1  0.46713373  0.49704127  0.13634097  1
  O2-  O135  1  0.47692810  0.49533682  0.63605569  1
  O2-  O136  1  0.03336879  0.01650214  0.36410664  1
  O2-  O137  1  0.01906458  0.00920491  0.88340182  1
  O2-  O138  1  0.01834623  0.51216073  0.37765044  1
  O2-  O139  1  0.01861357  0.52674170  0.86326470  1
  O2-  O140  1  0.51876119  0.00272409  0.36059199  1
  O2-  O141  1  0.52650868  0.00329563  0.88375963  1
  O2-  O142  1  0.51262496  0.53268592  0.36038792  1
  O2-  O143  1  0.53294882  0.51873420  0.86569520  1
  O2-  O144  1  0.21861639  0.23867988  0.13708808  1
  O2-  O145  1  0.23034302  0.24038506  0.61410597  1
  O2-  O146  1  0.23923463  0.73576598  0.12917606  1
  O2-  O147  1  0.24008936  0.72629803  0.63507667  1
  O2-  O148  1  0.72470625  0.23528792  0.13291799  1
  O2-  O149  1  0.72187979  0.24174362  0.62036918  1
  O2-  O150  1  0.72166008  0.73324389  0.13423924  1
  O2-  O151  1  0.71215946  0.73372051  0.63325733  1
  O2-  O152  1  0.27012176  0.25972614  0.37695514  1
  O2-  O153  1  0.27799433  0.26872730  0.86650592  1
  O2-  O154  1  0.28673779  0.76398294  0.36196343  1
  O2-  O155  1  0.26513704  0.76847170  0.88764624  1
  O2-  O156  1  0.76531235  0.26832901  0.38704491  1
  O2-  O157  1  0.78170762  0.26272917  0.86163372  1
  O2-  O158  1  0.75938522  0.77035730  0.36493591  1
  O2-  O159  1  0.76559667  0.75806628  0.86150596  1
  O2-  O160  1  0.01760293  0.27097795  0.11293672  1
  O2-  O161  1  0.01128881  0.28529362  0.61286286  1
  O2-  O162  1  0.00973739  0.78015175  0.11708496  1
  O2-  O163  1  0.01784526  0.76883586  0.61254774  1
  O2-  O164  1  0.51084193  0.27303148  0.11439356  1
  O2-  O165  1  0.50474088  0.28698699  0.61160302  1
  O2-  O166  1  0.51104403  0.77503574  0.11982448  1
  O2-  O167  1  0.51032142  0.76647323  0.62672358  1
  O2-  O168  1  0.23773349  -0.02242067  0.36576173  1
  O2-  O169  1  0.23665478  -0.03685482  0.89140568  1
  O2-  O170  1  0.23183335  0.47895077  0.37062249  1
  O2-  O171  1  0.23124960  0.47384840  0.88995262  1
  O2-  O172  1  0.73539025  -0.01713706  0.38539019  1
  O2-  O173  1  0.74482442  -0.03280928  0.88691667  1
  O2-  O174  1  0.74448065  0.46706833  0.38801551  1
  O2-  O175  1  0.73889000  0.48127717  0.86474828  1
  O2-  O176  1  -0.01998785  0.22666138  0.38921195  1
  O2-  O177  1  -0.01708312  0.22202893  0.88046606  1
  O2-  O178  1  -0.01218925  0.72008040  0.38198589  1
  O2-  O179  1  0.00556141  0.73511881  0.88661498  1
  O2-  O180  1  0.49302507  0.21074317  0.38550350  1
  O2-  O181  1  0.48350182  0.22189109  0.88200528  1
  O2-  O182  1  0.48532299  0.73640186  0.36699369  1
  O2-  O183  1  0.48326624  0.73490491  0.87468483  1
  O2-  O184  1  0.26122499  0.01851338  0.12681611  1
  O2-  O185  1  0.26412117  0.03020727  0.61712324  1
  O2-  O186  1  0.26388709  0.52134916  0.13494484  1
  O2-  O187  1  0.25796853  0.52292887  0.61167664  1
  O2-  O188  1  0.76217565  0.03499573  0.11554602  1
  O2-  O189  1  0.76359391  0.02817978  0.61875959  1
  O2-  O190  1  0.76357149  0.52809504  0.11869531  1
  O2-  O191  1  0.76623969  0.51628012  0.62353685  1
  O2-  O192  1  0.13573936  0.26081948  0.28287126  1
  O2-  O193  1  0.13538520  0.27561514  0.75789287  1
  O2-  O194  1  0.14049374  0.76874026  0.26924333  1
  O2-  O195  1  0.13588890  0.77484513  0.75995480  1
  O2-  O196  1  0.63364598  0.28102149  0.26761207  1
  O2-  O197  1  0.63586243  0.28160306  0.76454682  1
  O2-  O198  1  0.61319896  0.77392701  0.26080739  1
  O2-  O199  1  0.61742612  0.76221679  0.76994744  1
  O2-  O200  1  0.36257869  0.22725706  0.23609417  1
  O2-  O201  1  0.36554343  0.22555440  0.72240562  1
  O2-  O202  1  0.37674280  0.73659749  0.22458990  1
  O2-  O203  1  0.37932578  0.72693173  0.73952211  1
  O2-  O204  1  0.86571223  0.22480010  0.23640854  1
  O2-  O205  1  0.86131655  0.23633130  0.71272878  1
  O2-  O206  1  0.86662429  0.71790892  0.23229689  1
  O2-  O207  1  0.86447850  0.72519170  0.72230498  1
  O2-  O208  1  0.26644993  0.37214936  0.23580229  1
  O2-  O209  1  0.27603282  0.36979889  0.72744305  1
  O2-  O210  1  0.26837681  0.87441753  0.23041003  1
  O2-  O211  1  0.28130299  0.86240594  0.74021893  1
  O2-  O212  1  0.77822882  0.36569216  0.23624814  1
  O2-  O213  1  0.76710434  0.38166913  0.73078820  1
  O2-  O214  1  0.77057041  0.86559620  0.23039307  1
  O2-  O215  1  0.76421726  0.86295074  0.72585675  1
  O2-  O216  1  0.23398042  0.11952776  0.26696367  1
  O2-  O217  1  0.22785373  0.13500825  0.76883859  1
  O2-  O218  1  0.23618051  0.62411089  0.26788202  1
  O2-  O219  1  0.23815762  0.63769561  0.78814760  1
  O2-  O220  1  0.72717684  0.13677031  0.28161467  1
  O2-  O221  1  0.72240333  0.13543302  0.76371922  1
  O2-  O222  1  0.71701192  0.63393383  0.27088167  1
  O2-  O223  1  0.73132430  0.62119958  0.76241877  1
  O2-  O224  1  0.13176574  0.47929930  0.23590127  1
  O2-  O225  1  0.11530203  0.47441577  0.73428990  1
  O2-  O226  1  0.13263342  0.98053161  0.22985657  1
  O2-  O227  1  0.11704537  0.96996902  0.74056827  1
  O2-  O228  1  0.61272046  0.48156187  0.22551356  1
  O2-  O229  1  0.62946062  0.48871195  0.72744623  1
  O2-  O230  1  0.61553853  0.97236650  0.22609081  1
  O2-  O231  1  0.61132657  0.96674472  0.73745153  1
  O2-  O232  1  0.37093967  0.01241098  0.26059827  1
  O2-  O233  1  0.38856480  0.01157042  0.79151235  1
  O2-  O234  1  0.36584172  0.51172121  0.27286780  1
  O2-  O235  1  0.38430017  0.52372785  0.77866552  1
  O2-  O236  1  0.88725596  0.02264071  0.26893268  1
  O2-  O237  1  0.88526823  0.02726513  0.77023951  1
  O2-  O238  1  0.88529068  0.52820615  0.27150014  1
  O2-  O239  1  0.87069668  0.52127145  0.75921362  1
  O2-  O240  1  0.47636117  0.38474177  0.26903701  1
  O2-  O241  1  0.48638976  0.38734440  0.77262198  1
  O2-  O242  1  0.47235981  0.87301141  0.25580173  1
  O2-  O243  1  0.47927873  0.86596274  0.76270665  1
  O2-  O244  1  0.99036880  0.38403195  0.27182183  1
  O2-  O245  1  0.97311779  0.38756531  0.76877620  1
  O2-  O246  1  0.98564734  0.88538781  0.26500738  1
  O2-  O247  1  0.97312887  0.88055841  0.77210312  1
  O2-  O248  1  0.02578198  0.11520642  0.22340923  1
  O2-  O249  1  0.02592089  0.11367576  0.73491464  1
  O2-  O250  1  0.03275326  0.61333787  0.23489950  1
  O2-  O251  1  0.01248358  0.61336853  0.71334970  1
  O2-  O252  1  0.51340353  0.11031669  0.22111589  1
  O2-  O253  1  0.52620242  0.11360441  0.73775347  1
  O2-  O254  1  0.50928328  0.63535857  0.22674168  1
  O2-  O255  1  0.51689606  0.62997591  0.73368429  1
  O2-  O256  1  0.13487733  0.49612324  0.02871230  1
  O2-  O257  1  0.12334863  0.47919750  0.51098164  1
  O2-  O258  1  0.12359046  0.98165709  0.02024160  1
  O2-  O259  1  0.13687760  0.98211352  0.50814471  1
  O2-  O260  1  0.63408483  0.47135634  0.01558937  1
  O2-  O261  1  0.63480098  0.47700812  0.52070509  1
  O2-  O262  1  0.62156869  0.97910379  0.02238245  1
  O2-  O263  1  0.63347432  0.99164430  0.52010931  1
  O2-  O264  1  0.37046584  0.01057814  -0.01163719  1
  O2-  O265  1  0.36363034  0.02180766  0.46989255  1
  O2-  O266  1  0.36295619  0.52682875  -0.01422495  1
  O2-  O267  1  0.36219364  0.50817213  0.47615382  1
  O2-  O268  1  0.87702117  0.01354608  -0.01231669  1
  O2-  O269  1  0.86704886  0.02677876  0.48024878  1
  O2-  O270  1  0.86588526  0.52397042  -0.02247596  1
  O2-  O271  1  0.87946976  0.50838215  0.48717271  1
  O2-  O272  1  0.46966979  0.36847762  -0.02420700  1
  O2-  O273  1  0.48551719  0.36492669  0.46242966  1
  O2-  O274  1  0.47590039  0.87717309  -0.01393493  1
  O2-  O275  1  0.46750052  0.86387144  0.49091939  1
  O2-  O276  1  0.98146217  0.36824151  -0.02664043  1
  O2-  O277  1  0.98815438  0.37582139  0.47486866  1
  O2-  O278  1  0.98493376  0.87780349  -0.01592120  1
  O2-  O279  1  0.97560666  0.86765897  0.47216639  1
  O2-  O280  1  0.01636632  0.11695223  0.01558360  1
  O2-  O281  1  0.01991877  0.13700290  0.53203671  1
  O2-  O282  1  0.02422908  0.63679159  0.02589114  1
  O2-  O283  1  0.01564827  0.61504669  0.51185922  1
  O2-  O284  1  0.51289507  0.11297582  0.01566938  1
  O2-  O285  1  0.51228338  0.13654607  0.53296555  1
  O2-  O286  1  0.51606981  0.63971861  0.01842032  1
  O2-  O287  1  0.53216851  0.63477619  0.51156141  1
  O2-  O288  1  0.11605230  0.26057543  -0.02902741  1
  O2-  O289  1  0.12362563  0.26471402  0.47911400  1
  O2-  O290  1  0.13191920  0.77058917  -0.00525255  1
  O2-  O291  1  0.11811015  0.76585905  0.48020494  1
  O2-  O292  1  0.61261337  0.26289568  -0.02027636  1
  O2-  O293  1  0.62473904  0.26524838  0.48458119  1
  O2-  O294  1  0.61234853  0.77629839  -0.02186575  1
  O2-  O295  1  0.61315238  0.77678224  0.47835697  1
  O2-  O296  1  0.38109895  0.22130881  0.01892535  1
  O2-  O297  1  0.36944264  0.24083275  0.51217526  1
  O2-  O298  1  0.37427378  0.74135336  0.01439940  1
  O2-  O299  1  0.38663351  0.71381531  0.51313815  1
  O2-  O300  1  0.88426148  0.22569940  0.02074461  1
  O2-  O301  1  0.87250826  0.23681372  0.52100599  1
  O2-  O302  1  0.88320185  0.72994255  0.01057976  1
  O2-  O303  1  0.88391589  0.72585403  0.51903563  1
  O2-  O304  1  0.26874473  0.38485251  0.03314143  1
  O2-  O305  1  0.25781041  0.37329734  0.50874024  1
  O2-  O306  1  0.26131712  0.87383817  0.03191182  1
  O2-  O307  1  0.27271833  0.88542593  0.52548893  1
  O2-  O308  1  0.77730221  0.38419498  0.01452325  1
  O2-  O309  1  0.76766375  0.37194748  0.52456960  1
  O2-  O310  1  0.76662432  0.88446274  0.03102236  1
  O2-  O311  1  0.77351345  0.88328705  0.52497461  1
  O2-  O312  1  0.23003454  0.11003370  -0.01916560  1
  O2-  O313  1  0.23381711  0.13074019  0.48110012  1
  O2-  O314  1  0.23584859  0.63392228  -0.00704971  1
  O2-  O315  1  0.22519524  0.61502457  0.47319204  1
  O2-  O316  1  0.72606208  0.11141183  -0.02815621  1
  O2-  O317  1  0.73491571  0.13384565  0.48803761  1
  O2-  O318  1  0.72406443  0.61448053  -0.02421650  1
  O2-  O319  1  0.73830922  0.61067912  0.47921021  1
