# generated using pymatgen
data_Sr64Ca21Nb43O192
_symmetry_space_group_name_H-M   'P 1'
_cell_length_a   16.55625489
_cell_length_b   16.55736294
_cell_length_c   16.73778786
_cell_angle_alpha   89.98568866
_cell_angle_beta   90.01059842
_cell_angle_gamma   90.03103832
_symmetry_Int_Tables_number   1
_chemical_formula_structural   Sr64Ca21Nb43O192
_chemical_formula_sum   'Sr64 Ca21 Nb43 O192'
_cell_volume   4588.29409750
_cell_formula_units_Z   1
loop_
 _symmetry_equiv_pos_site_id
 _symmetry_equiv_pos_as_xyz
  1  'x, y, z'
loop_
 _atom_type_symbol
 _atom_type_oxidation_number
  Sr2+  2.0
  Ca2+  2.0
  Nb5+  5.0
  O2-  -2.0
loop_
 _atom_site_type_symbol
 _atom_site_label
 _atom_site_symmetry_multiplicity
 _atom_site_fract_x
 _atom_site_fract_y
 _atom_site_fract_z
 _atom_site_occupancy
  Sr2+  Sr0  1  0.11840638  0.13454850  0.12639515  1
  Sr2+  Sr1  1  0.11739700  0.12892600  0.62911930  1
  Sr2+  Sr2  1  0.11761095  0.61403117  0.12777844  1
  Sr2+  Sr3  1  0.12188446  0.61609084  0.61665778  1
  Sr2+  Sr4  1  0.62283039  0.12890604  0.12529347  1
  Sr2+  Sr5  1  0.62388664  0.13282356  0.62158346  1
  Sr2+  Sr6  1  0.62171975  0.61590810  0.12028804  1
  Sr2+  Sr7  1  0.61626959  0.60658130  0.62885031  1
  Sr2+  Sr8  1  0.37138441  0.36975159  0.12327852  1
  Sr2+  Sr9  1  0.37120726  0.37461920  0.63360545  1
  Sr2+  Sr10  1  0.36286668  0.87774021  0.12726219  1
  Sr2+  Sr11  1  0.36031919  0.87858991  0.62046588  1
  Sr2+  Sr12  1  0.86913124  0.36757173  0.11801339  1
  Sr2+  Sr13  1  0.86587553  0.36580917  0.62669210  1
  Sr2+  Sr14  1  0.86660563  0.87602723  0.12737670  1
  Sr2+  Sr15  1  0.87038822  0.89069967  0.62192806  1
  Sr2+  Sr16  1  0.12941386  0.38110525  0.37691362  1
  Sr2+  Sr17  1  0.13304584  0.37997987  0.87421369  1
  Sr2+  Sr18  1  0.12947810  0.87084832  0.37687626  1
  Sr2+  Sr19  1  0.14895978  0.87079603  0.87638239  1
  Sr2+  Sr20  1  0.64036916  0.37172148  0.38171303  1
  Sr2+  Sr21  1  0.63000797  0.37657131  0.86794828  1
  Sr2+  Sr22  1  0.61133983  0.87650243  0.37723749  1
  Sr2+  Sr23  1  0.63887471  0.87029420  0.87414213  1
  Sr2+  Sr24  1  0.37665790  0.11619391  0.36797030  1
  Sr2+  Sr25  1  0.37542060  0.12167176  0.86473953  1
  Sr2+  Sr26  1  0.37827429  0.63468800  0.37406213  1
  Sr2+  Sr27  1  0.38755080  0.62981880  0.87392667  1
  Sr2+  Sr28  1  0.88414898  0.13482345  0.38434539  1
  Sr2+  Sr29  1  0.88389101  0.11631147  0.87357210  1
  Sr2+  Sr30  1  0.88938550  0.62823438  0.37415340  1
  Sr2+  Sr31  1  0.88523374  0.63471830  0.87474912  1
  Sr2+  Sr32  1  0.13631787  0.11694355  0.37564944  1
  Sr2+  Sr33  1  0.13637289  0.11122951  0.87562514  1
  Sr2+  Sr34  1  0.13067237  0.63144671  0.37155158  1
  Sr2+  Sr35  1  0.12894670  0.62224437  0.87596460  1
  Sr2+  Sr36  1  0.63441646  0.11604336  0.37200830  1
  Sr2+  Sr37  1  0.62950291  0.10568616  0.86959072  1
  Sr2+  Sr38  1  0.62613249  0.62006970  0.37491891  1
  Sr2+  Sr39  1  0.63107942  0.63484210  0.88125387  1
  Sr2+  Sr40  1  0.38324411  0.37345263  0.37192063  1
  Sr2+  Sr41  1  0.38218044  0.38181209  0.87539909  1
  Sr2+  Sr42  1  0.37680016  0.87569346  0.38495064  1
  Sr2+  Sr43  1  0.38205289  0.88003130  0.87282187  1
  Sr2+  Sr44  1  0.87594587  0.38640067  0.38532549  1
  Sr2+  Sr45  1  0.89056185  0.38348471  0.87001747  1
  Sr2+  Sr46  1  0.88263109  0.86885918  0.37221164  1
  Sr2+  Sr47  1  0.87696664  0.87499702  0.87215759  1
  Sr2+  Sr48  1  0.13888460  0.37329820  0.12190913  1
  Sr2+  Sr49  1  0.10533924  0.37486496  0.63001328  1
  Sr2+  Sr50  1  0.11508203  0.87794307  0.12675822  1
  Sr2+  Sr51  1  0.12294735  0.86916372  0.61907231  1
  Sr2+  Sr52  1  0.62434326  0.37349105  0.12775810  1
  Sr2+  Sr53  1  0.61505463  0.36723575  0.62448145  1
  Sr2+  Sr54  1  0.61812350  0.87047538  0.12248847  1
  Sr2+  Sr55  1  0.62060746  0.88203474  0.62513600  1
  Sr2+  Sr56  1  0.36379374  0.13866430  0.13051857  1
  Sr2+  Sr57  1  0.35772472  0.13379661  0.62376277  1
  Sr2+  Sr58  1  0.36336582  0.61444082  0.12962968  1
  Sr2+  Sr59  1  0.36091374  0.62438936  0.61535826  1
  Sr2+  Sr60  1  0.88102593  0.12558520  0.11544066  1
  Sr2+  Sr61  1  0.87021663  0.13110590  0.62883738  1
  Sr2+  Sr62  1  0.86478477  0.62261860  0.12656478  1
  Sr2+  Sr63  1  0.86027822  0.62921066  0.62673972  1
  Ca2+  Ca64  1  -0.00122217  0.00279063  0.49866708  1
  Ca2+  Ca65  1  0.49891217  0.00298756  0.50329552  1
  Ca2+  Ca66  1  0.50192492  0.00309435  0.00148761  1
  Ca2+  Ca67  1  -0.00212245  0.50244474  0.50192242  1
  Ca2+  Ca68  1  0.49575782  0.49829517  0.49895627  1
  Ca2+  Ca69  1  0.25223086  0.74891302  0.00252232  1
  Ca2+  Ca70  1  0.74914696  0.75265953  0.49754055  1
  Ca2+  Ca71  1  0.25088938  0.24997185  0.49943633  1
  Ca2+  Ca72  1  0.25134089  0.24710258  -0.00323899  1
  Ca2+  Ca73  1  0.74828941  0.24864420  -0.00371347  1
  Ca2+  Ca74  1  0.75216556  -0.00038803  0.24781352  1
  Ca2+  Ca75  1  -0.00282459  0.25373733  0.25172996  1
  Ca2+  Ca76  1  0.24966327  0.50021247  0.25289533  1
  Ca2+  Ca77  1  0.25100990  -0.00334633  0.74620496  1
  Ca2+  Ca78  1  0.49797968  0.74905358  0.74741832  1
  Ca2+  Ca79  1  0.24954444  0.50070235  0.74960835  1
  Ca2+  Ca80  1  0.24874137  -0.00143354  0.24697639  1
  Ca2+  Ca81  1  0.00309487  0.75312244  0.75096345  1
  Ca2+  Ca82  1  -0.00228428  0.25002328  0.75315696  1
  Ca2+  Ca83  1  0.75052575  0.50010355  0.75271721  1
  Ca2+  Ca84  1  0.75038394  0.50009003  0.25102387  1
  Nb5+  Nb85  1  0.50610795  0.49771566  0.00135363  1
  Nb5+  Nb86  1  0.00379156  0.49430656  0.00385033  1
  Nb5+  Nb87  1  0.00272438  -0.00852135  -0.00086648  1
  Nb5+  Nb88  1  0.24852895  0.75011068  0.49851719  1
  Nb5+  Nb89  1  0.75197397  0.75019987  0.00139069  1
  Nb5+  Nb90  1  0.74913215  0.24804098  0.50194907  1
  Nb5+  Nb91  1  0.75003406  -0.00079861  0.74900362  1
  Nb5+  Nb92  1  0.49804409  0.24572937  0.74515191  1
  Nb5+  Nb93  1  0.49711304  0.74526148  0.24679899  1
  Nb5+  Nb94  1  0.50524418  0.24511677  0.24921775  1
  Nb5+  Nb95  1  -0.00474862  0.74907657  0.24727418  1
  Nb5+  Nb96  1  -0.00149117  0.00338198  0.25126461  1
  Nb5+  Nb97  1  0.00480469  -0.00242254  0.75077790  1
  Nb5+  Nb98  1  -0.00364883  0.49559142  0.24795564  1
  Nb5+  Nb99  1  -0.00453055  0.50760573  0.74664938  1
  Nb5+  Nb100  1  0.50076214  -0.00830720  0.24631881  1
  Nb5+  Nb101  1  0.49754181  -0.00167724  0.74505882  1
  Nb5+  Nb102  1  0.50049754  0.49254020  0.25051319  1
  Nb5+  Nb103  1  0.49911939  0.50277039  0.75152790  1
  Nb5+  Nb104  1  0.24558994  0.25272027  0.25373030  1
  Nb5+  Nb105  1  0.24532048  0.25102499  0.75104517  1
  Nb5+  Nb106  1  0.24289746  0.75563517  0.24609094  1
  Nb5+  Nb107  1  0.25153586  0.74482790  0.75227981  1
  Nb5+  Nb108  1  0.75359076  0.24766016  0.24992296  1
  Nb5+  Nb109  1  0.74760746  0.24617992  0.75629360  1
  Nb5+  Nb110  1  0.74311072  0.74902190  0.25192940  1
  Nb5+  Nb111  1  0.74850737  0.75194307  0.74291537  1
  Nb5+  Nb112  1  0.00426802  0.25555426  0.49915072  1
  Nb5+  Nb113  1  0.00263703  0.24248067  0.99568460  1
  Nb5+  Nb114  1  -0.00207285  0.74558314  0.50442162  1
  Nb5+  Nb115  1  0.00358603  0.74806292  1.00021891  1
  Nb5+  Nb116  1  0.49857124  0.24718351  0.49228150  1
  Nb5+  Nb117  1  0.50587228  0.25073776  0.99105768  1
  Nb5+  Nb118  1  0.50155251  0.74764026  0.50438185  1
  Nb5+  Nb119  1  0.49701922  0.75108092  1.00380996  1
  Nb5+  Nb120  1  0.25766806  0.00254570  0.00219426  1
  Nb5+  Nb121  1  0.24462129  0.00340631  0.50147579  1
  Nb5+  Nb122  1  0.25866054  0.50192823  -0.00212924  1
  Nb5+  Nb123  1  0.25140112  0.49379511  0.49782207  1
  Nb5+  Nb124  1  0.74945025  -0.00108866  0.00236894  1
  Nb5+  Nb125  1  0.75499650  -0.00028578  0.49240688  1
  Nb5+  Nb126  1  0.75909708  0.49762267  -0.00476643  1
  Nb5+  Nb127  1  0.74775383  0.50582256  0.50487809  1
  O2-  O128  1  0.01952124  0.01768699  0.11439272  1
  O2-  O129  1  0.01686213  0.01434808  0.63725097  1
  O2-  O130  1  -0.01799744  0.52670267  0.11812516  1
  O2-  O131  1  -0.01960336  0.53775110  0.63680898  1
  O2-  O132  1  0.53164873  0.01381112  0.13462766  1
  O2-  O133  1  0.53601467  0.01527437  0.63602873  1
  O2-  O134  1  0.48151835  0.51653913  0.11890715  1
  O2-  O135  1  0.47863779  0.51983680  0.63891465  1
  O2-  O136  1  -0.03049424  -0.00977273  0.36139896  1
  O2-  O137  1  -0.02081772  -0.01312161  0.88188517  1
  O2-  O138  1  0.01188763  0.47998592  0.36167569  1
  O2-  O139  1  0.01608111  0.48419404  0.88782932  1
  O2-  O140  1  0.48021347  -0.01338705  0.36532182  1
  O2-  O141  1  0.48442264  -0.00768951  0.86462014  1
  O2-  O142  1  0.52048382  0.47691902  0.36251757  1
  O2-  O143  1  0.51488128  0.47683996  0.88400796  1
  O2-  O144  1  0.26164733  0.26700909  0.13482788  1
  O2-  O145  1  0.26826422  0.26546061  0.63360184  1
  O2-  O146  1  0.24420424  0.77987405  0.13431322  1
  O2-  O147  1  0.25101552  0.76698234  0.61579545  1
  O2-  O148  1  0.74890621  0.27032274  0.13638675  1
  O2-  O149  1  0.74723929  0.25689555  0.62723349  1
  O2-  O150  1  0.74578755  0.77211568  0.11945504  1
  O2-  O151  1  0.75509348  0.78205347  0.63271419  1
  O2-  O152  1  0.25247041  0.22021352  0.36627868  1
  O2-  O153  1  0.25210225  0.21756559  0.86459136  1
  O2-  O154  1  0.25014735  0.73443475  0.37370153  1
  O2-  O155  1  0.25169057  0.72475750  0.86662047  1
  O2-  O156  1  0.74440374  0.23131426  0.38363670  1
  O2-  O157  1  0.72982975  0.21990435  0.86597710  1
  O2-  O158  1  0.75170333  0.71868649  0.36233230  1
  O2-  O159  1  0.75128434  0.73546066  0.88072751  1
  O2-  O160  1  -0.00550862  0.23377898  0.11575342  1
  O2-  O161  1  0.00010968  0.22535777  0.61622978  1
  O2-  O162  1  0.00876810  0.73605461  0.12618616  1
  O2-  O163  1  0.01301232  0.72846895  0.61572629  1
  O2-  O164  1  0.50930233  0.23920519  0.13263737  1
  O2-  O165  1  0.49741694  0.23045640  0.62896794  1
  O2-  O166  1  0.52272168  0.73592404  0.12834571  1
  O2-  O167  1  0.50661298  0.71710959  0.61339114  1
  O2-  O168  1  0.26127388  0.01774765  0.38272328  1
  O2-  O169  1  0.26138087  0.01969367  0.88191049  1
  O2-  O170  1  0.21393488  0.51008040  0.38428745  1
  O2-  O171  1  0.22379431  0.51209064  0.88595148  1
  O2-  O172  1  0.77086600  0.02932405  0.38350633  1
  O2-  O173  1  0.76595299  0.01604222  0.87610419  1
  O2-  O174  1  0.71907424  0.50417620  0.38669344  1
  O2-  O175  1  0.71829853  0.51582021  0.88722506  1
  O2-  O176  1  -0.01743043  0.27995836  0.38496776  1
  O2-  O177  1  0.00183038  0.28045525  0.88502228  1
  O2-  O178  1  -0.00362884  0.76696983  0.36592257  1
  O2-  O179  1  -0.01304259  0.76878883  0.88893090  1
  O2-  O180  1  0.50426436  0.27279540  0.37723512  1
  O2-  O181  1  0.50006877  0.26917273  0.87650403  1
  O2-  O182  1  0.49351619  0.77293605  0.36166633  1
  O2-  O183  1  0.48914150  0.76451068  0.88831478  1
  O2-  O184  1  0.23686785  -0.03211489  0.11322784  1
  O2-  O185  1  0.23301655  -0.03171806  0.61509134  1
  O2-  O186  1  0.26740313  0.48060471  0.11622377  1
  O2-  O187  1  0.28079304  0.49390992  0.61488037  1
  O2-  O188  1  0.73807155  -0.03358800  0.11288844  1
  O2-  O189  1  0.73843360  -0.02211792  0.63393296  1
  O2-  O190  1  0.76269501  0.48144252  0.11205217  1
  O2-  O191  1  0.78135205  0.48923182  0.61860419  1
  O2-  O192  1  0.13273637  0.28092197  0.25339228  1
  O2-  O193  1  0.13254665  0.27575876  0.74712691  1
  O2-  O194  1  0.12656496  0.77018585  0.25496947  1
  O2-  O195  1  0.13761811  0.78573185  0.74897126  1
  O2-  O196  1  0.62046343  0.27920495  0.25738160  1
  O2-  O197  1  0.62105408  0.26402264  0.74332961  1
  O2-  O198  1  0.62778382  0.77473022  0.25384270  1
  O2-  O199  1  0.63255931  0.77643108  0.75722477  1
  O2-  O200  1  0.38634886  0.23487852  0.25709074  1
  O2-  O201  1  0.38203312  0.22614049  0.75408578  1
  O2-  O202  1  0.38242148  0.73216439  0.23479145  1
  O2-  O203  1  0.36686198  0.71131016  0.73894819  1
  O2-  O204  1  0.86364121  0.21383674  0.25286248  1
  O2-  O205  1  0.86140626  0.22254137  0.75295499  1
  O2-  O206  1  0.87945084  0.72965532  0.24264354  1
  O2-  O207  1  0.86458185  0.72946679  0.75344423  1
  O2-  O208  1  0.27729383  0.36701445  0.27183581  1
  O2-  O209  1  0.27569134  0.36416449  0.77243620  1
  O2-  O210  1  0.28127449  0.86444950  0.27143281  1
  O2-  O211  1  0.28768934  0.86194447  0.76160423  1
  O2-  O212  1  0.76791144  0.36302506  0.27876017  1
  O2-  O213  1  0.76341537  0.36037025  0.77101691  1
  O2-  O214  1  0.77849790  0.86154801  0.26320269  1
  O2-  O215  1  0.76583617  0.87911709  0.77224333  1
  O2-  O216  1  0.23247499  0.13413463  0.22678778  1
  O2-  O217  1  0.23144142  0.13131599  0.72449112  1
  O2-  O218  1  0.23984168  0.63794985  0.23168368  1
  O2-  O219  1  0.21752217  0.63396559  0.72531285  1
  O2-  O220  1  0.71337481  0.13606203  0.24192061  1
  O2-  O221  1  0.72623147  0.11758316  0.73391585  1
  O2-  O222  1  0.73576016  0.63715437  0.21607912  1
  O2-  O223  1  0.72580329  0.63730672  0.72781762  1
  O2-  O224  1  0.11257174  0.48978886  0.22108794  1
  O2-  O225  1  0.11154941  0.47897378  0.74076575  1
  O2-  O226  1  0.11202152  0.96733195  0.25669957  1
  O2-  O227  1  0.11560199  0.97621357  0.77334108  1
  O2-  O228  1  0.61398506  0.49649985  0.22036209  1
  O2-  O229  1  0.61395123  0.47257358  0.73654996  1
  O2-  O230  1  0.61771468  0.98386085  0.27471445  1
  O2-  O231  1  0.62943101  0.98303151  0.77198977  1
  O2-  O232  1  0.38779588  0.02535612  0.22933212  1
  O2-  O233  1  0.38703596  0.02856240  0.72875700  1
  O2-  O234  1  0.38829698  0.52752085  0.26170586  1
  O2-  O235  1  0.38563165  0.50725982  0.78431693  1
  O2-  O236  1  0.88686740  0.01009438  0.21277038  1
  O2-  O237  1  0.86811131  0.02061032  0.74127764  1
  O2-  O238  1  0.88386213  0.53396989  0.25794855  1
  O2-  O239  1  0.88188975  0.51513997  0.78677859  1
  O2-  O240  1  0.48112296  0.37823105  0.23157061  1
  O2-  O241  1  0.48241961  0.36743880  0.73979500  1
  O2-  O242  1  0.48619231  0.87529057  0.22571126  1
  O2-  O243  1  0.48119756  0.88480773  0.72651068  1
  O2-  O244  1  0.96873305  0.38682773  0.22513081  1
  O2-  O245  1  0.97315005  0.38708194  0.73182682  1
  O2-  O246  1  0.98253007  0.86837583  0.22938779  1
  O2-  O247  1  0.96612151  0.88640383  0.73952814  1
  O2-  O248  1  0.02672870  0.11555940  0.26149523  1
  O2-  O249  1  0.01156115  0.11392828  0.77813444  1
  O2-  O250  1  0.02267256  0.63229672  0.26104897  1
  O2-  O251  1  0.01561206  0.61941867  0.78324582  1
  O2-  O252  1  0.52161901  0.13208782  0.26757726  1
  O2-  O253  1  0.51998465  0.13007393  0.76988851  1
  O2-  O254  1  0.52131646  0.63218703  0.26342731  1
  O2-  O255  1  0.52395499  0.61316253  0.77697506  1
  O2-  O256  1  0.11835209  0.48583131  0.02208136  1
  O2-  O257  1  0.13435080  0.48552986  0.53136967  1
  O2-  O258  1  0.11786396  0.97737164  -0.02001697  1
  O2-  O259  1  0.12918908  0.97675143  0.47879772  1
  O2-  O260  1  0.62089966  0.48691173  0.02047901  1
  O2-  O261  1  0.63078127  0.48197020  0.52980643  1
  O2-  O262  1  0.63678363  0.98214116  -0.02356814  1
  O2-  O263  1  0.63831899  0.97802126  0.49051046  1
  O2-  O264  1  0.36841612  0.03053495  0.01960191  1
  O2-  O265  1  0.36333241  0.01702824  0.51907594  1
  O2-  O266  1  0.37457653  0.52018195  -0.01826187  1
  O2-  O267  1  0.36376702  0.52738939  0.47264565  1
  O2-  O268  1  0.87692567  0.01089397  0.01035124  1
  O2-  O269  1  0.86557746  0.02058773  0.53115346  1
  O2-  O270  1  0.87385511  0.52283694  -0.01634022  1
  O2-  O271  1  0.86275561  0.51594536  0.47114710  1
  O2-  O272  1  0.47747263  0.38165587  0.01595077  1
  O2-  O273  1  0.48210169  0.36144570  0.52476559  1
  O2-  O274  1  0.48321622  0.86462022  0.02534001  1
  O2-  O275  1  0.47517990  0.86382156  0.51436895  1
  O2-  O276  1  0.97675187  0.38279469  0.01801898  1
  O2-  O277  1  0.97479441  0.36958403  0.52845056  1
  O2-  O278  1  0.98271266  0.87681874  0.02283375  1
  O2-  O279  1  0.98054201  0.86336954  0.50942828  1
  O2-  O280  1  0.01792835  0.12506261  -0.02018205  1
  O2-  O281  1  0.01644425  0.13838476  0.47002697  1
  O2-  O282  1  0.01507878  0.63053193  -0.01263721  1
  O2-  O283  1  0.02279473  0.63424053  0.46936754  1
  O2-  O284  1  0.53662818  0.13985803  -0.01128248  1
  O2-  O285  1  0.53418046  0.13537910  0.48600224  1
  O2-  O286  1  0.51863878  0.62062426  -0.01494334  1
  O2-  O287  1  0.50928844  0.63575279  0.46395632  1
  O2-  O288  1  0.11621852  0.27461528  0.00785996  1
  O2-  O289  1  0.11701507  0.28224774  0.49750518  1
  O2-  O290  1  0.11561536  0.77379902  -0.00221792  1
  O2-  O291  1  0.12713808  0.76890870  0.49294027  1
  O2-  O292  1  0.61606069  0.29131114  0.00439778  1
  O2-  O293  1  0.62707861  0.26929042  0.50637452  1
  O2-  O294  1  0.62695291  0.76096209  -0.00392223  1
  O2-  O295  1  0.61412236  0.77422517  0.49102121  1
  O2-  O296  1  0.39073956  0.23470655  0.00929693  1
  O2-  O297  1  0.38706070  0.21752548  0.49156620  1
  O2-  O298  1  0.38711741  0.72069709  0.01993199  1
  O2-  O299  1  0.37138942  0.73413941  0.49539165  1
  O2-  O300  1  0.88258136  0.22986307  -0.00551171  1
  O2-  O301  1  0.86746272  0.23105034  0.50607858  1
  O2-  O302  1  0.87353320  0.73669105  0.01152792  1
  O2-  O303  1  0.88374765  0.72127796  0.50074621  1
  O2-  O304  1  0.26316168  0.38336083  -0.01902808  1
  O2-  O305  1  0.27464042  0.38248016  0.47783710  1
  O2-  O306  1  0.27357725  0.88374444  -0.02603228  1
  O2-  O307  1  0.26465002  0.87017988  0.48127646  1
  O2-  O308  1  0.77417140  0.38482448  -0.02523435  1
  O2-  O309  1  0.76416207  0.36801945  0.49173123  1
  O2-  O310  1  0.76670865  0.86955034  -0.02073972  1
  O2-  O311  1  0.77964328  0.88608663  0.47928759  1
  O2-  O312  1  0.21623112  0.11256827  0.01788968  1
  O2-  O313  1  0.21898503  0.11583931  0.52099660  1
  O2-  O314  1  0.22917651  0.61507908  0.02327470  1
  O2-  O315  1  0.23181627  0.63179395  0.51130351  1
  O2-  O316  1  0.73950451  0.11202345  0.02733324  1
  O2-  O317  1  0.73188204  0.12624923  0.51785778  1
  O2-  O318  1  0.73850264  0.62855349  0.01573069  1
  O2-  O319  1  0.72753895  0.61883963  0.52444375  1
