# generated using pymatgen
data_Sr64Ca21Nb43O192
_symmetry_space_group_name_H-M   'P 1'
_cell_length_a   16.57473016
_cell_length_b   16.57594355
_cell_length_c   16.74309950
_cell_angle_alpha   90.02653431
_cell_angle_beta   89.98987301
_cell_angle_gamma   89.94388867
_symmetry_Int_Tables_number   1
_chemical_formula_structural   Sr64Ca21Nb43O192
_chemical_formula_sum   'Sr64 Ca21 Nb43 O192'
_cell_volume   4600.02637785
_cell_formula_units_Z   1
loop_
 _symmetry_equiv_pos_site_id
 _symmetry_equiv_pos_as_xyz
  1  'x, y, z'
loop_
 _atom_type_symbol
 _atom_type_oxidation_number
  Sr2+  2.0
  Ca2+  2.0
  Nb5+  5.0
  O2-  -2.0
loop_
 _atom_site_type_symbol
 _atom_site_label
 _atom_site_symmetry_multiplicity
 _atom_site_fract_x
 _atom_site_fract_y
 _atom_site_fract_z
 _atom_site_occupancy
  Sr2+  Sr0  1  0.12750481  0.13740601  0.12615893  1
  Sr2+  Sr1  1  0.12973543  0.13877168  0.62741890  1
  Sr2+  Sr2  1  0.12999367  0.62831442  0.11811245  1
  Sr2+  Sr3  1  0.12768613  0.64171416  0.62474988  1
  Sr2+  Sr4  1  0.63199098  0.14008441  0.13131568  1
  Sr2+  Sr5  1  0.63346103  0.13589099  0.61873646  1
  Sr2+  Sr6  1  0.62864680  0.63394086  0.12905787  1
  Sr2+  Sr7  1  0.62816745  0.62897896  0.62660517  1
  Sr2+  Sr8  1  0.37723984  0.38805606  0.12685340  1
  Sr2+  Sr9  1  0.38472320  0.38462821  0.61661924  1
  Sr2+  Sr10  1  0.38282068  0.88794406  0.12691303  1
  Sr2+  Sr11  1  0.38184821  0.88054260  0.62507003  1
  Sr2+  Sr12  1  0.88181673  0.38729954  0.12862253  1
  Sr2+  Sr13  1  0.88108775  0.37863468  0.62213960  1
  Sr2+  Sr14  1  0.88229019  0.88783470  0.12571167  1
  Sr2+  Sr15  1  0.88667272  0.87733908  0.62780167  1
  Sr2+  Sr16  1  0.12181520  0.36861033  0.36563556  1
  Sr2+  Sr17  1  0.11569204  0.36460359  0.88080924  1
  Sr2+  Sr18  1  0.11536210  0.86365079  0.37689496  1
  Sr2+  Sr19  1  0.12730671  0.87146457  0.88197732  1
  Sr2+  Sr20  1  0.61749578  0.36568476  0.37126064  1
  Sr2+  Sr21  1  0.61318886  0.36983180  0.87823490  1
  Sr2+  Sr22  1  0.61284666  0.87131220  0.37179310  1
  Sr2+  Sr23  1  0.61856539  0.86859062  0.87100017  1
  Sr2+  Sr24  1  0.37669249  0.12277625  0.37618302  1
  Sr2+  Sr25  1  0.36124157  0.12067587  0.87624044  1
  Sr2+  Sr26  1  0.36065522  0.62607622  0.37819699  1
  Sr2+  Sr27  1  0.36396346  0.61697730  0.87538389  1
  Sr2+  Sr28  1  0.86338280  0.11968112  0.37900022  1
  Sr2+  Sr29  1  0.86901051  0.11711055  0.87263078  1
  Sr2+  Sr30  1  0.86271569  0.61681127  0.36903669  1
  Sr2+  Sr31  1  0.86484159  0.61359636  0.87314385  1
  Sr2+  Sr32  1  0.11780354  0.13130788  0.37375927  1
  Sr2+  Sr33  1  0.12042556  0.11358741  0.87155016  1
  Sr2+  Sr34  1  0.11655801  0.61759020  0.37951367  1
  Sr2+  Sr35  1  0.11845819  0.61200329  0.87245363  1
  Sr2+  Sr36  1  0.61677728  0.11373496  0.38063211  1
  Sr2+  Sr37  1  0.62350831  0.11435026  0.87439176  1
  Sr2+  Sr38  1  0.61547586  0.61695782  0.37114802  1
  Sr2+  Sr39  1  0.61957284  0.61467923  0.87614463  1
  Sr2+  Sr40  1  0.36593301  0.36189284  0.37233584  1
  Sr2+  Sr41  1  0.36975249  0.36836582  0.88469916  1
  Sr2+  Sr42  1  0.37197811  0.87186728  0.36850668  1
  Sr2+  Sr43  1  0.36862089  0.87760819  0.87228825  1
  Sr2+  Sr44  1  0.87607876  0.35901809  0.36879325  1
  Sr2+  Sr45  1  0.86388666  0.36462326  0.87845149  1
  Sr2+  Sr46  1  0.87527870  0.86501245  0.36691728  1
  Sr2+  Sr47  1  0.86494002  0.86710742  0.88117209  1
  Sr2+  Sr48  1  0.13138058  0.38466217  0.13196012  1
  Sr2+  Sr49  1  0.13480272  0.38153479  0.62160043  1
  Sr2+  Sr50  1  0.12581355  0.88584702  0.13129694  1
  Sr2+  Sr51  1  0.13794182  0.88072959  0.62085334  1
  Sr2+  Sr52  1  0.63183233  0.38375665  0.13310220  1
  Sr2+  Sr53  1  0.63669387  0.37940766  0.61938174  1
  Sr2+  Sr54  1  0.63630615  0.87664729  0.13334286  1
  Sr2+  Sr55  1  0.63774536  0.87552269  0.62624765  1
  Sr2+  Sr56  1  0.38921193  0.13148155  0.12872942  1
  Sr2+  Sr57  1  0.38636476  0.13641270  0.62612640  1
  Sr2+  Sr58  1  0.38740137  0.62966396  0.11997225  1
  Sr2+  Sr59  1  0.38330014  0.63370043  0.62360840  1
  Sr2+  Sr60  1  0.88725557  0.12479757  0.11863822  1
  Sr2+  Sr61  1  0.88604261  0.13792398  0.62810867  1
  Sr2+  Sr62  1  0.87947577  0.63105273  0.12068771  1
  Sr2+  Sr63  1  0.88251298  0.63057170  0.63088782  1
  Ca2+  Ca64  1  0.49838254  0.49986483  0.50044519  1
  Ca2+  Ca65  1  0.49771814  -0.00352775  0.50411686  1
  Ca2+  Ca66  1  -0.00012318  -0.00130252  0.50241671  1
  Ca2+  Ca67  1  -0.00181974  0.49901636  0.50094458  1
  Ca2+  Ca68  1  0.49993249  -0.00074266  0.00058981  1
  Ca2+  Ca69  1  0.75169035  0.74986828  0.00083469  1
  Ca2+  Ca70  1  0.25064847  0.75068506  0.00152646  1
  Ca2+  Ca71  1  0.25042293  0.25076859  -0.00027391  1
  Ca2+  Ca72  1  0.74768140  0.74896808  0.49712537  1
  Ca2+  Ca73  1  0.75113690  0.25059229  0.00004409  1
  Ca2+  Ca74  1  0.00151853  0.74874554  0.24410184  1
  Ca2+  Ca75  1  -0.00252923  0.25030885  0.24564205  1
  Ca2+  Ca76  1  0.00010515  0.25145794  0.75179216  1
  Ca2+  Ca77  1  0.00142264  0.75139527  0.75540930  1
  Ca2+  Ca78  1  0.75135520  0.50029578  0.25029770  1
  Ca2+  Ca79  1  0.24912351  0.00046654  0.25410924  1
  Ca2+  Ca80  1  0.49879503  0.25262403  0.24977133  1
  Ca2+  Ca81  1  0.25209841  0.50328597  0.25226001  1
  Ca2+  Ca82  1  0.49990082  0.24983302  0.75183090  1
  Ca2+  Ca83  1  0.75153328  0.00139942  0.25095284  1
  Ca2+  Ca84  1  0.25109336  0.49948233  0.74709153  1
  Nb5+  Nb85  1  -0.00009320  -0.00478689  -0.00426204  1
  Nb5+  Nb86  1  0.49700586  0.50140891  0.00160811  1
  Nb5+  Nb87  1  -0.00597905  0.49553578  -0.00335696  1
  Nb5+  Nb88  1  0.75606143  0.25009845  0.49824569  1
  Nb5+  Nb89  1  0.25320351  0.75879737  0.50216768  1
  Nb5+  Nb90  1  0.25391803  0.25409769  0.50179351  1
  Nb5+  Nb91  1  0.25520465  0.00300659  0.74642259  1
  Nb5+  Nb92  1  0.74867321  0.49288875  0.74873682  1
  Nb5+  Nb93  1  0.49737601  0.75051385  0.24392230  1
  Nb5+  Nb94  1  0.50031085  0.75085443  0.74693382  1
  Nb5+  Nb95  1  0.75529445  -0.00388641  0.74499688  1
  Nb5+  Nb96  1  -0.00161756  0.00217742  0.25598939  1
  Nb5+  Nb97  1  0.00826602  -0.00585755  0.74917463  1
  Nb5+  Nb98  1  -0.00076814  0.50511277  0.25244948  1
  Nb5+  Nb99  1  0.00386866  0.49399972  0.74940558  1
  Nb5+  Nb100  1  0.50279910  0.00262563  0.24700903  1
  Nb5+  Nb101  1  0.50780823  0.00100073  0.74866603  1
  Nb5+  Nb102  1  0.49511147  0.50195363  0.25700011  1
  Nb5+  Nb103  1  0.49934402  0.49919639  0.75284159  1
  Nb5+  Nb104  1  0.25193771  0.24572303  0.24419102  1
  Nb5+  Nb105  1  0.25292077  0.25629501  0.74829454  1
  Nb5+  Nb106  1  0.25070463  0.74868704  0.24580993  1
  Nb5+  Nb107  1  0.24862112  0.75230788  0.75093955  1
  Nb5+  Nb108  1  0.75299829  0.24650790  0.24627631  1
  Nb5+  Nb109  1  0.74498065  0.24427287  0.75083387  1
  Nb5+  Nb110  1  0.75423601  0.74946565  0.25259626  1
  Nb5+  Nb111  1  0.74891462  0.74133588  0.75279276  1
  Nb5+  Nb112  1  0.00774135  0.25354790  0.50097309  1
  Nb5+  Nb113  1  0.00061302  0.24329665  0.99846753  1
  Nb5+  Nb114  1  -0.00786248  0.74392184  0.49715195  1
  Nb5+  Nb115  1  0.00306483  0.74304912  0.99782523  1
  Nb5+  Nb116  1  0.50633186  0.25167592  0.50166255  1
  Nb5+  Nb117  1  0.50398824  0.24615137  1.00229444  1
  Nb5+  Nb118  1  0.50124172  0.74944455  0.49443740  1
  Nb5+  Nb119  1  0.50041909  0.75058846  0.99228428  1
  Nb5+  Nb120  1  0.24865326  0.00600375  0.00656447  1
  Nb5+  Nb121  1  0.25065700  0.00788324  0.49965728  1
  Nb5+  Nb122  1  0.24177514  0.49900036  -0.00360391  1
  Nb5+  Nb123  1  0.24694087  0.50881493  0.50096224  1
  Nb5+  Nb124  1  0.74448262  0.00174430  -0.00057602  1
  Nb5+  Nb125  1  0.75462418  -0.00638595  0.50009962  1
  Nb5+  Nb126  1  0.74281963  0.49921852  -0.00057137  1
  Nb5+  Nb127  1  0.75056529  0.49847789  0.49522883  1
  O2-  O128  1  0.01302400  -0.01291442  0.11202652  1
  O2-  O129  1  0.01216164  -0.03265734  0.63707629  1
  O2-  O130  1  0.01583760  0.48501327  0.11121891  1
  O2-  O131  1  0.00966400  0.47131133  0.63721194  1
  O2-  O132  1  0.51543571  -0.03340590  0.13285978  1
  O2-  O133  1  0.51059168  -0.03885106  0.63918280  1
  O2-  O134  1  0.51775413  0.48521296  0.11743981  1
  O2-  O135  1  0.52107659  0.48462723  0.64061465  1
  O2-  O136  1  -0.02078714  0.01795097  0.36717629  1
  O2-  O137  1  -0.00955614  0.02346254  0.87548995  1
  O2-  O138  1  -0.01621997  0.52580394  0.36424194  1
  O2-  O139  1  -0.01130719  0.52234827  0.87856381  1
  O2-  O140  1  0.48252003  0.01172414  0.36527890  1
  O2-  O141  1  0.47672565  0.01538182  0.86197815  1
  O2-  O142  1  0.48099053  0.53223899  0.36645318  1
  O2-  O143  1  0.49299381  0.52505963  0.87945086  1
  O2-  O144  1  0.26712640  0.22150088  0.13291667  1
  O2-  O145  1  0.25996360  0.22487827  0.61866274  1
  O2-  O146  1  0.26585706  0.71874813  0.13722768  1
  O2-  O147  1  0.26918621  0.73673214  0.62705966  1
  O2-  O148  1  0.76658143  0.21781686  0.13510830  1
  O2-  O149  1  0.76205541  0.23355719  0.62038228  1
  O2-  O150  1  0.75498760  0.71908166  0.13570635  1
  O2-  O151  1  0.75304028  0.73074433  0.63513552  1
  O2-  O152  1  0.23143024  0.26279803  0.38623458  1
  O2-  O153  1  0.23879093  0.27502571  0.86109696  1
  O2-  O154  1  0.24803755  0.77488972  0.38628298  1
  O2-  O155  1  0.24921063  0.77952933  0.86361630  1
  O2-  O156  1  0.73755260  0.27600472  0.38515558  1
  O2-  O157  1  0.73049226  0.27129389  0.86114223  1
  O2-  O158  1  0.73636460  0.78614193  0.36586610  1
  O2-  O159  1  0.73140212  0.77433178  0.86432636  1
  O2-  O160  1  -0.03486976  0.25994244  0.11088604  1
  O2-  O161  1  -0.02028928  0.26123560  0.61624079  1
  O2-  O162  1  -0.03651584  0.75990813  0.10896321  1
  O2-  O163  1  -0.01762807  0.75894488  0.61604255  1
  O2-  O164  1  0.46930542  0.26794298  0.11522949  1
  O2-  O165  1  0.47692380  0.26675366  0.61614277  1
  O2-  O166  1  0.47819648  0.76059843  0.13033948  1
  O2-  O167  1  0.48467514  0.76103580  0.63299298  1
  O2-  O168  1  0.28319878  -0.00593145  0.39071796  1
  O2-  O169  1  0.26280949  -0.01238154  0.86515962  1
  O2-  O170  1  0.28293048  0.48884101  0.38920452  1
  O2-  O171  1  0.27428427  0.48521462  0.88213759  1
  O2-  O172  1  0.78288425  -0.01369080  0.38831113  1
  O2-  O173  1  0.76648755  -0.01117406  0.86259399  1
  O2-  O174  1  0.78249770  0.48181163  0.38671321  1
  O2-  O175  1  0.76535426  0.48406222  0.86982944  1
  O2-  O176  1  0.02133595  0.24708550  0.38253492  1
  O2-  O177  1  0.03461248  0.23873408  0.88322668  1
  O2-  O178  1  0.02688916  0.73842507  0.38249539  1
  O2-  O179  1  0.04454511  0.74374437  0.88546240  1
  O2-  O180  1  0.51446878  0.23049694  0.38521274  1
  O2-  O181  1  0.53496070  0.23799352  0.88532915  1
  O2-  O182  1  0.51390547  0.73413058  0.37961302  1
  O2-  O183  1  0.52254414  0.73705245  0.87882698  1
  O2-  O184  1  0.21910954  0.01587723  0.11630352  1
  O2-  O185  1  0.21896091  0.01149613  0.63232844  1
  O2-  O186  1  0.23140005  0.51571489  0.11324716  1
  O2-  O187  1  0.21214710  0.51233118  0.61638748  1
  O2-  O188  1  0.72704358  0.02053709  0.11086002  1
  O2-  O189  1  0.71957202  0.01199656  0.63159852  1
  O2-  O190  1  0.72821281  0.51466732  0.11252201  1
  O2-  O191  1  0.72184706  0.51020348  0.63448384  1
  O2-  O192  1  0.13429292  0.27228816  0.23433172  1
  O2-  O193  1  0.13660654  0.26413110  0.72333967  1
  O2-  O194  1  0.13851571  0.77539345  0.23851799  1
  O2-  O195  1  0.13708721  0.77064566  0.72815116  1
  O2-  O196  1  0.63435377  0.27325734  0.23762181  1
  O2-  O197  1  0.63319533  0.26566391  0.71904809  1
  O2-  O198  1  0.61696158  0.76542849  0.23956057  1
  O2-  O199  1  0.62165487  0.77004085  0.73691283  1
  O2-  O200  1  0.36604593  0.22858407  0.27613608  1
  O2-  O201  1  0.36488497  0.21651671  0.75922020  1
  O2-  O202  1  0.38139558  0.72948052  0.27062084  1
  O2-  O203  1  0.38162349  0.73452037  0.76424805  1
  O2-  O204  1  0.86548180  0.23099732  0.28091980  1
  O2-  O205  1  0.86215465  0.22937965  0.75912851  1
  O2-  O206  1  0.86705616  0.73080359  0.27170539  1
  O2-  O207  1  0.86328626  0.73085070  0.76559517  1
  O2-  O208  1  0.27356702  0.36495055  0.24126105  1
  O2-  O209  1  0.27924900  0.36510771  0.72126149  1
  O2-  O210  1  0.28232069  0.86317325  0.23970408  1
  O2-  O211  1  0.26809313  0.87975812  0.72953915  1
  O2-  O212  1  0.77239929  0.36529663  0.23188688  1
  O2-  O213  1  0.76377568  0.37771168  0.73158778  1
  O2-  O214  1  0.76519477  0.86534610  0.21979744  1
  O2-  O215  1  0.76258437  0.87892005  0.73008767  1
  O2-  O216  1  0.22568154  0.13318083  0.27417627  1
  O2-  O217  1  0.22840864  0.11900750  0.76203355  1
  O2-  O218  1  0.23650198  0.63835351  0.28762101  1
  O2-  O219  1  0.23501045  0.63784243  0.76781997  1
  O2-  O220  1  0.72472421  0.13477381  0.28048182  1
  O2-  O221  1  0.72727991  0.12528648  0.76016494  1
  O2-  O222  1  0.72827668  0.63431109  0.28074531  1
  O2-  O223  1  0.72766952  0.62627332  0.76763965  1
  O2-  O224  1  0.11671167  0.47761136  0.26038890  1
  O2-  O225  1  0.11490478  0.47391162  0.77415890  1
  O2-  O226  1  0.11441917  0.96998345  0.26573133  1
  O2-  O227  1  0.12195746  0.97788427  0.76965026  1
  O2-  O228  1  0.61390903  0.48563837  0.26428324  1
  O2-  O229  1  0.62701136  0.48901126  0.77502157  1
  O2-  O230  1  0.61777312  0.97587777  0.26823853  1
  O2-  O231  1  0.62222027  0.98322113  0.77085020  1
  O2-  O232  1  0.38403033  0.01210295  0.22451307  1
  O2-  O233  1  0.37017689  0.01503578  0.73070062  1
  O2-  O234  1  0.38565503  0.51889776  0.21725839  1
  O2-  O235  1  0.38830307  0.52919699  0.73842343  1
  O2-  O236  1  0.88398589  0.02129819  0.22164526  1
  O2-  O237  1  0.86738629  0.01864797  0.72947294  1
  O2-  O238  1  0.88368732  0.52581185  0.22246882  1
  O2-  O239  1  0.86367515  0.52260763  0.73785337  1
  O2-  O240  1  0.47799433  0.38761990  0.27083637  1
  O2-  O241  1  0.48209607  0.38762153  0.77782327  1
  O2-  O242  1  0.48364380  0.86620897  0.26847242  1
  O2-  O243  1  0.48707768  0.86764774  0.77521868  1
  O2-  O244  1  0.97536322  0.38716627  0.25301683  1
  O2-  O245  1  0.96534777  0.38529593  0.77434251  1
  O2-  O246  1  0.97367131  0.88358893  0.25180159  1
  O2-  O247  1  0.96848996  0.88621186  0.77528192  1
  O2-  O248  1  0.02720877  0.11543762  0.23116620  1
  O2-  O249  1  0.01186771  0.11132023  0.73131018  1
  O2-  O250  1  0.02751364  0.61696894  0.22218326  1
  O2-  O251  1  0.01348153  0.61276899  0.73530661  1
  O2-  O252  1  0.52039570  0.11589607  0.22809858  1
  O2-  O253  1  0.51991732  0.11206945  0.72363153  1
  O2-  O254  1  0.51791102  0.62886814  0.23326437  1
  O2-  O255  1  0.52432159  0.63162629  0.74415663  1
  O2-  O256  1  0.12482331  0.48377040  -0.02149944  1
  O2-  O257  1  0.13555025  0.47647551  0.47228999  1
  O2-  O258  1  0.12125742  0.98873188  -0.02176323  1
  O2-  O259  1  0.13894065  0.97004874  0.48774466  1
  O2-  O260  1  0.62804333  0.48392271  -0.02052059  1
  O2-  O261  1  0.63421558  0.46914634  0.48438887  1
  O2-  O262  1  0.63399753  0.98304755  -0.03006125  1
  O2-  O263  1  0.63611058  0.98704590  0.48051675  1
  O2-  O264  1  0.36344029  0.02648889  0.01864113  1
  O2-  O265  1  0.36062609  0.01405401  0.54035531  1
  O2-  O266  1  0.38205610  0.51894991  0.01338596  1
  O2-  O267  1  0.36238839  0.51258537  0.53658927  1
  O2-  O268  1  0.88027411  0.01784791  0.00562221  1
  O2-  O269  1  0.86280423  0.02901424  0.53097936  1
  O2-  O270  1  0.87970168  0.51838788  0.01115379  1
  O2-  O271  1  0.86050419  0.51573293  0.53597594  1
  O2-  O272  1  0.48744871  0.38467471  -0.01989590  1
  O2-  O273  1  0.47501342  0.36533646  0.48042558  1
  O2-  O274  1  0.47357477  0.86301926  -0.01670947  1
  O2-  O275  1  0.46756549  0.86201886  0.48810833  1
  O2-  O276  1  0.98409256  0.38087508  -0.02160298  1
  O2-  O277  1  0.97274900  0.36632509  0.48631969  1
  O2-  O278  1  0.98758405  0.88023298  -0.02002217  1
  O2-  O279  1  0.97897807  0.86299465  0.48134896  1
  O2-  O280  1  0.01599508  0.12681635  0.01433945  1
  O2-  O281  1  0.01900130  0.13440303  0.51120371  1
  O2-  O282  1  0.01863752  0.62508443  0.00961964  1
  O2-  O283  1  0.02982156  0.63142172  0.51548550  1
  O2-  O284  1  0.52309601  0.13348088  0.02455686  1
  O2-  O285  1  0.50996266  0.13251020  0.52143015  1
  O2-  O286  1  0.52575182  0.62129660  0.01510418  1
  O2-  O287  1  0.51359323  0.63503919  0.52509297  1
  O2-  O288  1  0.11372847  0.27440705  0.02647049  1
  O2-  O289  1  0.12492541  0.26874141  0.51909588  1
  O2-  O290  1  0.11542785  0.76893933  0.03528833  1
  O2-  O291  1  0.13640170  0.76555586  0.51883993  1
  O2-  O292  1  0.61753664  0.27855884  0.02770918  1
  O2-  O293  1  0.62295717  0.26723893  0.51521336  1
  O2-  O294  1  0.61319687  0.76692389  0.02567422  1
  O2-  O295  1  0.61207689  0.77554854  0.51507434  1
  O2-  O296  1  0.38815330  0.23824289  -0.03059811  1
  O2-  O297  1  0.36744299  0.23075326  0.48522582  1
  O2-  O298  1  0.38772310  0.71614918  -0.00906357  1
  O2-  O299  1  0.37221079  0.72498913  0.49471938  1
  O2-  O300  1  0.88635879  0.23730023  -0.03643913  1
  O2-  O301  1  0.87055490  0.23145785  0.48427601  1
  O2-  O302  1  0.88925490  0.73653687  -0.03887217  1
  O2-  O303  1  0.88152447  0.71657018  0.48045163  1
  O2-  O304  1  0.27173480  0.38511704  0.01697059  1
  O2-  O305  1  0.26529024  0.36839909  0.52048381  1
  O2-  O306  1  0.26577021  0.88840556  0.00884740  1
  O2-  O307  1  0.27085389  0.87226505  0.52199743  1
  O2-  O308  1  0.77658906  0.38668027  0.01065450  1
  O2-  O309  1  0.76464399  0.37035802  0.52402729  1
  O2-  O310  1  0.77452569  0.88740258  0.01007949  1
  O2-  O311  1  0.77046888  0.88368877  0.52895799  1
  O2-  O312  1  0.23071561  0.11786020  -0.02975890  1
  O2-  O313  1  0.22673992  0.12292981  0.49012960  1
  O2-  O314  1  0.23284752  0.61676084  -0.02509817  1
  O2-  O315  1  0.23386731  0.62582971  0.48707821  1
  O2-  O316  1  0.74321506  0.11650078  -0.03183583  1
  O2-  O317  1  0.72920539  0.13237798  0.48599378  1
  O2-  O318  1  0.74474411  0.61427288  -0.02772175  1
  O2-  O319  1  0.72265436  0.61164321  0.48399414  1
