# generated using pymatgen
data_Sr64Ca21Nb43O192
_symmetry_space_group_name_H-M   'P 1'
_cell_length_a   16.56774666
_cell_length_b   16.62038682
_cell_length_c   16.74498846
_cell_angle_alpha   90.02331347
_cell_angle_beta   89.99263271
_cell_angle_gamma   89.95643121
_symmetry_Int_Tables_number   1
_chemical_formula_structural   Sr64Ca21Nb43O192
_chemical_formula_sum   'Sr64 Ca21 Nb43 O192'
_cell_volume   4610.93775712
_cell_formula_units_Z   1
loop_
 _symmetry_equiv_pos_site_id
 _symmetry_equiv_pos_as_xyz
  1  'x, y, z'
loop_
 _atom_type_symbol
 _atom_type_oxidation_number
  Sr2+  2.0
  Ca2+  2.0
  Nb5+  5.0
  O2-  -2.0
loop_
 _atom_site_type_symbol
 _atom_site_label
 _atom_site_symmetry_multiplicity
 _atom_site_fract_x
 _atom_site_fract_y
 _atom_site_fract_z
 _atom_site_occupancy
  Sr2+  Sr0  1  0.12228073  0.13193654  0.12994153  1
  Sr2+  Sr1  1  0.11991222  0.15729504  0.62652764  1
  Sr2+  Sr2  1  0.12230635  0.61506137  0.12691440  1
  Sr2+  Sr3  1  0.12534555  0.60536940  0.62385542  1
  Sr2+  Sr4  1  0.63990885  0.13640899  0.13001290  1
  Sr2+  Sr5  1  0.63508193  0.13834899  0.62355225  1
  Sr2+  Sr6  1  0.62042079  0.61377625  0.12158077  1
  Sr2+  Sr7  1  0.63307247  0.62263884  0.62713586  1
  Sr2+  Sr8  1  0.37411154  0.37427529  0.13146810  1
  Sr2+  Sr9  1  0.37768336  0.37286164  0.61903818  1
  Sr2+  Sr10  1  0.37759028  0.88637834  0.13196296  1
  Sr2+  Sr11  1  0.37644209  0.88935764  0.61639621  1
  Sr2+  Sr12  1  0.87330123  0.35139085  0.12436635  1
  Sr2+  Sr13  1  0.88873562  0.37667413  0.61986343  1
  Sr2+  Sr14  1  0.88135227  0.88719831  0.12558303  1
  Sr2+  Sr15  1  0.87854140  0.88534873  0.62697850  1
  Sr2+  Sr16  1  0.12900142  0.36965496  0.39486818  1
  Sr2+  Sr17  1  0.13410223  0.36194647  0.87101817  1
  Sr2+  Sr18  1  0.11445215  0.87023328  0.37417444  1
  Sr2+  Sr19  1  0.13748967  0.86742751  0.87644175  1
  Sr2+  Sr20  1  0.61884152  0.37377662  0.39543578  1
  Sr2+  Sr21  1  0.61623409  0.37303187  0.88515292  1
  Sr2+  Sr22  1  0.60734759  0.87046439  0.37806988  1
  Sr2+  Sr23  1  0.61990590  0.86973901  0.86983368  1
  Sr2+  Sr24  1  0.38012988  0.11451875  0.37713088  1
  Sr2+  Sr25  1  0.37112686  0.11613749  0.87305862  1
  Sr2+  Sr26  1  0.35973356  0.62325643  0.36908042  1
  Sr2+  Sr27  1  0.37747993  0.62777716  0.87747126  1
  Sr2+  Sr28  1  0.86337605  0.11993557  0.36856175  1
  Sr2+  Sr29  1  0.86236926  0.11556177  0.87715424  1
  Sr2+  Sr30  1  0.85416884  0.62128602  0.37558103  1
  Sr2+  Sr31  1  0.87206111  0.62538486  0.87675469  1
  Sr2+  Sr32  1  0.13067749  0.13098528  0.37689460  1
  Sr2+  Sr33  1  0.13223960  0.11515291  0.87204346  1
  Sr2+  Sr34  1  0.12316465  0.62435954  0.37311186  1
  Sr2+  Sr35  1  0.12357992  0.62117722  0.86762111  1
  Sr2+  Sr36  1  0.62076726  0.13698582  0.37468593  1
  Sr2+  Sr37  1  0.62406397  0.13208016  0.86948323  1
  Sr2+  Sr38  1  0.62033417  0.62261282  0.37915445  1
  Sr2+  Sr39  1  0.61553029  0.62265487  0.87093137  1
  Sr2+  Sr40  1  0.38008679  0.34121112  0.37463996  1
  Sr2+  Sr41  1  0.37706218  0.34645839  0.87539497  1
  Sr2+  Sr42  1  0.37642568  0.89239937  0.37570165  1
  Sr2+  Sr43  1  0.37318905  0.88246053  0.87488508  1
  Sr2+  Sr44  1  0.86414738  0.35891070  0.37626770  1
  Sr2+  Sr45  1  0.86706665  0.35818229  0.88273216  1
  Sr2+  Sr46  1  0.87091635  0.86679972  0.37412641  1
  Sr2+  Sr47  1  0.87326071  0.87471074  0.87938727  1
  Sr2+  Sr48  1  0.10582427  0.37807087  0.12245092  1
  Sr2+  Sr49  1  0.14379258  0.38342821  0.63233712  1
  Sr2+  Sr50  1  0.11771411  0.87649823  0.12350291  1
  Sr2+  Sr51  1  0.12293829  0.87590007  0.61142940  1
  Sr2+  Sr52  1  0.63851834  0.37888556  0.12853911  1
  Sr2+  Sr53  1  0.62918975  0.38372962  0.62831780  1
  Sr2+  Sr54  1  0.62678222  0.87850828  0.13030854  1
  Sr2+  Sr55  1  0.63658050  0.88031294  0.62653421  1
  Sr2+  Sr56  1  0.37324968  0.13530201  0.14003991  1
  Sr2+  Sr57  1  0.36938900  0.13594781  0.62174220  1
  Sr2+  Sr58  1  0.36722491  0.61932185  0.12412470  1
  Sr2+  Sr59  1  0.37077038  0.61628854  0.62430042  1
  Sr2+  Sr60  1  0.88056904  0.12523737  0.12380452  1
  Sr2+  Sr61  1  0.88448472  0.12463966  0.63280757  1
  Sr2+  Sr62  1  0.87497710  0.62262158  0.12202087  1
  Sr2+  Sr63  1  0.87142200  0.62393149  0.62434990  1
  Ca2+  Ca64  1  0.49789382  0.50220680  0.49858112  1
  Ca2+  Ca65  1  0.50746696  0.00001539  0.50431546  1
  Ca2+  Ca66  1  0.50067704  -0.00186097  0.00157660  1
  Ca2+  Ca67  1  0.00002937  0.50096278  0.49731406  1
  Ca2+  Ca68  1  0.00088425  0.00248302  0.50232661  1
  Ca2+  Ca69  1  0.75377924  0.24752157  0.50387015  1
  Ca2+  Ca70  1  0.74960359  0.74865974  -0.00151467  1
  Ca2+  Ca71  1  0.25066267  0.24959186  0.50099347  1
  Ca2+  Ca72  1  0.74652675  0.24867296  -0.00126083  1
  Ca2+  Ca73  1  0.25040592  0.24758470  0.00307449  1
  Ca2+  Ca74  1  0.24627145  -0.00247157  0.74612183  1
  Ca2+  Ca75  1  0.25425468  0.50222045  0.75811650  1
  Ca2+  Ca76  1  0.50069344  0.24796954  0.74884009  1
  Ca2+  Ca77  1  0.50219233  0.25057434  0.24768409  1
  Ca2+  Ca78  1  0.74960307  -0.00405654  0.25195501  1
  Ca2+  Ca79  1  0.24671548  -0.00178509  0.25095475  1
  Ca2+  Ca80  1  -0.00438029  0.25280341  0.75211274  1
  Ca2+  Ca81  1  0.75327727  0.50232122  0.24690258  1
  Ca2+  Ca82  1  0.00321688  0.25204807  0.25397194  1
  Ca2+  Ca83  1  0.75172790  0.50152653  0.75358497  1
  Ca2+  Ca84  1  0.25062976  0.49605099  0.25004099  1
  Nb5+  Nb85  1  0.49025538  0.50025052  -0.00229407  1
  Nb5+  Nb86  1  -0.00727098  0.49958188  -0.00183831  1
  Nb5+  Nb87  1  0.00030975  -0.00495060  -0.00290257  1
  Nb5+  Nb88  1  0.74096996  0.75368729  0.49987418  1
  Nb5+  Nb89  1  0.24524649  0.75091963  0.49283560  1
  Nb5+  Nb90  1  0.25078997  0.74832172  -0.00266520  1
  Nb5+  Nb91  1  0.00606477  0.75396028  0.74240117  1
  Nb5+  Nb92  1  -0.00737994  0.74743789  0.24576960  1
  Nb5+  Nb93  1  0.50222561  0.75118919  0.75054125  1
  Nb5+  Nb94  1  0.74634315  0.00037047  0.75030636  1
  Nb5+  Nb95  1  0.49088957  0.74539041  0.25541127  1
  Nb5+  Nb96  1  -0.00023230  0.00211324  0.25575158  1
  Nb5+  Nb97  1  0.00121416  -0.00350212  0.75303946  1
  Nb5+  Nb98  1  0.00009293  0.50053938  0.25097434  1
  Nb5+  Nb99  1  -0.00625088  0.49824510  0.75318893  1
  Nb5+  Nb100  1  0.50632454  0.00137157  0.24701624  1
  Nb5+  Nb101  1  0.49867550  0.00191587  0.74617986  1
  Nb5+  Nb102  1  0.50147069  0.50039619  0.25088246  1
  Nb5+  Nb103  1  0.49451433  0.49772603  0.74919679  1
  Nb5+  Nb104  1  0.24862358  0.25176480  0.24936014  1
  Nb5+  Nb105  1  0.24926895  0.24751247  0.75262817  1
  Nb5+  Nb106  1  0.24286513  0.75389507  0.24184616  1
  Nb5+  Nb107  1  0.25615740  0.75121530  0.73944111  1
  Nb5+  Nb108  1  0.74889414  0.25035388  0.25222221  1
  Nb5+  Nb109  1  0.75145222  0.25786754  0.74555172  1
  Nb5+  Nb110  1  0.73937998  0.74946804  0.24667991  1
  Nb5+  Nb111  1  0.75615552  0.75158766  0.75005615  1
  Nb5+  Nb112  1  -0.00115939  0.25106528  0.49644015  1
  Nb5+  Nb113  1  0.00424261  0.23921659  0.99605066  1
  Nb5+  Nb114  1  -0.00793805  0.74672546  0.49409902  1
  Nb5+  Nb115  1  0.00411723  0.74626960  0.99484173  1
  Nb5+  Nb116  1  0.50196746  0.24861417  0.50441500  1
  Nb5+  Nb117  1  0.50329580  0.23995099  1.00308169  1
  Nb5+  Nb118  1  0.48942557  0.74660650  0.50727871  1
  Nb5+  Nb119  1  0.49918769  0.75256172  1.00765913  1
  Nb5+  Nb120  1  0.25091547  0.00272058  0.00501128  1
  Nb5+  Nb121  1  0.24740286  0.00340557  0.50396351  1
  Nb5+  Nb122  1  0.24520537  0.49803334  -0.00269598  1
  Nb5+  Nb123  1  0.25599155  0.49877110  0.49834155  1
  Nb5+  Nb124  1  0.74413348  -0.00552226  -0.00025883  1
  Nb5+  Nb125  1  0.75253597  0.00006007  0.49736187  1
  Nb5+  Nb126  1  0.74379087  0.50070079  -0.00329341  1
  Nb5+  Nb127  1  0.75540170  0.49618356  0.50289488  1
  O2-  O128  1  0.01722508  -0.00235678  0.11506933  1
  O2-  O129  1  0.00878942  -0.02538064  0.64004807  1
  O2-  O130  1  -0.00560515  0.51668628  0.11447548  1
  O2-  O131  1  -0.00299464  0.49910146  0.63720647  1
  O2-  O132  1  0.51123127  -0.03165834  0.13271144  1
  O2-  O133  1  0.51449261  -0.03458725  0.63638844  1
  O2-  O134  1  0.48969251  0.50690033  0.11494765  1
  O2-  O135  1  0.48662454  0.49234899  0.63437835  1
  O2-  O136  1  -0.02595879  0.00003661  0.36644593  1
  O2-  O137  1  -0.02588403  0.00000663  0.87706358  1
  O2-  O138  1  0.02198750  0.50582661  0.36230032  1
  O2-  O139  1  0.00197614  0.51960451  0.88073524  1
  O2-  O140  1  0.49150690  0.00285903  0.36612960  1
  O2-  O141  1  0.48288258  0.00185376  0.86493621  1
  O2-  O142  1  0.52073682  0.50922700  0.36300581  1
  O2-  O143  1  0.50674921  0.51691286  0.87875278  1
  O2-  O144  1  0.28081963  0.25395369  0.13277382  1
  O2-  O145  1  0.27215912  0.26070613  0.63454994  1
  O2-  O146  1  0.25351274  0.76765357  0.12780450  1
  O2-  O147  1  0.25839536  0.76858273  0.62665434  1
  O2-  O148  1  0.77159054  0.22435165  0.13184699  1
  O2-  O149  1  0.77041362  0.21508774  0.63554861  1
  O2-  O150  1  0.74459766  0.72475620  0.13505881  1
  O2-  O151  1  0.75336468  0.73430266  0.62243812  1
  O2-  O152  1  0.22581656  0.24939517  0.36820323  1
  O2-  O153  1  0.22380165  0.23550238  0.86984723  1
  O2-  O154  1  0.24355552  0.73435152  0.37776340  1
  O2-  O155  1  0.23993105  0.73423515  0.88304097  1
  O2-  O156  1  0.72682574  0.27226164  0.36803094  1
  O2-  O157  1  0.72254392  0.26604526  0.86237815  1
  O2-  O158  1  0.74572085  0.77317635  0.38171319  1
  O2-  O159  1  0.74647698  0.77688424  0.86203773  1
  O2-  O160  1  -0.01829661  0.24279720  0.11481288  1
  O2-  O161  1  -0.02838228  0.25112841  0.61629510  1
  O2-  O162  1  -0.00302688  0.75354867  0.12651984  1
  O2-  O163  1  -0.00974548  0.75788782  0.62604375  1
  O2-  O164  1  0.47088019  0.25621582  0.11413625  1
  O2-  O165  1  0.47028353  0.25211191  0.61833789  1
  O2-  O166  1  0.49262519  0.75692926  0.12408257  1
  O2-  O167  1  0.48416748  0.76090059  0.62371061  1
  O2-  O168  1  0.26808411  0.00851771  0.38664121  1
  O2-  O169  1  0.26519322  0.00507267  0.88576539  1
  O2-  O170  1  0.23668067  0.52522847  0.38439982  1
  O2-  O171  1  0.24788700  0.53980292  0.88938381  1
  O2-  O172  1  0.78021727  -0.01655912  0.38699539  1
  O2-  O173  1  0.76577715  -0.02127041  0.86961313  1
  O2-  O174  1  0.75364547  0.48903484  0.38420585  1
  O2-  O175  1  0.75359070  0.46420897  0.88406876  1
  O2-  O176  1  0.03779411  0.25096513  0.38303171  1
  O2-  O177  1  0.02317992  0.26067404  0.88368311  1
  O2-  O178  1  0.00570765  0.74622029  0.37469896  1
  O2-  O179  1  0.01240784  0.74989168  0.87737451  1
  O2-  O180  1  0.52356225  0.25241308  0.38251317  1
  O2-  O181  1  0.52327916  0.25055243  0.88370618  1
  O2-  O182  1  0.50368206  0.73352509  0.37185008  1
  O2-  O183  1  0.50249054  0.73904776  0.86936457  1
  O2-  O184  1  0.22807387  -0.02646144  0.11562580  1
  O2-  O185  1  0.24046947  -0.03547237  0.61646560  1
  O2-  O186  1  0.26801311  0.49576234  0.11174540  1
  O2-  O187  1  0.26285298  0.49574863  0.62062660  1
  O2-  O188  1  0.73029237  0.01053261  0.11356210  1
  O2-  O189  1  0.72898857  0.00913607  0.63257402  1
  O2-  O190  1  0.75323593  0.53563604  0.11023606  1
  O2-  O191  1  0.75149415  0.52763444  0.61871042  1
  O2-  O192  1  0.13538721  0.27609114  0.22197073  1
  O2-  O193  1  0.12975773  0.27395913  0.73086960  1
  O2-  O194  1  0.12750480  0.77481192  0.24765450  1
  O2-  O195  1  0.11896412  0.77945838  0.73977153  1
  O2-  O196  1  0.63413158  0.26065089  0.21978571  1
  O2-  O197  1  0.63383455  0.25918799  0.72081885  1
  O2-  O198  1  0.62518192  0.77317772  0.24848827  1
  O2-  O199  1  0.61764765  0.77242560  0.74014293  1
  O2-  O200  1  0.36880211  0.21785079  0.27314719  1
  O2-  O201  1  0.36594837  0.22347224  0.77346178  1
  O2-  O202  1  0.37717081  0.72450092  0.24924990  1
  O2-  O203  1  0.37061728  0.72893431  0.75198158  1
  O2-  O204  1  0.86868101  0.23600224  0.27361648  1
  O2-  O205  1  0.86278663  0.23112078  0.78057554  1
  O2-  O206  1  0.88020139  0.72619130  0.25538342  1
  O2-  O207  1  0.87236985  0.73350573  0.75352365  1
  O2-  O208  1  0.28506934  0.36646753  0.25910010  1
  O2-  O209  1  0.26557888  0.36755335  0.77141717  1
  O2-  O210  1  0.27963039  0.86119664  0.26677383  1
  O2-  O211  1  0.25880603  0.86075645  0.77794598  1
  O2-  O212  1  0.76820510  0.36788066  0.22922969  1
  O2-  O213  1  0.76891344  0.36764801  0.71826991  1
  O2-  O214  1  0.78048142  0.85922571  0.23841245  1
  O2-  O215  1  0.76013875  0.87134033  0.72540492  1
  O2-  O216  1  0.22285776  0.13140842  0.24025241  1
  O2-  O217  1  0.22190952  0.13018517  0.73795368  1
  O2-  O218  1  0.23485518  0.63723222  0.24107486  1
  O2-  O219  1  0.21741090  0.64190243  0.74176576  1
  O2-  O220  1  0.73376787  0.12979933  0.27288890  1
  O2-  O221  1  0.73407372  0.11404017  0.76883016  1
  O2-  O222  1  0.73572588  0.63878696  0.28289600  1
  O2-  O223  1  0.72327215  0.64119886  0.76170130  1
  O2-  O224  1  0.11544644  0.49281848  0.22052645  1
  O2-  O225  1  0.11313724  0.48704845  0.75897480  1
  O2-  O226  1  0.11158905  0.96625948  0.25890630  1
  O2-  O227  1  0.11117338  0.97785764  0.77889225  1
  O2-  O228  1  0.61687933  0.49586250  0.22164864  1
  O2-  O229  1  0.61357923  0.49036187  0.74970544  1
  O2-  O230  1  0.61867974  0.96193599  0.26054830  1
  O2-  O231  1  0.62820575  0.97448944  0.76629230  1
  O2-  O232  1  0.38576209  0.01100789  0.23422523  1
  O2-  O233  1  0.38419336  0.01899252  0.72970892  1
  O2-  O234  1  0.38875652  0.53628789  0.24885063  1
  O2-  O235  1  0.38466027  0.54022556  0.75919049  1
  O2-  O236  1  0.88651146  0.00910691  0.21967377  1
  O2-  O237  1  0.86899145  0.00710538  0.73888765  1
  O2-  O238  1  0.88972419  0.54107976  0.24843170  1
  O2-  O239  1  0.88406345  0.54317184  0.75622649  1
  O2-  O240  1  0.47901598  0.38779501  0.24805993  1
  O2-  O241  1  0.47361303  0.38589636  0.76451508  1
  O2-  O242  1  0.47971592  0.86232880  0.26108049  1
  O2-  O243  1  0.47571462  0.86676368  0.76267606  1
  O2-  O244  1  0.97485242  0.38944727  0.23810252  1
  O2-  O245  1  0.96216870  0.38953538  0.76434243  1
  O2-  O246  1  0.98088278  0.86661228  0.25368626  1
  O2-  O247  1  0.97229113  0.86781744  0.76354956  1
  O2-  O248  1  0.02434825  0.11407063  0.24913055  1
  O2-  O249  1  0.00949615  0.11156563  0.74377297  1
  O2-  O250  1  0.03091217  0.63624757  0.24760358  1
  O2-  O251  1  0.02156965  0.63829591  0.74854703  1
  O2-  O252  1  0.53072498  0.11283192  0.23571818  1
  O2-  O253  1  0.53100943  0.11124936  0.73787561  1
  O2-  O254  1  0.52803782  0.63420590  0.23796575  1
  O2-  O255  1  0.51928420  0.63423450  0.73607750  1
  O2-  O256  1  0.12574732  0.48788781  0.00394156  1
  O2-  O257  1  0.13704010  0.48482060  0.51405240  1
  O2-  O258  1  0.11752071  0.98099857  -0.02389078  1
  O2-  O259  1  0.13547086  0.96662465  0.48442544  1
  O2-  O260  1  0.62345603  0.49042520  0.00351226  1
  O2-  O261  1  0.63576653  0.48246733  0.50753988  1
  O2-  O262  1  0.63450708  0.96569239  -0.01734832  1
  O2-  O263  1  0.64180174  0.96075367  0.49470669  1
  O2-  O264  1  0.36358308  0.02100284  0.02410425  1
  O2-  O265  1  0.36855279  0.01438637  0.52029541  1
  O2-  O266  1  0.37631270  0.52659483  -0.00798029  1
  O2-  O267  1  0.36737119  0.53971526  0.49390107  1
  O2-  O268  1  0.88153878  0.01896688  0.01261970  1
  O2-  O269  1  0.86498019  0.01176106  0.53460273  1
  O2-  O270  1  0.87870343  0.52455945  -0.00683816  1
  O2-  O271  1  0.86862906  0.53671121  0.50048715  1
  O2-  O272  1  0.47770498  0.38621009  -0.01075251  1
  O2-  O273  1  0.47607366  0.36787134  0.49345380  1
  O2-  O274  1  0.46625488  0.86178084  -0.01057532  1
  O2-  O275  1  0.48513695  0.86004705  0.48070126  1
  O2-  O276  1  0.98221684  0.38509235  0.00228908  1
  O2-  O277  1  0.97050251  0.36937973  0.48702200  1
  O2-  O278  1  0.98488295  0.87504696  -0.00071889  1
  O2-  O279  1  0.98748694  0.86324451  0.49407816  1
  O2-  O280  1  0.02036859  0.12275520  -0.00717012  1
  O2-  O281  1  0.02825353  0.13381508  0.50668885  1
  O2-  O282  1  0.02655802  0.63177251  0.00138365  1
  O2-  O283  1  0.03352152  0.63887934  0.50772842  1
  O2-  O284  1  0.53623891  0.13057027  0.01137972  1
  O2-  O285  1  0.53344908  0.13204364  0.50718143  1
  O2-  O286  1  0.51411584  0.63145002  0.00136724  1
  O2-  O287  1  0.53309108  0.63868867  0.50945951  1
  O2-  O288  1  0.11509467  0.27242108  0.02024221  1
  O2-  O289  1  0.11682570  0.28288628  0.52676806  1
  O2-  O290  1  0.12508922  0.77203775  0.00883932  1
  O2-  O291  1  0.13095400  0.77440750  0.49922475  1
  O2-  O292  1  0.61403292  0.28249112  0.01931946  1
  O2-  O293  1  0.61907064  0.27690819  0.52509420  1
  O2-  O294  1  0.61245090  0.77400190  0.00229761  1
  O2-  O295  1  0.62757090  0.77377383  0.50908359  1
  O2-  O296  1  0.38631509  0.22741305  -0.02670078  1
  O2-  O297  1  0.38415449  0.22024929  0.47933384  1
  O2-  O298  1  0.36868371  0.72730269  -0.00048423  1
  O2-  O299  1  0.37666969  0.72306681  0.49588088  1
  O2-  O300  1  0.88480311  0.23990262  -0.02192890  1
  O2-  O301  1  0.88481222  0.22742428  0.46538821  1
  O2-  O302  1  0.88883408  0.73034421  -0.00488049  1
  O2-  O303  1  0.87838661  0.72715396  0.49229112  1
  O2-  O304  1  0.26470753  0.38771127  -0.02515229  1
  O2-  O305  1  0.27968789  0.38661620  0.48578194  1
  O2-  O306  1  0.26393278  0.86845601  -0.01131025  1
  O2-  O307  1  0.28161388  0.86262300  0.49000032  1
  O2-  O308  1  0.76665820  0.38707006  0.02699478  1
  O2-  O309  1  0.77951011  0.38416319  0.51783324  1
  O2-  O310  1  0.78367932  0.88286193  0.01171223  1
  O2-  O311  1  0.77909757  0.86587766  0.51755335  1
  O2-  O312  1  0.21740235  0.11242493  0.01153015  1
  O2-  O313  1  0.22291856  0.11450926  0.51950745  1
  O2-  O314  1  0.23093900  0.63461936  0.02531186  1
  O2-  O315  1  0.23347370  0.63688558  0.52210833  1
  O2-  O316  1  0.73799794  0.11074370  -0.02677644  1
  O2-  O317  1  0.72778783  0.11167198  0.48302350  1
  O2-  O318  1  0.73806779  0.61585499  -0.04046745  1
  O2-  O319  1  0.73164036  0.63640084  0.48327215  1
