# generated using pymatgen
data_Sr64Ca21Nb43O192
_symmetry_space_group_name_H-M   'P 1'
_cell_length_a   16.56298813
_cell_length_b   16.54403822
_cell_length_c   16.70349155
_cell_angle_alpha   89.96050397
_cell_angle_beta   90.00766549
_cell_angle_gamma   90.06363425
_symmetry_Int_Tables_number   1
_chemical_formula_structural   Sr64Ca21Nb43O192
_chemical_formula_sum   'Sr64 Ca21 Nb43 O192'
_cell_volume   4577.06523325
_cell_formula_units_Z   1
loop_
 _symmetry_equiv_pos_site_id
 _symmetry_equiv_pos_as_xyz
  1  'x, y, z'
loop_
 _atom_type_symbol
 _atom_type_oxidation_number
  Sr2+  2.0
  Ca2+  2.0
  Nb5+  5.0
  O2-  -2.0
loop_
 _atom_site_type_symbol
 _atom_site_label
 _atom_site_symmetry_multiplicity
 _atom_site_fract_x
 _atom_site_fract_y
 _atom_site_fract_z
 _atom_site_occupancy
  Sr2+  Sr0  1  0.12204138  0.11955566  0.12443906  1
  Sr2+  Sr1  1  0.11208602  0.11915865  0.61850992  1
  Sr2+  Sr2  1  0.11243147  0.61895643  0.12595950  1
  Sr2+  Sr3  1  0.12536437  0.62413355  0.63602175  1
  Sr2+  Sr4  1  0.61428793  0.12819073  0.13432947  1
  Sr2+  Sr5  1  0.61384694  0.11422601  0.62043070  1
  Sr2+  Sr6  1  0.62829097  0.61787423  0.13063620  1
  Sr2+  Sr7  1  0.61784248  0.61896039  0.61545404  1
  Sr2+  Sr8  1  0.37164732  0.36533808  0.12046908  1
  Sr2+  Sr9  1  0.36591406  0.38641504  0.61875550  1
  Sr2+  Sr10  1  0.36247473  0.87796973  0.12481044  1
  Sr2+  Sr11  1  0.37645998  0.86429544  0.63357450  1
  Sr2+  Sr12  1  0.87162307  0.37638552  0.12827741  1
  Sr2+  Sr13  1  0.87377207  0.38420536  0.63070978  1
  Sr2+  Sr14  1  0.87207768  0.85937486  0.12689996  1
  Sr2+  Sr15  1  0.87085220  0.86337907  0.62724688  1
  Sr2+  Sr16  1  0.13369228  0.36793615  0.39186002  1
  Sr2+  Sr17  1  0.13617185  0.37260631  0.87259039  1
  Sr2+  Sr18  1  0.14027732  0.87458772  0.37705548  1
  Sr2+  Sr19  1  0.13084542  0.88562260  0.86896949  1
  Sr2+  Sr20  1  0.63444323  0.36804343  0.38085937  1
  Sr2+  Sr21  1  0.63467271  0.36617353  0.87099882  1
  Sr2+  Sr22  1  0.62872195  0.88310174  0.38839402  1
  Sr2+  Sr23  1  0.63586010  0.87717798  0.87339551  1
  Sr2+  Sr24  1  0.39980616  0.12320363  0.37314187  1
  Sr2+  Sr25  1  0.38602135  0.13348899  0.87543931  1
  Sr2+  Sr26  1  0.38103953  0.62041854  0.37484181  1
  Sr2+  Sr27  1  0.38412455  0.62480537  0.87387135  1
  Sr2+  Sr28  1  0.85863432  0.12454463  0.36906217  1
  Sr2+  Sr29  1  0.86288710  0.12572836  0.87729879  1
  Sr2+  Sr30  1  0.87751735  0.62605263  0.37897786  1
  Sr2+  Sr31  1  0.88296789  0.62425191  0.87806737  1
  Sr2+  Sr32  1  0.12731734  0.11765233  0.37832230  1
  Sr2+  Sr33  1  0.12587401  0.13117621  0.87672442  1
  Sr2+  Sr34  1  0.13012018  0.63360935  0.37515942  1
  Sr2+  Sr35  1  0.13551673  0.61675697  0.87713153  1
  Sr2+  Sr36  1  0.62768415  0.12805509  0.37649430  1
  Sr2+  Sr37  1  0.63362666  0.11584658  0.86578622  1
  Sr2+  Sr38  1  0.63349631  0.62337618  0.38142259  1
  Sr2+  Sr39  1  0.62816515  0.63164274  0.87799589  1
  Sr2+  Sr40  1  0.38210966  0.35746091  0.38366550  1
  Sr2+  Sr41  1  0.37802005  0.37058683  0.87349654  1
  Sr2+  Sr42  1  0.37675442  0.88773611  0.36251735  1
  Sr2+  Sr43  1  0.39059413  0.88329014  0.87628201  1
  Sr2+  Sr44  1  0.88777307  0.35712239  0.37495628  1
  Sr2+  Sr45  1  0.88583515  0.36187383  0.87023236  1
  Sr2+  Sr46  1  0.87960430  0.87704227  0.38322498  1
  Sr2+  Sr47  1  0.87591835  0.89568279  0.87047769  1
  Sr2+  Sr48  1  0.12730415  0.37028466  0.12165969  1
  Sr2+  Sr49  1  0.12468839  0.37999619  0.62687847  1
  Sr2+  Sr50  1  0.12130329  0.87319985  0.12520200  1
  Sr2+  Sr51  1  0.12881452  0.86907171  0.62583212  1
  Sr2+  Sr52  1  0.61166473  0.38894930  0.12823071  1
  Sr2+  Sr53  1  0.63259112  0.37511198  0.62100117  1
  Sr2+  Sr54  1  0.61070428  0.86161566  0.12583826  1
  Sr2+  Sr55  1  0.61363138  0.86706560  0.63069530  1
  Sr2+  Sr56  1  0.36520780  0.12660414  0.12780932  1
  Sr2+  Sr57  1  0.37248362  0.12583669  0.60650995  1
  Sr2+  Sr58  1  0.39123372  0.62265503  0.12655118  1
  Sr2+  Sr59  1  0.36555222  0.62496054  0.63088746  1
  Sr2+  Sr60  1  0.86630823  0.12203714  0.12938168  1
  Sr2+  Sr61  1  0.85958055  0.12685734  0.64058327  1
  Sr2+  Sr62  1  0.87093527  0.62235008  0.12878273  1
  Sr2+  Sr63  1  0.86389350  0.62023758  0.62107826  1
  Ca2+  Ca64  1  0.00136935  0.50069947  0.49817299  1
  Ca2+  Ca65  1  0.49777377  0.49843556  0.50387140  1
  Ca2+  Ca66  1  0.49818191  -0.00520930  0.50223621  1
  Ca2+  Ca67  1  0.50200502  0.00214781  0.00160799  1
  Ca2+  Ca68  1  -0.00372577  -0.00146261  0.49644016  1
  Ca2+  Ca69  1  0.24878742  0.24609320  0.50022673  1
  Ca2+  Ca70  1  0.75586890  0.25069362  0.50114294  1
  Ca2+  Ca71  1  0.74815148  0.24993422  0.00196346  1
  Ca2+  Ca72  1  0.24910161  0.74820523  -0.00069106  1
  Ca2+  Ca73  1  0.25224459  0.74950939  0.50003674  1
  Ca2+  Ca74  1  -0.00314342  0.75076683  0.75553409  1
  Ca2+  Ca75  1  0.74939875  -0.00215722  0.74388726  1
  Ca2+  Ca76  1  0.50217825  0.75030624  0.25182605  1
  Ca2+  Ca77  1  0.25104369  0.00141744  0.75192995  1
  Ca2+  Ca78  1  0.25170420  0.50010558  0.24632735  1
  Ca2+  Ca79  1  0.74725942  0.50215927  0.75243328  1
  Ca2+  Ca80  1  0.75142353  -0.00503392  0.24845705  1
  Ca2+  Ca81  1  0.75313348  0.49899655  0.25286205  1
  Ca2+  Ca82  1  0.00175330  0.24873060  0.75238041  1
  Ca2+  Ca83  1  0.49989559  0.25374963  0.24864145  1
  Ca2+  Ca84  1  0.49838768  0.25372929  0.74566575  1
  Nb5+  Nb85  1  -0.00005248  -0.00474113  0.00227189  1
  Nb5+  Nb86  1  0.00080923  0.49283592  0.00039984  1
  Nb5+  Nb87  1  0.50605035  0.49966047  -0.00297713  1
  Nb5+  Nb88  1  0.74757399  0.75096203  0.50774450  1
  Nb5+  Nb89  1  0.25028300  0.24906254  -0.00136430  1
  Nb5+  Nb90  1  0.74913451  0.75036489  0.00635384  1
  Nb5+  Nb91  1  0.25035238  0.49909902  0.75222664  1
  Nb5+  Nb92  1  0.50108144  0.74641769  0.75251261  1
  Nb5+  Nb93  1  0.00159362  0.74702012  0.25115203  1
  Nb5+  Nb94  1  0.00642139  0.24210540  0.25088554  1
  Nb5+  Nb95  1  0.24900668  0.00302578  0.24979311  1
  Nb5+  Nb96  1  0.00170579  -0.00577172  0.24676255  1
  Nb5+  Nb97  1  -0.00158913  0.00276092  0.74270138  1
  Nb5+  Nb98  1  0.00274513  0.48950797  0.24991458  1
  Nb5+  Nb99  1  -0.00313499  0.50663935  0.74956918  1
  Nb5+  Nb100  1  0.50625385  -0.00208560  0.24363273  1
  Nb5+  Nb101  1  0.49834563  0.00466771  0.75436377  1
  Nb5+  Nb102  1  0.49837439  0.49759635  0.26007004  1
  Nb5+  Nb103  1  0.49801957  0.49801813  0.75106789  1
  Nb5+  Nb104  1  0.24847602  0.24987200  0.25415140  1
  Nb5+  Nb105  1  0.24912040  0.24723847  0.74245894  1
  Nb5+  Nb106  1  0.25009306  0.74566041  0.24305237  1
  Nb5+  Nb107  1  0.24988418  0.75231540  0.75896118  1
  Nb5+  Nb108  1  0.74735297  0.25275802  0.24342183  1
  Nb5+  Nb109  1  0.74798577  0.25351296  0.75011674  1
  Nb5+  Nb110  1  0.74929957  0.75268040  0.25952323  1
  Nb5+  Nb111  1  0.75173082  0.74353741  0.75829468  1
  Nb5+  Nb112  1  -0.00318531  0.24598277  0.50862299  1
  Nb5+  Nb113  1  0.00097792  0.24246738  1.00071365  1
  Nb5+  Nb114  1  0.00177494  0.74821199  0.50462753  1
  Nb5+  Nb115  1  -0.00033985  0.74811497  0.99703604  1
  Nb5+  Nb116  1  0.50465916  0.24949913  0.50305492  1
  Nb5+  Nb117  1  0.50724913  0.25093237  0.99866335  1
  Nb5+  Nb118  1  0.49575973  0.74893460  0.49518406  1
  Nb5+  Nb119  1  0.49701148  0.74857883  1.00121896  1
  Nb5+  Nb120  1  0.25142568  0.00139421  -0.00344328  1
  Nb5+  Nb121  1  0.25190255  -0.00687418  0.50741322  1
  Nb5+  Nb122  1  0.25669613  0.50104658  0.00319220  1
  Nb5+  Nb123  1  0.24764694  0.50553965  0.49361342  1
  Nb5+  Nb124  1  0.74543192  -0.00236712  0.00763240  1
  Nb5+  Nb125  1  0.75111762  0.00170701  0.50179625  1
  Nb5+  Nb126  1  0.75666193  0.49932680  -0.00508833  1
  Nb5+  Nb127  1  0.75455418  0.49620663  0.49426872  1
  O2-  O128  1  -0.00632667  0.02550299  0.12202568  1
  O2-  O129  1  -0.01640954  0.02675325  0.63195424  1
  O2-  O130  1  -0.00885923  0.52097825  0.11528355  1
  O2-  O131  1  0.00867923  0.52451082  0.63639603  1
  O2-  O132  1  0.48249725  0.03238650  0.13219241  1
  O2-  O133  1  0.47171123  0.01352552  0.63915053  1
  O2-  O134  1  0.51051065  0.52148853  0.11442468  1
  O2-  O135  1  0.49535555  0.52891860  0.64015176  1
  O2-  O136  1  0.02366037  -0.02099566  0.35805873  1
  O2-  O137  1  0.01604635  -0.01785126  0.88662865  1
  O2-  O138  1  0.01517849  0.47465784  0.36153142  1
  O2-  O139  1  -0.01302823  0.48497798  0.88363521  1
  O2-  O140  1  0.50423225  -0.02452132  0.36247472  1
  O2-  O141  1  0.52285231  -0.02644279  0.87014886  1
  O2-  O142  1  0.47958556  0.47722574  0.37019884  1
  O2-  O143  1  0.48374161  0.48827104  0.87829619  1
  O2-  O144  1  0.25766915  0.26366918  0.12101455  1
  O2-  O145  1  0.26249975  0.27695243  0.63304154  1
  O2-  O146  1  0.24068362  0.78080983  0.13043627  1
  O2-  O147  1  0.25281768  0.76596676  0.63919628  1
  O2-  O148  1  0.78374247  0.26071366  0.13089092  1
  O2-  O149  1  0.77013186  0.27764036  0.63401667  1
  O2-  O150  1  0.73717009  0.77203226  0.12040833  1
  O2-  O151  1  0.74108726  0.77008930  0.62236314  1
  O2-  O152  1  0.22374511  0.23383412  0.36487692  1
  O2-  O153  1  0.23998828  0.23545422  0.88021640  1
  O2-  O154  1  0.24212850  0.73873917  0.36127534  1
  O2-  O155  1  0.25756652  0.71205314  0.86930242  1
  O2-  O156  1  0.73782986  0.23340467  0.36147827  1
  O2-  O157  1  0.73097946  0.22658445  0.86945554  1
  O2-  O158  1  0.75712996  0.73018368  0.37338518  1
  O2-  O159  1  0.75746057  0.72699227  0.87452747  1
  O2-  O160  1  -0.00225909  0.23920055  0.12250998  1
  O2-  O161  1  -0.01910268  0.22232764  0.61862731  1
  O2-  O162  1  0.00687169  0.73869005  0.12136583  1
  O2-  O163  1  0.00488789  0.72290188  0.61625275  1
  O2-  O164  1  0.48360961  0.23451782  0.11291150  1
  O2-  O165  1  0.49426076  0.21512564  0.61666713  1
  O2-  O166  1  0.52275926  0.72625562  0.11431712  1
  O2-  O167  1  0.51212088  0.72821746  0.63660204  1
  O2-  O168  1  0.22959955  0.00940839  0.36452797  1
  O2-  O169  1  0.21934357  0.01704736  0.88629591  1
  O2-  O170  1  0.24811821  0.53225545  0.38126563  1
  O2-  O171  1  0.24795040  0.51020070  0.88080707  1
  O2-  O172  1  0.71786042  0.00748871  0.38220523  1
  O2-  O173  1  0.74172572  0.00740086  0.88720777  1
  O2-  O174  1  0.75274457  0.53556991  0.38226906  1
  O2-  O175  1  0.74778923  0.53753587  0.88540850  1
  O2-  O176  1  0.02158849  0.27069365  0.36160394  1
  O2-  O177  1  0.01560837  0.27288738  0.88936917  1
  O2-  O178  1  -0.00938912  0.77200309  0.36392473  1
  O2-  O179  1  -0.03485301  0.77046037  0.88998729  1
  O2-  O180  1  0.51331813  0.27409320  0.38144826  1
  O2-  O181  1  0.49908453  0.27965467  0.88474282  1
  O2-  O182  1  0.48678199  0.77677127  0.38513820  1
  O2-  O183  1  0.49009556  0.76051735  0.87927563  1
  O2-  O184  1  0.26289589  -0.00545885  0.12178554  1
  O2-  O185  1  0.26879892  -0.03014102  0.61867540  1
  O2-  O186  1  0.25279537  0.46515245  0.11238211  1
  O2-  O187  1  0.24583589  0.48375763  0.63590804  1
  O2-  O188  1  0.78605885  -0.02098833  0.11434228  1
  O2-  O189  1  0.78833412  -0.01638413  0.61297098  1
  O2-  O190  1  0.73985552  0.48805973  0.11210570  1
  O2-  O191  1  0.75343700  0.48249722  0.61537390  1
  O2-  O192  1  0.12642576  0.26352128  0.22652705  1
  O2-  O193  1  0.13574745  0.28110474  0.75124384  1
  O2-  O194  1  0.11836246  0.77424856  0.24963882  1
  O2-  O195  1  0.13349331  0.76784927  0.75876966  1
  O2-  O196  1  0.63561596  0.27216161  0.22290628  1
  O2-  O197  1  0.63141669  0.28260452  0.74067091  1
  O2-  O198  1  0.63765220  0.78164724  0.26256241  1
  O2-  O199  1  0.61982650  0.76605139  0.76744077  1
  O2-  O200  1  0.36306009  0.22640568  0.25720617  1
  O2-  O201  1  0.36296009  0.23477184  0.76764242  1
  O2-  O202  1  0.36544249  0.73107664  0.24072723  1
  O2-  O203  1  0.37903527  0.73043490  0.74749472  1
  O2-  O204  1  0.88999378  0.22995144  0.25953274  1
  O2-  O205  1  0.86732065  0.22892783  0.76827399  1
  O2-  O206  1  0.88236280  0.73340239  0.23575510  1
  O2-  O207  1  0.86231594  0.72235289  0.73618608  1
  O2-  O208  1  0.26493699  0.36434429  0.26902932  1
  O2-  O209  1  0.26754098  0.38196756  0.77016672  1
  O2-  O210  1  0.26170008  0.88221072  0.25849932  1
  O2-  O211  1  0.27055058  0.86337668  0.78479442  1
  O2-  O212  1  0.78370956  0.36534310  0.26368755  1
  O2-  O213  1  0.77021931  0.37003102  0.77997337  1
  O2-  O214  1  0.78926142  0.86311693  0.26138730  1
  O2-  O215  1  0.76135805  0.86169825  0.76451001  1
  O2-  O216  1  0.23147945  0.12340381  0.23110504  1
  O2-  O217  1  0.22558556  0.13526820  0.72493809  1
  O2-  O218  1  0.22252532  0.63609509  0.22452741  1
  O2-  O219  1  0.23302272  0.62061122  0.73753700  1
  O2-  O220  1  0.74154720  0.13198683  0.22860285  1
  O2-  O221  1  0.72599715  0.13452001  0.72489033  1
  O2-  O222  1  0.74175926  0.63945321  0.22649140  1
  O2-  O223  1  0.71457215  0.63632952  0.72739614  1
  O2-  O224  1  0.11505325  0.49485743  0.21939226  1
  O2-  O225  1  0.12725054  0.48694891  0.76216164  1
  O2-  O226  1  0.12653858  0.99018221  0.22407662  1
  O2-  O227  1  0.11488111  0.96933773  0.73660962  1
  O2-  O228  1  0.61694325  0.47388800  0.25764772  1
  O2-  O229  1  0.61053692  0.47571053  0.75825171  1
  O2-  O230  1  0.61780978  0.97903079  0.22196899  1
  O2-  O231  1  0.61434189  0.98158526  0.72886561  1
  O2-  O232  1  0.36690329  0.01799477  0.25924093  1
  O2-  O233  1  0.38282459  0.00713840  0.78675364  1
  O2-  O234  1  0.38434316  0.53373524  0.24264901  1
  O2-  O235  1  0.36766814  0.52518580  0.75630605  1
  O2-  O236  1  0.89086631  0.02423106  0.25821775  1
  O2-  O237  1  0.88402232  0.02230280  0.77485791  1
  O2-  O238  1  0.89094878  0.52504145  0.24707373  1
  O2-  O239  1  0.88262765  0.52901511  0.74932956  1
  O2-  O240  1  0.47782035  0.38785986  0.21929913  1
  O2-  O241  1  0.46344918  0.38913281  0.73619754  1
  O2-  O242  1  0.47456898  0.88379218  0.22119979  1
  O2-  O243  1  0.48218077  0.86484469  0.74105927  1
  O2-  O244  1  0.98726962  0.37514434  0.22651907  1
  O2-  O245  1  0.98254345  0.38831471  0.74035459  1
  O2-  O246  1  0.98819468  0.87944906  0.22271565  1
  O2-  O247  1  0.97054423  0.88391488  0.73819377  1
  O2-  O248  1  0.02796648  0.12724301  0.25876828  1
  O2-  O249  1  0.02936572  0.11480229  0.76982157  1
  O2-  O250  1  0.02157286  0.63231386  0.26209594  1
  O2-  O251  1  0.02202881  0.61802342  0.78419173  1
  O2-  O252  1  0.52193543  0.11683557  0.26938272  1
  O2-  O253  1  0.51546105  0.11753203  0.77459031  1
  O2-  O254  1  0.52828655  0.61585642  0.26830893  1
  O2-  O255  1  0.51110902  0.62578483  0.77866973  1
  O2-  O256  1  0.11778962  0.48464248  -0.00249625  1
  O2-  O257  1  0.13367082  0.47201930  0.50594986  1
  O2-  O258  1  0.12323737  0.98945086  0.02060111  1
  O2-  O259  1  0.13315836  0.96947869  0.50982115  1
  O2-  O260  1  0.62176431  0.48356885  -0.01254609  1
  O2-  O261  1  0.63391289  0.48593157  0.49687616  1
  O2-  O262  1  0.63590218  0.96781904  0.02292564  1
  O2-  O263  1  0.63567706  0.97433497  0.52626095  1
  O2-  O264  1  0.36441407  0.02819700  -0.01460540  1
  O2-  O265  1  0.36436035  0.02530157  0.48073514  1
  O2-  O266  1  0.37198891  0.52076983  0.00322040  1
  O2-  O267  1  0.36285517  0.52526715  0.51470090  1
  O2-  O268  1  0.88392254  0.01750815  -0.01388585  1
  O2-  O269  1  0.86397688  0.00606153  0.46011398  1
  O2-  O270  1  0.87286159  0.52258094  0.00210890  1
  O2-  O271  1  0.86885853  0.52918928  0.50313037  1
  O2-  O272  1  0.47865761  0.38512565  0.01637698  1
  O2-  O273  1  0.47941529  0.36509194  0.52807473  1
  O2-  O274  1  0.48024634  0.86285271  0.01940033  1
  O2-  O275  1  0.49015710  0.85988761  0.53574152  1
  O2-  O276  1  0.98329793  0.37896307  0.02007911  1
  O2-  O277  1  0.97202992  0.36561438  0.51527917  1
  O2-  O278  1  0.98549599  0.87956790  0.02364765  1
  O2-  O279  1  0.96995278  0.86189193  0.51241106  1
  O2-  O280  1  0.02169940  0.12764253  -0.01129832  1
  O2-  O281  1  0.02601555  0.13304220  0.48083230  1
  O2-  O282  1  0.01181599  0.62984641  -0.01614346  1
  O2-  O283  1  0.00742671  0.63770799  0.46167051  1
  O2-  O284  1  0.52654347  0.13872157  -0.02397242  1
  O2-  O285  1  0.52489395  0.12904122  0.48026569  1
  O2-  O286  1  0.51446035  0.62135210  -0.02151828  1
  O2-  O287  1  0.52532736  0.63426504  0.48360353  1
  O2-  O288  1  0.12761449  0.26677837  0.00949267  1
  O2-  O289  1  0.11361647  0.27566180  0.51378116  1
  O2-  O290  1  0.11128757  0.77170164  -0.01779030  1
  O2-  O291  1  0.11429587  0.77243894  0.49353556  1
  O2-  O292  1  0.61601292  0.28562536  0.01420868  1
  O2-  O293  1  0.62201137  0.27478583  0.50988211  1
  O2-  O294  1  0.62862098  0.76380898  -0.01603041  1
  O2-  O295  1  0.62739214  0.76544612  0.49189116  1
  O2-  O296  1  0.37034584  0.24042939  -0.00723397  1
  O2-  O297  1  0.38375961  0.22885175  0.48195299  1
  O2-  O298  1  0.38455286  0.72293170  0.01094438  1
  O2-  O299  1  0.38484407  0.72028252  0.51080944  1
  O2-  O300  1  0.88666515  0.23382669  -0.01206340  1
  O2-  O301  1  0.88768322  0.23237390  0.46465140  1
  O2-  O302  1  0.86935544  0.73285933  0.01901531  1
  O2-  O303  1  0.86772497  0.73150157  0.50583283  1
  O2-  O304  1  0.26002798  0.37255745  -0.02040309  1
  O2-  O305  1  0.27185727  0.38598420  0.48069229  1
  O2-  O306  1  0.26942998  0.88710418  -0.01558491  1
  O2-  O307  1  0.27352227  0.88161740  0.46981152  1
  O2-  O308  1  0.77139738  0.38753913  -0.02622710  1
  O2-  O309  1  0.77087205  0.38534407  0.46694282  1
  O2-  O310  1  0.76984604  0.86664896  -0.02053308  1
  O2-  O311  1  0.76296872  0.86645666  0.47908451  1
  O2-  O312  1  0.23274322  0.13097003  0.01615959  1
  O2-  O313  1  0.22513854  0.11104253  0.51984465  1
  O2-  O314  1  0.22426498  0.61036055  0.02164326  1
  O2-  O315  1  0.21828281  0.61796935  0.52342951  1
  O2-  O316  1  0.72998495  0.11196763  0.02355534  1
  O2-  O317  1  0.73706902  0.11572208  0.51956675  1
  O2-  O318  1  0.73300781  0.63149394  0.01990022  1
  O2-  O319  1  0.73072356  0.63251349  0.51760207  1
