# generated using pymatgen
data_Sr64Ca21Nb43O192
_symmetry_space_group_name_H-M   'P 1'
_cell_length_a   16.57586154
_cell_length_b   16.57646723
_cell_length_c   16.71264058
_cell_angle_alpha   89.96184076
_cell_angle_beta   90.00047352
_cell_angle_gamma   90.06559104
_symmetry_Int_Tables_number   1
_chemical_formula_structural   Sr64Ca21Nb43O192
_chemical_formula_sum   'Sr64 Ca21 Nb43 O192'
_cell_volume   4592.11528359
_cell_formula_units_Z   1
loop_
 _symmetry_equiv_pos_site_id
 _symmetry_equiv_pos_as_xyz
  1  'x, y, z'
loop_
 _atom_type_symbol
 _atom_type_oxidation_number
  Sr2+  2.0
  Ca2+  2.0
  Nb5+  5.0
  O2-  -2.0
loop_
 _atom_site_type_symbol
 _atom_site_label
 _atom_site_symmetry_multiplicity
 _atom_site_fract_x
 _atom_site_fract_y
 _atom_site_fract_z
 _atom_site_occupancy
  Sr2+  Sr0  1  0.11264684  0.12410900  0.12161966  1
  Sr2+  Sr1  1  0.10976330  0.12649380  0.63440430  1
  Sr2+  Sr2  1  0.11860402  0.61915244  0.11852449  1
  Sr2+  Sr3  1  0.12604560  0.61713560  0.62316578  1
  Sr2+  Sr4  1  0.61787682  0.09538216  0.12275489  1
  Sr2+  Sr5  1  0.62354297  0.09876590  0.62323855  1
  Sr2+  Sr6  1  0.62141315  0.61893185  0.12720587  1
  Sr2+  Sr7  1  0.61332578  0.62194628  0.62735093  1
  Sr2+  Sr8  1  0.37842558  0.37177229  0.12691076  1
  Sr2+  Sr9  1  0.37895401  0.36988346  0.63006972  1
  Sr2+  Sr10  1  0.37699539  0.87340812  0.12949702  1
  Sr2+  Sr11  1  0.37604414  0.86975702  0.62923949  1
  Sr2+  Sr12  1  0.86901585  0.37675920  0.13275271  1
  Sr2+  Sr13  1  0.87027719  0.36025348  0.62348632  1
  Sr2+  Sr14  1  0.87535270  0.87274783  0.13059574  1
  Sr2+  Sr15  1  0.86352666  0.87316782  0.62328210  1
  Sr2+  Sr16  1  0.14724663  0.37543546  0.36848707  1
  Sr2+  Sr17  1  0.13854958  0.35709829  0.87489633  1
  Sr2+  Sr18  1  0.13747965  0.88015507  0.37529784  1
  Sr2+  Sr19  1  0.13190325  0.88332018  0.88811005  1
  Sr2+  Sr20  1  0.63270379  0.37246558  0.37782972  1
  Sr2+  Sr21  1  0.62895978  0.37123811  0.88092063  1
  Sr2+  Sr22  1  0.63010058  0.88713156  0.36757557  1
  Sr2+  Sr23  1  0.64110817  0.87580844  0.87516589  1
  Sr2+  Sr24  1  0.36971208  0.13067794  0.37393301  1
  Sr2+  Sr25  1  0.35291906  0.12740740  0.87092769  1
  Sr2+  Sr26  1  0.37696809  0.62569136  0.38451359  1
  Sr2+  Sr27  1  0.38088530  0.62601991  0.88108822  1
  Sr2+  Sr28  1  0.87820722  0.13755978  0.37740954  1
  Sr2+  Sr29  1  0.89388581  0.13026042  0.87474191  1
  Sr2+  Sr30  1  0.88753658  0.62602542  0.37585673  1
  Sr2+  Sr31  1  0.87506501  0.62209928  0.87321560  1
  Sr2+  Sr32  1  0.13277345  0.12431661  0.37190983  1
  Sr2+  Sr33  1  0.12374737  0.12466650  0.87604964  1
  Sr2+  Sr34  1  0.12867349  0.63286486  0.37804551  1
  Sr2+  Sr35  1  0.13366054  0.63241281  0.88141996  1
  Sr2+  Sr36  1  0.62068609  0.12922006  0.36926377  1
  Sr2+  Sr37  1  0.63081119  0.11922822  0.88005722  1
  Sr2+  Sr38  1  0.62722978  0.62902401  0.38090871  1
  Sr2+  Sr39  1  0.62755599  0.63042639  0.87860900  1
  Sr2+  Sr40  1  0.38715698  0.36462354  0.36872295  1
  Sr2+  Sr41  1  0.38811858  0.35570451  0.87544845  1
  Sr2+  Sr42  1  0.37459047  0.89980641  0.37258601  1
  Sr2+  Sr43  1  0.38357706  0.88307620  0.87633226  1
  Sr2+  Sr44  1  0.87715143  0.37269759  0.37672254  1
  Sr2+  Sr45  1  0.88097173  0.36557354  0.87913945  1
  Sr2+  Sr46  1  0.89456979  0.88563471  0.37315033  1
  Sr2+  Sr47  1  0.88139290  0.89125408  0.87168868  1
  Sr2+  Sr48  1  0.13739829  0.37373497  0.12577261  1
  Sr2+  Sr49  1  0.12765435  0.37581974  0.62737329  1
  Sr2+  Sr50  1  0.11485785  0.86444143  0.12829417  1
  Sr2+  Sr51  1  0.12362472  0.86527358  0.62483002  1
  Sr2+  Sr52  1  0.62099966  0.37642070  0.13221712  1
  Sr2+  Sr53  1  0.62388932  0.37171125  0.62538129  1
  Sr2+  Sr54  1  0.62539635  0.86399699  0.12519354  1
  Sr2+  Sr55  1  0.61415908  0.86810464  0.62900058  1
  Sr2+  Sr56  1  0.37232561  0.12302148  0.14075472  1
  Sr2+  Sr57  1  0.35608676  0.12049803  0.62912586  1
  Sr2+  Sr58  1  0.36206389  0.61661256  0.11942366  1
  Sr2+  Sr59  1  0.36873475  0.62656319  0.62813578  1
  Sr2+  Sr60  1  0.87317882  0.12875165  0.10833008  1
  Sr2+  Sr61  1  0.86789717  0.12288389  0.62471785  1
  Sr2+  Sr62  1  0.87033735  0.62527340  0.13505076  1
  Sr2+  Sr63  1  0.89713946  0.62004589  0.62720442  1
  Ca2+  Ca64  1  0.49693819  -0.00385307  -0.00349108  1
  Ca2+  Ca65  1  0.00131494  -0.00251792  0.00374572  1
  Ca2+  Ca66  1  -0.00210559  0.49884666  0.00177259  1
  Ca2+  Ca67  1  0.00255487  0.00274440  0.50140632  1
  Ca2+  Ca68  1  0.49825174  -0.00024014  0.49963769  1
  Ca2+  Ca69  1  0.24943587  0.25153602  0.50049859  1
  Ca2+  Ca70  1  0.75104996  0.74699195  0.49901538  1
  Ca2+  Ca71  1  0.25296891  0.24966607  0.00141280  1
  Ca2+  Ca72  1  0.74551605  0.25050155  0.00016749  1
  Ca2+  Ca73  1  0.75212846  0.74875313  -0.00050837  1
  Ca2+  Ca74  1  0.24862506  -0.00435432  0.74884195  1
  Ca2+  Ca75  1  0.00212077  0.75378737  0.74990849  1
  Ca2+  Ca76  1  0.50367645  0.24982329  0.24689771  1
  Ca2+  Ca77  1  0.24629579  0.00036041  0.24389608  1
  Ca2+  Ca78  1  0.75434241  0.00156109  0.25205114  1
  Ca2+  Ca79  1  0.25265587  0.50348588  0.25034484  1
  Ca2+  Ca80  1  0.25263940  0.49936428  0.75408567  1
  Ca2+  Ca81  1  -0.00084030  0.25413354  0.25005647  1
  Ca2+  Ca82  1  0.50506682  0.24625705  0.74957089  1
  Ca2+  Ca83  1  -0.00160982  0.25371139  0.74980874  1
  Ca2+  Ca84  1  0.49936564  0.74760382  0.25209585  1
  Nb5+  Nb85  1  0.00725480  0.49606800  0.49835009  1
  Nb5+  Nb86  1  0.50384133  0.49709810  0.50445228  1
  Nb5+  Nb87  1  0.49863104  0.49964568  0.00373951  1
  Nb5+  Nb88  1  0.74497354  0.24693634  0.50092198  1
  Nb5+  Nb89  1  0.25143697  0.75170846  0.00809605  1
  Nb5+  Nb90  1  0.25128889  0.75063796  0.50360817  1
  Nb5+  Nb91  1  0.74906975  0.50244510  0.26008979  1
  Nb5+  Nb92  1  0.75193467  -0.00638021  0.75043546  1
  Nb5+  Nb93  1  0.75109094  0.49753068  0.75386906  1
  Nb5+  Nb94  1  0.49942704  0.74815192  0.75309134  1
  Nb5+  Nb95  1  0.00128615  0.74788030  0.25206177  1
  Nb5+  Nb96  1  0.00159144  0.00802310  0.25310865  1
  Nb5+  Nb97  1  0.00369660  -0.00306423  0.74704327  1
  Nb5+  Nb98  1  -0.00013053  0.49994349  0.25096251  1
  Nb5+  Nb99  1  0.00227031  0.49610438  0.75689872  1
  Nb5+  Nb100  1  0.49998078  -0.00126154  0.24922965  1
  Nb5+  Nb101  1  0.50137744  0.00291661  0.75264223  1
  Nb5+  Nb102  1  0.49882323  0.50650942  0.25684372  1
  Nb5+  Nb103  1  0.49975455  0.49992877  0.75591393  1
  Nb5+  Nb104  1  0.25024357  0.25123967  0.24816895  1
  Nb5+  Nb105  1  0.24966644  0.25156351  0.74597647  1
  Nb5+  Nb106  1  0.25481747  0.74480950  0.25600294  1
  Nb5+  Nb107  1  0.25163949  0.74992888  0.76032009  1
  Nb5+  Nb108  1  0.74634798  0.24729752  0.24404325  1
  Nb5+  Nb109  1  0.74332399  0.24084101  0.75021251  1
  Nb5+  Nb110  1  0.75162063  0.75250215  0.25757530  1
  Nb5+  Nb111  1  0.75141727  0.73997895  0.74328228  1
  Nb5+  Nb112  1  0.00605986  0.25227624  0.49775599  1
  Nb5+  Nb113  1  0.00020362  0.25455057  1.00350104  1
  Nb5+  Nb114  1  -0.00071173  0.75090573  0.50196519  1
  Nb5+  Nb115  1  -0.00486348  0.74592010  0.99681131  1
  Nb5+  Nb116  1  0.50052145  0.24396808  0.50260925  1
  Nb5+  Nb117  1  0.50459463  0.24163811  0.99909028  1
  Nb5+  Nb118  1  0.49833114  0.75206448  0.49771141  1
  Nb5+  Nb119  1  0.50129694  0.74926535  1.00229692  1
  Nb5+  Nb120  1  0.25109839  0.00327646  0.00220037  1
  Nb5+  Nb121  1  0.24544949  0.00495026  0.50349497  1
  Nb5+  Nb122  1  0.25128456  0.49637320  -0.00600992  1
  Nb5+  Nb123  1  0.25860000  0.49991526  0.49740812  1
  Nb5+  Nb124  1  0.75429318  -0.00308844  0.00469890  1
  Nb5+  Nb125  1  0.75154918  -0.00366676  0.49521449  1
  Nb5+  Nb126  1  0.75003766  0.50247684  0.00621287  1
  Nb5+  Nb127  1  0.75443073  0.50053903  0.50763880  1
  O2-  O128  1  -0.03132525  0.01338777  0.13851160  1
  O2-  O129  1  -0.01592310  0.03036678  0.63389012  1
  O2-  O130  1  -0.00671280  0.52568261  0.13883088  1
  O2-  O131  1  0.00795162  0.51145108  0.61873022  1
  O2-  O132  1  0.47916187  0.00930276  0.13096611  1
  O2-  O133  1  0.48965471  -0.00351324  0.63537015  1
  O2-  O134  1  0.50029351  0.51474270  0.12163066  1
  O2-  O135  1  0.50444747  0.50353806  0.62267163  1
  O2-  O136  1  0.02313426  -0.02456412  0.36753292  1
  O2-  O137  1  0.01001129  -0.02616848  0.86608518  1
  O2-  O138  1  -0.01356341  0.49058085  0.37993266  1
  O2-  O139  1  -0.02721197  0.49317365  0.86707230  1
  O2-  O140  1  0.52476241  -0.00803702  0.36802651  1
  O2-  O141  1  0.52635779  -0.02777381  0.86300884  1
  O2-  O142  1  0.49929351  0.49602328  0.37557153  1
  O2-  O143  1  0.50472254  0.49675023  0.87276582  1
  O2-  O144  1  0.26142136  0.28077815  0.13221020  1
  O2-  O145  1  0.25785501  0.28173686  0.62989734  1
  O2-  O146  1  0.24454349  0.77243649  0.12172436  1
  O2-  O147  1  0.24520370  0.76989715  0.61793730  1
  O2-  O148  1  0.75477530  0.27783600  0.13377896  1
  O2-  O149  1  0.74606478  0.26963538  0.62072337  1
  O2-  O150  1  0.75059284  0.76660500  0.13783405  1
  O2-  O151  1  0.73640259  0.77872442  0.63231196  1
  O2-  O152  1  0.24258306  0.22622283  0.36832797  1
  O2-  O153  1  0.23376710  0.22798305  0.86494049  1
  O2-  O154  1  0.25823972  0.72452389  0.37161934  1
  O2-  O155  1  0.26112472  0.72738910  0.87341361  1
  O2-  O156  1  0.74475903  0.23949736  0.38019065  1
  O2-  O157  1  0.73783233  0.23309403  0.86404387  1
  O2-  O158  1  0.75832277  0.70883969  0.36701693  1
  O2-  O159  1  0.75204798  0.73236446  0.86034556  1
  O2-  O160  1  -0.00749186  0.22578299  0.11931850  1
  O2-  O161  1  -0.00750877  0.24071928  0.61347425  1
  O2-  O162  1  0.01201948  0.72740483  0.13598889  1
  O2-  O163  1  0.02862125  0.73398503  0.61409394  1
  O2-  O164  1  0.47876219  0.24923805  0.11349188  1
  O2-  O165  1  0.50419548  0.27042909  0.61525979  1
  O2-  O166  1  0.51885947  0.73874733  0.11520981  1
  O2-  O167  1  0.50385715  0.73721265  0.62329039  1
  O2-  O168  1  0.22748611  0.00820398  0.38313108  1
  O2-  O169  1  0.22024931  0.00821934  0.88169227  1
  O2-  O170  1  0.24357103  0.53051806  0.38516872  1
  O2-  O171  1  0.25166557  0.53939438  0.88430055  1
  O2-  O172  1  0.72186868  0.01768063  0.38609290  1
  O2-  O173  1  0.72871046  0.00752804  0.86617766  1
  O2-  O174  1  0.74317075  0.51579205  0.37584315  1
  O2-  O175  1  0.74523813  0.52698182  0.86602032  1
  O2-  O176  1  -0.02135698  0.26418716  0.38504956  1
  O2-  O177  1  0.00509031  0.27486753  0.88303145  1
  O2-  O178  1  -0.00987159  0.75619688  0.37899425  1
  O2-  O179  1  -0.01423154  0.76702825  0.88520043  1
  O2-  O180  1  0.50348361  0.26494698  0.38618859  1
  O2-  O181  1  0.51834164  0.26750881  0.88205395  1
  O2-  O182  1  0.48275884  0.73500806  0.38563188  1
  O2-  O183  1  0.48547682  0.75080081  0.86977622  1
  O2-  O184  1  0.28683815  -0.01390041  0.11293032  1
  O2-  O185  1  0.27731627  -0.02212345  0.61423719  1
  O2-  O186  1  0.26580154  0.48628717  0.11306842  1
  O2-  O187  1  0.23942121  0.48593824  0.61340449  1
  O2-  O188  1  0.77786060  -0.01060766  0.11753047  1
  O2-  O189  1  0.77021962  -0.00394705  0.62842434  1
  O2-  O190  1  0.74829646  0.48124614  0.12124372  1
  O2-  O191  1  0.74860653  0.47855991  0.62192737  1
  O2-  O192  1  0.13264133  0.28235960  0.24840158  1
  O2-  O193  1  0.13130806  0.27492502  0.73834030  1
  O2-  O194  1  0.11955333  0.76514087  0.26541474  1
  O2-  O195  1  0.13891097  0.77747274  0.76617225  1
  O2-  O196  1  0.63530415  0.28608023  0.25723899  1
  O2-  O197  1  0.63680407  0.28721161  0.74432427  1
  O2-  O198  1  0.63659006  0.77071379  0.26539824  1
  O2-  O199  1  0.62042804  0.76507363  0.75612788  1
  O2-  O200  1  0.36899472  0.22995406  0.25834572  1
  O2-  O201  1  0.36946817  0.22380679  0.75001373  1
  O2-  O202  1  0.36448661  0.72299863  0.23330436  1
  O2-  O203  1  0.38075174  0.72527603  0.74096119  1
  O2-  O204  1  0.86163218  0.23146285  0.25690957  1
  O2-  O205  1  0.86061811  0.23978957  0.74304565  1
  O2-  O206  1  0.87948713  0.72680565  0.24770012  1
  O2-  O207  1  0.86566912  0.72760659  0.73253678  1
  O2-  O208  1  0.27281342  0.37149601  0.27557558  1
  O2-  O209  1  0.27602755  0.36701575  0.77471588  1
  O2-  O210  1  0.26260758  0.86236914  0.26535969  1
  O2-  O211  1  0.28761744  0.86134607  0.75830105  1
  O2-  O212  1  0.77306559  0.38550445  0.26491595  1
  O2-  O213  1  0.76934302  0.38531860  0.76757752  1
  O2-  O214  1  0.77627920  0.86316267  0.28043987  1
  O2-  O215  1  0.76862177  0.87780833  0.76251858  1
  O2-  O216  1  0.22714383  0.13609871  0.22169761  1
  O2-  O217  1  0.23243840  0.13174045  0.72136692  1
  O2-  O218  1  0.21841814  0.63666101  0.22611692  1
  O2-  O219  1  0.23567351  0.63840769  0.72365237  1
  O2-  O220  1  0.71938280  0.13612498  0.23317476  1
  O2-  O221  1  0.72754788  0.12645077  0.73152526  1
  O2-  O222  1  0.73512624  0.61790361  0.22589804  1
  O2-  O223  1  0.72672275  0.62723809  0.72524278  1
  O2-  O224  1  0.11346556  0.47973645  0.25290114  1
  O2-  O225  1  0.11405796  0.47080550  0.76204932  1
  O2-  O226  1  0.11282480  0.97732869  0.22241846  1
  O2-  O227  1  0.11508606  0.97530249  0.72656982  1
  O2-  O228  1  0.63075019  0.47988422  0.24990829  1
  O2-  O229  1  0.62708234  0.48926501  0.74249469  1
  O2-  O230  1  0.61903293  0.96997037  0.22657881  1
  O2-  O231  1  0.63276678  0.97862389  0.72849100  1
  O2-  O232  1  0.38258016  0.02393926  0.27223295  1
  O2-  O233  1  0.38796722  0.01877928  0.76882881  1
  O2-  O234  1  0.38779437  0.53678305  0.25383052  1
  O2-  O235  1  0.38870469  0.53012860  0.74599077  1
  O2-  O236  1  0.88524992  0.01320561  0.28717554  1
  O2-  O237  1  0.86663847  0.02183454  0.76632713  1
  O2-  O238  1  0.86856440  0.52523839  0.25495153  1
  O2-  O239  1  0.86383158  0.52952281  0.74152984  1
  O2-  O240  1  0.48396870  0.39084887  0.23692307  1
  O2-  O241  1  0.47982581  0.38753008  0.74593352  1
  O2-  O242  1  0.47148891  0.88017052  0.24774342  1
  O2-  O243  1  0.48559223  0.86521869  0.73852714  1
  O2-  O244  1  0.96741983  0.38932614  0.24371031  1
  O2-  O245  1  0.96504118  0.38882153  0.73131859  1
  O2-  O246  1  0.97928657  0.86337705  0.24042288  1
  O2-  O247  1  0.96572524  0.88513681  0.72780423  1
  O2-  O248  1  0.02622473  0.11891674  0.26749251  1
  O2-  O249  1  0.01495559  0.11590907  0.77243309  1
  O2-  O250  1  0.01211696  0.62422890  0.27704514  1
  O2-  O251  1  0.01656593  0.61518748  0.75358506  1
  O2-  O252  1  0.52901590  0.11690829  0.25129080  1
  O2-  O253  1  0.53625068  0.11262716  0.75669219  1
  O2-  O254  1  0.54124744  0.61547415  0.25549200  1
  O2-  O255  1  0.52536250  0.62646386  0.75480893  1
  O2-  O256  1  0.13579435  0.48291774  0.00261969  1
  O2-  O257  1  0.12136812  0.47980668  0.49231028  1
  O2-  O258  1  0.13787058  0.96780701  0.02209883  1
  O2-  O259  1  0.13473931  0.96454599  0.51813086  1
  O2-  O260  1  0.61714659  0.48238436  0.00073561  1
  O2-  O261  1  0.61901311  0.47670255  0.49857084  1
  O2-  O262  1  0.63584720  0.96912561  0.01686213  1
  O2-  O263  1  0.63773864  0.97882257  0.52712072  1
  O2-  O264  1  0.36447455  0.00910377  -0.03757719  1
  O2-  O265  1  0.36372864  0.01827827  0.47730762  1
  O2-  O266  1  0.37971109  0.52636595  -0.00427180  1
  O2-  O267  1  0.37382173  0.52495149  0.50438429  1
  O2-  O268  1  0.86702590  0.02257570  -0.02643119  1
  O2-  O269  1  0.86401237  0.03467447  0.49067230  1
  O2-  O270  1  0.86104423  0.53167896  0.00196127  1
  O2-  O271  1  0.86840931  0.52250190  0.50373582  1
  O2-  O272  1  0.47197778  0.38713537  0.00483798  1
  O2-  O273  1  0.46941566  0.38471206  0.50145846  1
  O2-  O274  1  0.46876286  0.86026996  0.00638001  1
  O2-  O275  1  0.46863885  0.86252922  0.50396039  1
  O2-  O276  1  0.96782286  0.36918171  0.02298353  1
  O2-  O277  1  0.97177508  0.38307719  0.51097796  1
  O2-  O278  1  0.99000052  0.85832961  0.03252043  1
  O2-  O279  1  0.97842981  0.86356703  0.51464715  1
  O2-  O280  1  0.02370194  0.13300909  -0.01509518  1
  O2-  O281  1  0.02930454  0.13921237  0.48392167  1
  O2-  O282  1  0.03238907  0.63379006  -0.01011830  1
  O2-  O283  1  0.01644128  0.61781826  0.48720000  1
  O2-  O284  1  0.53383910  0.13068607  -0.00485565  1
  O2-  O285  1  0.53537694  0.13493650  0.50062039  1
  O2-  O286  1  0.51333251  0.62534085  -0.01622998  1
  O2-  O287  1  0.51522852  0.61790875  0.49761050  1
  O2-  O288  1  0.11793090  0.28072020  0.01062133  1
  O2-  O289  1  0.11445887  0.29059724  0.49668572  1
  O2-  O290  1  0.13250460  0.76444493  -0.01081955  1
  O2-  O291  1  0.12925233  0.75974839  0.48206263  1
  O2-  O292  1  0.61371124  0.28790203  0.01248711  1
  O2-  O293  1  0.62788159  0.28037975  0.49912943  1
  O2-  O294  1  0.61361404  0.76907800  -0.01939340  1
  O2-  O295  1  0.61256721  0.77041200  0.48870916  1
  O2-  O296  1  0.38663254  0.23346913  -0.02630723  1
  O2-  O297  1  0.38583644  0.22035312  0.50388149  1
  O2-  O298  1  0.37230919  0.72438511  0.00800576  1
  O2-  O299  1  0.36889838  0.72358612  0.50932558  1
  O2-  O300  1  0.87993094  0.22851300  -0.01043877  1
  O2-  O301  1  0.86470868  0.24015711  0.50460685  1
  O2-  O302  1  0.88513676  0.71663607  0.01173384  1
  O2-  O303  1  0.88719879  0.72138926  0.51462753  1
  O2-  O304  1  0.27192933  0.38681718  -0.03216913  1
  O2-  O305  1  0.27271471  0.38825005  0.47211940  1
  O2-  O306  1  0.27068434  0.86396878  -0.02251428  1
  O2-  O307  1  0.26769310  0.86291949  0.47507953  1
  O2-  O308  1  0.76029932  0.39175704  -0.03174722  1
  O2-  O309  1  0.76169732  0.38176350  0.48151915  1
  O2-  O310  1  0.77539713  0.88123776  -0.02182468  1
  O2-  O311  1  0.77894827  0.88505224  0.48150675  1
  O2-  O312  1  0.23076556  0.11562767  0.01783294  1
  O2-  O313  1  0.22209625  0.11605751  0.52537419  1
  O2-  O314  1  0.23423523  0.63104561  0.02011360  1
  O2-  O315  1  0.23196861  0.62762124  0.51654329  1
  O2-  O316  1  0.72421297  0.11336038  0.01018672  1
  O2-  O317  1  0.72712374  0.13317352  0.51607971  1
  O2-  O318  1  0.71383394  0.61515897  0.00724181  1
  O2-  O319  1  0.71707236  0.61025676  0.51503312  1
