# generated using pymatgen
data_Sr64Ca21Nb43O192
_symmetry_space_group_name_H-M   'P 1'
_cell_length_a   16.53590697
_cell_length_b   16.53933299
_cell_length_c   16.69259100
_cell_angle_alpha   90.00689220
_cell_angle_beta   89.98730948
_cell_angle_gamma   89.94441139
_symmetry_Int_Tables_number   1
_chemical_formula_structural   Sr64Ca21Nb43O192
_chemical_formula_sum   'Sr64 Ca21 Nb43 O192'
_cell_volume   4565.30235357
_cell_formula_units_Z   1
loop_
 _symmetry_equiv_pos_site_id
 _symmetry_equiv_pos_as_xyz
  1  'x, y, z'
loop_
 _atom_type_symbol
 _atom_type_oxidation_number
  Sr2+  2.0
  Ca2+  2.0
  Nb5+  5.0
  O2-  -2.0
loop_
 _atom_site_type_symbol
 _atom_site_label
 _atom_site_symmetry_multiplicity
 _atom_site_fract_x
 _atom_site_fract_y
 _atom_site_fract_z
 _atom_site_occupancy
  Sr2+  Sr0  1  0.12410859  0.12944600  0.12652919  1
  Sr2+  Sr1  1  0.12355617  0.11946203  0.63134576  1
  Sr2+  Sr2  1  0.13534574  0.62368761  0.11907372  1
  Sr2+  Sr3  1  0.13353532  0.60901435  0.62734739  1
  Sr2+  Sr4  1  0.62514149  0.12022223  0.11972443  1
  Sr2+  Sr5  1  0.62973675  0.10609992  0.62108045  1
  Sr2+  Sr6  1  0.62903174  0.62334624  0.12342166  1
  Sr2+  Sr7  1  0.61996489  0.62948649  0.63231656  1
  Sr2+  Sr8  1  0.37807281  0.35112276  0.11927988  1
  Sr2+  Sr9  1  0.37698396  0.37954943  0.62929595  1
  Sr2+  Sr10  1  0.37402501  0.88186634  0.12588299  1
  Sr2+  Sr11  1  0.37562037  0.87434995  0.62744301  1
  Sr2+  Sr12  1  0.87092324  0.38149053  0.12281917  1
  Sr2+  Sr13  1  0.87189252  0.36976392  0.62631025  1
  Sr2+  Sr14  1  0.88285408  0.88113376  0.11904136  1
  Sr2+  Sr15  1  0.87709347  0.87828409  0.63084374  1
  Sr2+  Sr16  1  0.11418373  0.36524694  0.36932431  1
  Sr2+  Sr17  1  0.13192860  0.37976552  0.87354799  1
  Sr2+  Sr18  1  0.12746703  0.87334954  0.37659088  1
  Sr2+  Sr19  1  0.11116438  0.87143062  0.88850035  1
  Sr2+  Sr20  1  0.61469391  0.37631528  0.38278417  1
  Sr2+  Sr21  1  0.61775256  0.37495195  0.88122561  1
  Sr2+  Sr22  1  0.61556196  0.86355241  0.37186686  1
  Sr2+  Sr23  1  0.62809474  0.87932745  0.87097357  1
  Sr2+  Sr24  1  0.37091356  0.11357137  0.36853066  1
  Sr2+  Sr25  1  0.38648454  0.12157740  0.88157118  1
  Sr2+  Sr26  1  0.37505078  0.62576915  0.37005432  1
  Sr2+  Sr27  1  0.36159079  0.62592698  0.87707339  1
  Sr2+  Sr28  1  0.87391734  0.12841343  0.37284134  1
  Sr2+  Sr29  1  0.86629757  0.12694131  0.87583586  1
  Sr2+  Sr30  1  0.87710201  0.60999923  0.37448718  1
  Sr2+  Sr31  1  0.85317136  0.61907206  0.87263947  1
  Sr2+  Sr32  1  0.12521374  0.12018428  0.37073132  1
  Sr2+  Sr33  1  0.12202972  0.14150430  0.87160159  1
  Sr2+  Sr34  1  0.13075460  0.61431121  0.37476956  1
  Sr2+  Sr35  1  0.12614218  0.62382210  0.88466647  1
  Sr2+  Sr36  1  0.64089753  0.12921598  0.37736854  1
  Sr2+  Sr37  1  0.62826266  0.12114636  0.88310171  1
  Sr2+  Sr38  1  0.61995233  0.62570090  0.36823405  1
  Sr2+  Sr39  1  0.62739607  0.62713490  0.87284359  1
  Sr2+  Sr40  1  0.38229838  0.38088238  0.37502060  1
  Sr2+  Sr41  1  0.37393561  0.35680645  0.87769807  1
  Sr2+  Sr42  1  0.37204384  0.87127484  0.37123589  1
  Sr2+  Sr43  1  0.37556334  0.88245647  0.87524200  1
  Sr2+  Sr44  1  0.87267882  0.36797063  0.37786659  1
  Sr2+  Sr45  1  0.87793672  0.38825770  0.87477309  1
  Sr2+  Sr46  1  0.87974226  0.85474596  0.37019853  1
  Sr2+  Sr47  1  0.86558954  0.88080406  0.88014998  1
  Sr2+  Sr48  1  0.12057485  0.37329191  0.11949214  1
  Sr2+  Sr49  1  0.12006290  0.36440108  0.63272194  1
  Sr2+  Sr50  1  0.12090948  0.87657067  0.12636772  1
  Sr2+  Sr51  1  0.12749353  0.87415327  0.61805789  1
  Sr2+  Sr52  1  0.61976912  0.37048460  0.11586383  1
  Sr2+  Sr53  1  0.61588956  0.37120127  0.61799282  1
  Sr2+  Sr54  1  0.65113760  0.87580271  0.12666518  1
  Sr2+  Sr55  1  0.61891667  0.86669584  0.63010860  1
  Sr2+  Sr56  1  0.38071160  0.11898559  0.12203781  1
  Sr2+  Sr57  1  0.37222861  0.10931976  0.63023173  1
  Sr2+  Sr58  1  0.37133888  0.62613591  0.11768083  1
  Sr2+  Sr59  1  0.37065279  0.62663174  0.63260677  1
  Sr2+  Sr60  1  0.85835248  0.12558542  0.12248919  1
  Sr2+  Sr61  1  0.86878198  0.12207118  0.62907329  1
  Sr2+  Sr62  1  0.85799144  0.62022628  0.11991930  1
  Sr2+  Sr63  1  0.86354448  0.61533210  0.62804701  1
  Ca2+  Ca64  1  0.00336626  0.00693960  -0.00090108  1
  Ca2+  Ca65  1  0.50149193  -0.00699119  0.00340949  1
  Ca2+  Ca66  1  0.50000184  0.50109629  -0.00089131  1
  Ca2+  Ca67  1  0.50040471  -0.00383437  0.49720556  1
  Ca2+  Ca68  1  -0.00094637  0.50219868  0.00102913  1
  Ca2+  Ca69  1  0.24461740  0.24689581  0.00045255  1
  Ca2+  Ca70  1  0.24759603  0.24699927  0.50056192  1
  Ca2+  Ca71  1  0.75164487  0.25218656  -0.00269670  1
  Ca2+  Ca72  1  0.74876400  0.74998534  0.49891706  1
  Ca2+  Ca73  1  0.74629297  0.75007626  -0.00086622  1
  Ca2+  Ca74  1  0.00290152  0.74713790  0.24752366  1
  Ca2+  Ca75  1  0.74551403  0.49395366  0.74472729  1
  Ca2+  Ca76  1  0.50199474  0.24767808  0.25424550  1
  Ca2+  Ca77  1  0.75277220  -0.00025465  0.25440534  1
  Ca2+  Ca78  1  0.75125720  0.00118905  0.74772000  1
  Ca2+  Ca79  1  0.74829585  0.49606187  0.25435550  1
  Ca2+  Ca80  1  0.24623059  -0.00267123  0.75129720  1
  Ca2+  Ca81  1  0.00191544  0.74915193  0.75018086  1
  Ca2+  Ca82  1  0.25396499  0.49705743  0.24856773  1
  Ca2+  Ca83  1  0.25343144  0.49837272  0.75112047  1
  Ca2+  Ca84  1  0.50250565  0.24774525  0.74651372  1
  Nb5+  Nb85  1  -0.00461742  -0.00496524  0.49857539  1
  Nb5+  Nb86  1  -0.00228517  0.49534575  0.50126340  1
  Nb5+  Nb87  1  0.48926556  0.50559298  0.50164562  1
  Nb5+  Nb88  1  0.25105453  0.75388587  0.00169216  1
  Nb5+  Nb89  1  0.74853849  0.25124327  0.50210582  1
  Nb5+  Nb90  1  0.24923743  0.74804567  0.50116463  1
  Nb5+  Nb91  1  -0.00215985  0.24992590  0.24505501  1
  Nb5+  Nb92  1  0.49666293  0.74982767  0.75258610  1
  Nb5+  Nb93  1  0.49839410  0.75090829  0.24204534  1
  Nb5+  Nb94  1  -0.00409130  0.25117568  0.74913598  1
  Nb5+  Nb95  1  0.24825355  -0.00111255  0.24759413  1
  Nb5+  Nb96  1  -0.00210405  0.00194490  0.25121901  1
  Nb5+  Nb97  1  0.00119212  -0.00010974  0.75423365  1
  Nb5+  Nb98  1  0.00588753  0.50129386  0.24655352  1
  Nb5+  Nb99  1  0.00527708  0.50267123  0.75140260  1
  Nb5+  Nb100  1  0.50577523  -0.00141148  0.25461144  1
  Nb5+  Nb101  1  0.50281948  0.00286261  0.74986952  1
  Nb5+  Nb102  1  0.49962658  0.49899306  0.24646150  1
  Nb5+  Nb103  1  0.50011805  0.50010899  0.75264954  1
  Nb5+  Nb104  1  0.25292760  0.24929724  0.25232979  1
  Nb5+  Nb105  1  0.25444489  0.24528951  0.74792965  1
  Nb5+  Nb106  1  0.24863519  0.74968983  0.25018645  1
  Nb5+  Nb107  1  0.24563427  0.75702489  0.75403666  1
  Nb5+  Nb108  1  0.74621750  0.25584590  0.24877298  1
  Nb5+  Nb109  1  0.74515883  0.25321673  0.75065828  1
  Nb5+  Nb110  1  0.75480731  0.74563423  0.25273821  1
  Nb5+  Nb111  1  0.75387647  0.74991811  0.74750591  1
  Nb5+  Nb112  1  0.00168593  0.24328732  0.50014580  1
  Nb5+  Nb113  1  -0.00417708  0.25266586  0.99482411  1
  Nb5+  Nb114  1  0.00145928  0.73919265  0.50068975  1
  Nb5+  Nb115  1  -0.00650826  0.74659057  0.99804390  1
  Nb5+  Nb116  1  0.49571411  0.24089483  0.49917290  1
  Nb5+  Nb117  1  0.50055821  0.24633975  0.99965068  1
  Nb5+  Nb118  1  0.49657621  0.75033924  0.49930845  1
  Nb5+  Nb119  1  0.49960735  0.75318049  0.99717484  1
  Nb5+  Nb120  1  0.24441158  0.00013862  -0.00386154  1
  Nb5+  Nb121  1  0.25033082  0.00113986  0.49957732  1
  Nb5+  Nb122  1  0.25427147  0.49547647  0.00140279  1
  Nb5+  Nb123  1  0.24944758  0.49472070  0.49829078  1
  Nb5+  Nb124  1  0.74944697  0.00052114  0.00148538  1
  Nb5+  Nb125  1  0.75594852  -0.00758685  0.49694849  1
  Nb5+  Nb126  1  0.74656754  0.49739524  -0.00148653  1
  Nb5+  Nb127  1  0.74086681  0.49979081  0.50040745  1
  O2-  O128  1  0.01039265  -0.00279299  0.13645437  1
  O2-  O129  1  -0.01615351  0.00071360  0.61598615  1
  O2-  O130  1  0.00401440  0.47916156  0.13529651  1
  O2-  O131  1  0.00803894  0.50040920  0.61839345  1
  O2-  O132  1  0.49227095  0.00650846  0.13893311  1
  O2-  O133  1  0.48783237  -0.00358214  0.63027845  1
  O2-  O134  1  0.52609419  0.50323962  0.13551826  1
  O2-  O135  1  0.48123151  0.50923990  0.61980088  1
  O2-  O136  1  0.00654149  0.01495425  0.37764374  1
  O2-  O137  1  0.02894013  0.01197049  0.86411845  1
  O2-  O138  1  0.00415935  0.50805076  0.38191520  1
  O2-  O139  1  0.00613046  0.48845977  0.86532067  1
  O2-  O140  1  0.47608204  -0.01450593  0.36731042  1
  O2-  O141  1  0.50272517  -0.01028066  0.86737436  1
  O2-  O142  1  0.48432845  0.50356684  0.38120711  1
  O2-  O143  1  0.52858905  0.50268496  0.86366007  1
  O2-  O144  1  0.23529870  0.24783858  0.13579643  1
  O2-  O145  1  0.22784913  0.25057262  0.63261539  1
  O2-  O146  1  0.26018725  0.74892621  0.12785623  1
  O2-  O147  1  0.25556085  0.75559907  0.62206378  1
  O2-  O148  1  0.74964319  0.25730766  0.13356134  1
  O2-  O149  1  0.75299043  0.26625604  0.61925892  1
  O2-  O150  1  0.74956704  0.73944311  0.13418213  1
  O2-  O151  1  0.73584605  0.75999882  0.63097050  1
  O2-  O152  1  0.23432113  0.23636747  0.36730569  1
  O2-  O153  1  0.24761624  0.25632852  0.86644791  1
  O2-  O154  1  0.24999035  0.74969889  0.37560677  1
  O2-  O155  1  0.24677923  0.75475849  0.87592690  1
  O2-  O156  1  0.75880956  0.24190201  0.37919966  1
  O2-  O157  1  0.74633050  0.22934953  0.86308546  1
  O2-  O158  1  0.72473513  0.75948150  0.36689417  1
  O2-  O159  1  0.73716931  0.75181485  0.86512711  1
  O2-  O160  1  0.00109844  0.25653521  0.12878655  1
  O2-  O161  1  0.00012369  0.25245209  0.62349109  1
  O2-  O162  1  -0.00816725  0.77130424  0.11581415  1
  O2-  O163  1  0.00200358  0.77421391  0.61181753  1
  O2-  O164  1  0.50485599  0.24636768  0.12130151  1
  O2-  O165  1  0.50261602  0.26585204  0.61211974  1
  O2-  O166  1  0.48437870  0.74754680  0.12676006  1
  O2-  O167  1  0.49260654  0.74488302  0.62457913  1
  O2-  O168  1  0.24950902  -0.00298948  0.37435268  1
  O2-  O169  1  0.24724743  -0.01760114  0.88364915  1
  O2-  O170  1  0.25804475  0.51696123  0.38393820  1
  O2-  O171  1  0.24327625  0.50979536  0.88356051  1
  O2-  O172  1  0.75250335  0.02616497  0.38538403  1
  O2-  O173  1  0.74571837  0.00229057  0.88099587  1
  O2-  O174  1  0.77126367  0.50079507  0.38896351  1
  O2-  O175  1  0.74690296  0.50262980  0.87760066  1
  O2-  O176  1  -0.00437759  0.24535964  0.37961576  1
  O2-  O177  1  -0.01012877  0.25106591  0.87268367  1
  O2-  O178  1  0.01277065  0.75859626  0.38596153  1
  O2-  O179  1  0.02551728  0.74141076  0.88319329  1
  O2-  O180  1  0.49719488  0.27460743  0.38720853  1
  O2-  O181  1  0.49016773  0.24721786  0.87948586  1
  O2-  O182  1  0.49979261  0.74742427  0.37753899  1
  O2-  O183  1  0.49978695  0.75242678  0.87520539  1
  O2-  O184  1  0.24490457  -0.00693212  0.13017852  1
  O2-  O185  1  0.25866260  -0.01263044  0.61452320  1
  O2-  O186  1  0.24862131  0.51804321  0.11761956  1
  O2-  O187  1  0.25807391  0.51034384  0.61406695  1
  O2-  O188  1  0.74674355  0.00703080  0.12213253  1
  O2-  O189  1  0.76795887  0.00196594  0.61292124  1
  O2-  O190  1  0.75052130  0.50019519  0.12016811  1
  O2-  O191  1  0.77140368  0.48719867  0.61135834  1
  O2-  O192  1  0.11929400  0.26922384  0.25199450  1
  O2-  O193  1  0.11510003  0.27410817  0.75884158  1
  O2-  O194  1  0.13699250  0.78203525  0.24771232  1
  O2-  O195  1  0.13643337  0.79073879  0.74673731  1
  O2-  O196  1  0.63566634  0.28895628  0.26024956  1
  O2-  O197  1  0.63505574  0.29007397  0.74733956  1
  O2-  O198  1  0.61449305  0.77536725  0.24175090  1
  O2-  O199  1  0.61589508  0.77196509  0.74877373  1
  O2-  O200  1  0.36494621  0.21492953  0.24916165  1
  O2-  O201  1  0.36663097  0.21477427  0.74178137  1
  O2-  O202  1  0.37405355  0.73470413  0.25806078  1
  O2-  O203  1  0.37830072  0.72527311  0.75452674  1
  O2-  O204  1  0.88099678  0.22321165  0.24920515  1
  O2-  O205  1  0.87812523  0.22549288  0.74523824  1
  O2-  O206  1  0.86746797  0.72207302  0.27133392  1
  O2-  O207  1  0.86696470  0.71869563  0.74503914  1
  O2-  O208  1  0.28160147  0.36186904  0.25732890  1
  O2-  O209  1  0.28043003  0.36471700  0.74562236  1
  O2-  O210  1  0.27290022  0.87684592  0.25299460  1
  O2-  O211  1  0.29018097  0.86518074  0.74882272  1
  O2-  O212  1  0.79027205  0.36513829  0.25752695  1
  O2-  O213  1  0.78845940  0.36306587  0.75430314  1
  O2-  O214  1  0.77775872  0.86496219  0.24178500  1
  O2-  O215  1  0.78002912  0.86721034  0.75091573  1
  O2-  O216  1  0.22526280  0.11668546  0.24969259  1
  O2-  O217  1  0.21748629  0.13127173  0.75197778  1
  O2-  O218  1  0.22716699  0.63680762  0.25246555  1
  O2-  O219  1  0.23006552  0.63962593  0.74660063  1
  O2-  O220  1  0.72488130  0.13814817  0.24858149  1
  O2-  O221  1  0.73096137  0.13767671  0.72370180  1
  O2-  O222  1  0.72090491  0.63138436  0.25467778  1
  O2-  O223  1  0.72510707  0.63145285  0.74417792  1
  O2-  O224  1  0.11982951  0.46614580  0.26161627  1
  O2-  O225  1  0.11948379  0.46785628  0.73906516  1
  O2-  O226  1  0.12707641  0.97931664  0.25945196  1
  O2-  O227  1  0.11212963  0.98721433  0.71584209  1
  O2-  O228  1  0.61263742  0.48979830  0.28393865  1
  O2-  O229  1  0.61206394  0.48834332  0.71218622  1
  O2-  O230  1  0.61605407  0.96543027  0.25816932  1
  O2-  O231  1  0.61786460  0.96683900  0.74001596  1
  O2-  O232  1  0.36683760  0.02006588  0.24740475  1
  O2-  O233  1  0.38389248  0.02655879  0.75716348  1
  O2-  O234  1  0.38762251  0.53701820  0.24572240  1
  O2-  O235  1  0.38707859  0.53468782  0.75536143  1
  O2-  O236  1  0.88721839  0.03452231  0.25002154  1
  O2-  O237  1  0.88725483  0.03400018  0.75495304  1
  O2-  O238  1  0.88925933  0.52437939  0.25084567  1
  O2-  O239  1  0.88775951  0.52311211  0.74558692  1
  O2-  O240  1  0.47051907  0.38640846  0.24692225  1
  O2-  O241  1  0.47237857  0.38657460  0.75070119  1
  O2-  O242  1  0.47343329  0.86956775  0.25113189  1
  O2-  O243  1  0.47588649  0.86820981  0.74606145  1
  O2-  O244  1  0.98079196  0.36780215  0.26532095  1
  O2-  O245  1  0.97641895  0.37146381  0.74022664  1
  O2-  O246  1  0.97726017  0.88801001  0.26132373  1
  O2-  O247  1  0.97178907  0.88739220  0.75988458  1
  O2-  O248  1  0.02771796  0.13025515  0.25105969  1
  O2-  O249  1  0.02213320  0.13339155  0.74420315  1
  O2-  O250  1  0.03771634  0.61346988  0.24613502  1
  O2-  O251  1  0.03622540  0.61446392  0.74522660  1
  O2-  O252  1  0.52764277  0.11289044  0.26985124  1
  O2-  O253  1  0.53670521  0.11470371  0.74749913  1
  O2-  O254  1  0.52094603  0.63370605  0.25265204  1
  O2-  O255  1  0.52351585  0.63142032  0.74991414  1
  O2-  O256  1  0.13493870  0.47755036  0.00364134  1
  O2-  O257  1  0.13055039  0.48013753  0.49763501  1
  O2-  O258  1  0.13407370  0.96162717  0.00876166  1
  O2-  O259  1  0.11774994  0.97522975  0.50101426  1
  O2-  O260  1  0.63290458  0.46240423  0.00091543  1
  O2-  O261  1  0.62395695  0.47952875  0.50009250  1
  O2-  O262  1  0.63373371  0.96557363  0.00269682  1
  O2-  O263  1  0.63946040  0.97206615  0.50271818  1
  O2-  O264  1  0.36263770  0.02253115  0.00588997  1
  O2-  O265  1  0.36291697  0.02755811  0.49520963  1
  O2-  O266  1  0.36816029  0.53453313  -0.00225201  1
  O2-  O267  1  0.37463043  0.53014538  0.49894406  1
  O2-  O268  1  0.86894243  0.02736692  -0.00150306  1
  O2-  O269  1  0.88130933  0.03275697  0.49119126  1
  O2-  O270  1  0.86615907  0.53368089  -0.00216348  1
  O2-  O271  1  0.88632966  0.52596429  0.50284647  1
  O2-  O272  1  0.47053044  0.36596807  0.00061647  1
  O2-  O273  1  0.48202900  0.38659317  0.50387113  1
  O2-  O274  1  0.45902713  0.86368640  0.00308979  1
  O2-  O275  1  0.46489670  0.86188659  0.50035186  1
  O2-  O276  1  0.96464751  0.36626647  0.00282259  1
  O2-  O277  1  0.97835580  0.38009138  0.49769860  1
  O2-  O278  1  0.97933630  0.86755532  -0.01917331  1
  O2-  O279  1  0.97446848  0.88198397  0.48963566  1
  O2-  O280  1  0.03677430  0.14004661  0.00366704  1
  O2-  O281  1  0.02311955  0.12950330  0.50431389  1
  O2-  O282  1  0.03446106  0.63538003  0.01308691  1
  O2-  O283  1  0.03209120  0.62585936  0.50511570  1
  O2-  O284  1  0.52688342  0.12833398  -0.00345160  1
  O2-  O285  1  0.53515155  0.13261999  0.49427522  1
  O2-  O286  1  0.52231326  0.63753780  0.00379872  1
  O2-  O287  1  0.52298942  0.62408921  0.49915185  1
  O2-  O288  1  0.11256919  0.28725549  -0.00588628  1
  O2-  O289  1  0.11067502  0.28168941  0.49860899  1
  O2-  O290  1  0.13480400  0.77597821  0.01121722  1
  O2-  O291  1  0.13048308  0.77085381  0.50178988  1
  O2-  O292  1  0.61683860  0.27733190  -0.00468913  1
  O2-  O293  1  0.63096657  0.27088240  0.49478724  1
  O2-  O294  1  0.61025707  0.78445216  0.00715939  1
  O2-  O295  1  0.60972859  0.77466588  0.50387078  1
  O2-  O296  1  0.37981334  0.22067833  0.00804471  1
  O2-  O297  1  0.38352764  0.21379001  0.50027601  1
  O2-  O298  1  0.37069849  0.72420166  -0.00448850  1
  O2-  O299  1  0.37033498  0.72243016  0.49800401  1
  O2-  O300  1  0.88393206  0.21402423  0.00332514  1
  O2-  O301  1  0.87737650  0.23937190  0.50349767  1
  O2-  O302  1  0.88241363  0.71834258  -0.01172346  1
  O2-  O303  1  0.88694990  0.71833501  0.49373513  1
  O2-  O304  1  0.28276879  0.38294049  0.00404518  1
  O2-  O305  1  0.28306440  0.38427655  0.49572455  1
  O2-  O306  1  0.27836767  0.87031135  0.00595505  1
  O2-  O307  1  0.26523460  0.87150692  0.49182540  1
  O2-  O308  1  0.78460292  0.38313137  -0.00465166  1
  O2-  O309  1  0.76620623  0.37279973  0.49090401  1
  O2-  O310  1  0.78188460  0.88196302  0.00884377  1
  O2-  O311  1  0.79125254  0.88364198  0.48994832  1
  O2-  O312  1  0.21584728  0.11229194  -0.00202145  1
  O2-  O313  1  0.21380119  0.11101255  0.50180934  1
  O2-  O314  1  0.22825920  0.63540109  -0.00205881  1
  O2-  O315  1  0.22499629  0.63124349  0.50172286  1
  O2-  O316  1  0.71940431  0.11815925  0.00412850  1
  O2-  O317  1  0.73381028  0.13297597  0.51113059  1
  O2-  O318  1  0.71533586  0.61662945  -0.00145064  1
  O2-  O319  1  0.72690598  0.61487741  0.50850720  1
