# generated using pymatgen
data_Sr64Ca21Nb43O192
_symmetry_space_group_name_H-M   'P 1'
_cell_length_a   16.56753152
_cell_length_b   16.57829500
_cell_length_c   16.70812437
_cell_angle_alpha   90.01229273
_cell_angle_beta   89.98407050
_cell_angle_gamma   90.09190011
_symmetry_Int_Tables_number   1
_chemical_formula_structural   Sr64Ca21Nb43O192
_chemical_formula_sum   'Sr64 Ca21 Nb43 O192'
_cell_volume   4589.07106411
_cell_formula_units_Z   1
loop_
 _symmetry_equiv_pos_site_id
 _symmetry_equiv_pos_as_xyz
  1  'x, y, z'
loop_
 _atom_type_symbol
 _atom_type_oxidation_number
  Sr2+  2.0
  Ca2+  2.0
  Nb5+  5.0
  O2-  -2.0
loop_
 _atom_site_type_symbol
 _atom_site_label
 _atom_site_symmetry_multiplicity
 _atom_site_fract_x
 _atom_site_fract_y
 _atom_site_fract_z
 _atom_site_occupancy
  Sr2+  Sr0  1  0.12756724  0.11800829  0.13687819  1
  Sr2+  Sr1  1  0.13149142  0.13048597  0.61353911  1
  Sr2+  Sr2  1  0.13434991  0.64417620  0.12461942  1
  Sr2+  Sr3  1  0.13482481  0.62058581  0.62472128  1
  Sr2+  Sr4  1  0.63226580  0.13254379  0.12327828  1
  Sr2+  Sr5  1  0.63093043  0.12752300  0.62106461  1
  Sr2+  Sr6  1  0.62706486  0.60063179  0.12433924  1
  Sr2+  Sr7  1  0.63069651  0.62997514  0.62651052  1
  Sr2+  Sr8  1  0.38576999  0.36213140  0.13311021  1
  Sr2+  Sr9  1  0.37825543  0.35493652  0.63027694  1
  Sr2+  Sr10  1  0.37458064  0.87827726  0.12256988  1
  Sr2+  Sr11  1  0.38386763  0.87527523  0.62657953  1
  Sr2+  Sr12  1  0.88120375  0.36454971  0.12349998  1
  Sr2+  Sr13  1  0.88794842  0.37739869  0.62898429  1
  Sr2+  Sr14  1  0.87585337  0.87984404  0.12843281  1
  Sr2+  Sr15  1  0.87333092  0.88190109  0.62770164  1
  Sr2+  Sr16  1  0.11458241  0.38139571  0.37302821  1
  Sr2+  Sr17  1  0.11930143  0.38673874  0.87009469  1
  Sr2+  Sr18  1  0.11575556  0.87539026  0.37629524  1
  Sr2+  Sr19  1  0.11874726  0.85958151  0.87960514  1
  Sr2+  Sr20  1  0.60617629  0.38335129  0.37106043  1
  Sr2+  Sr21  1  0.62864953  0.37631264  0.88469825  1
  Sr2+  Sr22  1  0.61912037  0.87085221  0.37270600  1
  Sr2+  Sr23  1  0.61422631  0.87527265  0.87566149  1
  Sr2+  Sr24  1  0.36011410  0.13137143  0.38178528  1
  Sr2+  Sr25  1  0.36446371  0.12269259  0.87728103  1
  Sr2+  Sr26  1  0.37031476  0.61623506  0.36795004  1
  Sr2+  Sr27  1  0.36742745  0.62308291  0.87347308  1
  Sr2+  Sr28  1  0.87336034  0.12478793  0.37596393  1
  Sr2+  Sr29  1  0.86473227  0.12771983  0.87590682  1
  Sr2+  Sr30  1  0.88026783  0.62120655  0.38339354  1
  Sr2+  Sr31  1  0.89190578  0.62252363  0.87325304  1
  Sr2+  Sr32  1  0.11695561  0.13488328  0.37540041  1
  Sr2+  Sr33  1  0.11646364  0.13660022  0.87635116  1
  Sr2+  Sr34  1  0.12076268  0.62831129  0.37211220  1
  Sr2+  Sr35  1  0.12700952  0.61458537  0.87427288  1
  Sr2+  Sr36  1  0.61955341  0.13575236  0.37502506  1
  Sr2+  Sr37  1  0.62273077  0.13175755  0.88050474  1
  Sr2+  Sr38  1  0.62607262  0.61327064  0.37744306  1
  Sr2+  Sr39  1  0.61156745  0.62666679  0.87253934  1
  Sr2+  Sr40  1  0.36373708  0.38208455  0.36991861  1
  Sr2+  Sr41  1  0.36673266  0.38362890  0.87476015  1
  Sr2+  Sr42  1  0.37106002  0.86293339  0.37501520  1
  Sr2+  Sr43  1  0.37249038  0.86324611  0.87278598  1
  Sr2+  Sr44  1  0.86577837  0.38968466  0.36976437  1
  Sr2+  Sr45  1  0.87205967  0.38060196  0.87841091  1
  Sr2+  Sr46  1  0.86443240  0.86266003  0.37851367  1
  Sr2+  Sr47  1  0.86399251  0.87142238  0.87514182  1
  Sr2+  Sr48  1  0.12997479  0.36360812  0.13034717  1
  Sr2+  Sr49  1  0.13145655  0.37580789  0.63587136  1
  Sr2+  Sr50  1  0.13005113  0.87543847  0.12429277  1
  Sr2+  Sr51  1  0.13923022  0.88752434  0.62570215  1
  Sr2+  Sr52  1  0.63184042  0.37396233  0.12622773  1
  Sr2+  Sr53  1  0.62580882  0.37893197  0.61933997  1
  Sr2+  Sr54  1  0.62646582  0.88574454  0.12852104  1
  Sr2+  Sr55  1  0.63409984  0.87839730  0.62965850  1
  Sr2+  Sr56  1  0.37836191  0.11517191  0.12547327  1
  Sr2+  Sr57  1  0.38798393  0.12049421  0.62440254  1
  Sr2+  Sr58  1  0.37795542  0.62342884  0.13116176  1
  Sr2+  Sr59  1  0.38286012  0.61747262  0.62755963  1
  Sr2+  Sr60  1  0.88998666  0.12145823  0.12630234  1
  Sr2+  Sr61  1  0.89305645  0.11805036  0.62570984  1
  Sr2+  Sr62  1  0.88544879  0.61233690  0.11677171  1
  Sr2+  Sr63  1  0.87812387  0.63442254  0.62135715  1
  Ca2+  Ca64  1  0.00420367  0.50003779  0.50298892  1
  Ca2+  Ca65  1  -0.00014398  -0.00061999  -0.00266810  1
  Ca2+  Ca66  1  0.00345316  0.49823641  0.00333326  1
  Ca2+  Ca67  1  0.49818485  0.49718601  -0.00137351  1
  Ca2+  Ca68  1  0.49454311  0.50090522  0.49887234  1
  Ca2+  Ca69  1  0.75176069  0.25044388  0.49863348  1
  Ca2+  Ca70  1  0.25029042  0.25129510  0.00095232  1
  Ca2+  Ca71  1  0.74634790  0.75111956  0.00112473  1
  Ca2+  Ca72  1  0.24976960  0.74645492  0.50371760  1
  Ca2+  Ca73  1  0.24898579  0.25502777  0.49981691  1
  Ca2+  Ca74  1  0.50301982  0.24566906  0.75273808  1
  Ca2+  Ca75  1  0.50128543  0.24572765  0.25040119  1
  Ca2+  Ca76  1  0.50406663  0.74768088  0.24693677  1
  Ca2+  Ca77  1  0.24329766  0.49947718  0.24456971  1
  Ca2+  Ca78  1  -0.00023542  0.75244974  0.74742469  1
  Ca2+  Ca79  1  0.75193767  0.50226274  0.24936261  1
  Ca2+  Ca80  1  -0.00497009  0.75298783  0.24860731  1
  Ca2+  Ca81  1  0.25067130  -0.00200805  0.75171274  1
  Ca2+  Ca82  1  0.25098029  -0.00219429  0.25413398  1
  Ca2+  Ca83  1  -0.00202344  0.24855887  0.75102123  1
  Ca2+  Ca84  1  0.74827274  0.50172015  0.75165286  1
  Nb5+  Nb85  1  0.50746285  -0.00356892  0.50416105  1
  Nb5+  Nb86  1  0.50064452  0.00058314  0.00484666  1
  Nb5+  Nb87  1  0.00489611  -0.00297442  0.50000547  1
  Nb5+  Nb88  1  0.74440093  0.74975057  0.49934240  1
  Nb5+  Nb89  1  0.25319137  0.75062618  -0.00090716  1
  Nb5+  Nb90  1  0.75429573  0.25147201  0.00131452  1
  Nb5+  Nb91  1  0.74865181  0.00192213  0.75468341  1
  Nb5+  Nb92  1  -0.00234643  0.25151457  0.25297867  1
  Nb5+  Nb93  1  0.25396170  0.50036355  0.74908732  1
  Nb5+  Nb94  1  0.74977612  0.00016772  0.25674566  1
  Nb5+  Nb95  1  0.50064022  0.74871681  0.74746425  1
  Nb5+  Nb96  1  -0.00146414  -0.00245904  0.25293372  1
  Nb5+  Nb97  1  0.00357735  -0.00084930  0.75511658  1
  Nb5+  Nb98  1  0.00181733  0.50610774  0.24742928  1
  Nb5+  Nb99  1  -0.00327697  0.50406324  0.74734058  1
  Nb5+  Nb100  1  0.49900520  0.00400980  0.26159415  1
  Nb5+  Nb101  1  0.50179629  0.00156992  0.75545849  1
  Nb5+  Nb102  1  0.49675653  0.49782619  0.24619262  1
  Nb5+  Nb103  1  0.50006988  0.48960632  0.75116625  1
  Nb5+  Nb104  1  0.25345018  0.24664168  0.24646768  1
  Nb5+  Nb105  1  0.24869350  0.24356275  0.75440675  1
  Nb5+  Nb106  1  0.24834262  0.75378229  0.25709805  1
  Nb5+  Nb107  1  0.24943915  0.75030306  0.74667209  1
  Nb5+  Nb108  1  0.75451837  0.25270164  0.25287652  1
  Nb5+  Nb109  1  0.75059076  0.25423339  0.74669052  1
  Nb5+  Nb110  1  0.74821341  0.74606024  0.24519518  1
  Nb5+  Nb111  1  0.74684325  0.74971938  0.75402522  1
  Nb5+  Nb112  1  -0.00556588  0.25499598  0.49836951  1
  Nb5+  Nb113  1  0.00243556  0.24863830  0.99778450  1
  Nb5+  Nb114  1  0.00410788  0.75248242  0.50589574  1
  Nb5+  Nb115  1  -0.00567063  0.75021473  0.99798496  1
  Nb5+  Nb116  1  0.49759863  0.25328692  0.49437179  1
  Nb5+  Nb117  1  0.49787878  0.24838765  0.99777873  1
  Nb5+  Nb118  1  0.50313329  0.74632292  0.49605467  1
  Nb5+  Nb119  1  0.50178580  0.75190926  1.00284413  1
  Nb5+  Nb120  1  0.24666505  -0.00057389  -0.00596716  1
  Nb5+  Nb121  1  0.25871862  -0.00242940  0.50022205  1
  Nb5+  Nb122  1  0.25449435  0.50103142  0.00559416  1
  Nb5+  Nb123  1  0.24877253  0.49830694  0.49694842  1
  Nb5+  Nb124  1  0.75095718  0.00248491  0.00606467  1
  Nb5+  Nb125  1  0.75246171  0.00049878  0.50260514  1
  Nb5+  Nb126  1  0.74944740  0.50820448  -0.00402505  1
  Nb5+  Nb127  1  0.75119799  0.49538270  0.50509714  1
  O2-  O128  1  -0.00617635  -0.01646636  0.13637249  1
  O2-  O129  1  -0.00295097  -0.02234804  0.61797673  1
  O2-  O130  1  -0.02287791  0.47838882  0.13550615  1
  O2-  O131  1  0.00701034  0.46969952  0.63491753  1
  O2-  O132  1  0.50164784  -0.02001532  0.12020632  1
  O2-  O133  1  0.50454229  -0.02403648  0.61988229  1
  O2-  O134  1  0.49218959  0.46853193  0.12960986  1
  O2-  O135  1  0.49591896  0.49267960  0.63434582  1
  O2-  O136  1  -0.00368332  0.02120864  0.37916742  1
  O2-  O137  1  -0.00619621  0.03388715  0.86337430  1
  O2-  O138  1  0.01776315  0.51608170  0.36858461  1
  O2-  O139  1  0.00735463  0.51951564  0.86616241  1
  O2-  O140  1  0.50898090  0.01695250  0.37704515  1
  O2-  O141  1  0.50481291  0.01647701  0.87091363  1
  O2-  O142  1  0.50422211  0.52502837  0.36476292  1
  O2-  O143  1  0.49914893  0.52532159  0.86382554  1
  O2-  O144  1  0.21682995  0.23340977  0.13214115  1
  O2-  O145  1  0.22381892  0.24906577  0.63645174  1
  O2-  O146  1  0.26918897  0.73260862  0.11476519  1
  O2-  O147  1  0.26643075  0.71876109  0.63682158  1
  O2-  O148  1  0.73888270  0.23936650  0.12420461  1
  O2-  O149  1  0.72173170  0.24689347  0.63542010  1
  O2-  O150  1  0.77901065  0.74031319  0.13528931  1
  O2-  O151  1  0.75433391  0.74440140  0.62600330  1
  O2-  O152  1  0.26745489  0.26630044  0.36342664  1
  O2-  O153  1  0.27884926  0.26710765  0.86736236  1
  O2-  O154  1  0.23093158  0.77504123  0.36896996  1
  O2-  O155  1  0.24533461  0.76845298  0.87327342  1
  O2-  O156  1  0.78142115  0.25526466  0.36450492  1
  O2-  O157  1  0.77408877  0.25571741  0.88286611  1
  O2-  O158  1  0.72778122  0.76656978  0.38374795  1
  O2-  O159  1  0.73246478  0.77925443  0.86486576  1
  O2-  O160  1  0.00802465  0.26607811  0.13226665  1
  O2-  O161  1  0.00725326  0.27184185  0.61325950  1
  O2-  O162  1  -0.00871889  0.78526528  0.11211555  1
  O2-  O163  1  -0.03599964  0.76836107  0.61524640  1
  O2-  O164  1  0.52512740  0.26460366  0.11284638  1
  O2-  O165  1  0.52044397  0.26745045  0.61282279  1
  O2-  O166  1  0.47687355  0.77019228  0.11254344  1
  O2-  O167  1  0.48598183  0.76418243  0.62777799  1
  O2-  O168  1  0.25438253  -0.03512425  0.38744195  1
  O2-  O169  1  0.27798083  -0.02010022  0.88336201  1
  O2-  O170  1  0.24635713  0.48323117  0.38199483  1
  O2-  O171  1  0.25751790  0.49059481  0.87225455  1
  O2-  O172  1  0.75501681  -0.01322400  0.37522804  1
  O2-  O173  1  0.75337122  -0.00921450  0.87243553  1
  O2-  O174  1  0.75086615  0.50378650  0.38633741  1
  O2-  O175  1  0.74774146  0.47125210  0.88361544  1
  O2-  O176  1  -0.01512867  0.22437382  0.37041358  1
  O2-  O177  1  -0.01633404  0.22209767  0.88705993  1
  O2-  O178  1  0.01150230  0.73717740  0.38747846  1
  O2-  O179  1  0.02466991  0.72558155  0.88316647  1
  O2-  O180  1  0.48477827  0.21201423  0.38254295  1
  O2-  O181  1  0.49096859  0.20883565  0.88597109  1
  O2-  O182  1  0.52936460  0.73923559  0.38427649  1
  O2-  O183  1  0.51603811  0.74682220  0.86975008  1
  O2-  O184  1  0.25500643  0.01514554  0.11259203  1
  O2-  O185  1  0.23615818  0.02127713  0.61667578  1
  O2-  O186  1  0.24435837  0.53602936  0.11353646  1
  O2-  O187  1  0.25052662  0.52011984  0.63242831  1
  O2-  O188  1  0.74056035  0.01057336  0.12473285  1
  O2-  O189  1  0.74214304  0.00915616  0.62172280  1
  O2-  O190  1  0.76187140  0.51695023  0.11462326  1
  O2-  O191  1  0.73484576  0.52016974  0.61897418  1
  O2-  O192  1  0.11527644  0.26422964  0.26653530  1
  O2-  O193  1  0.13255297  0.27020549  0.77657530  1
  O2-  O194  1  0.13170046  0.76895437  0.22747224  1
  O2-  O195  1  0.13644474  0.77264267  0.73674449  1
  O2-  O196  1  0.63915787  0.26362523  0.26835187  1
  O2-  O197  1  0.63865260  0.26300912  0.78452975  1
  O2-  O198  1  0.63788972  0.78819285  0.23865763  1
  O2-  O199  1  0.62013389  0.77325140  0.73618211  1
  O2-  O200  1  0.36600303  0.22753686  0.22390900  1
  O2-  O201  1  0.36609880  0.22989151  0.72580685  1
  O2-  O202  1  0.36678399  0.73311535  0.26905866  1
  O2-  O203  1  0.38274398  0.73555171  0.76454229  1
  O2-  O204  1  0.87655492  0.22576757  0.23178537  1
  O2-  O205  1  0.86128136  0.21263801  0.74144194  1
  O2-  O206  1  0.85897079  0.73812178  0.28556513  1
  O2-  O207  1  0.86077685  0.73163005  0.76501742  1
  O2-  O208  1  0.26252911  0.36436700  0.22425341  1
  O2-  O209  1  0.26948116  0.38324113  0.73844855  1
  O2-  O210  1  0.26972717  0.86623819  0.22366431  1
  O2-  O211  1  0.27844357  0.86287792  0.73183528  1
  O2-  O212  1  0.77442116  0.36507996  0.23527476  1
  O2-  O213  1  0.78186712  0.36466909  0.74001859  1
  O2-  O214  1  0.77320256  0.88367896  0.23968300  1
  O2-  O215  1  0.76220497  0.88017493  0.73392519  1
  O2-  O216  1  0.22607885  0.13157717  0.26984222  1
  O2-  O217  1  0.22967182  0.13149469  0.77457389  1
  O2-  O218  1  0.22693881  0.63605025  0.26301737  1
  O2-  O219  1  0.23976010  0.62707098  0.77201791  1
  O2-  O220  1  0.73383835  0.12072065  0.26053927  1
  O2-  O221  1  0.72265693  0.11694818  0.75844989  1
  O2-  O222  1  0.71394586  0.63723064  0.25624100  1
  O2-  O223  1  0.71585202  0.63836179  0.76237517  1
  O2-  O224  1  0.11153323  0.46196340  0.24176884  1
  O2-  O225  1  0.13327827  0.48816106  0.75287357  1
  O2-  O226  1  0.11370131  0.98067525  0.25487245  1
  O2-  O227  1  0.11429575  0.96711379  0.75976633  1
  O2-  O228  1  0.61778062  0.47685534  0.24279947  1
  O2-  O229  1  0.61408055  0.46666566  0.75246839  1
  O2-  O230  1  0.63040024  0.97989580  0.25551955  1
  O2-  O231  1  0.62649821  0.97628591  0.75133411  1
  O2-  O232  1  0.38663317  0.02955156  0.25539743  1
  O2-  O233  1  0.38803166  0.01716605  0.74100151  1
  O2-  O234  1  0.37807066  0.51911955  0.25043811  1
  O2-  O235  1  0.37397446  0.52370367  0.75048245  1
  O2-  O236  1  0.86969223  0.02237218  0.24868440  1
  O2-  O237  1  0.86537881  0.01952653  0.74288450  1
  O2-  O238  1  0.88494125  0.51761186  0.27047192  1
  O2-  O239  1  0.88263058  0.52851964  0.74383182  1
  O2-  O240  1  0.47822306  0.37905141  0.27372472  1
  O2-  O241  1  0.46812019  0.38023181  0.76426334  1
  O2-  O242  1  0.48320350  0.88720997  0.26414860  1
  O2-  O243  1  0.48619972  0.87751008  0.76037580  1
  O2-  O244  1  0.97459707  0.36457057  0.27125314  1
  O2-  O245  1  0.98159020  0.38370604  0.77297034  1
  O2-  O246  1  0.97308875  0.88684431  0.27681292  1
  O2-  O247  1  0.96431071  0.88789895  0.76296105  1
  O2-  O248  1  0.01228669  0.12254322  0.23824181  1
  O2-  O249  1  0.01892744  0.11114894  0.71569639  1
  O2-  O250  1  0.02139512  0.61783478  0.22620216  1
  O2-  O251  1  0.02236676  0.61831686  0.72489853  1
  O2-  O252  1  0.53024527  0.11162490  0.22723377  1
  O2-  O253  1  0.52475569  0.11092534  0.72353002  1
  O2-  O254  1  0.51423591  0.61519746  0.21604671  1
  O2-  O255  1  0.51970450  0.63293292  0.73590566  1
  O2-  O256  1  0.13803405  0.48529732  -0.01193973  1
  O2-  O257  1  0.13600660  0.45993216  0.51205307  1
  O2-  O258  1  0.13526508  0.97194718  -0.01000211  1
  O2-  O259  1  0.11970632  0.97703097  0.49528872  1
  O2-  O260  1  0.63375187  0.47400342  0.01198771  1
  O2-  O261  1  0.63154410  0.47158227  0.49648463  1
  O2-  O262  1  0.62641590  0.98377175  -0.00647358  1
  O2-  O263  1  0.62440384  0.97678168  0.49670799  1
  O2-  O264  1  0.38532775  0.02336418  0.00256261  1
  O2-  O265  1  0.37770692  0.01472129  0.50231766  1
  O2-  O266  1  0.36795418  0.53506461  -0.00408128  1
  O2-  O267  1  0.36241347  0.54104322  0.49889869  1
  O2-  O268  1  0.86460249  0.02643563  0.00141724  1
  O2-  O269  1  0.87006817  0.01374901  0.50379571  1
  O2-  O270  1  0.86748027  0.52617324  -0.01264907  1
  O2-  O271  1  0.86635106  0.53299508  0.50778072  1
  O2-  O272  1  0.48869174  0.35968046  -0.03336390  1
  O2-  O273  1  0.47766701  0.36436140  0.47177555  1
  O2-  O274  1  0.48331937  0.88440545  -0.02285709  1
  O2-  O275  1  0.48341962  0.87907221  0.48067981  1
  O2-  O276  1  0.96837310  0.36214071  -0.00677311  1
  O2-  O277  1  0.97069685  0.36429902  0.47401474  1
  O2-  O278  1  0.98721408  0.86677969  -0.03643159  1
  O2-  O279  1  0.97787311  0.87944497  0.47868500  1
  O2-  O280  1  0.02230746  0.13462038  0.02901774  1
  O2-  O281  1  0.01569501  0.11470990  0.51672950  1
  O2-  O282  1  0.01648804  0.63662533  0.03051790  1
  O2-  O283  1  0.01378133  0.63790549  0.52334118  1
  O2-  O284  1  0.52553067  0.11733468  0.01701027  1
  O2-  O285  1  0.51827108  0.11282506  0.51975283  1
  O2-  O286  1  0.52460312  0.63936559  0.01002287  1
  O2-  O287  1  0.52344928  0.63679721  0.52047921  1
  O2-  O288  1  0.11431862  0.27578000  -0.01825453  1
  O2-  O289  1  0.11094501  0.25392588  0.47644589  1
  O2-  O290  1  0.13575128  0.77069318  0.01160155  1
  O2-  O291  1  0.11348982  0.78036699  0.52335007  1
  O2-  O292  1  0.63313272  0.25857319  -0.01516533  1
  O2-  O293  1  0.61656835  0.25936073  0.47221812  1
  O2-  O294  1  0.61290323  0.78687887  0.00920870  1
  O2-  O295  1  0.62349809  0.77784468  0.51928233  1
  O2-  O296  1  0.38671500  0.22881445  0.02446013  1
  O2-  O297  1  0.38375823  0.22308115  0.51857077  1
  O2-  O298  1  0.37864773  0.74235432  -0.02340936  1
  O2-  O299  1  0.38762173  0.73948473  0.47964363  1
  O2-  O300  1  0.87098416  0.22458575  0.01790721  1
  O2-  O301  1  0.88402859  0.21325523  0.50938222  1
  O2-  O302  1  0.88182868  0.72992522  -0.01928492  1
  O2-  O303  1  0.86211975  0.73788384  0.48649409  1
  O2-  O304  1  0.28045402  0.38894743  0.02134975  1
  O2-  O305  1  0.28841716  0.38738806  0.51818213  1
  O2-  O306  1  0.27361257  0.87284615  0.01192126  1
  O2-  O307  1  0.26554913  0.88218849  0.53334271  1
  O2-  O308  1  0.76908855  0.36698894  0.01512155  1
  O2-  O309  1  0.78158730  0.38443256  0.51747552  1
  O2-  O310  1  0.77267525  0.88759109  0.01195848  1
  O2-  O311  1  0.76240066  0.87790099  0.51143991  1
  O2-  O312  1  0.23404540  0.11446686  -0.02696779  1
  O2-  O313  1  0.23327711  0.11224850  0.47666900  1
  O2-  O314  1  0.23613596  0.63518775  -0.02327118  1
  O2-  O315  1  0.20856480  0.61445695  0.49005000  1
  O2-  O316  1  0.73020988  0.12355363  -0.01060251  1
  O2-  O317  1  0.72553316  0.11184139  0.48598797  1
  O2-  O318  1  0.71806360  0.61824812  -0.01995488  1
  O2-  O319  1  0.72072365  0.63547948  0.49575307  1
