# generated using pymatgen
data_Sr64Ca21Nb43O192
_symmetry_space_group_name_H-M   'P 1'
_cell_length_a   16.57876281
_cell_length_b   16.58186901
_cell_length_c   16.70052828
_cell_angle_alpha   89.91753491
_cell_angle_beta   90.05509661
_cell_angle_gamma   89.99488877
_symmetry_Int_Tables_number   1
_chemical_formula_structural   Sr64Ca21Nb43O192
_chemical_formula_sum   'Sr64 Ca21 Nb43 O192'
_cell_volume   4591.08311338
_cell_formula_units_Z   1
loop_
 _symmetry_equiv_pos_site_id
 _symmetry_equiv_pos_as_xyz
  1  'x, y, z'
loop_
 _atom_type_symbol
 _atom_type_oxidation_number
  Sr2+  2.0
  Ca2+  2.0
  Nb5+  5.0
  O2-  -2.0
loop_
 _atom_site_type_symbol
 _atom_site_label
 _atom_site_symmetry_multiplicity
 _atom_site_fract_x
 _atom_site_fract_y
 _atom_site_fract_z
 _atom_site_occupancy
  Sr2+  Sr0  1  0.11428551  0.11411639  0.12215714  1
  Sr2+  Sr1  1  0.11387655  0.11931873  0.62487233  1
  Sr2+  Sr2  1  0.12283738  0.62218394  0.11771806  1
  Sr2+  Sr3  1  0.12370972  0.60746095  0.62220698  1
  Sr2+  Sr4  1  0.61925612  0.11900746  0.12731352  1
  Sr2+  Sr5  1  0.62320450  0.11258281  0.62335896  1
  Sr2+  Sr6  1  0.61907588  0.61397612  0.13122966  1
  Sr2+  Sr7  1  0.60928812  0.62283192  0.62645119  1
  Sr2+  Sr8  1  0.37203236  0.36586749  0.11523469  1
  Sr2+  Sr9  1  0.35720731  0.37169174  0.62864961  1
  Sr2+  Sr10  1  0.37055857  0.86061830  0.13151035  1
  Sr2+  Sr11  1  0.37550286  0.86302417  0.62532447  1
  Sr2+  Sr12  1  0.87119804  0.36724253  0.12787675  1
  Sr2+  Sr13  1  0.87153010  0.36595602  0.62334938  1
  Sr2+  Sr14  1  0.86881273  0.85758271  0.12041203  1
  Sr2+  Sr15  1  0.85887936  0.87091877  0.62731680  1
  Sr2+  Sr16  1  0.13242554  0.38454679  0.37373025  1
  Sr2+  Sr17  1  0.14223291  0.37450592  0.86898962  1
  Sr2+  Sr18  1  0.13921734  0.87922173  0.37303846  1
  Sr2+  Sr19  1  0.12289540  0.88519508  0.89341181  1
  Sr2+  Sr20  1  0.63850615  0.38075657  0.37787637  1
  Sr2+  Sr21  1  0.62144405  0.38323668  0.87867837  1
  Sr2+  Sr22  1  0.62984713  0.88627789  0.36985938  1
  Sr2+  Sr23  1  0.64477459  0.87682929  0.87665476  1
  Sr2+  Sr24  1  0.38482893  0.12963845  0.37810061  1
  Sr2+  Sr25  1  0.37959351  0.13722293  0.87725906  1
  Sr2+  Sr26  1  0.38404549  0.63830567  0.37571408  1
  Sr2+  Sr27  1  0.38303086  0.62887713  0.88011421  1
  Sr2+  Sr28  1  0.88215113  0.13588395  0.37324286  1
  Sr2+  Sr29  1  0.88612375  0.12457254  0.86747845  1
  Sr2+  Sr30  1  0.88658435  0.62347562  0.37536140  1
  Sr2+  Sr31  1  0.88466844  0.63744441  0.87221809  1
  Sr2+  Sr32  1  0.13403226  0.11827495  0.35925473  1
  Sr2+  Sr33  1  0.12951850  0.12629135  0.86313388  1
  Sr2+  Sr34  1  0.12435599  0.63934582  0.38056503  1
  Sr2+  Sr35  1  0.13069080  0.63620714  0.87948985  1
  Sr2+  Sr36  1  0.62556205  0.13938303  0.38101329  1
  Sr2+  Sr37  1  0.63735953  0.13303804  0.87887901  1
  Sr2+  Sr38  1  0.64018974  0.63228312  0.36932445  1
  Sr2+  Sr39  1  0.61950726  0.63371884  0.87157923  1
  Sr2+  Sr40  1  0.38260787  0.38192840  0.37782115  1
  Sr2+  Sr41  1  0.38141878  0.38877426  0.87427023  1
  Sr2+  Sr42  1  0.37922184  0.89380761  0.37159197  1
  Sr2+  Sr43  1  0.38330299  0.88646140  0.87714472  1
  Sr2+  Sr44  1  0.87818555  0.38469783  0.37710304  1
  Sr2+  Sr45  1  0.88342502  0.38627696  0.87620002  1
  Sr2+  Sr46  1  0.89034871  0.88320996  0.37530905  1
  Sr2+  Sr47  1  0.88170495  0.88884081  0.87638977  1
  Sr2+  Sr48  1  0.11406276  0.36459017  0.12460531  1
  Sr2+  Sr49  1  0.11612498  0.36913444  0.62266722  1
  Sr2+  Sr50  1  0.11749195  0.86792852  0.13045380  1
  Sr2+  Sr51  1  0.11901325  0.86395418  0.62662096  1
  Sr2+  Sr52  1  0.61444596  0.37175498  0.11870967  1
  Sr2+  Sr53  1  0.62417522  0.36450739  0.62695591  1
  Sr2+  Sr54  1  0.61506427  0.87000889  0.13013854  1
  Sr2+  Sr55  1  0.61282468  0.87168435  0.62527832  1
  Sr2+  Sr56  1  0.36211599  0.12464279  0.12279237  1
  Sr2+  Sr57  1  0.36555259  0.10644582  0.62606656  1
  Sr2+  Sr58  1  0.36420846  0.61814318  0.12447091  1
  Sr2+  Sr59  1  0.36069212  0.62590220  0.62642622  1
  Sr2+  Sr60  1  0.86862686  0.12420058  0.13503159  1
  Sr2+  Sr61  1  0.86002495  0.12287545  0.62405563  1
  Sr2+  Sr62  1  0.85747736  0.61620061  0.12696263  1
  Sr2+  Sr63  1  0.86787212  0.60842295  0.62977772  1
  Ca2+  Ca64  1  -0.00023588  0.00129538  0.49939054  1
  Ca2+  Ca65  1  0.50081970  0.50012645  0.49983261  1
  Ca2+  Ca66  1  0.50116242  -0.00196313  -0.00269847  1
  Ca2+  Ca67  1  -0.00146779  0.00505344  0.00200056  1
  Ca2+  Ca68  1  -0.00134611  0.49835230  0.00087960  1
  Ca2+  Ca69  1  0.24491156  0.25191684  0.00137440  1
  Ca2+  Ca70  1  0.74574972  0.74731628  0.00156514  1
  Ca2+  Ca71  1  0.24627059  0.24716263  0.49853040  1
  Ca2+  Ca72  1  0.75126385  0.74976174  0.49978858  1
  Ca2+  Ca73  1  0.75344349  0.24894477  0.00027996  1
  Ca2+  Ca74  1  0.75103019  0.00247684  0.25347886  1
  Ca2+  Ca75  1  0.50170902  0.74961161  0.25281228  1
  Ca2+  Ca76  1  0.50166878  0.25000288  0.74867022  1
  Ca2+  Ca77  1  0.50222464  0.25275461  0.25022359  1
  Ca2+  Ca78  1  0.24861825  0.50305487  0.75175332  1
  Ca2+  Ca79  1  0.25008164  -0.00412350  0.75079086  1
  Ca2+  Ca80  1  0.24813977  0.49813495  0.24960916  1
  Ca2+  Ca81  1  -0.00007157  0.74616554  0.24944608  1
  Ca2+  Ca82  1  0.74765400  0.49833387  0.75042169  1
  Ca2+  Ca83  1  0.25333957  0.00023896  0.24365904  1
  Ca2+  Ca84  1  0.00224636  0.75056299  0.74831975  1
  Nb5+  Nb85  1  0.50140119  0.00027766  0.49990014  1
  Nb5+  Nb86  1  -0.00069943  0.49734007  0.50149421  1
  Nb5+  Nb87  1  0.49848937  0.50277751  0.00069499  1
  Nb5+  Nb88  1  0.25106333  0.75173468  0.00335970  1
  Nb5+  Nb89  1  0.24953194  0.75224227  0.50484886  1
  Nb5+  Nb90  1  0.74969114  0.25098744  0.49998530  1
  Nb5+  Nb91  1  0.74818251  -0.00001580  0.75062262  1
  Nb5+  Nb92  1  0.49747380  0.75199484  0.75128129  1
  Nb5+  Nb93  1  -0.00093152  0.25013407  0.74324153  1
  Nb5+  Nb94  1  0.00158383  0.25069385  0.24918525  1
  Nb5+  Nb95  1  0.74984857  0.49664759  0.24850611  1
  Nb5+  Nb96  1  -0.00383664  -0.00562279  0.24824969  1
  Nb5+  Nb97  1  -0.00027656  -0.00423076  0.74080618  1
  Nb5+  Nb98  1  -0.00100035  0.49817754  0.24885569  1
  Nb5+  Nb99  1  0.00384861  0.49983398  0.75608450  1
  Nb5+  Nb100  1  0.49901015  0.00630138  0.24264219  1
  Nb5+  Nb101  1  0.50391056  0.00329213  0.75346351  1
  Nb5+  Nb102  1  0.49710143  0.49836881  0.25507618  1
  Nb5+  Nb103  1  0.49436435  0.49982420  0.74328885  1
  Nb5+  Nb104  1  0.25526725  0.24897989  0.25183987  1
  Nb5+  Nb105  1  0.25468091  0.24491980  0.74667502  1
  Nb5+  Nb106  1  0.25113036  0.74550310  0.25741352  1
  Nb5+  Nb107  1  0.25022075  0.75304271  0.75939824  1
  Nb5+  Nb108  1  0.74771754  0.25385302  0.24877354  1
  Nb5+  Nb109  1  0.75317534  0.25165158  0.75478519  1
  Nb5+  Nb110  1  0.75467076  0.75677433  0.25597599  1
  Nb5+  Nb111  1  0.74908491  0.74327794  0.74427178  1
  Nb5+  Nb112  1  0.00111611  0.25136289  0.49239129  1
  Nb5+  Nb113  1  -0.00255867  0.25075537  0.98892790  1
  Nb5+  Nb114  1  -0.00625539  0.74952505  0.50793022  1
  Nb5+  Nb115  1  -0.00499354  0.74771960  1.00228010  1
  Nb5+  Nb116  1  0.49168865  0.25153026  0.50889493  1
  Nb5+  Nb117  1  0.50334925  0.24561101  0.99610403  1
  Nb5+  Nb118  1  0.50350229  0.75345623  0.49536898  1
  Nb5+  Nb119  1  0.50010526  0.75037200  1.00325577  1
  Nb5+  Nb120  1  0.25187052  0.00432935  0.00052213  1
  Nb5+  Nb121  1  0.24490889  -0.00195023  0.50449533  1
  Nb5+  Nb122  1  0.24617433  0.49689446  0.00224193  1
  Nb5+  Nb123  1  0.25537089  0.50134542  0.49267619  1
  Nb5+  Nb124  1  0.75338383  -0.00252811  0.00863413  1
  Nb5+  Nb125  1  0.75224479  0.00032700  0.49626037  1
  Nb5+  Nb126  1  0.74872764  0.50410466  -0.00836855  1
  Nb5+  Nb127  1  0.74715775  0.50034169  0.50389478  1
  O2-  O128  1  -0.01688590  0.03272162  0.13619616  1
  O2-  O129  1  -0.01916801  0.03510251  0.63115914  1
  O2-  O130  1  -0.02591444  0.51286005  0.13760587  1
  O2-  O131  1  -0.01768445  0.50998777  0.62146595  1
  O2-  O132  1  0.48503608  0.03300573  0.13150076  1
  O2-  O133  1  0.49060058  0.01277354  0.62636045  1
  O2-  O134  1  0.49027816  0.52621886  0.11872103  1
  O2-  O135  1  0.47882011  0.52923775  0.63225024  1
  O2-  O136  1  0.02105207  -0.02299280  0.36648391  1
  O2-  O137  1  0.00794828  -0.01128766  0.85965432  1
  O2-  O138  1  0.00530148  0.47733908  0.38152399  1
  O2-  O139  1  0.01927549  0.46974649  0.86596066  1
  O2-  O140  1  0.51520830  -0.01808694  0.38478120  1
  O2-  O141  1  0.52434076  -0.03103776  0.86129495  1
  O2-  O142  1  0.51480309  0.46828480  0.36503218  1
  O2-  O143  1  0.51600134  0.49244258  0.87759969  1
  O2-  O144  1  0.23809283  0.28402305  0.13845115  1
  O2-  O145  1  0.23399401  0.27680486  0.63347778  1
  O2-  O146  1  0.24046770  0.76871618  0.11710206  1
  O2-  O147  1  0.24193785  0.77202819  0.61896861  1
  O2-  O148  1  0.74087689  0.28032466  0.13697758  1
  O2-  O149  1  0.74511089  0.26546909  0.62333188  1
  O2-  O150  1  0.73055293  0.77366957  0.13839971  1
  O2-  O151  1  0.73278627  0.78178110  0.63311083  1
  O2-  O152  1  0.25461214  0.21159839  0.36751509  1
  O2-  O153  1  0.24995263  0.22370396  0.86522958  1
  O2-  O154  1  0.26106523  0.72705702  0.37296294  1
  O2-  O155  1  0.26517353  0.72641002  0.87149204  1
  O2-  O156  1  0.76512239  0.23384726  0.38163078  1
  O2-  O157  1  0.76854197  0.22091305  0.86442787  1
  O2-  O158  1  0.77205888  0.71821729  0.36856491  1
  O2-  O159  1  0.75463318  0.72824762  0.86216672  1
  O2-  O160  1  0.01445699  0.24101749  0.13446518  1
  O2-  O161  1  0.01270727  0.24202451  0.62558651  1
  O2-  O162  1  0.03224984  0.73930656  0.11512674  1
  O2-  O163  1  0.03952787  0.73201653  0.61525448  1
  O2-  O164  1  0.52833753  0.24070460  0.11382118  1
  O2-  O165  1  0.53703585  0.23779265  0.61621397  1
  O2-  O166  1  0.51997402  0.73506776  0.11473051  1
  O2-  O167  1  0.51091459  0.74197703  0.62138858  1
  O2-  O168  1  0.23623399  0.00381146  0.38572147  1
  O2-  O169  1  0.21777220  0.00480889  0.88336238  1
  O2-  O170  1  0.21419764  0.52033424  0.38436965  1
  O2-  O171  1  0.22516688  0.51946902  0.88672177  1
  O2-  O172  1  0.71726531  0.01843837  0.38762709  1
  O2-  O173  1  0.72606724  0.01239711  0.86371093  1
  O2-  O174  1  0.73428856  0.50676792  0.37857689  1
  O2-  O175  1  0.71728912  0.51877872  0.88296045  1
  O2-  O176  1  -0.02236519  0.26668764  0.37930238  1
  O2-  O177  1  -0.02273292  0.26058211  0.87326091  1
  O2-  O178  1  -0.01595907  0.75524133  0.38954372  1
  O2-  O179  1  -0.02070113  0.76531858  0.88296799  1
  O2-  O180  1  0.48361277  0.25964423  0.39058851  1
  O2-  O181  1  0.47819758  0.27301617  0.88156670  1
  O2-  O182  1  0.47013616  0.77028404  0.38584687  1
  O2-  O183  1  0.47758424  0.75892602  0.86725767  1
  O2-  O184  1  0.29019673  -0.01786011  0.11123954  1
  O2-  O185  1  0.28100405  -0.02359290  0.61474590  1
  O2-  O186  1  0.28334838  0.48962259  0.11548735  1
  O2-  O187  1  0.26716850  0.49583287  0.61166147  1
  O2-  O188  1  0.78332640  -0.01337571  0.11843248  1
  O2-  O189  1  0.76480050  -0.00720742  0.62119317  1
  O2-  O190  1  0.77003875  0.48158236  0.13382943  1
  O2-  O191  1  0.77388316  0.48193268  0.61593994  1
  O2-  O192  1  0.11495061  0.27101369  0.27080735  1
  O2-  O193  1  0.11469541  0.26752380  0.76258694  1
  O2-  O194  1  0.13405118  0.77130196  0.26585988  1
  O2-  O195  1  0.13874308  0.78301782  0.76970306  1
  O2-  O196  1  0.63660720  0.26989440  0.27685544  1
  O2-  O197  1  0.63913306  0.27292177  0.76486524  1
  O2-  O198  1  0.63626463  0.76196338  0.27857672  1
  O2-  O199  1  0.61909716  0.76686890  0.76164352  1
  O2-  O200  1  0.36770679  0.22846497  0.23609227  1
  O2-  O201  1  0.36690860  0.22065097  0.73252959  1
  O2-  O202  1  0.36725078  0.72412779  0.23296254  1
  O2-  O203  1  0.38006575  0.73031402  0.73216797  1
  O2-  O204  1  0.87424736  0.23838536  0.24323418  1
  O2-  O205  1  0.87713459  0.22999272  0.73161871  1
  O2-  O206  1  0.86644772  0.72780728  0.22463837  1
  O2-  O207  1  0.86444989  0.72903692  0.73066659  1
  O2-  O208  1  0.26357637  0.36332843  0.28852833  1
  O2-  O209  1  0.26810561  0.36443190  0.77095937  1
  O2-  O210  1  0.27345827  0.86325735  0.25967177  1
  O2-  O211  1  0.28918664  0.86333828  0.75931065  1
  O2-  O212  1  0.76893265  0.37588797  0.27440315  1
  O2-  O213  1  0.77950941  0.36388978  0.76631275  1
  O2-  O214  1  0.77464913  0.86750224  0.27964740  1
  O2-  O215  1  0.76635007  0.88023154  0.76488019  1
  O2-  O216  1  0.22142998  0.13609296  0.22383642  1
  O2-  O217  1  0.22142830  0.13129469  0.72657747  1
  O2-  O218  1  0.22618357  0.63370558  0.22410226  1
  O2-  O219  1  0.23410105  0.64093185  0.72420523  1
  O2-  O220  1  0.73669891  0.13857020  0.23011210  1
  O2-  O221  1  0.73617332  0.12303515  0.73033561  1
  O2-  O222  1  0.73375220  0.61381186  0.23745250  1
  O2-  O223  1  0.72515645  0.63296329  0.72102748  1
  O2-  O224  1  0.11068078  0.47166916  0.23550036  1
  O2-  O225  1  0.11531653  0.47862859  0.72258452  1
  O2-  O226  1  0.11550097  0.99018564  0.23073358  1
  O2-  O227  1  0.11350768  0.98581634  0.72209566  1
  O2-  O228  1  0.63220783  0.47544987  0.23698230  1
  O2-  O229  1  0.61206142  0.48256617  0.73245597  1
  O2-  O230  1  0.61748831  0.97983479  0.23318992  1
  O2-  O231  1  0.63024782  0.98288211  0.72432723  1
  O2-  O232  1  0.38603620  0.02069840  0.27731705  1
  O2-  O233  1  0.38991721  0.02227622  0.76705085  1
  O2-  O234  1  0.38538088  0.52184268  0.27164054  1
  O2-  O235  1  0.38263562  0.52169644  0.77667082  1
  O2-  O236  1  0.88406971  0.02103699  0.28021819  1
  O2-  O237  1  0.86827119  0.01601684  0.75960236  1
  O2-  O238  1  0.87118724  0.51045644  0.27263544  1
  O2-  O239  1  0.88525761  0.52009307  0.76696778  1
  O2-  O240  1  0.48378913  0.38744592  0.21643056  1
  O2-  O241  1  0.47279032  0.38620638  0.73056511  1
  O2-  O242  1  0.48207083  0.88587663  0.23252351  1
  O2-  O243  1  0.48674084  0.87099504  0.73041615  1
  O2-  O244  1  0.97511249  0.37235721  0.24347835  1
  O2-  O245  1  0.97751849  0.36967530  0.73636920  1
  O2-  O246  1  0.97444889  0.88286377  0.22722909  1
  O2-  O247  1  0.97606492  0.88450021  0.72130539  1
  O2-  O248  1  0.00951591  0.13499781  0.27316998  1
  O2-  O249  1  0.01156689  0.13151250  0.76398671  1
  O2-  O250  1  0.01460348  0.61015573  0.27534216  1
  O2-  O251  1  0.02416441  0.61424009  0.76725867  1
  O2-  O252  1  0.52669778  0.11798806  0.27343359  1
  O2-  O253  1  0.53254832  0.11426101  0.76582660  1
  O2-  O254  1  0.53172262  0.61173732  0.26353214  1
  O2-  O255  1  0.51912438  0.63156133  0.75845928  1
  O2-  O256  1  0.13469403  0.48696950  0.03309625  1
  O2-  O257  1  0.11708947  0.48309837  0.51731152  1
  O2-  O258  1  0.13784877  0.97379804  0.02622435  1
  O2-  O259  1  0.13422446  0.97096004  0.52246503  1
  O2-  O260  1  0.62079327  0.48780643  0.01807318  1
  O2-  O261  1  0.63488295  0.46794520  0.51543079  1
  O2-  O262  1  0.63581569  0.96879143  0.01803155  1
  O2-  O263  1  0.62347231  0.98581941  0.52139089  1
  O2-  O264  1  0.36646352  0.01455287  -0.03762276  1
  O2-  O265  1  0.38186698  0.01647506  0.48596803  1
  O2-  O266  1  0.38019524  0.51652287  -0.01814586  1
  O2-  O267  1  0.36625863  0.52206322  0.46890509  1
  O2-  O268  1  0.86403890  0.01979305  -0.03101504  1
  O2-  O269  1  0.86366267  0.03028313  0.48206271  1
  O2-  O270  1  0.86271725  0.52532543  -0.02560948  1
  O2-  O271  1  0.87350963  0.51454659  0.48457326  1
  O2-  O272  1  0.48592210  0.38499122  0.01257487  1
  O2-  O273  1  0.47090982  0.36518591  0.52343812  1
  O2-  O274  1  0.47343843  0.86294139  0.01373337  1
  O2-  O275  1  0.48428136  0.87907859  0.51890109  1
  O2-  O276  1  0.96535569  0.36496107  0.01379477  1
  O2-  O277  1  0.97659204  0.37675998  0.51572994  1
  O2-  O278  1  0.99089297  0.86742797  0.01435725  1
  O2-  O279  1  0.97701156  0.86374285  0.52214936  1
  O2-  O280  1  0.03632229  0.13799205  -0.01617684  1
  O2-  O281  1  0.02565707  0.13880393  0.48178631  1
  O2-  O282  1  0.02134189  0.63239296  -0.02022934  1
  O2-  O283  1  0.01437790  0.61663080  0.48690534  1
  O2-  O284  1  0.51715619  0.13332061  -0.02751352  1
  O2-  O285  1  0.51952607  0.12050521  0.49067492  1
  O2-  O286  1  0.51048522  0.62649926  -0.02067969  1
  O2-  O287  1  0.52111047  0.63808743  0.48090145  1
  O2-  O288  1  0.11114576  0.28839974  -0.00815153  1
  O2-  O289  1  0.11185568  0.28431192  0.48984448  1
  O2-  O290  1  0.13496847  0.75944131  -0.02191445  1
  O2-  O291  1  0.13207022  0.76569704  0.48040452  1
  O2-  O292  1  0.61860230  0.27467767  -0.02180985  1
  O2-  O293  1  0.63287222  0.26892293  0.48521202  1
  O2-  O294  1  0.61096410  0.76374556  -0.02730062  1
  O2-  O295  1  0.61541123  0.77903833  0.48190399  1
  O2-  O296  1  0.38467272  0.23811136  0.02062057  1
  O2-  O297  1  0.38308215  0.22022158  0.52719905  1
  O2-  O298  1  0.37370511  0.72746556  0.00880805  1
  O2-  O299  1  0.37105972  0.73230052  0.51452319  1
  O2-  O300  1  0.88758367  0.21626139  0.01955762  1
  O2-  O301  1  0.87713168  0.23497868  0.51527714  1
  O2-  O302  1  0.88312615  0.72898486  0.02449443  1
  O2-  O303  1  0.88499344  0.72165317  0.53146798  1
  O2-  O304  1  0.26946131  0.38607322  -0.02324341  1
  O2-  O305  1  0.26786401  0.38605519  0.48048750  1
  O2-  O306  1  0.26967553  0.86500005  -0.02290944  1
  O2-  O307  1  0.26975162  0.86740935  0.47781018  1
  O2-  O308  1  0.76506510  0.38752240  -0.01451463  1
  O2-  O309  1  0.77123775  0.36981200  0.48724071  1
  O2-  O310  1  0.77160379  0.88139910  -0.02313533  1
  O2-  O311  1  0.77571441  0.88740285  0.48258234  1
  O2-  O312  1  0.23689044  0.11654930  0.02361686  1
  O2-  O313  1  0.23141451  0.11097036  0.52429112  1
  O2-  O314  1  0.23936248  0.62735647  0.01585638  1
  O2-  O315  1  0.23349373  0.63059623  0.51440562  1
  O2-  O316  1  0.72048858  0.11305318  0.01359130  1
  O2-  O317  1  0.73309061  0.13159896  0.51777826  1
  O2-  O318  1  0.73260407  0.61394142  0.03431114  1
  O2-  O319  1  0.72487583  0.61297468  0.51768532  1
