# generated using pymatgen
data_Sr64Ca21Nb43O192
_symmetry_space_group_name_H-M   'P 1'
_cell_length_a   16.56892902
_cell_length_b   16.56261642
_cell_length_c   16.70437515
_cell_angle_alpha   90.03670625
_cell_angle_beta   89.97329249
_cell_angle_gamma   89.99678421
_symmetry_Int_Tables_number   1
_chemical_formula_structural   Sr64Ca21Nb43O192
_chemical_formula_sum   'Sr64 Ca21 Nb43 O192'
_cell_volume   4584.09362761
_cell_formula_units_Z   1
loop_
 _symmetry_equiv_pos_site_id
 _symmetry_equiv_pos_as_xyz
  1  'x, y, z'
loop_
 _atom_type_symbol
 _atom_type_oxidation_number
  Sr2+  2.0
  Ca2+  2.0
  Nb5+  5.0
  O2-  -2.0
loop_
 _atom_site_type_symbol
 _atom_site_label
 _atom_site_symmetry_multiplicity
 _atom_site_fract_x
 _atom_site_fract_y
 _atom_site_fract_z
 _atom_site_occupancy
  Sr2+  Sr0  1  0.11981275  0.13646596  0.12106867  1
  Sr2+  Sr1  1  0.12576626  0.13067471  0.62411607  1
  Sr2+  Sr2  1  0.12226817  0.62768891  0.12515300  1
  Sr2+  Sr3  1  0.12403171  0.63092388  0.61483729  1
  Sr2+  Sr4  1  0.63625497  0.12768124  0.12500081  1
  Sr2+  Sr5  1  0.63021897  0.13499383  0.62375009  1
  Sr2+  Sr6  1  0.63150310  0.63870883  0.12503797  1
  Sr2+  Sr7  1  0.63436365  0.64255194  0.62612248  1
  Sr2+  Sr8  1  0.38214009  0.38870559  0.12226089  1
  Sr2+  Sr9  1  0.38876852  0.38789762  0.62709423  1
  Sr2+  Sr10  1  0.38274378  0.88817381  0.12482902  1
  Sr2+  Sr11  1  0.37458408  0.88936724  0.62560879  1
  Sr2+  Sr12  1  0.86589399  0.38895531  0.13205521  1
  Sr2+  Sr13  1  0.86546075  0.39061586  0.62505049  1
  Sr2+  Sr14  1  0.87453428  0.87779703  0.12130640  1
  Sr2+  Sr15  1  0.88105559  0.86881619  0.62543584  1
  Sr2+  Sr16  1  0.11891184  0.36662110  0.37592579  1
  Sr2+  Sr17  1  0.12420866  0.36083337  0.87977776  1
  Sr2+  Sr18  1  0.12787217  0.87571277  0.37797547  1
  Sr2+  Sr19  1  0.12599051  0.87380441  0.87103472  1
  Sr2+  Sr20  1  0.62544973  0.36551302  0.37452741  1
  Sr2+  Sr21  1  0.61974956  0.37406172  0.87937700  1
  Sr2+  Sr22  1  0.60916609  0.87083307  0.37120223  1
  Sr2+  Sr23  1  0.61467281  0.86157364  0.86838903  1
  Sr2+  Sr24  1  0.36649502  0.11855690  0.36860835  1
  Sr2+  Sr25  1  0.35896755  0.12483547  0.87272424  1
  Sr2+  Sr26  1  0.36487437  0.62331562  0.37894879  1
  Sr2+  Sr27  1  0.37756249  0.62019987  0.88331122  1
  Sr2+  Sr28  1  0.88495746  0.11875698  0.37851148  1
  Sr2+  Sr29  1  0.88619173  0.11900042  0.87449215  1
  Sr2+  Sr30  1  0.88637728  0.61156082  0.36981150  1
  Sr2+  Sr31  1  0.87896168  0.61087846  0.86921700  1
  Sr2+  Sr32  1  0.12039955  0.12312005  0.37601731  1
  Sr2+  Sr33  1  0.12434673  0.12743377  0.87329485  1
  Sr2+  Sr34  1  0.12846328  0.59872911  0.37299430  1
  Sr2+  Sr35  1  0.12406251  0.62770656  0.87922176  1
  Sr2+  Sr36  1  0.62765994  0.12088906  0.38147942  1
  Sr2+  Sr37  1  0.62318292  0.12041998  0.87439660  1
  Sr2+  Sr38  1  0.61908151  0.63536850  0.37179177  1
  Sr2+  Sr39  1  0.62548635  0.61784656  0.87380730  1
  Sr2+  Sr40  1  0.36821050  0.37168247  0.36844492  1
  Sr2+  Sr41  1  0.37466080  0.37424911  0.87719831  1
  Sr2+  Sr42  1  0.37200383  0.86665882  0.37036347  1
  Sr2+  Sr43  1  0.36120116  0.86271117  0.87559597  1
  Sr2+  Sr44  1  0.87507679  0.37091147  0.37390335  1
  Sr2+  Sr45  1  0.86682096  0.37425033  0.86929603  1
  Sr2+  Sr46  1  0.88205500  0.87361318  0.37263324  1
  Sr2+  Sr47  1  0.87844519  0.87479386  0.87699793  1
  Sr2+  Sr48  1  0.13045088  0.38466981  0.13329761  1
  Sr2+  Sr49  1  0.12484998  0.39076374  0.62344881  1
  Sr2+  Sr50  1  0.12251043  0.88139150  0.12003011  1
  Sr2+  Sr51  1  0.12697839  0.88027840  0.62076899  1
  Sr2+  Sr52  1  0.62602290  0.38008456  0.12841865  1
  Sr2+  Sr53  1  0.63383785  0.37817859  0.62098868  1
  Sr2+  Sr54  1  0.63917028  0.88281589  0.13362837  1
  Sr2+  Sr55  1  0.63418399  0.88819281  0.62862835  1
  Sr2+  Sr56  1  0.38432714  0.13140485  0.12674568  1
  Sr2+  Sr57  1  0.38644446  0.12713183  0.63422055  1
  Sr2+  Sr58  1  0.37969583  0.62800987  0.12004861  1
  Sr2+  Sr59  1  0.37463902  0.63185590  0.62111548  1
  Sr2+  Sr60  1  0.86892751  0.12754822  0.11643109  1
  Sr2+  Sr61  1  0.86017196  0.13142103  0.61957171  1
  Sr2+  Sr62  1  0.87924502  0.63348209  0.12718569  1
  Sr2+  Sr63  1  0.88120697  0.62931915  0.63525411  1
  Ca2+  Ca64  1  -0.00319040  0.49975152  0.50208780  1
  Ca2+  Ca65  1  -0.00023487  0.49684885  -0.00042734  1
  Ca2+  Ca66  1  0.49905236  0.00172092  0.49877563  1
  Ca2+  Ca67  1  0.50109130  0.00099470  -0.00356675  1
  Ca2+  Ca68  1  0.50274343  0.50025791  0.49760536  1
  Ca2+  Ca69  1  0.25070225  0.24928072  0.00417698  1
  Ca2+  Ca70  1  0.75004737  0.75148140  0.49657840  1
  Ca2+  Ca71  1  0.74908856  0.74971677  -0.00352661  1
  Ca2+  Ca72  1  0.75047271  0.25134546  -0.00375947  1
  Ca2+  Ca73  1  0.25337318  0.24768653  0.50255907  1
  Ca2+  Ca74  1  0.75474908  0.00305418  0.25294370  1
  Ca2+  Ca75  1  0.25263875  0.49829313  0.24854941  1
  Ca2+  Ca76  1  0.74642515  0.50249787  0.25301491  1
  Ca2+  Ca77  1  -0.00163650  0.24997499  0.74740050  1
  Ca2+  Ca78  1  0.00234417  0.75359122  0.25193966  1
  Ca2+  Ca79  1  0.25063423  0.50343485  0.75033294  1
  Ca2+  Ca80  1  0.75366734  0.00412811  0.75221964  1
  Ca2+  Ca81  1  0.00211095  0.74982756  0.75419422  1
  Ca2+  Ca82  1  0.24832941  -0.00024389  0.24863234  1
  Ca2+  Ca83  1  0.49686607  0.75062508  0.75053933  1
  Ca2+  Ca84  1  -0.00263182  0.24559146  0.24874050  1
  Nb5+  Nb85  1  0.50165953  0.50080540  0.00071664  1
  Nb5+  Nb86  1  0.00066955  -0.00062924  0.49850044  1
  Nb5+  Nb87  1  0.00260191  0.00025768  -0.00581017  1
  Nb5+  Nb88  1  0.24783166  0.74928962  -0.00057293  1
  Nb5+  Nb89  1  0.24776176  0.75161881  0.49413699  1
  Nb5+  Nb90  1  0.75056441  0.25159774  0.49770433  1
  Nb5+  Nb91  1  0.24838783  -0.00163569  0.75123049  1
  Nb5+  Nb92  1  0.50208372  0.25022620  0.75659864  1
  Nb5+  Nb93  1  0.49631982  0.75545188  0.24784617  1
  Nb5+  Nb94  1  0.74547698  0.50369970  0.74838706  1
  Nb5+  Nb95  1  0.50068157  0.25444954  0.25433442  1
  Nb5+  Nb96  1  0.00281853  0.00063000  0.23940351  1
  Nb5+  Nb97  1  0.00068961  0.00344971  0.74177088  1
  Nb5+  Nb98  1  -0.00013053  0.49645946  0.24819049  1
  Nb5+  Nb99  1  0.00632328  0.49443845  0.75402692  1
  Nb5+  Nb100  1  0.50303365  0.01013024  0.24561357  1
  Nb5+  Nb101  1  0.50046712  -0.00200189  0.75750685  1
  Nb5+  Nb102  1  0.49921253  0.50769181  0.25132396  1
  Nb5+  Nb103  1  0.50315020  0.50355427  0.74629899  1
  Nb5+  Nb104  1  0.24675497  0.24902505  0.24970662  1
  Nb5+  Nb105  1  0.25057846  0.25630074  0.74393423  1
  Nb5+  Nb106  1  0.25097652  0.75001907  0.24129772  1
  Nb5+  Nb107  1  0.24728047  0.74790368  0.74238714  1
  Nb5+  Nb108  1  0.75282796  0.24624690  0.25034183  1
  Nb5+  Nb109  1  0.74636757  0.25095809  0.75245955  1
  Nb5+  Nb110  1  0.75342322  0.74834511  0.25375909  1
  Nb5+  Nb111  1  0.75132874  0.75561409  0.75044688  1
  Nb5+  Nb112  1  0.00108338  0.25248865  0.50736464  1
  Nb5+  Nb113  1  -0.00528939  0.25526077  1.00353216  1
  Nb5+  Nb114  1  -0.00191729  0.74671608  0.49529126  1
  Nb5+  Nb115  1  -0.00310961  0.74632824  0.99795369  1
  Nb5+  Nb116  1  0.49731796  0.24810248  0.50407657  1
  Nb5+  Nb117  1  0.50172198  0.25038101  1.00781584  1
  Nb5+  Nb118  1  0.49857822  0.75566086  0.50728919  1
  Nb5+  Nb119  1  0.49941984  0.75350557  1.00133242  1
  Nb5+  Nb120  1  0.24734948  0.00176763  0.00288828  1
  Nb5+  Nb121  1  0.25030772  0.00083075  0.50111252  1
  Nb5+  Nb122  1  0.24781696  0.49751936  -0.00332553  1
  Nb5+  Nb123  1  0.25351351  0.49260974  0.50477676  1
  Nb5+  Nb124  1  0.74613557  -0.00301658  -0.00714533  1
  Nb5+  Nb125  1  0.75127380  -0.00415856  0.49856605  1
  Nb5+  Nb126  1  0.75113211  0.50391148  0.00221355  1
  Nb5+  Nb127  1  0.74691211  0.50681731  0.49621909  1
  O2-  O128  1  0.02031044  -0.00055858  0.12300977  1
  O2-  O129  1  0.02558034  0.00098297  0.62758788  1
  O2-  O130  1  0.02975279  0.50181766  0.13217679  1
  O2-  O131  1  0.01843543  0.51824597  0.63664892  1
  O2-  O132  1  0.52287114  -0.01946468  0.13073638  1
  O2-  O133  1  0.50945055  -0.01761357  0.63851807  1
  O2-  O134  1  0.51706898  0.48486721  0.11794626  1
  O2-  O135  1  0.51839569  0.47564293  0.63469156  1
  O2-  O136  1  -0.01105756  -0.00440652  0.38229559  1
  O2-  O137  1  -0.01069407  -0.00255262  0.87672169  1
  O2-  O138  1  -0.02486187  0.48867105  0.36831843  1
  O2-  O139  1  -0.03126847  0.48207983  0.86726571  1
  O2-  O140  1  0.47807878  0.01590893  0.36174361  1
  O2-  O141  1  0.48455312  0.04309044  0.86514357  1
  O2-  O142  1  0.47530916  0.51481821  0.36240426  1
  O2-  O143  1  0.48820016  0.51010500  0.87495341  1
  O2-  O144  1  0.26043065  0.21267999  0.13615350  1
  O2-  O145  1  0.26698684  0.21475395  0.63620707  1
  O2-  O146  1  0.26810268  0.73243152  0.12741457  1
  O2-  O147  1  0.26373446  0.73865154  0.62741553  1
  O2-  O148  1  0.76428340  0.24799810  0.13457528  1
  O2-  O149  1  0.75671441  0.25000727  0.62246904  1
  O2-  O150  1  0.76580722  0.73634872  0.13339554  1
  O2-  O151  1  0.77003489  0.73504232  0.63285026  1
  O2-  O152  1  0.24621010  0.27895930  0.36860761  1
  O2-  O153  1  0.23824503  0.25650552  0.86276617  1
  O2-  O154  1  0.24081832  0.77049460  0.37998381  1
  O2-  O155  1  0.23312368  0.76135576  0.88362197  1
  O2-  O156  1  0.72851959  0.25039985  0.38038249  1
  O2-  O157  1  0.72051822  0.26221542  0.86281720  1
  O2-  O158  1  0.71315696  0.76163149  0.36553197  1
  O2-  O159  1  0.71592914  0.75071450  0.86347484  1
  O2-  O160  1  -0.01281309  0.22032385  0.11585183  1
  O2-  O161  1  -0.02051226  0.21892070  0.61643755  1
  O2-  O162  1  -0.02101981  0.75146453  0.11605034  1
  O2-  O163  1  -0.01359411  0.74471760  0.61543962  1
  O2-  O164  1  0.48053795  0.26480000  0.12214059  1
  O2-  O165  1  0.48284327  0.26243419  0.61929152  1
  O2-  O166  1  0.47167917  0.75378938  0.12665769  1
  O2-  O167  1  0.46484911  0.76187492  0.61722780  1
  O2-  O168  1  0.26896647  -0.01865012  0.38915125  1
  O2-  O169  1  0.26266537  -0.01889337  0.87416522  1
  O2-  O170  1  0.27590647  0.49546590  0.38667421  1
  O2-  O171  1  0.28346361  0.50154353  0.88278443  1
  O2-  O172  1  0.78628926  0.00535621  0.38683445  1
  O2-  O173  1  0.78979426  0.00256496  0.88260671  1
  O2-  O174  1  0.77874622  0.50010556  0.38622442  1
  O2-  O175  1  0.76137757  0.50309543  0.86889497  1
  O2-  O176  1  0.01306523  0.24680222  0.38851573  1
  O2-  O177  1  0.01922907  0.25137759  0.88490152  1
  O2-  O178  1  0.01652076  0.78125008  0.38522148  1
  O2-  O179  1  0.03539857  0.75839198  0.88765564  1
  O2-  O180  1  0.52259738  0.23870235  0.36731429  1
  O2-  O181  1  0.52357792  0.24216988  0.86985396  1
  O2-  O182  1  0.51298887  0.74306914  0.36694007  1
  O2-  O183  1  0.51595724  0.73119734  0.88828270  1
  O2-  O184  1  0.21881888  0.00634247  0.11424171  1
  O2-  O185  1  0.22944448  0.00223784  0.63227543  1
  O2-  O186  1  0.22816802  0.51436553  0.11265038  1
  O2-  O187  1  0.22103613  0.51743450  0.61702742  1
  O2-  O188  1  0.73935709  0.00601006  0.11305667  1
  O2-  O189  1  0.73478772  0.00986029  0.61612245  1
  O2-  O190  1  0.72955375  0.49226571  0.11536084  1
  O2-  O191  1  0.72559508  0.50050681  0.62852836  1
  O2-  O192  1  0.13411609  0.27102703  0.23720315  1
  O2-  O193  1  0.13685459  0.27350572  0.72734847  1
  O2-  O194  1  0.13840128  0.77205931  0.23031857  1
  O2-  O195  1  0.13597739  0.78452356  0.73888210  1
  O2-  O196  1  0.61758817  0.26918534  0.23023406  1
  O2-  O197  1  0.61695454  0.27066400  0.72620592  1
  O2-  O198  1  0.61224997  0.76537409  0.22572962  1
  O2-  O199  1  0.63088456  0.77398197  0.72314784  1
  O2-  O200  1  0.38505755  0.22567091  0.26171770  1
  O2-  O201  1  0.38246809  0.23046114  0.76333515  1
  O2-  O202  1  0.37936670  0.72507972  0.26549486  1
  O2-  O203  1  0.36075578  0.73098797  0.77586697  1
  O2-  O204  1  0.86283205  0.22381676  0.27335143  1
  O2-  O205  1  0.85978734  0.23364484  0.76786172  1
  O2-  O206  1  0.86421736  0.72873935  0.27845468  1
  O2-  O207  1  0.86437003  0.72678325  0.77416862  1
  O2-  O208  1  0.27953132  0.36197864  0.22647745  1
  O2-  O209  1  0.28147811  0.36627659  0.73195491  1
  O2-  O210  1  0.28487363  0.86291701  0.24305854  1
  O2-  O211  1  0.27516158  0.87578138  0.74291172  1
  O2-  O212  1  0.76223739  0.36456941  0.26099462  1
  O2-  O213  1  0.75980613  0.37696560  0.74200804  1
  O2-  O214  1  0.76116463  0.86646509  0.23740424  1
  O2-  O215  1  0.77540452  0.86906251  0.74426710  1
  O2-  O216  1  0.24112021  0.13307451  0.28507877  1
  O2-  O217  1  0.23794921  0.11591258  0.76753274  1
  O2-  O218  1  0.23899757  0.63614947  0.27305597  1
  O2-  O219  1  0.21539557  0.63738168  0.75691246  1
  O2-  O220  1  0.71346293  0.13498871  0.25639691  1
  O2-  O221  1  0.71926042  0.13757160  0.74879305  1
  O2-  O222  1  0.71554711  0.63377532  0.25527815  1
  O2-  O223  1  0.72353935  0.62028173  0.75017227  1
  O2-  O224  1  0.11827289  0.47157082  0.27257647  1
  O2-  O225  1  0.11699033  0.46750620  0.77154130  1
  O2-  O226  1  0.11535161  0.96434952  0.26400917  1
  O2-  O227  1  0.13032392  0.97782150  0.76402386  1
  O2-  O228  1  0.61022927  0.47179016  0.26171725  1
  O2-  O229  1  0.62420934  0.47885202  0.76993787  1
  O2-  O230  1  0.61575253  0.98137707  0.27073870  1
  O2-  O231  1  0.61600219  0.98482909  0.77219465  1
  O2-  O232  1  0.38458311  0.01500238  0.22091484  1
  O2-  O233  1  0.37128185  0.01519126  0.73640624  1
  O2-  O234  1  0.38650379  0.50974382  0.21632444  1
  O2-  O235  1  0.38802435  0.51966673  0.73056816  1
  O2-  O236  1  0.88951958  0.03869632  0.23824845  1
  O2-  O237  1  0.88978299  0.03402859  0.73218888  1
  O2-  O238  1  0.88186665  0.52346369  0.22484728  1
  O2-  O239  1  0.86275422  0.51643550  0.73357168  1
  O2-  O240  1  0.47831406  0.36972744  0.25792653  1
  O2-  O241  1  0.48101798  0.37069783  0.76321225  1
  O2-  O242  1  0.48039983  0.87073804  0.25804402  1
  O2-  O243  1  0.48006822  0.88658986  0.78398703  1
  O2-  O244  1  0.97020340  0.37909037  0.23921461  1
  O2-  O245  1  0.97137621  0.38270124  0.72989171  1
  O2-  O246  1  0.96295861  0.88774333  0.24564776  1
  O2-  O247  1  0.97740125  0.88715069  0.75182030  1
  O2-  O248  1  0.03902006  0.11324953  0.25503126  1
  O2-  O249  1  0.03469313  0.11531622  0.75823381  1
  O2-  O250  1  0.02180907  0.61671665  0.26263625  1
  O2-  O251  1  0.00859364  0.61334246  0.77413347  1
  O2-  O252  1  0.51808036  0.12683384  0.22801062  1
  O2-  O253  1  0.51591783  0.13286297  0.72813955  1
  O2-  O254  1  0.51919912  0.62251538  0.23583826  1
  O2-  O255  1  0.52771684  0.61596286  0.73752879  1
  O2-  O256  1  0.13617371  0.48479622  -0.03268078  1
  O2-  O257  1  0.13442170  0.47810719  0.47950656  1
  O2-  O258  1  0.12526822  0.97213402  -0.01593204  1
  O2-  O259  1  0.12497503  0.97537601  0.49276748  1
  O2-  O260  1  0.61850584  0.48500828  -0.01934945  1
  O2-  O261  1  0.63646732  0.46575599  0.48485812  1
  O2-  O262  1  0.63592774  0.97185863  -0.03157154  1
  O2-  O263  1  0.63889681  0.97910846  0.47590083  1
  O2-  O264  1  0.36280591  0.01276409  0.02042974  1
  O2-  O265  1  0.36251475  0.01576670  0.52962952  1
  O2-  O266  1  0.38065060  0.51759461  0.01587622  1
  O2-  O267  1  0.36804133  0.52186233  0.52681485  1
  O2-  O268  1  0.88840148  0.01783556  0.01684971  1
  O2-  O269  1  0.88622627  0.02071405  0.52240781  1
  O2-  O270  1  0.86339003  0.53167996  0.01485396  1
  O2-  O271  1  0.86074163  0.51994571  0.53183483  1
  O2-  O272  1  0.47968494  0.38000455  -0.01310124  1
  O2-  O273  1  0.48067093  0.36191866  0.47686046  1
  O2-  O274  1  0.47304518  0.86477739  -0.01567765  1
  O2-  O275  1  0.47786957  0.86793776  0.47576172  1
  O2-  O276  1  0.96146350  0.36441079  0.01408653  1
  O2-  O277  1  0.97268855  0.36406017  0.51477833  1
  O2-  O278  1  0.98783278  0.87607996  0.00251042  1
  O2-  O279  1  0.98438449  0.87981308  0.51365398  1
  O2-  O280  1  0.03146985  0.11455827  -0.00672441  1
  O2-  O281  1  0.02479931  0.11679755  0.49609695  1
  O2-  O282  1  0.02534052  0.63294090  0.00124125  1
  O2-  O283  1  0.02713916  0.63513219  0.48313688  1
  O2-  O284  1  0.52464051  0.13743032  0.01867133  1
  O2-  O285  1  0.53397253  0.13423534  0.50707527  1
  O2-  O286  1  0.51028767  0.62230822  0.01438695  1
  O2-  O287  1  0.51636639  0.63847735  0.50273838  1
  O2-  O288  1  0.11490731  0.27724934  0.02040541  1
  O2-  O289  1  0.11506372  0.27066942  0.52496522  1
  O2-  O290  1  0.13345998  0.76063442  0.02909891  1
  O2-  O291  1  0.13017100  0.76714085  0.51790416  1
  O2-  O292  1  0.61437556  0.28292245  0.01144196  1
  O2-  O293  1  0.62797272  0.26959168  0.51177236  1
  O2-  O294  1  0.61050456  0.77038841  0.02807061  1
  O2-  O295  1  0.61169719  0.77773037  0.52501149  1
  O2-  O296  1  0.38808042  0.23558714  -0.02400384  1
  O2-  O297  1  0.38842421  0.21551580  0.48254947  1
  O2-  O298  1  0.37049425  0.73076970  -0.01002918  1
  O2-  O299  1  0.36820256  0.73502538  0.48455976  1
  O2-  O300  1  0.88353900  0.21567940  -0.01702068  1
  O2-  O301  1  0.86914354  0.22893611  0.48537614  1
  O2-  O302  1  0.88617428  0.73106896  -0.02966808  1
  O2-  O303  1  0.88506283  0.72897283  0.47651226  1
  O2-  O304  1  0.27251723  0.38452287  0.00993476  1
  O2-  O305  1  0.27327529  0.38121478  0.52605738  1
  O2-  O306  1  0.26661212  0.86931851  0.01284788  1
  O2-  O307  1  0.26222457  0.87187027  0.52104424  1
  O2-  O308  1  0.76824373  0.38741563  -0.01251130  1
  O2-  O309  1  0.77233354  0.36947553  0.50107774  1
  O2-  O310  1  0.78072170  0.88239424  0.00247099  1
  O2-  O311  1  0.78213612  0.88467407  0.50985875  1
  O2-  O312  1  0.23195108  0.11308747  -0.02170995  1
  O2-  O313  1  0.22232774  0.11228689  0.49146581  1
  O2-  O314  1  0.23725897  0.62853552  -0.00926483  1
  O2-  O315  1  0.23274312  0.63328636  0.49033547  1
  O2-  O316  1  0.72463787  0.11650042  -0.00819239  1
  O2-  O317  1  0.73612383  0.12803710  0.50047135  1
  O2-  O318  1  0.71598489  0.61675430  -0.00659547  1
  O2-  O319  1  0.71386601  0.61712345  0.49484724  1
