# generated using pymatgen
data_Sr64Ca21Nb43O192
_symmetry_space_group_name_H-M   'P 1'
_cell_length_a   16.60285978
_cell_length_b   16.56291201
_cell_length_c   16.72695291
_cell_angle_alpha   90.06278456
_cell_angle_beta   90.02733461
_cell_angle_gamma   89.90204399
_symmetry_Int_Tables_number   1
_chemical_formula_structural   Sr64Ca21Nb43O192
_chemical_formula_sum   'Sr64 Ca21 Nb43 O192'
_cell_volume   4599.76330924
_cell_formula_units_Z   1
loop_
 _symmetry_equiv_pos_site_id
 _symmetry_equiv_pos_as_xyz
  1  'x, y, z'
loop_
 _atom_type_symbol
 _atom_type_oxidation_number
  Sr2+  2.0
  Ca2+  2.0
  Nb5+  5.0
  O2-  -2.0
loop_
 _atom_site_type_symbol
 _atom_site_label
 _atom_site_symmetry_multiplicity
 _atom_site_fract_x
 _atom_site_fract_y
 _atom_site_fract_z
 _atom_site_occupancy
  Sr2+  Sr0  1  0.13422210  0.12603205  0.12697088  1
  Sr2+  Sr1  1  0.13483706  0.13607284  0.62713356  1
  Sr2+  Sr2  1  0.13154584  0.63749660  0.12664975  1
  Sr2+  Sr3  1  0.12635168  0.63213570  0.62218410  1
  Sr2+  Sr4  1  0.63235439  0.14558839  0.12570146  1
  Sr2+  Sr5  1  0.62810093  0.12511790  0.62459532  1
  Sr2+  Sr6  1  0.62412491  0.62653770  0.12967697  1
  Sr2+  Sr7  1  0.63830805  0.63677042  0.62405233  1
  Sr2+  Sr8  1  0.38482131  0.39309515  0.13560231  1
  Sr2+  Sr9  1  0.38061825  0.37954772  0.62086581  1
  Sr2+  Sr10  1  0.37693508  0.88146428  0.11359778  1
  Sr2+  Sr11  1  0.38287167  0.88856638  0.62651666  1
  Sr2+  Sr12  1  0.87638670  0.37803693  0.11918234  1
  Sr2+  Sr13  1  0.88358694  0.38355410  0.62474011  1
  Sr2+  Sr14  1  0.88887291  0.88594760  0.13061505  1
  Sr2+  Sr15  1  0.87719399  0.87722082  0.62380212  1
  Sr2+  Sr16  1  0.12841470  0.37162579  0.37279922  1
  Sr2+  Sr17  1  0.11844090  0.36948051  0.88012241  1
  Sr2+  Sr18  1  0.10733183  0.86747310  0.37063613  1
  Sr2+  Sr19  1  0.13482702  0.86527139  0.87473783  1
  Sr2+  Sr20  1  0.60886001  0.36788462  0.36753404  1
  Sr2+  Sr21  1  0.60853356  0.36761035  0.87823482  1
  Sr2+  Sr22  1  0.62007292  0.87280104  0.38098165  1
  Sr2+  Sr23  1  0.61505270  0.87089895  0.87190948  1
  Sr2+  Sr24  1  0.36449177  0.11945652  0.37462423  1
  Sr2+  Sr25  1  0.37065279  0.11695071  0.87584890  1
  Sr2+  Sr26  1  0.36199216  0.61290434  0.36638401  1
  Sr2+  Sr27  1  0.37240171  0.62197262  0.87895082  1
  Sr2+  Sr28  1  0.86044755  0.11663520  0.37037162  1
  Sr2+  Sr29  1  0.86279324  0.11590707  0.87928836  1
  Sr2+  Sr30  1  0.87113430  0.62647409  0.36993529  1
  Sr2+  Sr31  1  0.86641369  0.61648172  0.87381330  1
  Sr2+  Sr32  1  0.12182295  0.11961853  0.37757449  1
  Sr2+  Sr33  1  0.11346962  0.11575818  0.87144050  1
  Sr2+  Sr34  1  0.11350963  0.61307079  0.36779184  1
  Sr2+  Sr35  1  0.12647160  0.61248675  0.87785209  1
  Sr2+  Sr36  1  0.61748727  0.11253818  0.36443638  1
  Sr2+  Sr37  1  0.61770343  0.11697830  0.87724448  1
  Sr2+  Sr38  1  0.61684091  0.61647646  0.37667526  1
  Sr2+  Sr39  1  0.61724415  0.60819524  0.87404952  1
  Sr2+  Sr40  1  0.36377031  0.36374065  0.36955804  1
  Sr2+  Sr41  1  0.37300813  0.36606028  0.87704672  1
  Sr2+  Sr42  1  0.37182108  0.87261525  0.38458878  1
  Sr2+  Sr43  1  0.36689122  0.85662713  0.87032859  1
  Sr2+  Sr44  1  0.86880083  0.36111848  0.37407857  1
  Sr2+  Sr45  1  0.87046912  0.36520872  0.87634920  1
  Sr2+  Sr46  1  0.86761455  0.86647285  0.36646723  1
  Sr2+  Sr47  1  0.86386134  0.86883910  0.88569740  1
  Sr2+  Sr48  1  0.13576550  0.38309857  0.12270039  1
  Sr2+  Sr49  1  0.13394294  0.37991090  0.62004562  1
  Sr2+  Sr50  1  0.13828991  0.87994997  0.12220346  1
  Sr2+  Sr51  1  0.13892324  0.88253876  0.62869414  1
  Sr2+  Sr52  1  0.63908907  0.38103634  0.13020245  1
  Sr2+  Sr53  1  0.64282959  0.37891249  0.62698739  1
  Sr2+  Sr54  1  0.63331871  0.88156079  0.12106347  1
  Sr2+  Sr55  1  0.62909651  0.88036866  0.62235547  1
  Sr2+  Sr56  1  0.38422131  0.12370962  0.12204131  1
  Sr2+  Sr57  1  0.38213613  0.13144094  0.62284956  1
  Sr2+  Sr58  1  0.39321942  0.63851779  0.12966583  1
  Sr2+  Sr59  1  0.38828592  0.63624560  0.62676278  1
  Sr2+  Sr60  1  0.87777859  0.13022621  0.13447665  1
  Sr2+  Sr61  1  0.88967190  0.13117602  0.62793081  1
  Sr2+  Sr62  1  0.88804099  0.63057107  0.11896773  1
  Sr2+  Sr63  1  0.87882349  0.63077144  0.62535493  1
  Ca2+  Ca64  1  -0.00293200  0.00079907  0.49940792  1
  Ca2+  Ca65  1  0.00047341  0.00002972  0.00004867  1
  Ca2+  Ca66  1  0.50047986  0.49808157  0.50118579  1
  Ca2+  Ca67  1  0.50200773  0.49895739  0.00268818  1
  Ca2+  Ca68  1  0.50121289  -0.00225747  -0.00341254  1
  Ca2+  Ca69  1  0.74957700  0.25100216  -0.00321083  1
  Ca2+  Ca70  1  0.75303946  0.74883468  -0.00022951  1
  Ca2+  Ca71  1  0.24887097  0.75003221  0.49579216  1
  Ca2+  Ca72  1  0.74738317  0.25070238  0.49865089  1
  Ca2+  Ca73  1  0.25078897  0.25162680  -0.00249309  1
  Ca2+  Ca74  1  0.74734972  -0.00275277  0.25085124  1
  Ca2+  Ca75  1  0.00125662  0.25267913  0.25120946  1
  Ca2+  Ca76  1  0.50242132  0.74838895  0.74979806  1
  Ca2+  Ca77  1  0.24698035  0.50162073  0.24723333  1
  Ca2+  Ca78  1  0.00087016  0.75090450  0.75124172  1
  Ca2+  Ca79  1  0.25037596  0.00002449  0.75066522  1
  Ca2+  Ca80  1  0.25133133  -0.00170226  0.25072636  1
  Ca2+  Ca81  1  0.24851983  0.49808012  0.74871189  1
  Ca2+  Ca82  1  0.49656488  0.24777728  0.25098473  1
  Ca2+  Ca83  1  0.50152053  0.75737857  0.25332930  1
  Ca2+  Ca84  1  0.75307032  0.50303739  0.25411359  1
  Nb5+  Nb85  1  -0.00082964  0.50040011  -0.00722365  1
  Nb5+  Nb86  1  -0.00240847  0.49997947  0.49388385  1
  Nb5+  Nb87  1  0.49858576  0.00276000  0.50042612  1
  Nb5+  Nb88  1  0.25021319  0.24919875  0.50093073  1
  Nb5+  Nb89  1  0.75107331  0.75272077  0.50070623  1
  Nb5+  Nb90  1  0.25366675  0.74525135  0.00209227  1
  Nb5+  Nb91  1  0.00033215  0.74918152  0.24661954  1
  Nb5+  Nb92  1  0.50686545  0.25029123  0.74727341  1
  Nb5+  Nb93  1  0.75152760  -0.00650285  0.75080797  1
  Nb5+  Nb94  1  0.75146386  0.49334356  0.74982582  1
  Nb5+  Nb95  1  0.00699006  0.25233504  0.74794229  1
  Nb5+  Nb96  1  0.00404072  0.00622330  0.24875999  1
  Nb5+  Nb97  1  -0.00397441  -0.00774905  0.75351534  1
  Nb5+  Nb98  1  -0.00455786  0.49692690  0.24099094  1
  Nb5+  Nb99  1  0.00244865  0.49884087  0.74394516  1
  Nb5+  Nb100  1  0.49973177  -0.00314400  0.24271651  1
  Nb5+  Nb101  1  0.49808793  0.00193974  0.74974425  1
  Nb5+  Nb102  1  0.50173368  0.50337087  0.25418607  1
  Nb5+  Nb103  1  0.49733655  0.50084218  0.74248863  1
  Nb5+  Nb104  1  0.25014926  0.24645744  0.24205459  1
  Nb5+  Nb105  1  0.25793690  0.25051541  0.75050422  1
  Nb5+  Nb106  1  0.25334685  0.75366271  0.25418209  1
  Nb5+  Nb107  1  0.25040654  0.74337708  0.74239004  1
  Nb5+  Nb108  1  0.75083679  0.25335217  0.25199614  1
  Nb5+  Nb109  1  0.75532043  0.24185381  0.75093734  1
  Nb5+  Nb110  1  0.74866890  0.74762385  0.24333455  1
  Nb5+  Nb111  1  0.75013120  0.74469015  0.75295148  1
  Nb5+  Nb112  1  0.00110858  0.24793701  0.49935082  1
  Nb5+  Nb113  1  0.00098354  0.24760246  1.00336109  1
  Nb5+  Nb114  1  -0.00237949  0.75302196  0.49975846  1
  Nb5+  Nb115  1  0.00399430  0.74840317  0.99401555  1
  Nb5+  Nb116  1  0.50110303  0.25021261  0.50126663  1
  Nb5+  Nb117  1  0.49450259  0.25187369  1.00752212  1
  Nb5+  Nb118  1  0.49878925  0.74578638  0.49962102  1
  Nb5+  Nb119  1  0.50787886  0.75168294  1.00021382  1
  Nb5+  Nb120  1  0.24737786  0.00366524  -0.00539570  1
  Nb5+  Nb121  1  0.24533032  -0.00410916  0.50056596  1
  Nb5+  Nb122  1  0.25735131  0.50098512  0.00567829  1
  Nb5+  Nb123  1  0.25020817  0.50493753  0.50120106  1
  Nb5+  Nb124  1  0.74778578  0.00284093  0.00755391  1
  Nb5+  Nb125  1  0.74925416  0.00388191  0.50184532  1
  Nb5+  Nb126  1  0.74857545  0.50179688  -0.00010886  1
  Nb5+  Nb127  1  0.75353956  0.49910247  0.49835434  1
  O2-  O128  1  0.01701613  -0.02774266  0.13430166  1
  O2-  O129  1  -0.00002044  -0.02001949  0.63590455  1
  O2-  O130  1  0.00840242  0.48193994  0.12581346  1
  O2-  O131  1  0.01332733  0.48101371  0.62949737  1
  O2-  O132  1  0.51014825  -0.03219319  0.13279287  1
  O2-  O133  1  0.51948955  -0.01229679  0.62893011  1
  O2-  O134  1  0.52300554  0.47765345  0.13668608  1
  O2-  O135  1  0.52185204  0.46248325  0.63393877  1
  O2-  O136  1  -0.01754237  0.02472154  0.36597963  1
  O2-  O137  1  -0.01697760  0.03148968  0.86388215  1
  O2-  O138  1  -0.01933889  0.51548307  0.38158597  1
  O2-  O139  1  -0.01560861  0.51571677  0.87677727  1
  O2-  O140  1  0.48836464  0.02630259  0.38854020  1
  O2-  O141  1  0.49413830  0.03027886  0.86235459  1
  O2-  O142  1  0.48341184  0.52994925  0.37134544  1
  O2-  O143  1  0.48888163  0.51347979  0.86038656  1
  O2-  O144  1  0.26221365  0.21780478  0.13117863  1
  O2-  O145  1  0.26080875  0.22682589  0.62369455  1
  O2-  O146  1  0.26009479  0.72500122  0.12117404  1
  O2-  O147  1  0.26047230  0.71909449  0.62942031  1
  O2-  O148  1  0.76721092  0.23002139  0.13212277  1
  O2-  O149  1  0.76288038  0.23393443  0.63487393  1
  O2-  O150  1  0.75990718  0.71472832  0.13419921  1
  O2-  O151  1  0.77035154  0.73867554  0.62578503  1
  O2-  O152  1  0.23534972  0.26537732  0.38567531  1
  O2-  O153  1  0.23843333  0.27979341  0.86049890  1
  O2-  O154  1  0.23700297  0.78760989  0.36337706  1
  O2-  O155  1  0.24098474  0.75966005  0.88080023  1
  O2-  O156  1  0.73359178  0.28367471  0.36828187  1
  O2-  O157  1  0.73012116  0.27730860  0.85916099  1
  O2-  O158  1  0.74258187  0.77355488  0.38562159  1
  O2-  O159  1  0.73865437  0.77831085  0.86314133  1
  O2-  O160  1  -0.02687985  0.25993477  0.11368260  1
  O2-  O161  1  -0.01969783  0.26593896  0.62691308  1
  O2-  O162  1  -0.01498277  0.75627513  0.12895770  1
  O2-  O163  1  -0.02498132  0.75604398  0.61402282  1
  O2-  O164  1  0.46273960  0.26225143  0.11675854  1
  O2-  O165  1  0.47198193  0.25837991  0.62926950  1
  O2-  O166  1  0.47920400  0.76954416  0.11508028  1
  O2-  O167  1  0.47968687  0.77160920  0.61436012  1
  O2-  O168  1  0.28151616  -0.00672446  0.38854964  1
  O2-  O169  1  0.27430035  -0.02518532  0.88159859  1
  O2-  O170  1  0.26086443  0.47658312  0.38637267  1
  O2-  O171  1  0.26848702  0.48893574  0.88731571  1
  O2-  O172  1  0.76453614  -0.01982043  0.38967779  1
  O2-  O173  1  0.76941524  -0.01350227  0.86649524  1
  O2-  O174  1  0.78933083  0.49336436  0.39064180  1
  O2-  O175  1  0.77769705  0.48965260  0.86427905  1
  O2-  O176  1  0.03123034  0.24735516  0.38830536  1
  O2-  O177  1  0.02386445  0.24487820  0.86488092  1
  O2-  O178  1  0.01118123  0.73049191  0.37587858  1
  O2-  O179  1  0.03031605  0.73165624  0.88471209  1
  O2-  O180  1  0.51997063  0.22893829  0.39007070  1
  O2-  O181  1  0.52032837  0.23564203  0.86259224  1
  O2-  O182  1  0.53659502  0.74706778  0.38896377  1
  O2-  O183  1  0.51210609  0.72111099  0.88350792  1
  O2-  O184  1  0.22601909  0.00992592  0.11284663  1
  O2-  O185  1  0.22838038  0.01637005  0.61629194  1
  O2-  O186  1  0.21348912  0.51331282  0.11510219  1
  O2-  O187  1  0.21329221  0.50892465  0.61293857  1
  O2-  O188  1  0.71886398  0.01617894  0.11768774  1
  O2-  O189  1  0.72841289  0.00743517  0.62809631  1
  O2-  O190  1  0.73078810  0.51577805  0.11280635  1
  O2-  O191  1  0.73727770  0.51841665  0.63128930  1
  O2-  O192  1  0.13416623  0.27950420  0.23581197  1
  O2-  O193  1  0.11912826  0.27069876  0.72803464  1
  O2-  O194  1  0.11897034  0.76924922  0.23650620  1
  O2-  O195  1  0.13405700  0.77761497  0.73493042  1
  O2-  O196  1  0.63190684  0.27080567  0.23083061  1
  O2-  O197  1  0.62157337  0.26562508  0.72700587  1
  O2-  O198  1  0.63741683  0.77658988  0.23288384  1
  O2-  O199  1  0.63687847  0.76748353  0.72559555  1
  O2-  O200  1  0.36259318  0.23266735  0.27829995  1
  O2-  O201  1  0.37257229  0.22871055  0.76435661  1
  O2-  O202  1  0.36517294  0.72828574  0.26660972  1
  O2-  O203  1  0.36690962  0.72174450  0.76584604  1
  O2-  O204  1  0.86880331  0.23095982  0.27613347  1
  O2-  O205  1  0.87108807  0.23368403  0.76747260  1
  O2-  O206  1  0.88031957  0.73110334  0.26213017  1
  O2-  O207  1  0.86647010  0.72755073  0.76474927  1
  O2-  O208  1  0.27240801  0.36621861  0.23318581  1
  O2-  O209  1  0.26525265  0.36376817  0.71805766  1
  O2-  O210  1  0.26497732  0.86409667  0.21399850  1
  O2-  O211  1  0.27509423  0.86282999  0.73197701  1
  O2-  O212  1  0.77437602  0.37058123  0.22770009  1
  O2-  O213  1  0.76754325  0.37853771  0.72941331  1
  O2-  O214  1  0.78107235  0.86174738  0.23735471  1
  O2-  O215  1  0.76941532  0.87961350  0.73261406  1
  O2-  O216  1  0.22024811  0.13417715  0.27078211  1
  O2-  O217  1  0.22150409  0.13749096  0.76363287  1
  O2-  O218  1  0.22319606  0.63820880  0.26809965  1
  O2-  O219  1  0.21934775  0.63069351  0.76601489  1
  O2-  O220  1  0.73417559  0.13356292  0.27330727  1
  O2-  O221  1  0.73086203  0.12840764  0.76621218  1
  O2-  O222  1  0.73513716  0.63910662  0.28700903  1
  O2-  O223  1  0.73133437  0.62715843  0.76408818  1
  O2-  O224  1  0.10899460  0.48632144  0.27285543  1
  O2-  O225  1  0.11139128  0.47353336  0.77171094  1
  O2-  O226  1  0.11630993  0.97736404  0.27419680  1
  O2-  O227  1  0.11070080  0.97715741  0.76489491  1
  O2-  O228  1  0.62002340  0.48621361  0.27865300  1
  O2-  O229  1  0.63456383  0.48038968  0.76793342  1
  O2-  O230  1  0.61398909  0.97855184  0.27697667  1
  O2-  O231  1  0.63054618  0.98977994  0.76445665  1
  O2-  O232  1  0.38508458  0.03149870  0.23927442  1
  O2-  O233  1  0.38578087  0.02084752  0.72933129  1
  O2-  O234  1  0.38270985  0.52384819  0.23090193  1
  O2-  O235  1  0.38484254  0.51482740  0.72105945  1
  O2-  O236  1  0.88383196  0.01102822  0.23053196  1
  O2-  O237  1  0.86565500  0.02720924  0.73450116  1
  O2-  O238  1  0.88557217  0.53684365  0.23666111  1
  O2-  O239  1  0.87617414  0.51487028  0.73432516  1
  O2-  O240  1  0.47911387  0.38476118  0.27523225  1
  O2-  O241  1  0.48216508  0.36778372  0.76581430  1
  O2-  O242  1  0.47151748  0.88854201  0.28139489  1
  O2-  O243  1  0.48864541  0.88691743  0.76858452  1
  O2-  O244  1  0.96787560  0.38761321  0.26285639  1
  O2-  O245  1  0.97434190  0.37185261  0.76067148  1
  O2-  O246  1  0.98305935  0.86594186  0.26931643  1
  O2-  O247  1  0.96286432  0.88448844  0.77283683  1
  O2-  O248  1  0.02193626  0.11829164  0.22571005  1
  O2-  O249  1  0.01210914  0.13382936  0.73024882  1
  O2-  O250  1  0.02164052  0.62789052  0.23914705  1
  O2-  O251  1  0.01831811  0.61278990  0.73457069  1
  O2-  O252  1  0.52826637  0.11479275  0.23200025  1
  O2-  O253  1  0.51789997  0.12946995  0.72906088  1
  O2-  O254  1  0.52313407  0.62216640  0.23443325  1
  O2-  O255  1  0.52540519  0.61143581  0.72284257  1
  O2-  O256  1  0.11693152  0.48425821  -0.01953407  1
  O2-  O257  1  0.11481708  0.48083913  0.48337676  1
  O2-  O258  1  0.13325259  0.97358903  -0.02394645  1
  O2-  O259  1  0.13374722  0.97810869  0.47773458  1
  O2-  O260  1  0.63774542  0.48222150  -0.02833330  1
  O2-  O261  1  0.64015829  0.48610137  0.47820641  1
  O2-  O262  1  0.63656535  0.97129275  -0.02348867  1
  O2-  O263  1  0.62127295  0.98253485  0.49339724  1
  O2-  O264  1  0.36566649  0.01285966  0.01982585  1
  O2-  O265  1  0.38167822  0.01357391  0.52533220  1
  O2-  O266  1  0.36664676  0.52685632  0.02726304  1
  O2-  O267  1  0.36199024  0.51984675  0.52594508  1
  O2-  O268  1  0.86564367  0.03107475  0.01610609  1
  O2-  O269  1  0.86105641  0.02349617  0.52266402  1
  O2-  O270  1  0.87921949  0.52175624  0.01247627  1
  O2-  O271  1  0.88142112  0.51431936  0.52887906  1
  O2-  O272  1  0.48158545  0.36681408  -0.02497912  1
  O2-  O273  1  0.47225983  0.36185343  0.48387268  1
  O2-  O274  1  0.47744527  0.86339987  -0.03046918  1
  O2-  O275  1  0.48687550  0.88180798  0.48906692  1
  O2-  O276  1  0.97864535  0.38303869  -0.01295764  1
  O2-  O277  1  0.98228956  0.37759057  0.49384238  1
  O2-  O278  1  0.98268186  0.86148708  -0.01345053  1
  O2-  O279  1  0.97447645  0.86434302  0.47806590  1
  O2-  O280  1  0.03209649  0.13669967  0.00968362  1
  O2-  O281  1  0.02022308  0.13602425  0.52372000  1
  O2-  O282  1  0.01902598  0.61888882  0.02026705  1
  O2-  O283  1  0.01443772  0.61955379  0.51412252  1
  O2-  O284  1  0.51996074  0.13454351  0.01463094  1
  O2-  O285  1  0.51114388  0.12391982  0.52614169  1
  O2-  O286  1  0.51960241  0.63313615  0.02395847  1
  O2-  O287  1  0.52054299  0.63479406  0.52516056  1
  O2-  O288  1  0.11371689  0.28541392  0.00846440  1
  O2-  O289  1  0.12867257  0.26500192  0.52341756  1
  O2-  O290  1  0.12500338  0.75935147  0.02102242  1
  O2-  O291  1  0.11176679  0.76836186  0.51576374  1
  O2-  O292  1  0.61324826  0.27456709  0.01972072  1
  O2-  O293  1  0.61084150  0.26794370  0.52988598  1
  O2-  O294  1  0.61983063  0.77661998  0.01331545  1
  O2-  O295  1  0.63367385  0.76414734  0.52281514  1
  O2-  O296  1  0.38355934  0.23057111  -0.03321175  1
  O2-  O297  1  0.36968082  0.22795054  0.49116672  1
  O2-  O298  1  0.36943275  0.72795145  -0.01113926  1
  O2-  O299  1  0.38705916  0.73122681  0.47158022  1
  O2-  O300  1  0.88924174  0.23822460  -0.03399767  1
  O2-  O301  1  0.88701248  0.23318078  0.47992303  1
  O2-  O302  1  0.88969887  0.72258996  -0.01522315  1
  O2-  O303  1  0.87154970  0.73005430  0.48565963  1
  O2-  O304  1  0.27099814  0.38576024  0.02410084  1
  O2-  O305  1  0.26428977  0.36890524  0.51840945  1
  O2-  O306  1  0.26247914  0.86371218  0.01412390  1
  O2-  O307  1  0.27120933  0.88363963  0.52373515  1
  O2-  O308  1  0.77796299  0.38688581  0.00558977  1
  O2-  O309  1  0.76845395  0.38729652  0.52659045  1
  O2-  O310  1  0.78133193  0.88593603  0.01758910  1
  O2-  O311  1  0.76417377  0.87281466  0.52225063  1
  O2-  O312  1  0.23060264  0.11617877  -0.02903664  1
  O2-  O313  1  0.23209576  0.12621320  0.48679077  1
  O2-  O314  1  0.22975436  0.62484524  -0.01479717  1
  O2-  O315  1  0.22646476  0.61512926  0.47477512  1
  O2-  O316  1  0.72918342  0.11675260  -0.02616659  1
  O2-  O317  1  0.72175771  0.11530813  0.48514209  1
  O2-  O318  1  0.74040309  0.61571747  -0.03357523  1
  O2-  O319  1  0.73786721  0.62793648  0.49581932  1
