# generated using pymatgen
data_Sr64Ca21Nb43O192
_symmetry_space_group_name_H-M   'P 1'
_cell_length_a   16.58706272
_cell_length_b   16.61333424
_cell_length_c   16.73469321
_cell_angle_alpha   89.95823850
_cell_angle_beta   90.00323712
_cell_angle_gamma   89.93371310
_symmetry_Int_Tables_number   1
_chemical_formula_structural   Sr64Ca21Nb43O192
_chemical_formula_sum   'Sr64 Ca21 Nb43 O192'
_cell_volume   4611.51512999
_cell_formula_units_Z   1
loop_
 _symmetry_equiv_pos_site_id
 _symmetry_equiv_pos_as_xyz
  1  'x, y, z'
loop_
 _atom_type_symbol
 _atom_type_oxidation_number
  Sr2+  2.0
  Ca2+  2.0
  Nb5+  5.0
  O2-  -2.0
loop_
 _atom_site_type_symbol
 _atom_site_label
 _atom_site_symmetry_multiplicity
 _atom_site_fract_x
 _atom_site_fract_y
 _atom_site_fract_z
 _atom_site_occupancy
  Sr2+  Sr0  1  0.12802942  0.12102145  0.13157403  1
  Sr2+  Sr1  1  0.12543271  0.12556096  0.63466132  1
  Sr2+  Sr2  1  0.12610336  0.61300729  0.12203842  1
  Sr2+  Sr3  1  0.12027746  0.60904248  0.63344088  1
  Sr2+  Sr4  1  0.63119675  0.12906101  0.12226766  1
  Sr2+  Sr5  1  0.63132036  0.13265337  0.63113077  1
  Sr2+  Sr6  1  0.63303915  0.61403084  0.13142879  1
  Sr2+  Sr7  1  0.62732610  0.61773729  0.62490340  1
  Sr2+  Sr8  1  0.37533452  0.36624039  0.12308356  1
  Sr2+  Sr9  1  0.38014723  0.37417256  0.61996139  1
  Sr2+  Sr10  1  0.37626019  0.86547380  0.12307575  1
  Sr2+  Sr11  1  0.37043104  0.85905868  0.62614223  1
  Sr2+  Sr12  1  0.86220098  0.37263372  0.12290907  1
  Sr2+  Sr13  1  0.86904477  0.37777692  0.62635509  1
  Sr2+  Sr14  1  0.87927493  0.86634288  0.12948037  1
  Sr2+  Sr15  1  0.87213377  0.89125216  0.62343829  1
  Sr2+  Sr16  1  0.12912128  0.37891832  0.36994679  1
  Sr2+  Sr17  1  0.12933234  0.37851640  0.87507933  1
  Sr2+  Sr18  1  0.13622207  0.87952135  0.37468253  1
  Sr2+  Sr19  1  0.13236300  0.88306768  0.88069939  1
  Sr2+  Sr20  1  0.61232652  0.37975929  0.37948523  1
  Sr2+  Sr21  1  0.62308253  0.37743340  0.88840225  1
  Sr2+  Sr22  1  0.63939181  0.87830119  0.37786545  1
  Sr2+  Sr23  1  0.61501609  0.88108312  0.87306648  1
  Sr2+  Sr24  1  0.37322303  0.12777112  0.36516535  1
  Sr2+  Sr25  1  0.37371307  0.13060912  0.86791248  1
  Sr2+  Sr26  1  0.36348067  0.62949100  0.38190917  1
  Sr2+  Sr27  1  0.36583071  0.63251926  0.86963898  1
  Sr2+  Sr28  1  0.88205680  0.13575076  0.38204196  1
  Sr2+  Sr29  1  0.88420292  0.13481942  0.87761168  1
  Sr2+  Sr30  1  0.88815446  0.63481542  0.37128324  1
  Sr2+  Sr31  1  0.89067098  0.62678034  0.86914198  1
  Sr2+  Sr32  1  0.13302423  0.14097345  0.37434552  1
  Sr2+  Sr33  1  0.13321196  0.14010358  0.87464194  1
  Sr2+  Sr34  1  0.12656543  0.60951115  0.37142103  1
  Sr2+  Sr35  1  0.12817361  0.59917537  0.87302565  1
  Sr2+  Sr36  1  0.61905268  0.13637685  0.38229186  1
  Sr2+  Sr37  1  0.62122226  0.12534912  0.88394785  1
  Sr2+  Sr38  1  0.62318099  0.62801228  0.37069835  1
  Sr2+  Sr39  1  0.62447963  0.63054084  0.86541712  1
  Sr2+  Sr40  1  0.36669792  0.38322215  0.38174646  1
  Sr2+  Sr41  1  0.36203091  0.38600268  0.87801913  1
  Sr2+  Sr42  1  0.36769860  0.88564622  0.37389209  1
  Sr2+  Sr43  1  0.36996277  0.88375876  0.87413899  1
  Sr2+  Sr44  1  0.87270751  0.38509360  0.37724109  1
  Sr2+  Sr45  1  0.87232330  0.38913058  0.87382985  1
  Sr2+  Sr46  1  0.87282936  0.88259578  0.38549094  1
  Sr2+  Sr47  1  0.87834893  0.88730760  0.88252655  1
  Sr2+  Sr48  1  0.11749172  0.36932628  0.12439626  1
  Sr2+  Sr49  1  0.10924141  0.36587327  0.62849084  1
  Sr2+  Sr50  1  0.12424509  0.86759566  0.12391403  1
  Sr2+  Sr51  1  0.12104638  0.87072966  0.63398314  1
  Sr2+  Sr52  1  0.63108941  0.37116578  0.13429652  1
  Sr2+  Sr53  1  0.63111821  0.37686778  0.62765939  1
  Sr2+  Sr54  1  0.63424040  0.87306481  0.11871458  1
  Sr2+  Sr55  1  0.63979016  0.87098977  0.62358830  1
  Sr2+  Sr56  1  0.38713467  0.11382851  0.12606889  1
  Sr2+  Sr57  1  0.38371272  0.11433441  0.62714856  1
  Sr2+  Sr58  1  0.38891239  0.61912377  0.12399366  1
  Sr2+  Sr59  1  0.38542090  0.61841414  0.62642347  1
  Sr2+  Sr60  1  0.88321181  0.11858991  0.12269765  1
  Sr2+  Sr61  1  0.88252191  0.12480132  0.61915227  1
  Sr2+  Sr62  1  0.87874509  0.62281375  0.13265122  1
  Sr2+  Sr63  1  0.86846468  0.61859607  0.62942441  1
  Ca2+  Ca64  1  -0.00312733  0.50081002  0.49764909  1
  Ca2+  Ca65  1  0.00628574  -0.00096217  0.49811711  1
  Ca2+  Ca66  1  0.50143883  0.50067149  0.00013584  1
  Ca2+  Ca67  1  0.49779935  -0.00218522  0.50033374  1
  Ca2+  Ca68  1  -0.00085904  0.49750235  0.00081551  1
  Ca2+  Ca69  1  0.75075202  0.75240257  0.00164364  1
  Ca2+  Ca70  1  0.25049825  0.75127607  0.50041521  1
  Ca2+  Ca71  1  0.25043794  0.24716276  0.50429997  1
  Ca2+  Ca72  1  0.24752219  0.74911293  0.00024729  1
  Ca2+  Ca73  1  0.25007877  0.24975801  0.00273314  1
  Ca2+  Ca74  1  0.74581493  0.00476100  0.75377837  1
  Ca2+  Ca75  1  0.25551298  0.50101600  0.24730195  1
  Ca2+  Ca76  1  0.50105904  0.24796624  0.24948385  1
  Ca2+  Ca77  1  0.75204453  0.49803230  0.25214116  1
  Ca2+  Ca78  1  -0.00412648  0.24944584  0.75230880  1
  Ca2+  Ca79  1  0.74665534  0.49926496  0.75135231  1
  Ca2+  Ca80  1  0.25414467  0.49979337  0.74491386  1
  Ca2+  Ca81  1  0.00105243  0.75148274  0.75167613  1
  Ca2+  Ca82  1  0.50238409  0.25110367  0.75183054  1
  Ca2+  Ca83  1  0.74822906  0.00534141  0.25054746  1
  Ca2+  Ca84  1  -0.00386948  0.24614017  0.24950355  1
  Nb5+  Nb85  1  0.50284017  -0.00309868  0.00144655  1
  Nb5+  Nb86  1  0.00864526  -0.00018361  -0.00045398  1
  Nb5+  Nb87  1  0.50030144  0.50079795  0.49846662  1
  Nb5+  Nb88  1  0.74844402  0.25601294  0.50531418  1
  Nb5+  Nb89  1  0.75355540  0.74878059  0.50191939  1
  Nb5+  Nb90  1  0.75050324  0.24916083  0.00472243  1
  Nb5+  Nb91  1  0.50591452  0.75328562  0.24492128  1
  Nb5+  Nb92  1  0.01223730  0.75112611  0.25195235  1
  Nb5+  Nb93  1  0.24934731  0.00114007  0.75482856  1
  Nb5+  Nb94  1  0.50288893  0.75245694  0.74137364  1
  Nb5+  Nb95  1  0.24992044  -0.00029934  0.25170758  1
  Nb5+  Nb96  1  0.00275707  -0.00412485  0.25221513  1
  Nb5+  Nb97  1  -0.00264874  0.00264353  0.75179094  1
  Nb5+  Nb98  1  -0.00010071  0.49346741  0.24401434  1
  Nb5+  Nb99  1  -0.00104699  0.49876601  0.74713446  1
  Nb5+  Nb100  1  0.50354163  -0.00367209  0.24990658  1
  Nb5+  Nb101  1  0.49859578  -0.00446966  0.74545813  1
  Nb5+  Nb102  1  0.49519660  0.49494609  0.25024667  1
  Nb5+  Nb103  1  0.50019716  0.49784777  0.75441195  1
  Nb5+  Nb104  1  0.25294377  0.25390165  0.24807781  1
  Nb5+  Nb105  1  0.25435057  0.25563170  0.74728114  1
  Nb5+  Nb106  1  0.25769010  0.74782602  0.24907434  1
  Nb5+  Nb107  1  0.24481589  0.75226653  0.75319008  1
  Nb5+  Nb108  1  0.74945899  0.24705792  0.26166734  1
  Nb5+  Nb109  1  0.75035455  0.25108810  0.76300445  1
  Nb5+  Nb110  1  0.75578502  0.74983282  0.25058501  1
  Nb5+  Nb111  1  0.75524446  0.75118822  0.75338324  1
  Nb5+  Nb112  1  0.00239554  0.25252700  0.49511872  1
  Nb5+  Nb113  1  -0.00145010  0.25287867  1.00068425  1
  Nb5+  Nb114  1  0.00735458  0.75061435  0.50020005  1
  Nb5+  Nb115  1  -0.00168936  0.74818702  0.99721470  1
  Nb5+  Nb116  1  0.49889205  0.24522656  0.50628975  1
  Nb5+  Nb117  1  0.49646607  0.24997709  0.99921917  1
  Nb5+  Nb118  1  0.50018738  0.74973002  0.48889941  1
  Nb5+  Nb119  1  0.50109323  0.74776117  0.99493706  1
  Nb5+  Nb120  1  0.25712752  0.00426374  0.00434709  1
  Nb5+  Nb121  1  0.25049790  0.00121783  0.51055431  1
  Nb5+  Nb122  1  0.25466863  0.50075454  0.00189660  1
  Nb5+  Nb123  1  0.24539287  0.49728472  0.50260658  1
  Nb5+  Nb124  1  0.75774417  0.00179375  0.00080200  1
  Nb5+  Nb125  1  0.74648758  0.01039849  0.50106881  1
  Nb5+  Nb126  1  0.74606077  0.50780345  -0.00253714  1
  Nb5+  Nb127  1  0.74712009  0.50675473  0.49438025  1
  O2-  O128  1  0.00110601  0.01837641  0.11668272  1
  O2-  O129  1  -0.00272545  0.02404565  0.63623098  1
  O2-  O130  1  -0.00741898  0.53338056  0.13189596  1
  O2-  O131  1  -0.01427466  0.52955727  0.62990109  1
  O2-  O132  1  0.47905590  -0.02164025  0.11979796  1
  O2-  O133  1  0.47185476  -0.02546183  0.63587231  1
  O2-  O134  1  0.47290646  0.48597406  0.13592624  1
  O2-  O135  1  0.48049213  0.49270600  0.61692059  1
  O2-  O136  1  0.00773605  -0.03389516  0.36201333  1
  O2-  O137  1  0.01025828  -0.02631403  0.87799811  1
  O2-  O138  1  0.02062654  0.48243003  0.36193999  1
  O2-  O139  1  0.01584124  0.47640956  0.86555581  1
  O2-  O140  1  0.50951938  0.01754064  0.36255478  1
  O2-  O141  1  0.50726344  0.00856465  0.87955198  1
  O2-  O142  1  0.52386255  0.51175748  0.37786159  1
  O2-  O143  1  0.52779054  0.51411023  0.86444681  1
  O2-  O144  1  0.21709956  0.24972619  0.13520186  1
  O2-  O145  1  0.21628084  0.24859032  0.63553043  1
  O2-  O146  1  0.22718564  0.75386580  0.13637103  1
  O2-  O147  1  0.23787692  0.76162364  0.63573154  1
  O2-  O148  1  0.73387009  0.25056794  0.12139477  1
  O2-  O149  1  0.73084301  0.25135416  0.62016266  1
  O2-  O150  1  0.72439799  0.74789763  0.13948577  1
  O2-  O151  1  0.72906468  0.73708464  0.61702204  1
  O2-  O152  1  0.27268809  0.24062281  0.36719954  1
  O2-  O153  1  0.27392294  0.24781596  0.86708193  1
  O2-  O154  1  0.27120788  0.76924926  0.36455292  1
  O2-  O155  1  0.28102451  0.76236265  0.86559658  1
  O2-  O156  1  0.76507114  0.24573574  0.37729484  1
  O2-  O157  1  0.76938093  0.25024398  0.87725891  1
  O2-  O158  1  0.75981313  0.75194686  0.38022249  1
  O2-  O159  1  0.76811351  0.76490788  0.86609285  1
  O2-  O160  1  0.01048299  0.21572467  0.11291024  1
  O2-  O161  1  0.01062403  0.22632505  0.61227625  1
  O2-  O162  1  0.01978043  0.73497791  0.13195125  1
  O2-  O163  1  0.02560282  0.73293554  0.61212404  1
  O2-  O164  1  0.52359313  0.26632871  0.11322660  1
  O2-  O165  1  0.52906668  0.27172565  0.61698126  1
  O2-  O166  1  0.51547468  0.77643355  0.13281544  1
  O2-  O167  1  0.51823854  0.76988502  0.62790473  1
  O2-  O168  1  0.24053806  -0.00495945  0.36891573  1
  O2-  O169  1  0.24135316  -0.00174030  0.87484874  1
  O2-  O170  1  0.23725695  0.48348549  0.38213374  1
  O2-  O171  1  0.23581996  0.48475648  0.87898036  1
  O2-  O172  1  0.74566191  -0.00963262  0.38469357  1
  O2-  O173  1  0.72918690  -0.01312839  0.88789310  1
  O2-  O174  1  0.72258223  0.48236750  0.38360436  1
  O2-  O175  1  0.72072871  0.48991574  0.88309364  1
  O2-  O176  1  -0.03454017  0.26825910  0.38134263  1
  O2-  O177  1  -0.03586052  0.26423758  0.88780279  1
  O2-  O178  1  -0.02420923  0.77112908  0.36334297  1
  O2-  O179  1  -0.03158325  0.76842399  0.88739872  1
  O2-  O180  1  0.49061172  0.22731085  0.38724343  1
  O2-  O181  1  0.49729602  0.21458162  0.88560449  1
  O2-  O182  1  0.48650398  0.72645641  0.37568985  1
  O2-  O183  1  0.48914801  0.73063308  0.88072988  1
  O2-  O184  1  0.26425586  0.00647279  0.12227864  1
  O2-  O185  1  0.26326557  0.00714225  0.62797153  1
  O2-  O186  1  0.27901747  0.51550491  0.11606827  1
  O2-  O187  1  0.27830115  0.51617507  0.61319205  1
  O2-  O188  1  0.74673382  0.02266005  0.11547925  1
  O2-  O189  1  0.75780325  0.01053961  0.61922726  1
  O2-  O190  1  0.77562553  0.50347994  0.11498338  1
  O2-  O191  1  0.76455061  0.49935625  0.61200651  1
  O2-  O192  1  0.13345446  0.26393545  0.27566530  1
  O2-  O193  1  0.13485873  0.26581632  0.77615644  1
  O2-  O194  1  0.12469928  0.76883394  0.27030355  1
  O2-  O195  1  0.13525250  0.78171680  0.77069109  1
  O2-  O196  1  0.63433357  0.28518662  0.26387007  1
  O2-  O197  1  0.63599351  0.28884550  0.76564957  1
  O2-  O198  1  0.61763337  0.76683763  0.27393726  1
  O2-  O199  1  0.61990234  0.77062526  0.76857474  1
  O2-  O200  1  0.36623142  0.22245138  0.22412775  1
  O2-  O201  1  0.36670554  0.21916398  0.72818908  1
  O2-  O202  1  0.37428275  0.73600192  0.22975796  1
  O2-  O203  1  0.38287256  0.73702474  0.73104907  1
  O2-  O204  1  0.85978461  0.20695985  0.23888028  1
  O2-  O205  1  0.86016542  0.21327068  0.73444803  1
  O2-  O206  1  0.87189168  0.73752994  0.23491714  1
  O2-  O207  1  0.86588280  0.72665041  0.73191323  1
  O2-  O208  1  0.28032521  0.36612416  0.24628168  1
  O2-  O209  1  0.28370008  0.36698222  0.74167936  1
  O2-  O210  1  0.26580428  0.87959363  0.24162071  1
  O2-  O211  1  0.27242573  0.88253542  0.74644434  1
  O2-  O212  1  0.78342765  0.36175298  0.24827415  1
  O2-  O213  1  0.78314761  0.36484166  0.74818121  1
  O2-  O214  1  0.76093207  0.86665487  0.25743969  1
  O2-  O215  1  0.75996943  0.86502231  0.72373289  1
  O2-  O216  1  0.23258612  0.11731186  0.25028407  1
  O2-  O217  1  0.23229717  0.11843966  0.75293299  1
  O2-  O218  1  0.23272901  0.63716465  0.26355093  1
  O2-  O219  1  0.23019155  0.63788512  0.75847535  1
  O2-  O220  1  0.70397142  0.13622586  0.25707016  1
  O2-  O221  1  0.70799376  0.13746916  0.75926354  1
  O2-  O222  1  0.73046019  0.63455185  0.26255383  1
  O2-  O223  1  0.72254731  0.63704615  0.75157018  1
  O2-  O224  1  0.12002131  0.49060979  0.22803784  1
  O2-  O225  1  0.11938052  0.48470743  0.72587138  1
  O2-  O226  1  0.13104819  0.98056946  0.23123860  1
  O2-  O227  1  0.13164509  0.98024842  0.74293669  1
  O2-  O228  1  0.61339386  0.49342478  0.23069444  1
  O2-  O229  1  0.61214038  0.49294928  0.71825976  1
  O2-  O230  1  0.61219631  0.96399378  0.23754515  1
  O2-  O231  1  0.61063361  0.96997063  0.74127654  1
  O2-  O232  1  0.37193073  0.01166573  0.25784438  1
  O2-  O233  1  0.37254647  0.01480710  0.76826385  1
  O2-  O234  1  0.38800659  0.53449001  0.27415725  1
  O2-  O235  1  0.38894303  0.53666589  0.75791660  1
  O2-  O236  1  0.88816801  0.00544936  0.24315211  1
  O2-  O237  1  0.88347892  0.01551842  0.77107721  1
  O2-  O238  1  0.88669057  0.52314727  0.26742123  1
  O2-  O239  1  0.88143755  0.52121072  0.76533111  1
  O2-  O240  1  0.47757495  0.38402024  0.27227825  1
  O2-  O241  1  0.47281520  0.38694058  0.76214281  1
  O2-  O242  1  0.47259025  0.87008204  0.26536159  1
  O2-  O243  1  0.48049777  0.86953391  0.77359797  1
  O2-  O244  1  0.98364821  0.38197906  0.21908649  1
  O2-  O245  1  0.98286599  0.38238517  0.72288686  1
  O2-  O246  1  0.99886836  0.87295641  0.22007729  1
  O2-  O247  1  0.98736048  0.88559957  0.72786375  1
  O2-  O248  1  0.02521904  0.10856598  0.26634678  1
  O2-  O249  1  0.02492458  0.11467362  0.77648461  1
  O2-  O250  1  0.01540957  0.63504432  0.26840981  1
  O2-  O251  1  0.02133369  0.61849870  0.77085771  1
  O2-  O252  1  0.51276036  0.10845109  0.22126178  1
  O2-  O253  1  0.51303858  0.10959977  0.73049037  1
  O2-  O254  1  0.51568176  0.63612851  0.23049662  1
  O2-  O255  1  0.52150609  0.63590762  0.73736515  1
  O2-  O256  1  0.13584759  0.47504871  0.01880693  1
  O2-  O257  1  0.13297479  0.48115851  0.52420337  1
  O2-  O258  1  0.12323971  0.98086669  0.00759096  1
  O2-  O259  1  0.13781987  0.95951449  0.51011614  1
  O2-  O260  1  0.63427817  0.47323353  0.02661992  1
  O2-  O261  1  0.62281998  0.48205180  0.51687874  1
  O2-  O262  1  0.61744422  0.98182590  0.01045625  1
  O2-  O263  1  0.63380204  0.97142950  0.50845221  1
  O2-  O264  1  0.37167788  0.02400337  -0.01255997  1
  O2-  O265  1  0.36258053  0.03783923  0.48583454  1
  O2-  O266  1  0.37052739  0.52545239  -0.02800530  1
  O2-  O267  1  0.38505999  0.51543654  0.47749501  1
  O2-  O268  1  0.87259134  0.02055892  -0.01392130  1
  O2-  O269  1  0.86635298  0.01172356  0.49560821  1
  O2-  O270  1  0.86347973  0.51270469  -0.02963810  1
  O2-  O271  1  0.86093555  0.51630930  0.47243645  1
  O2-  O272  1  0.48490192  0.36197136  -0.02729688  1
  O2-  O273  1  0.48877090  0.37730110  0.48451112  1
  O2-  O274  1  0.47475068  0.87965760  -0.01441892  1
  O2-  O275  1  0.48305894  0.86218034  0.47769105  1
  O2-  O276  1  0.98159751  0.36280137  0.03052131  1
  O2-  O277  1  0.97312315  0.36574053  0.51982621  1
  O2-  O278  1  0.97338767  0.88584487  0.01464323  1
  O2-  O279  1  0.96524024  0.86050258  0.50974240  1
  O2-  O280  1  0.00844084  0.11707362  -0.02625284  1
  O2-  O281  1  0.00748407  0.13364575  0.46903769  1
  O2-  O282  1  0.01816398  0.63639654  -0.02162261  1
  O2-  O283  1  0.00852313  0.63769404  0.46592254  1
  O2-  O284  1  0.51453077  0.11452977  0.02063977  1
  O2-  O285  1  0.52403180  0.13233833  0.52397544  1
  O2-  O286  1  0.52474528  0.63849502  0.02424964  1
  O2-  O287  1  0.52111163  0.62152998  0.51133922  1
  O2-  O288  1  0.11123797  0.26481887  -0.02272009  1
  O2-  O289  1  0.11390698  0.27417294  0.47652762  1
  O2-  O290  1  0.10942722  0.78583617  -0.00616416  1
  O2-  O291  1  0.11555076  0.77419736  0.47566509  1
  O2-  O292  1  0.63017234  0.25562098  -0.01698290  1
  O2-  O293  1  0.63083687  0.26312211  0.47790510  1
  O2-  O294  1  0.61301606  0.78529594  -0.00899280  1
  O2-  O295  1  0.62281097  0.76088712  0.48539060  1
  O2-  O296  1  0.38601397  0.22701770  0.02219363  1
  O2-  O297  1  0.38699851  0.23719033  0.53060462  1
  O2-  O298  1  0.38736119  0.74060010  0.02776614  1
  O2-  O299  1  0.39026495  0.72708908  0.52101469  1
  O2-  O300  1  0.86796102  0.22646852  0.01822278  1
  O2-  O301  1  0.86261893  0.22541317  0.51164963  1
  O2-  O302  1  0.88515921  0.73924888  0.03516607  1
  O2-  O303  1  0.86612437  0.72039955  0.51139689  1
  O2-  O304  1  0.28186458  0.38178702  0.00799317  1
  O2-  O305  1  0.27989703  0.38265400  0.50641723  1
  O2-  O306  1  0.26415184  0.88737062  0.00080911  1
  O2-  O307  1  0.28800820  0.88750314  0.50222587  1
  O2-  O308  1  0.76697040  0.36601145  -0.00198133  1
  O2-  O309  1  0.76604761  0.37062501  0.50172134  1
  O2-  O310  1  0.77092682  0.88763653  0.01982272  1
  O2-  O311  1  0.76565795  0.86511705  0.50878528  1
  O2-  O312  1  0.21986206  0.11481896  -0.00067970  1
  O2-  O313  1  0.20873391  0.11273555  0.50217773  1
  O2-  O314  1  0.22295792  0.61756408  -0.01105270  1
  O2-  O315  1  0.23815477  0.61597724  0.48002397  1
  O2-  O316  1  0.73285243  0.12640564  -0.01044330  1
  O2-  O317  1  0.72438790  0.12516681  0.49605590  1
  O2-  O318  1  0.72069880  0.61991428  -0.00459297  1
  O2-  O319  1  0.72376871  0.62174340  0.49195859  1
