# generated using pymatgen
data_Sr64Ca21Nb43O192
_symmetry_space_group_name_H-M   'P 1'
_cell_length_a   16.61066002
_cell_length_b   16.59467895
_cell_length_c   16.74755711
_cell_angle_alpha   89.98118391
_cell_angle_beta   89.94176650
_cell_angle_gamma   89.98267806
_symmetry_Int_Tables_number   1
_chemical_formula_structural   Sr64Ca21Nb43O192
_chemical_formula_sum   'Sr64 Ca21 Nb43 O192'
_cell_volume   4616.43732659
_cell_formula_units_Z   1
loop_
 _symmetry_equiv_pos_site_id
 _symmetry_equiv_pos_as_xyz
  1  'x, y, z'
loop_
 _atom_type_symbol
 _atom_type_oxidation_number
  Sr2+  2.0
  Ca2+  2.0
  Nb5+  5.0
  O2-  -2.0
loop_
 _atom_site_type_symbol
 _atom_site_label
 _atom_site_symmetry_multiplicity
 _atom_site_fract_x
 _atom_site_fract_y
 _atom_site_fract_z
 _atom_site_occupancy
  Sr2+  Sr0  1  0.11375775  0.12964826  0.12596631  1
  Sr2+  Sr1  1  0.11622596  0.11871832  0.63673105  1
  Sr2+  Sr2  1  0.12329019  0.62873423  0.12555361  1
  Sr2+  Sr3  1  0.11616755  0.62737416  0.61563387  1
  Sr2+  Sr4  1  0.62474526  0.10753699  0.12450830  1
  Sr2+  Sr5  1  0.61937941  0.11325629  0.61890476  1
  Sr2+  Sr6  1  0.61722433  0.62432244  0.12131363  1
  Sr2+  Sr7  1  0.62048910  0.62946884  0.63187736  1
  Sr2+  Sr8  1  0.36970884  0.37801109  0.12309380  1
  Sr2+  Sr9  1  0.38411737  0.37813669  0.62204096  1
  Sr2+  Sr10  1  0.36897037  0.86625455  0.12416970  1
  Sr2+  Sr11  1  0.36831105  0.86173236  0.63793658  1
  Sr2+  Sr12  1  0.87594738  0.37993164  0.13276471  1
  Sr2+  Sr13  1  0.86925618  0.38396251  0.62407853  1
  Sr2+  Sr14  1  0.86553186  0.85860428  0.11962468  1
  Sr2+  Sr15  1  0.86727767  0.85861307  0.62222888  1
  Sr2+  Sr16  1  0.12768186  0.37556183  0.37446502  1
  Sr2+  Sr17  1  0.13048766  0.37056938  0.86899396  1
  Sr2+  Sr18  1  0.13754512  0.88550691  0.38397802  1
  Sr2+  Sr19  1  0.13311833  0.88028717  0.86709976  1
  Sr2+  Sr20  1  0.63417326  0.37553221  0.38164852  1
  Sr2+  Sr21  1  0.63398385  0.37480559  0.87056701  1
  Sr2+  Sr22  1  0.63754769  0.87833077  0.36826703  1
  Sr2+  Sr23  1  0.63120857  0.88353056  0.87265437  1
  Sr2+  Sr24  1  0.35392428  0.12550498  0.36764923  1
  Sr2+  Sr25  1  0.35888655  0.12659257  0.87937354  1
  Sr2+  Sr26  1  0.38002763  0.62701663  0.37757227  1
  Sr2+  Sr27  1  0.38112853  0.62684855  0.85782257  1
  Sr2+  Sr28  1  0.87203521  0.13006740  0.38071779  1
  Sr2+  Sr29  1  0.89313926  0.12906159  0.86830675  1
  Sr2+  Sr30  1  0.88480393  0.63563323  0.38154153  1
  Sr2+  Sr31  1  0.88652651  0.62820585  0.87289020  1
  Sr2+  Sr32  1  0.12135775  0.11980859  0.38137002  1
  Sr2+  Sr33  1  0.12613161  0.13002882  0.87245058  1
  Sr2+  Sr34  1  0.13818885  0.64057341  0.38035229  1
  Sr2+  Sr35  1  0.12672921  0.64183579  0.87083444  1
  Sr2+  Sr36  1  0.63122793  0.13158335  0.38155736  1
  Sr2+  Sr37  1  0.62308262  0.12668720  0.88475289  1
  Sr2+  Sr38  1  0.62606202  0.63770008  0.36800596  1
  Sr2+  Sr39  1  0.63724242  0.62536482  0.87017931  1
  Sr2+  Sr40  1  0.38728432  0.37515537  0.37337187  1
  Sr2+  Sr41  1  0.38337342  0.36114670  0.87231765  1
  Sr2+  Sr42  1  0.37992217  0.88339582  0.37111830  1
  Sr2+  Sr43  1  0.38353988  0.88875639  0.87207421  1
  Sr2+  Sr44  1  0.88350297  0.36896218  0.38189740  1
  Sr2+  Sr45  1  0.87741730  0.37115497  0.86559605  1
  Sr2+  Sr46  1  0.88209848  0.88729754  0.37993346  1
  Sr2+  Sr47  1  0.89036625  0.88640135  0.87282104  1
  Sr2+  Sr48  1  0.11652849  0.38162972  0.12759770  1
  Sr2+  Sr49  1  0.11207559  0.37953062  0.62802053  1
  Sr2+  Sr50  1  0.10910604  0.86412774  0.12115854  1
  Sr2+  Sr51  1  0.10925544  0.86681779  0.62169362  1
  Sr2+  Sr52  1  0.61569299  0.37531734  0.12067223  1
  Sr2+  Sr53  1  0.62109961  0.37838085  0.62370752  1
  Sr2+  Sr54  1  0.61329124  0.86545613  0.12314364  1
  Sr2+  Sr55  1  0.62224030  0.87323603  0.62627147  1
  Sr2+  Sr56  1  0.36708990  0.12221179  0.12512263  1
  Sr2+  Sr57  1  0.36664192  0.12461297  0.63535733  1
  Sr2+  Sr58  1  0.37009270  0.62320471  0.12883551  1
  Sr2+  Sr59  1  0.35268149  0.62014311  0.62195127  1
  Sr2+  Sr60  1  0.86691261  0.12709789  0.12840561  1
  Sr2+  Sr61  1  0.86580428  0.11215040  0.62595155  1
  Sr2+  Sr62  1  0.90132872  0.62232496  0.11951342  1
  Sr2+  Sr63  1  0.87165226  0.62000632  0.62606290  1
  Ca2+  Ca64  1  0.49478030  0.00117778  0.49617312  1
  Ca2+  Ca65  1  0.00229304  0.00216224  0.00225407  1
  Ca2+  Ca66  1  0.00680844  0.49654432  -0.00469190  1
  Ca2+  Ca67  1  -0.00133704  0.50165164  0.49746349  1
  Ca2+  Ca68  1  -0.00003919  0.00229506  0.50042394  1
  Ca2+  Ca69  1  0.25148661  0.74926287  -0.00365481  1
  Ca2+  Ca70  1  0.24805627  0.25128037  0.49895642  1
  Ca2+  Ca71  1  0.74942201  0.74650759  -0.00094696  1
  Ca2+  Ca72  1  0.25349610  0.75461187  0.49950948  1
  Ca2+  Ca73  1  0.74545415  0.74479381  0.49883571  1
  Ca2+  Ca74  1  0.00102760  0.75333630  0.25338202  1
  Ca2+  Ca75  1  0.50337084  0.24699567  0.75066443  1
  Ca2+  Ca76  1  0.50214593  0.25053134  0.25230696  1
  Ca2+  Ca77  1  0.75116101  0.50254712  0.24659735  1
  Ca2+  Ca78  1  -0.00417361  0.74957664  0.74865533  1
  Ca2+  Ca79  1  0.74854462  0.00096997  0.75281014  1
  Ca2+  Ca80  1  -0.00055595  0.25184177  0.74805120  1
  Ca2+  Ca81  1  0.25109882  0.49993202  0.75138651  1
  Ca2+  Ca82  1  0.24974269  -0.00196900  0.75288808  1
  Ca2+  Ca83  1  0.75027701  -0.00321892  0.24910781  1
  Ca2+  Ca84  1  0.49947344  0.75113782  0.75259493  1
  Nb5+  Nb85  1  0.50221282  0.50189790  0.49423956  1
  Nb5+  Nb86  1  0.49748605  0.49354711  -0.00533613  1
  Nb5+  Nb87  1  0.49884808  -0.00534681  0.00416153  1
  Nb5+  Nb88  1  0.24500541  0.25264890  0.00458295  1
  Nb5+  Nb89  1  0.74764129  0.25246476  0.00479685  1
  Nb5+  Nb90  1  0.75073914  0.25322116  0.50996340  1
  Nb5+  Nb91  1  0.24577090  0.00478486  0.24409411  1
  Nb5+  Nb92  1  0.24918670  0.50656010  0.25140950  1
  Nb5+  Nb93  1  0.74878065  0.49783436  0.74861062  1
  Nb5+  Nb94  1  0.49668140  0.75281825  0.24992685  1
  Nb5+  Nb95  1  0.00081848  0.24896146  0.25010756  1
  Nb5+  Nb96  1  -0.00503584  0.00136754  0.24714976  1
  Nb5+  Nb97  1  -0.00048982  -0.00079648  0.74739707  1
  Nb5+  Nb98  1  0.00399024  0.50390092  0.25352090  1
  Nb5+  Nb99  1  0.00451116  0.49799860  0.75150651  1
  Nb5+  Nb100  1  0.50140803  0.00181997  0.25139765  1
  Nb5+  Nb101  1  0.49957695  0.00385702  0.74538735  1
  Nb5+  Nb102  1  0.50156344  0.49922592  0.24605875  1
  Nb5+  Nb103  1  0.49951480  0.50141119  0.74222585  1
  Nb5+  Nb104  1  0.24962421  0.25639800  0.25002697  1
  Nb5+  Nb105  1  0.25386886  0.25565588  0.74330157  1
  Nb5+  Nb106  1  0.24965135  0.76032101  0.25111385  1
  Nb5+  Nb107  1  0.24728545  0.74794467  0.74947898  1
  Nb5+  Nb108  1  0.74954549  0.25425134  0.25404183  1
  Nb5+  Nb109  1  0.74677618  0.24688780  0.75540474  1
  Nb5+  Nb110  1  0.75577066  0.74319236  0.24791547  1
  Nb5+  Nb111  1  0.75070498  0.75361677  0.75699139  1
  Nb5+  Nb112  1  -0.00093335  0.24987987  0.50622685  1
  Nb5+  Nb113  1  -0.00697884  0.25142024  1.00143142  1
  Nb5+  Nb114  1  -0.00310683  0.75119289  0.49655511  1
  Nb5+  Nb115  1  -0.00053283  0.75196624  0.99731741  1
  Nb5+  Nb116  1  0.49733173  0.24781760  0.49584053  1
  Nb5+  Nb117  1  0.49818571  0.24335273  1.00285371  1
  Nb5+  Nb118  1  0.49748048  0.75484014  0.50273238  1
  Nb5+  Nb119  1  0.49569158  0.74194044  0.99761246  1
  Nb5+  Nb120  1  0.24983539  -0.00132604  0.00477623  1
  Nb5+  Nb121  1  0.25419227  0.00016796  0.51129983  1
  Nb5+  Nb122  1  0.25275290  0.50055695  -0.00067034  1
  Nb5+  Nb123  1  0.24672622  0.49241583  0.50148909  1
  Nb5+  Nb124  1  0.75767601  -0.00118189  -0.00406060  1
  Nb5+  Nb125  1  0.74909467  -0.00736591  0.49903769  1
  Nb5+  Nb126  1  0.75148081  0.49957774  -0.00051972  1
  Nb5+  Nb127  1  0.74562957  0.50421009  0.49606912  1
  O2-  O128  1  -0.00893092  0.03704639  0.13560692  1
  O2-  O129  1  -0.00913587  0.03062802  0.63200880  1
  O2-  O130  1  0.01970183  0.51296172  0.13426425  1
  O2-  O131  1  -0.00127481  0.52703340  0.63378344  1
  O2-  O132  1  0.48410925  0.01747977  0.12630929  1
  O2-  O133  1  0.48476729  0.02421759  0.63348385  1
  O2-  O134  1  0.50561930  0.51490480  0.12828236  1
  O2-  O135  1  0.50971532  0.50928259  0.62566160  1
  O2-  O136  1  0.02724082  -0.01314004  0.36006037  1
  O2-  O137  1  0.01624522  -0.02250589  0.86740643  1
  O2-  O138  1  0.00103703  0.46605353  0.36360160  1
  O2-  O139  1  -0.00701547  0.46498481  0.86515363  1
  O2-  O140  1  0.51041445  -0.03165786  0.36187500  1
  O2-  O141  1  0.51322863  -0.01373551  0.88818672  1
  O2-  O142  1  0.49749070  0.49061539  0.37624604  1
  O2-  O143  1  0.48657872  0.48582424  0.88121785  1
  O2-  O144  1  0.26490363  0.26493584  0.12547395  1
  O2-  O145  1  0.27713190  0.27181156  0.63266324  1
  O2-  O146  1  0.23047736  0.76370391  0.13519568  1
  O2-  O147  1  0.23749022  0.78110167  0.63255356  1
  O2-  O148  1  0.76866136  0.26901804  0.11760701  1
  O2-  O149  1  0.76656752  0.26937941  0.62217877  1
  O2-  O150  1  0.73208984  0.77659451  0.13515549  1
  O2-  O151  1  0.72656180  0.76571000  0.63793565  1
  O2-  O152  1  0.22920643  0.22734849  0.36021652  1
  O2-  O153  1  0.23877345  0.23389700  0.88877909  1
  O2-  O154  1  0.26994305  0.72838889  0.36247465  1
  O2-  O155  1  0.26165381  0.71305995  0.86561002  1
  O2-  O156  1  0.74223062  0.23831999  0.36989833  1
  O2-  O157  1  0.73351866  0.23479563  0.87271373  1
  O2-  O158  1  0.75605446  0.71511631  0.36458294  1
  O2-  O159  1  0.76301395  0.71185689  0.86763717  1
  O2-  O160  1  -0.00881951  0.22781960  0.12587446  1
  O2-  O161  1  -0.01418031  0.22103666  0.61465344  1
  O2-  O162  1  0.02095543  0.73390845  0.11946653  1
  O2-  O163  1  0.01740623  0.73681786  0.61468770  1
  O2-  O164  1  0.50845217  0.24590358  0.11800488  1
  O2-  O165  1  0.48360434  0.24306578  0.61335300  1
  O2-  O166  1  0.51660110  0.73487830  0.13013057  1
  O2-  O167  1  0.52593282  0.74725370  0.61420277  1
  O2-  O168  1  0.23436530  0.01643240  0.35968849  1
  O2-  O169  1  0.23575374  0.02340834  0.89174642  1
  O2-  O170  1  0.24876493  0.51988306  0.36968385  1
  O2-  O171  1  0.26636830  0.52082525  0.88896262  1
  O2-  O172  1  0.72481236  0.01806652  0.38331622  1
  O2-  O173  1  0.71745401  0.01714681  0.88695729  1
  O2-  O174  1  0.73586979  0.51534662  0.38323511  1
  O2-  O175  1  0.74007440  0.50480986  0.87432240  1
  O2-  O176  1  0.01025352  0.27267267  0.36495872  1
  O2-  O177  1  0.01069559  0.27267284  0.88804393  1
  O2-  O178  1  -0.03397127  0.76672504  0.38064973  1
  O2-  O179  1  -0.02828865  0.76171073  0.88346354  1
  O2-  O180  1  0.52347316  0.27695464  0.38312263  1
  O2-  O181  1  0.51681561  0.27005522  0.89054375  1
  O2-  O182  1  0.47220563  0.75483304  0.36642071  1
  O2-  O183  1  0.46760734  0.75924682  0.88893860  1
  O2-  O184  1  0.28033716  -0.00847952  0.12611749  1
  O2-  O185  1  0.28294511  -0.01285767  0.62018205  1
  O2-  O186  1  0.25321164  0.47674607  0.13335627  1
  O2-  O187  1  0.26115004  0.47070071  0.61354788  1
  O2-  O188  1  0.76721688  -0.00695621  0.11312347  1
  O2-  O189  1  0.76703133  -0.01192162  0.61670574  1
  O2-  O190  1  0.74206058  0.46648785  0.10982122  1
  O2-  O191  1  0.74558044  0.47767508  0.62941931  1
  O2-  O192  1  0.12868928  0.26245371  0.22754217  1
  O2-  O193  1  0.13527830  0.27374290  0.73922676  1
  O2-  O194  1  0.13595089  0.76909249  0.27475267  1
  O2-  O195  1  0.13015800  0.76603876  0.77100239  1
  O2-  O196  1  0.63983394  0.28109201  0.24007942  1
  O2-  O197  1  0.63569232  0.28117029  0.73913872  1
  O2-  O198  1  0.61203711  0.76674102  0.26713399  1
  O2-  O199  1  0.63197051  0.76042217  0.77856351  1
  O2-  O200  1  0.36444330  0.22982399  0.25476727  1
  O2-  O201  1  0.36833453  0.23171309  0.77314496  1
  O2-  O202  1  0.37280033  0.73663176  0.22879343  1
  O2-  O203  1  0.36656838  0.72507803  0.72905834  1
  O2-  O204  1  0.88397545  0.22874432  0.25601408  1
  O2-  O205  1  0.86462955  0.24208666  0.76872944  1
  O2-  O206  1  0.86633101  0.72072924  0.22856925  1
  O2-  O207  1  0.86200083  0.72372728  0.72952128  1
  O2-  O208  1  0.26582411  0.37055753  0.26816911  1
  O2-  O209  1  0.26601525  0.36659659  0.78428904  1
  O2-  O210  1  0.27013517  0.87665634  0.26075301  1
  O2-  O211  1  0.27177892  0.86438129  0.77965481  1
  O2-  O212  1  0.78818476  0.36532917  0.26102657  1
  O2-  O213  1  0.76555589  0.37649318  0.76427677  1
  O2-  O214  1  0.76680166  0.86071251  0.27842277  1
  O2-  O215  1  0.77099543  0.86453376  0.77945485  1
  O2-  O216  1  0.23997868  0.12088935  0.22580891  1
  O2-  O217  1  0.23330236  0.13665381  0.73669207  1
  O2-  O218  1  0.23389257  0.62046646  0.23207869  1
  O2-  O219  1  0.22415477  0.63125754  0.71883522  1
  O2-  O220  1  0.74115618  0.13905470  0.22585823  1
  O2-  O221  1  0.73230804  0.13780835  0.72210920  1
  O2-  O222  1  0.71298302  0.63278739  0.22881658  1
  O2-  O223  1  0.72593318  0.61272573  0.73569111  1
  O2-  O224  1  0.13311251  0.47524586  0.25407010  1
  O2-  O225  1  0.11775455  0.47558342  0.75032129  1
  O2-  O226  1  0.13391777  0.98295825  0.22358761  1
  O2-  O227  1  0.11806011  0.97758529  0.72904565  1
  O2-  O228  1  0.61337048  0.47508762  0.25260256  1
  O2-  O229  1  0.62322000  0.47682749  0.75319157  1
  O2-  O230  1  0.61362802  0.97706545  0.22573284  1
  O2-  O231  1  0.61464041  0.96748079  0.73975157  1
  O2-  O232  1  0.37684411  0.01287339  0.26208204  1
  O2-  O233  1  0.38579863  0.02710456  0.77461861  1
  O2-  O234  1  0.37050785  0.51721019  0.25208181  1
  O2-  O235  1  0.38539813  0.52622310  0.74084682  1
  O2-  O236  1  0.88526184  0.02241328  0.27258606  1
  O2-  O237  1  0.88166314  0.02518274  0.76680720  1
  O2-  O238  1  0.88905663  0.51799503  0.24054002  1
  O2-  O239  1  0.86576458  0.51372719  0.75220418  1
  O2-  O240  1  0.46960043  0.38735489  0.23842876  1
  O2-  O241  1  0.47809035  0.38517314  0.74389481  1
  O2-  O242  1  0.47823234  0.86858666  0.22959843  1
  O2-  O243  1  0.47148685  0.88559489  0.74505526  1
  O2-  O244  1  0.99350610  0.36756336  0.22665846  1
  O2-  O245  1  0.97899722  0.38367374  0.71834039  1
  O2-  O246  1  0.98230377  0.88899827  0.22160165  1
  O2-  O247  1  0.97046270  0.88455550  0.72824181  1
  O2-  O248  1  0.02849638  0.13173245  0.26427173  1
  O2-  O249  1  0.02230510  0.11920995  0.77242204  1
  O2-  O250  1  0.02807940  0.61431387  0.27335478  1
  O2-  O251  1  0.00852691  0.61295015  0.78037936  1
  O2-  O252  1  0.52353219  0.11394838  0.26791152  1
  O2-  O253  1  0.53658743  0.11519032  0.76649154  1
  O2-  O254  1  0.50633951  0.62269718  0.26221847  1
  O2-  O255  1  0.52367621  0.61310322  0.77237300  1
  O2-  O256  1  0.14311568  0.46583694  -0.00529113  1
  O2-  O257  1  0.13352036  0.47186970  0.50264441  1
  O2-  O258  1  0.13942742  0.98520731  0.02916321  1
  O2-  O259  1  0.13626526  0.97555482  0.51205231  1
  O2-  O260  1  0.61509127  0.47755579  -0.00390259  1
  O2-  O261  1  0.62156787  0.47297883  0.50128934  1
  O2-  O262  1  0.61839392  0.98977210  0.02302579  1
  O2-  O263  1  0.63042976  0.98608725  0.52132676  1
  O2-  O264  1  0.38175293  0.02487919  -0.00759604  1
  O2-  O265  1  0.36372342  0.03319344  0.47766258  1
  O2-  O266  1  0.37988915  0.50922422  0.01913863  1
  O2-  O267  1  0.38357949  0.51444964  0.50126971  1
  O2-  O268  1  0.86653090  0.02892569  -0.02225804  1
  O2-  O269  1  0.86330843  0.02317065  0.48313506  1
  O2-  O270  1  0.86482330  0.51766584  0.00095151  1
  O2-  O271  1  0.86059734  0.51768231  0.50031009  1
  O2-  O272  1  0.48423943  0.37771553  0.01778937  1
  O2-  O273  1  0.48660831  0.37941743  0.51253415  1
  O2-  O274  1  0.48107176  0.88021915  0.01941508  1
  O2-  O275  1  0.46599189  0.86503758  0.51122308  1
  O2-  O276  1  0.98810051  0.36412501  0.03167767  1
  O2-  O277  1  0.97009989  0.36526507  0.51312270  1
  O2-  O278  1  0.97778431  0.86889800  0.02235707  1
  O2-  O279  1  0.97332356  0.86865882  0.51555019  1
  O2-  O280  1  0.02817504  0.13859457  -0.01290751  1
  O2-  O281  1  0.00294860  0.13935265  0.46639357  1
  O2-  O282  1  0.02370975  0.63174099  -0.01508872  1
  O2-  O283  1  0.02069913  0.63280998  0.47245670  1
  O2-  O284  1  0.52057075  0.12833564  -0.00399915  1
  O2-  O285  1  0.53008537  0.13708664  0.48808120  1
  O2-  O286  1  0.51312190  0.62364193  -0.01119273  1
  O2-  O287  1  0.52600080  0.61697807  0.48959546  1
  O2-  O288  1  0.13193443  0.26969093  0.01660315  1
  O2-  O289  1  0.11228568  0.27497755  0.51064607  1
  O2-  O290  1  0.11722967  0.77720319  -0.02128827  1
  O2-  O291  1  0.11628427  0.77100175  0.47882262  1
  O2-  O292  1  0.63197893  0.26903714  0.00910548  1
  O2-  O293  1  0.63264811  0.27260326  0.50954262  1
  O2-  O294  1  0.60893466  0.77398022  -0.00909116  1
  O2-  O295  1  0.60875620  0.76594422  0.46506148  1
  O2-  O296  1  0.38211319  0.23341961  -0.00334370  1
  O2-  O297  1  0.38562819  0.23786245  0.47021672  1
  O2-  O298  1  0.38441842  0.73970568  0.03410583  1
  O2-  O299  1  0.38794258  0.71228616  0.50876961  1
  O2-  O300  1  0.87621956  0.23417498  -0.01165110  1
  O2-  O301  1  0.86738537  0.24144363  0.48240976  1
  O2-  O302  1  0.88181993  0.72788297  0.02281082  1
  O2-  O303  1  0.87907988  0.72116401  0.51682368  1
  O2-  O304  1  0.28036233  0.36798909  -0.00861783  1
  O2-  O305  1  0.27213847  0.38373519  0.46339340  1
  O2-  O306  1  0.27797236  0.88832191  -0.01268240  1
  O2-  O307  1  0.27214460  0.88848666  0.47153907  1
  O2-  O308  1  0.76432237  0.36877061  -0.02762483  1
  O2-  O309  1  0.76217930  0.37513264  0.48355876  1
  O2-  O310  1  0.77026349  0.88549279  -0.02132853  1
  O2-  O311  1  0.76633769  0.88019080  0.48052679  1
  O2-  O312  1  0.24571446  0.13134064  0.02431618  1
  O2-  O313  1  0.22202910  0.11691765  0.51678928  1
  O2-  O314  1  0.23813262  0.61031110  0.03048970  1
  O2-  O315  1  0.23428189  0.61150611  0.51209505  1
  O2-  O316  1  0.73364996  0.13441475  0.01515326  1
  O2-  O317  1  0.73301526  0.13569023  0.51406230  1
  O2-  O318  1  0.71822619  0.60882738  0.01128368  1
  O2-  O319  1  0.72016445  0.61192387  0.52545516  1
