# generated using pymatgen
data_Sr64Ca21Nb43O192
_symmetry_space_group_name_H-M   'P 1'
_cell_length_a   16.55329211
_cell_length_b   16.58282753
_cell_length_c   16.71940404
_cell_angle_alpha   89.91730860
_cell_angle_beta   89.97350867
_cell_angle_gamma   90.01214706
_symmetry_Int_Tables_number   1
_chemical_formula_structural   Sr64Ca21Nb43O192
_chemical_formula_sum   'Sr64 Ca21 Nb43 O192'
_cell_volume   4589.47752422
_cell_formula_units_Z   1
loop_
 _symmetry_equiv_pos_site_id
 _symmetry_equiv_pos_as_xyz
  1  'x, y, z'
loop_
 _atom_type_symbol
 _atom_type_oxidation_number
  Sr2+  2.0
  Ca2+  2.0
  Nb5+  5.0
  O2-  -2.0
loop_
 _atom_site_type_symbol
 _atom_site_label
 _atom_site_symmetry_multiplicity
 _atom_site_fract_x
 _atom_site_fract_y
 _atom_site_fract_z
 _atom_site_occupancy
  Sr2+  Sr0  1  0.12177171  0.13628935  0.11737594  1
  Sr2+  Sr1  1  0.12090504  0.13037783  0.62932460  1
  Sr2+  Sr2  1  0.12526943  0.62475594  0.13269004  1
  Sr2+  Sr3  1  0.11101888  0.61837257  0.62844396  1
  Sr2+  Sr4  1  0.62072171  0.13428088  0.12303320  1
  Sr2+  Sr5  1  0.61801979  0.13465928  0.62693549  1
  Sr2+  Sr6  1  0.61322321  0.61613591  0.12445705  1
  Sr2+  Sr7  1  0.62219746  0.62607906  0.62567777  1
  Sr2+  Sr8  1  0.37313115  0.37764936  0.12665661  1
  Sr2+  Sr9  1  0.36915831  0.37311857  0.62298885  1
  Sr2+  Sr10  1  0.36285997  0.86030361  0.13168175  1
  Sr2+  Sr11  1  0.36953397  0.87083031  0.62645809  1
  Sr2+  Sr12  1  0.86275484  0.37877394  0.12644862  1
  Sr2+  Sr13  1  0.86695511  0.38077091  0.61601570  1
  Sr2+  Sr14  1  0.86445952  0.86857245  0.12537165  1
  Sr2+  Sr15  1  0.87529830  0.86651448  0.62904354  1
  Sr2+  Sr16  1  0.12594512  0.38021980  0.38038159  1
  Sr2+  Sr17  1  0.12633107  0.38008261  0.87523803  1
  Sr2+  Sr18  1  0.14318959  0.87481778  0.37717894  1
  Sr2+  Sr19  1  0.12440364  0.87743993  0.87346350  1
  Sr2+  Sr20  1  0.63173307  0.37709570  0.37418504  1
  Sr2+  Sr21  1  0.63749746  0.37938377  0.87014215  1
  Sr2+  Sr22  1  0.63794861  0.87977377  0.37570280  1
  Sr2+  Sr23  1  0.63941739  0.87732654  0.87632472  1
  Sr2+  Sr24  1  0.38586728  0.12034613  0.37336818  1
  Sr2+  Sr25  1  0.37732476  0.12049430  0.87883080  1
  Sr2+  Sr26  1  0.37275310  0.61788870  0.37051348  1
  Sr2+  Sr27  1  0.38458699  0.62651012  0.87834063  1
  Sr2+  Sr28  1  0.88932117  0.11488695  0.37595167  1
  Sr2+  Sr29  1  0.87841559  0.11828282  0.88134434  1
  Sr2+  Sr30  1  0.87718269  0.62182197  0.36945898  1
  Sr2+  Sr31  1  0.89454354  0.63151736  0.87912264  1
  Sr2+  Sr32  1  0.12527089  0.12599853  0.38665714  1
  Sr2+  Sr33  1  0.13315615  0.11488849  0.87589109  1
  Sr2+  Sr34  1  0.13784375  0.62588170  0.36999273  1
  Sr2+  Sr35  1  0.13541594  0.62428317  0.86994083  1
  Sr2+  Sr36  1  0.62730472  0.11431553  0.37508452  1
  Sr2+  Sr37  1  0.63380029  0.12545140  0.87017167  1
  Sr2+  Sr38  1  0.63910916  0.63848990  0.38103917  1
  Sr2+  Sr39  1  0.63442305  0.62771090  0.87310287  1
  Sr2+  Sr40  1  0.38178897  0.36567607  0.37406058  1
  Sr2+  Sr41  1  0.38201564  0.38341552  0.87970255  1
  Sr2+  Sr42  1  0.38134151  0.87792303  0.37531924  1
  Sr2+  Sr43  1  0.37704972  0.87174382  0.86793464  1
  Sr2+  Sr44  1  0.88386998  0.36872474  0.36649338  1
  Sr2+  Sr45  1  0.87979356  0.37974366  0.87789943  1
  Sr2+  Sr46  1  0.87508217  0.87487895  0.36644863  1
  Sr2+  Sr47  1  0.88128804  0.87249831  0.88485502  1
  Sr2+  Sr48  1  0.10282274  0.38104276  0.12823628  1
  Sr2+  Sr49  1  0.12168713  0.37697123  0.62212543  1
  Sr2+  Sr50  1  0.11973927  0.86470562  0.13342892  1
  Sr2+  Sr51  1  0.11869143  0.87644298  0.62482304  1
  Sr2+  Sr52  1  0.61290898  0.37664579  0.12299417  1
  Sr2+  Sr53  1  0.63382680  0.38670794  0.62916217  1
  Sr2+  Sr54  1  0.62513532  0.88336497  0.13621951  1
  Sr2+  Sr55  1  0.61686028  0.87104549  0.62567259  1
  Sr2+  Sr56  1  0.36903113  0.13228291  0.12716887  1
  Sr2+  Sr57  1  0.36522508  0.12541748  0.62837393  1
  Sr2+  Sr58  1  0.36221046  0.61304250  0.12498663  1
  Sr2+  Sr59  1  0.38546055  0.62447683  0.62565077  1
  Sr2+  Sr60  1  0.86111867  0.12880324  0.12451312  1
  Sr2+  Sr61  1  0.87887880  0.12959397  0.62551016  1
  Sr2+  Sr62  1  0.88812396  0.62495045  0.12976434  1
  Sr2+  Sr63  1  0.86570804  0.61754107  0.62559125  1
  Ca2+  Ca64  1  0.00172300  0.00181553  0.00204223  1
  Ca2+  Ca65  1  0.49744968  0.00107492  0.00046775  1
  Ca2+  Ca66  1  -0.00129733  0.50226330  0.49861783  1
  Ca2+  Ca67  1  0.50167238  0.49743038  0.49910718  1
  Ca2+  Ca68  1  0.00145992  0.50230979  0.00163834  1
  Ca2+  Ca69  1  0.74798799  0.74628982  0.00115019  1
  Ca2+  Ca70  1  0.74887028  0.25064975  0.49545175  1
  Ca2+  Ca71  1  0.25011764  0.74878859  -0.00134883  1
  Ca2+  Ca72  1  0.75271896  0.75363351  0.50366546  1
  Ca2+  Ca73  1  0.24902381  0.75139467  0.50441536  1
  Ca2+  Ca74  1  0.75358882  0.50335221  0.75203067  1
  Ca2+  Ca75  1  0.74662020  0.49942496  0.24717210  1
  Ca2+  Ca76  1  0.50176555  0.74849275  0.24964620  1
  Ca2+  Ca77  1  0.25028746  0.49234630  0.25043572  1
  Ca2+  Ca78  1  0.25308165  0.49994011  0.74645098  1
  Ca2+  Ca79  1  0.49985491  0.25267314  0.75099227  1
  Ca2+  Ca80  1  -0.00014874  0.24920976  0.75387689  1
  Ca2+  Ca81  1  -0.00030003  0.75080955  0.25697050  1
  Ca2+  Ca82  1  -0.00117822  0.24668785  0.24908421  1
  Ca2+  Ca83  1  0.25012256  0.00201531  0.24940632  1
  Ca2+  Ca84  1  0.74850788  -0.00163340  0.74844040  1
  Nb5+  Nb85  1  0.50087105  0.49987332  -0.00178207  1
  Nb5+  Nb86  1  0.50388027  0.00000657  0.50071316  1
  Nb5+  Nb87  1  0.00503265  -0.00311024  0.50061256  1
  Nb5+  Nb88  1  0.74315082  0.25182892  -0.00045737  1
  Nb5+  Nb89  1  0.25252042  0.24977733  0.50383003  1
  Nb5+  Nb90  1  0.24472978  0.25300837  0.00502832  1
  Nb5+  Nb91  1  0.25031462  -0.00218378  0.74833448  1
  Nb5+  Nb92  1  0.00930225  0.75124638  0.75146200  1
  Nb5+  Nb93  1  0.50024565  0.24887068  0.25011337  1
  Nb5+  Nb94  1  0.75319114  0.00464498  0.25147426  1
  Nb5+  Nb95  1  0.50652194  0.75091026  0.75292475  1
  Nb5+  Nb96  1  0.00676676  -0.00000863  0.24723153  1
  Nb5+  Nb97  1  -0.00220840  0.00099003  0.74958326  1
  Nb5+  Nb98  1  -0.00041887  0.49856526  0.25376173  1
  Nb5+  Nb99  1  -0.00476369  0.49335214  0.74843520  1
  Nb5+  Nb100  1  0.49910424  0.00287480  0.24568131  1
  Nb5+  Nb101  1  0.49909759  -0.00042745  0.75111550  1
  Nb5+  Nb102  1  0.50233078  0.50011678  0.25603954  1
  Nb5+  Nb103  1  0.49838944  0.49865170  0.74767918  1
  Nb5+  Nb104  1  0.24712892  0.24727241  0.25446196  1
  Nb5+  Nb105  1  0.25284943  0.24972665  0.75914693  1
  Nb5+  Nb106  1  0.25288389  0.74791420  0.25177355  1
  Nb5+  Nb107  1  0.25393684  0.74605772  0.74526744  1
  Nb5+  Nb108  1  0.74769060  0.24766554  0.25346695  1
  Nb5+  Nb109  1  0.75429911  0.24937202  0.74491455  1
  Nb5+  Nb110  1  0.74633354  0.74470294  0.24495862  1
  Nb5+  Nb111  1  0.76128601  0.75031281  0.75238678  1
  Nb5+  Nb112  1  -0.00347557  0.25060936  0.50138349  1
  Nb5+  Nb113  1  -0.01109561  0.25008792  0.99922112  1
  Nb5+  Nb114  1  0.00079108  0.74891262  0.49973761  1
  Nb5+  Nb115  1  0.00432267  0.75065316  1.00619723  1
  Nb5+  Nb116  1  0.49836313  0.24927000  0.50374288  1
  Nb5+  Nb117  1  0.49550802  0.25144535  0.99558884  1
  Nb5+  Nb118  1  0.49864566  0.74814354  0.49683050  1
  Nb5+  Nb119  1  0.50014158  0.75357471  1.00267589  1
  Nb5+  Nb120  1  0.25318130  -0.00544178  0.00266630  1
  Nb5+  Nb121  1  0.25628755  0.00365986  0.49931067  1
  Nb5+  Nb122  1  0.24460357  0.49826743  -0.00035382  1
  Nb5+  Nb123  1  0.24803383  0.50756678  0.50451685  1
  Nb5+  Nb124  1  0.75008036  -0.00033895  -0.00038092  1
  Nb5+  Nb125  1  0.75653822  0.00009616  0.50539609  1
  Nb5+  Nb126  1  0.74905732  0.50457785  0.00328817  1
  Nb5+  Nb127  1  0.74976259  0.50233298  0.49465852  1
  O2-  O128  1  0.02143124  0.02155980  0.13618231  1
  O2-  O129  1  0.01278133  0.01553881  0.62250067  1
  O2-  O130  1  0.01043911  0.52734041  0.13470604  1
  O2-  O131  1  -0.00823967  0.52727216  0.63369909  1
  O2-  O132  1  0.51515458  0.02382057  0.13461893  1
  O2-  O133  1  0.50949380  0.01774619  0.61871967  1
  O2-  O134  1  0.49885335  0.51087361  0.12046733  1
  O2-  O135  1  0.50662131  0.52176025  0.63407201  1
  O2-  O136  1  -0.01537267  -0.01767331  0.38459073  1
  O2-  O137  1  -0.01019079  -0.02048287  0.86319984  1
  O2-  O138  1  -0.00500558  0.46724151  0.36910201  1
  O2-  O139  1  0.00263892  0.48007237  0.86732555  1
  O2-  O140  1  0.48931508  -0.00846070  0.37866818  1
  O2-  O141  1  0.47618034  -0.01236297  0.86296171  1
  O2-  O142  1  0.49363312  0.47133491  0.36609225  1
  O2-  O143  1  0.49720407  0.48568024  0.87723143  1
  O2-  O144  1  0.27048575  0.26312157  0.11657939  1
  O2-  O145  1  0.26882342  0.25858313  0.61879706  1
  O2-  O146  1  0.23586811  0.77112478  0.13267884  1
  O2-  O147  1  0.23862815  0.78573778  0.63617470  1
  O2-  O148  1  0.76178377  0.25716016  0.12327913  1
  O2-  O149  1  0.77372543  0.25993302  0.63138892  1
  O2-  O150  1  0.73357908  0.78415374  0.13278307  1
  O2-  O151  1  0.73960648  0.78417602  0.63987533  1
  O2-  O152  1  0.23827137  0.22941724  0.36976975  1
  O2-  O153  1  0.23579216  0.23297460  0.87308228  1
  O2-  O154  1  0.26522961  0.72501137  0.37021589  1
  O2-  O155  1  0.26086460  0.73154658  0.86294765  1
  O2-  O156  1  0.71447881  0.23682991  0.36329572  1
  O2-  O157  1  0.73312708  0.23767917  0.88292146  1
  O2-  O158  1  0.76678851  0.73211893  0.36438842  1
  O2-  O159  1  0.76429973  0.71611332  0.86658365  1
  O2-  O160  1  -0.00715862  0.21646065  0.11435039  1
  O2-  O161  1  -0.00196429  0.22120279  0.61661992  1
  O2-  O162  1  0.01952021  0.73194683  0.11942947  1
  O2-  O163  1  0.02224355  0.74264472  0.63314303  1
  O2-  O164  1  0.49032736  0.23158430  0.12345655  1
  O2-  O165  1  0.48023114  0.22600515  0.61440442  1
  O2-  O166  1  0.53075353  0.74199467  0.11286125  1
  O2-  O167  1  0.51594224  0.73909238  0.63264695  1
  O2-  O168  1  0.25135147  0.03017997  0.38572499  1
  O2-  O169  1  0.26589557  0.01855728  0.86350513  1
  O2-  O170  1  0.24929452  0.51441534  0.38565055  1
  O2-  O171  1  0.24750175  0.51228245  0.88189079  1
  O2-  O172  1  0.75641531  0.02676083  0.37046119  1
  O2-  O173  1  0.75140834  0.02420592  0.88544788  1
  O2-  O174  1  0.73854920  0.52532786  0.37874900  1
  O2-  O175  1  0.73797810  0.50201981  0.88743406  1
  O2-  O176  1  0.02009311  0.26539895  0.38624251  1
  O2-  O177  1  0.00715406  0.28655817  0.88668279  1
  O2-  O178  1  -0.02774511  0.76520761  0.39015429  1
  O2-  O179  1  -0.01188712  0.77103345  0.86791551  1
  O2-  O180  1  0.50897993  0.26476151  0.36962289  1
  O2-  O181  1  0.50828954  0.28231957  0.88520345  1
  O2-  O182  1  0.47493908  0.76167420  0.38530639  1
  O2-  O183  1  0.47347982  0.75710202  0.86775809  1
  O2-  O184  1  0.23786367  -0.02552157  0.11391191  1
  O2-  O185  1  0.24336549  -0.01539422  0.62160311  1
  O2-  O186  1  0.26317403  0.47808722  0.11405418  1
  O2-  O187  1  0.25483671  0.46449121  0.61540981  1
  O2-  O188  1  0.74433458  -0.01022318  0.13040454  1
  O2-  O189  1  0.74451778  -0.03082820  0.61405163  1
  O2-  O190  1  0.73764459  0.46820959  0.11386807  1
  O2-  O191  1  0.75560184  0.48138293  0.61696652  1
  O2-  O192  1  0.13654210  0.26846533  0.23114334  1
  O2-  O193  1  0.13902667  0.26476359  0.73091219  1
  O2-  O194  1  0.13385300  0.77219026  0.26724949  1
  O2-  O195  1  0.12609464  0.77109165  0.76518504  1
  O2-  O196  1  0.61954752  0.26182148  0.22746428  1
  O2-  O197  1  0.63459655  0.27696411  0.73786548  1
  O2-  O198  1  0.63342181  0.77508038  0.27211057  1
  O2-  O199  1  0.61995233  0.77127877  0.76756897  1
  O2-  O200  1  0.38139610  0.22404611  0.25769256  1
  O2-  O201  1  0.36573601  0.21456746  0.75689340  1
  O2-  O202  1  0.36984821  0.72826177  0.22455686  1
  O2-  O203  1  0.37221558  0.73694285  0.73294095  1
  O2-  O204  1  0.86043210  0.22196939  0.26693458  1
  O2-  O205  1  0.86603619  0.21334379  0.76797134  1
  O2-  O206  1  0.86511348  0.74006318  0.22815082  1
  O2-  O207  1  0.87925306  0.74101725  0.73634953  1
  O2-  O208  1  0.28334181  0.35800896  0.25954824  1
  O2-  O209  1  0.27927273  0.36148837  0.76549849  1
  O2-  O210  1  0.27814166  0.86736309  0.27005206  1
  O2-  O211  1  0.26623474  0.87979137  0.76710833  1
  O2-  O212  1  0.76700863  0.36156423  0.26313458  1
  O2-  O213  1  0.77653915  0.36394250  0.76937142  1
  O2-  O214  1  0.76306904  0.88778055  0.26577431  1
  O2-  O215  1  0.76464835  0.86520490  0.78827100  1
  O2-  O216  1  0.24005492  0.13532052  0.21588067  1
  O2-  O217  1  0.23393499  0.11863676  0.73227687  1
  O2-  O218  1  0.23028155  0.62958023  0.23527703  1
  O2-  O219  1  0.22715495  0.63638572  0.72436498  1
  O2-  O220  1  0.72589705  0.12413468  0.23094346  1
  O2-  O221  1  0.71746697  0.13266036  0.73905039  1
  O2-  O222  1  0.72439163  0.63462303  0.22317212  1
  O2-  O223  1  0.72957649  0.63873734  0.72577512  1
  O2-  O224  1  0.11758457  0.46996493  0.25297184  1
  O2-  O225  1  0.11567955  0.48494278  0.74311475  1
  O2-  O226  1  0.11641110  0.97210170  0.26622869  1
  O2-  O227  1  0.13172808  0.98052676  0.75317483  1
  O2-  O228  1  0.61343199  0.46305532  0.24431747  1
  O2-  O229  1  0.61592188  0.48254154  0.75559506  1
  O2-  O230  1  0.62448692  0.98854074  0.26420419  1
  O2-  O231  1  0.61120689  0.96975249  0.75280682  1
  O2-  O232  1  0.38557033  0.02836241  0.24680331  1
  O2-  O233  1  0.37403501  0.00825249  0.72619125  1
  O2-  O234  1  0.38585860  0.51931891  0.24544992  1
  O2-  O235  1  0.38551652  0.53647371  0.75509457  1
  O2-  O236  1  0.87028699  0.02508749  0.24419416  1
  O2-  O237  1  0.88465863  0.01747161  0.73346996  1
  O2-  O238  1  0.88030051  0.52386942  0.24762167  1
  O2-  O239  1  0.88470133  0.53529569  0.76264460  1
  O2-  O240  1  0.47877104  0.36509477  0.23341571  1
  O2-  O241  1  0.46995191  0.38711503  0.73431927  1
  O2-  O242  1  0.48257223  0.88804908  0.23390791  1
  O2-  O243  1  0.47842065  0.87104144  0.73393098  1
  O2-  O244  1  0.97322034  0.38034388  0.22587041  1
  O2-  O245  1  0.97247004  0.38303539  0.72584011  1
  O2-  O246  1  0.96939079  0.88837484  0.23713502  1
  O2-  O247  1  0.99373267  0.87703538  0.72895395  1
  O2-  O248  1  0.01384667  0.11248408  0.28385556  1
  O2-  O249  1  0.02826125  0.11240364  0.76384817  1
  O2-  O250  1  0.01828361  0.61554557  0.28209912  1
  O2-  O251  1  0.02232767  0.63578933  0.76824006  1
  O2-  O252  1  0.52070482  0.12819324  0.26837690  1
  O2-  O253  1  0.51959345  0.11351192  0.76128582  1
  O2-  O254  1  0.53095608  0.61170133  0.26787978  1
  O2-  O255  1  0.52060130  0.63235690  0.76617345  1
  O2-  O256  1  0.13410913  0.46458322  0.00149857  1
  O2-  O257  1  0.13336637  0.46987453  0.50164509  1
  O2-  O258  1  0.13885863  0.99574325  -0.02750154  1
  O2-  O259  1  0.12309879  0.98683615  0.49227519  1
  O2-  O260  1  0.61644005  0.47143068  -0.00174470  1
  O2-  O261  1  0.63309970  0.46389059  0.49942589  1
  O2-  O262  1  0.63228283  0.98030973  0.00172067  1
  O2-  O263  1  0.61963897  0.98562091  0.49043367  1
  O2-  O264  1  0.36391364  0.03543150  0.00695651  1
  O2-  O265  1  0.37339463  0.02228364  0.50783691  1
  O2-  O266  1  0.37768281  0.50792852  -0.00690050  1
  O2-  O267  1  0.36705566  0.52740837  0.50301907  1
  O2-  O268  1  0.86607718  0.02656516  0.01379281  1
  O2-  O269  1  0.87289055  0.02129440  0.51058410  1
  O2-  O270  1  0.86372611  0.52242849  0.00605695  1
  O2-  O271  1  0.86600040  0.53593788  0.49549370  1
  O2-  O272  1  0.48209948  0.37305319  0.02068398  1
  O2-  O273  1  0.46564249  0.36016110  0.50774882  1
  O2-  O274  1  0.47112873  0.86454276  0.01068516  1
  O2-  O275  1  0.47760123  0.88576765  0.51420758  1
  O2-  O276  1  0.97871735  0.36498697  0.03049060  1
  O2-  O277  1  0.98779519  0.36301998  0.52629595  1
  O2-  O278  1  0.97375864  0.86746159  0.01611854  1
  O2-  O279  1  0.98076377  0.88386799  0.52361591  1
  O2-  O280  1  0.01713354  0.13785725  -0.03258001  1
  O2-  O281  1  0.01334520  0.11840251  0.48553035  1
  O2-  O282  1  0.02526321  0.63753526  -0.02889010  1
  O2-  O283  1  0.03051692  0.63853178  0.48809003  1
  O2-  O284  1  0.52082571  0.13901225  -0.02347267  1
  O2-  O285  1  0.51159048  0.12434375  0.47971977  1
  O2-  O286  1  0.52022772  0.61545399  -0.01435369  1
  O2-  O287  1  0.52207005  0.63597325  0.48733273  1
  O2-  O288  1  0.12942044  0.26806144  0.01559672  1
  O2-  O289  1  0.13259978  0.25755117  0.50938746  1
  O2-  O290  1  0.11767385  0.78412952  -0.01151044  1
  O2-  O291  1  0.11327359  0.78786164  0.49490059  1
  O2-  O292  1  0.62569081  0.26815739  0.01425541  1
  O2-  O293  1  0.61143924  0.26691632  0.51876015  1
  O2-  O294  1  0.61117110  0.75903043  -0.03772184  1
  O2-  O295  1  0.61209854  0.78327908  0.49517470  1
  O2-  O296  1  0.37775525  0.23444946  -0.01224140  1
  O2-  O297  1  0.36941848  0.22356347  0.48102567  1
  O2-  O298  1  0.38766466  0.71447943  0.01102961  1
  O2-  O299  1  0.38529713  0.74312540  0.53070667  1
  O2-  O300  1  0.87200088  0.23013563  -0.01096037  1
  O2-  O301  1  0.88439235  0.22726028  0.48365423  1
  O2-  O302  1  0.88479038  0.72535345  0.01008264  1
  O2-  O303  1  0.88736243  0.74150944  0.53656847  1
  O2-  O304  1  0.26829254  0.36610963  -0.02486571  1
  O2-  O305  1  0.26942190  0.36207456  0.47856619  1
  O2-  O306  1  0.27807521  0.88543854  -0.02176844  1
  O2-  O307  1  0.26796787  0.88957923  0.47779998  1
  O2-  O308  1  0.77000979  0.36695319  -0.01333507  1
  O2-  O309  1  0.78255358  0.38458994  0.47564714  1
  O2-  O310  1  0.77023401  0.88538401  -0.01374567  1
  O2-  O311  1  0.76195531  0.88953267  0.46526679  1
  O2-  O312  1  0.23272572  0.13337811  0.00776084  1
  O2-  O313  1  0.23245378  0.12455734  0.52070841  1
  O2-  O314  1  0.22671844  0.61183789  0.01752327  1
  O2-  O315  1  0.22182478  0.61703693  0.52566981  1
  O2-  O316  1  0.73087875  0.13016363  0.01655327  1
  O2-  O317  1  0.72398096  0.11300747  0.51597888  1
  O2-  O318  1  0.71577384  0.61317118  0.01889889  1
  O2-  O319  1  0.71832265  0.61974829  0.51616834  1
