# generated using pymatgen
data_Sr64Ca21Nb43O192
_symmetry_space_group_name_H-M   'P 1'
_cell_length_a   16.56337108
_cell_length_b   16.56490343
_cell_length_c   16.71329699
_cell_angle_alpha   89.99752362
_cell_angle_beta   90.06742817
_cell_angle_gamma   90.05491165
_symmetry_Int_Tables_number   1
_chemical_formula_structural   Sr64Ca21Nb43O192
_chemical_formula_sum   'Sr64 Ca21 Nb43 O192'
_cell_volume   4585.63274577
_cell_formula_units_Z   1
loop_
 _symmetry_equiv_pos_site_id
 _symmetry_equiv_pos_as_xyz
  1  'x, y, z'
loop_
 _atom_type_symbol
 _atom_type_oxidation_number
  Sr2+  2.0
  Ca2+  2.0
  Nb5+  5.0
  O2-  -2.0
loop_
 _atom_site_type_symbol
 _atom_site_label
 _atom_site_symmetry_multiplicity
 _atom_site_fract_x
 _atom_site_fract_y
 _atom_site_fract_z
 _atom_site_occupancy
  Sr2+  Sr0  1  0.12197134  0.11917894  0.11216622  1
  Sr2+  Sr1  1  0.11880937  0.11313661  0.62284156  1
  Sr2+  Sr2  1  0.12153157  0.61331101  0.12204034  1
  Sr2+  Sr3  1  0.12224961  0.61405870  0.62718968  1
  Sr2+  Sr4  1  0.62979607  0.11787531  0.12433325  1
  Sr2+  Sr5  1  0.63194844  0.13218072  0.63405852  1
  Sr2+  Sr6  1  0.63404083  0.60777532  0.12423664  1
  Sr2+  Sr7  1  0.62983624  0.62443816  0.62161123  1
  Sr2+  Sr8  1  0.37312628  0.35798891  0.12984587  1
  Sr2+  Sr9  1  0.37795053  0.36212335  0.62395613  1
  Sr2+  Sr10  1  0.38186949  0.87463372  0.11488786  1
  Sr2+  Sr11  1  0.37367112  0.86452189  0.62785092  1
  Sr2+  Sr12  1  0.86782722  0.37560641  0.11990221  1
  Sr2+  Sr13  1  0.87051364  0.34973124  0.63087708  1
  Sr2+  Sr14  1  0.87052837  0.85863849  0.13156212  1
  Sr2+  Sr15  1  0.87285146  0.86706665  0.62092513  1
  Sr2+  Sr16  1  0.13545260  0.38242037  0.37227952  1
  Sr2+  Sr17  1  0.11492618  0.37392411  0.87529664  1
  Sr2+  Sr18  1  0.11678183  0.87676721  0.37603091  1
  Sr2+  Sr19  1  0.12912698  0.87430703  0.88004488  1
  Sr2+  Sr20  1  0.60871661  0.38124696  0.37157236  1
  Sr2+  Sr21  1  0.63598978  0.38003323  0.88577499  1
  Sr2+  Sr22  1  0.62636480  0.88799263  0.37555171  1
  Sr2+  Sr23  1  0.60501603  0.88162618  0.87135177  1
  Sr2+  Sr24  1  0.37731899  0.13687467  0.37752651  1
  Sr2+  Sr25  1  0.37056759  0.12181573  0.87800194  1
  Sr2+  Sr26  1  0.37418206  0.62433584  0.37101855  1
  Sr2+  Sr27  1  0.37308767  0.62875883  0.87190567  1
  Sr2+  Sr28  1  0.88116907  0.12962796  0.37716107  1
  Sr2+  Sr29  1  0.88482084  0.14219374  0.87510020  1
  Sr2+  Sr30  1  0.87994396  0.64110739  0.37128040  1
  Sr2+  Sr31  1  0.89215601  0.63427028  0.87608149  1
  Sr2+  Sr32  1  0.12426732  0.13640678  0.37852409  1
  Sr2+  Sr33  1  0.12882982  0.12506239  0.86989330  1
  Sr2+  Sr34  1  0.13606134  0.63398709  0.37040896  1
  Sr2+  Sr35  1  0.12768587  0.60782197  0.87598943  1
  Sr2+  Sr36  1  0.62878230  0.13856850  0.37300115  1
  Sr2+  Sr37  1  0.61903135  0.14029548  0.87531198  1
  Sr2+  Sr38  1  0.61497783  0.62161339  0.38245354  1
  Sr2+  Sr39  1  0.63107501  0.62908610  0.87409074  1
  Sr2+  Sr40  1  0.37439560  0.37506453  0.37191197  1
  Sr2+  Sr41  1  0.36897406  0.36552338  0.87039086  1
  Sr2+  Sr42  1  0.36521205  0.88495639  0.37584191  1
  Sr2+  Sr43  1  0.37183819  0.87300553  0.87668326  1
  Sr2+  Sr44  1  0.87878257  0.37882493  0.37379258  1
  Sr2+  Sr45  1  0.87375475  0.37725632  0.88141849  1
  Sr2+  Sr46  1  0.87323019  0.88418790  0.36863278  1
  Sr2+  Sr47  1  0.87489916  0.88202849  0.86487153  1
  Sr2+  Sr48  1  0.10692741  0.36699184  0.12434109  1
  Sr2+  Sr49  1  0.11255901  0.37021517  0.63086878  1
  Sr2+  Sr50  1  0.11400775  0.86228658  0.12250254  1
  Sr2+  Sr51  1  0.11453790  0.86915654  0.62397667  1
  Sr2+  Sr52  1  0.62749552  0.36402300  0.12211976  1
  Sr2+  Sr53  1  0.63262394  0.37405467  0.62124356  1
  Sr2+  Sr54  1  0.63245822  0.87454248  0.12769049  1
  Sr2+  Sr55  1  0.63873869  0.86504756  0.63231347  1
  Sr2+  Sr56  1  0.39007176  0.11776862  0.13026349  1
  Sr2+  Sr57  1  0.37666783  0.11688749  0.62633730  1
  Sr2+  Sr58  1  0.38020888  0.61936262  0.12115665  1
  Sr2+  Sr59  1  0.38515123  0.61646524  0.62572662  1
  Sr2+  Sr60  1  0.87545204  0.12050721  0.12087329  1
  Sr2+  Sr61  1  0.87972946  0.11708120  0.62692864  1
  Sr2+  Sr62  1  0.87506119  0.61884187  0.12631202  1
  Sr2+  Sr63  1  0.86628152  0.62080508  0.62224629  1
  Ca2+  Ca64  1  0.00082908  0.50169350  0.49723676  1
  Ca2+  Ca65  1  0.49786052  0.49976420  0.00127830  1
  Ca2+  Ca66  1  -0.00202705  0.50095554  0.00081644  1
  Ca2+  Ca67  1  0.50338449  -0.00076853  0.49996525  1
  Ca2+  Ca68  1  -0.00033974  -0.00213079  -0.00137583  1
  Ca2+  Ca69  1  0.74756509  0.75133618  0.00050048  1
  Ca2+  Ca70  1  0.24813879  0.25155634  0.50045517  1
  Ca2+  Ca71  1  0.75076299  0.24994807  0.50030493  1
  Ca2+  Ca72  1  0.24963972  0.24919471  -0.00023849  1
  Ca2+  Ca73  1  0.74954685  0.24546026  0.00201528  1
  Ca2+  Ca74  1  0.49910946  0.25525904  0.75102404  1
  Ca2+  Ca75  1  0.74907383  0.00103556  0.75192081  1
  Ca2+  Ca76  1  0.25122194  -0.00016693  0.24932223  1
  Ca2+  Ca77  1  -0.00229233  0.24889648  0.25108570  1
  Ca2+  Ca78  1  0.74665361  0.49805576  0.25407004  1
  Ca2+  Ca79  1  0.00359688  0.75022693  0.74917393  1
  Ca2+  Ca80  1  0.74791905  0.50107557  0.74958702  1
  Ca2+  Ca81  1  0.00206658  0.24927682  0.74819522  1
  Ca2+  Ca82  1  0.50238736  0.74926062  0.75003829  1
  Ca2+  Ca83  1  0.50129446  0.75085753  0.25015658  1
  Ca2+  Ca84  1  0.00228462  0.74783782  0.25134896  1
  Nb5+  Nb85  1  -0.00067391  -0.00229242  0.49870028  1
  Nb5+  Nb86  1  0.49754285  0.49761134  0.50340988  1
  Nb5+  Nb87  1  0.50176180  0.00139092  -0.00185419  1
  Nb5+  Nb88  1  0.24866891  0.75066588  0.49748352  1
  Nb5+  Nb89  1  0.74390234  0.75205339  0.49373222  1
  Nb5+  Nb90  1  0.24913656  0.74756789  -0.00440189  1
  Nb5+  Nb91  1  0.25085389  0.49971286  0.24283929  1
  Nb5+  Nb92  1  0.25380330  0.49355437  0.74467266  1
  Nb5+  Nb93  1  0.25127652  -0.00772318  0.74742827  1
  Nb5+  Nb94  1  0.75237086  0.00292610  0.24774238  1
  Nb5+  Nb95  1  0.50150559  0.24893152  0.24950513  1
  Nb5+  Nb96  1  0.00398914  0.00075411  0.24656270  1
  Nb5+  Nb97  1  -0.00011432  -0.00127791  0.75265354  1
  Nb5+  Nb98  1  -0.00618196  0.50057639  0.25395480  1
  Nb5+  Nb99  1  -0.00738811  0.50552032  0.74784945  1
  Nb5+  Nb100  1  0.50081446  -0.00049582  0.25500163  1
  Nb5+  Nb101  1  0.49883195  -0.00009534  0.74184998  1
  Nb5+  Nb102  1  0.49731702  0.49811722  0.24507436  1
  Nb5+  Nb103  1  0.50198560  0.49939392  0.75297722  1
  Nb5+  Nb104  1  0.24385448  0.24833644  0.25018158  1
  Nb5+  Nb105  1  0.24790160  0.24123823  0.74429877  1
  Nb5+  Nb106  1  0.25528575  0.75221244  0.24019457  1
  Nb5+  Nb107  1  0.24714600  0.74338187  0.74405440  1
  Nb5+  Nb108  1  0.75555124  0.24827514  0.25009175  1
  Nb5+  Nb109  1  0.74966301  0.25092315  0.75589961  1
  Nb5+  Nb110  1  0.74154252  0.74497536  0.25122878  1
  Nb5+  Nb111  1  0.75566039  0.74971537  0.75553284  1
  Nb5+  Nb112  1  -0.00161256  0.25507390  0.50069644  1
  Nb5+  Nb113  1  0.00081056  0.24887132  1.00098931  1
  Nb5+  Nb114  1  -0.00410612  0.74682665  0.49913334  1
  Nb5+  Nb115  1  -0.00401606  0.75011504  1.00363660  1
  Nb5+  Nb116  1  0.50558078  0.24787946  0.50436349  1
  Nb5+  Nb117  1  0.49228476  0.25186957  0.99751285  1
  Nb5+  Nb118  1  0.49318877  0.75146404  0.49805060  1
  Nb5+  Nb119  1  0.50362999  0.75008153  1.00272019  1
  Nb5+  Nb120  1  0.25127017  -0.00180706  0.00482198  1
  Nb5+  Nb121  1  0.24921955  0.00069277  0.49882370  1
  Nb5+  Nb122  1  0.25569346  0.49439932  -0.00402405  1
  Nb5+  Nb123  1  0.25327920  0.49988546  0.49870006  1
  Nb5+  Nb124  1  0.75044155  -0.00396608  -0.00748480  1
  Nb5+  Nb125  1  0.74778676  -0.00019329  0.50226582  1
  Nb5+  Nb126  1  0.74881871  0.50468360  -0.00136381  1
  Nb5+  Nb127  1  0.75600266  0.49935535  0.49445227  1
  O2-  O128  1  -0.00658309  0.02880946  0.13534148  1
  O2-  O129  1  -0.00738728  0.01478714  0.62000136  1
  O2-  O130  1  -0.00472104  0.52738477  0.13605735  1
  O2-  O131  1  -0.00505567  0.53305849  0.63085008  1
  O2-  O132  1  0.48447227  -0.00760029  0.12510304  1
  O2-  O133  1  0.46825709  -0.01447965  0.63208753  1
  O2-  O134  1  0.46525664  0.48362006  0.13604218  1
  O2-  O135  1  0.47616430  0.48383594  0.61864973  1
  O2-  O136  1  0.00686593  -0.02269303  0.38119620  1
  O2-  O137  1  0.02384211  -0.02188674  0.86368842  1
  O2-  O138  1  0.01268829  0.46272476  0.36578593  1
  O2-  O139  1  0.01227751  0.48109050  0.86441483  1
  O2-  O140  1  0.53040779  0.01773535  0.36556795  1
  O2-  O141  1  0.51535497  0.01912160  0.88009044  1
  O2-  O142  1  0.50602393  0.50671354  0.37677478  1
  O2-  O143  1  0.51167694  0.52444829  0.86518703  1
  O2-  O144  1  0.23759274  0.27389458  0.13669648  1
  O2-  O145  1  0.22314636  0.26562017  0.63173895  1
  O2-  O146  1  0.23298752  0.75245932  0.12632584  1
  O2-  O147  1  0.23389726  0.75076724  0.62701238  1
  O2-  O148  1  0.72210932  0.24309508  0.13631580  1
  O2-  O149  1  0.72445919  0.25492147  0.63500488  1
  O2-  O150  1  0.72103080  0.74260686  0.13758222  1
  O2-  O151  1  0.73644090  0.74676141  0.61217105  1
  O2-  O152  1  0.27629613  0.25027046  0.36513735  1
  O2-  O153  1  0.27814449  0.24494074  0.86155487  1
  O2-  O154  1  0.27523287  0.74858908  0.38358644  1
  O2-  O155  1  0.26547441  0.74811691  0.87732747  1
  O2-  O156  1  0.76192250  0.23637890  0.36658589  1
  O2-  O157  1  0.77722948  0.24854610  0.87098031  1
  O2-  O158  1  0.77610636  0.75799274  0.37663811  1
  O2-  O159  1  0.78411338  0.75170746  0.86690287  1
  O2-  O160  1  0.02419917  0.22780075  0.11848204  1
  O2-  O161  1  0.02987694  0.23348601  0.61347575  1
  O2-  O162  1  0.02873415  0.73128488  0.11910043  1
  O2-  O163  1  0.03039450  0.73748708  0.61122450  1
  O2-  O164  1  0.51102915  0.26510322  0.13048062  1
  O2-  O165  1  0.51980166  0.27245617  0.61600403  1
  O2-  O166  1  0.50642118  0.78698556  0.11533890  1
  O2-  O167  1  0.52227909  0.76738251  0.61146842  1
  O2-  O168  1  0.23364318  -0.02050025  0.38540147  1
  O2-  O169  1  0.23638330  -0.00502281  0.86685124  1
  O2-  O170  1  0.23832224  0.50859721  0.38102130  1
  O2-  O171  1  0.24040511  0.49650050  0.87595663  1
  O2-  O172  1  0.74130489  -0.00696896  0.37444214  1
  O2-  O173  1  0.72914039  -0.03237700  0.88409216  1
  O2-  O174  1  0.71359072  0.49232549  0.38641416  1
  O2-  O175  1  0.72169300  0.50195997  0.88207616  1
  O2-  O176  1  -0.03591941  0.25759521  0.38487600  1
  O2-  O177  1  -0.01904211  0.26801011  0.88205684  1
  O2-  O178  1  -0.01296460  0.77747226  0.38545469  1
  O2-  O179  1  -0.01573628  0.77793745  0.88707022  1
  O2-  O180  1  0.48875769  0.23724141  0.37190182  1
  O2-  O181  1  0.47544483  0.23086442  0.88513813  1
  O2-  O182  1  0.49225066  0.71744350  0.38596275  1
  O2-  O183  1  0.47297966  0.73781771  0.88797086  1
  O2-  O184  1  0.27823177  0.00426149  0.11527656  1
  O2-  O185  1  0.26786475  -0.00188560  0.62419369  1
  O2-  O186  1  0.26823638  0.50350245  0.12755262  1
  O2-  O187  1  0.26881215  0.50725477  0.62775117  1
  O2-  O188  1  0.76144499  0.01611119  0.13044225  1
  O2-  O189  1  0.77469977  0.00123556  0.61472475  1
  O2-  O190  1  0.76840263  0.51110863  0.12018006  1
  O2-  O191  1  0.74783517  0.51870085  0.61046186  1
  O2-  O192  1  0.13310898  0.27303697  0.27347260  1
  O2-  O193  1  0.13668487  0.27118554  0.77359969  1
  O2-  O194  1  0.14276331  0.76466770  0.27557205  1
  O2-  O195  1  0.13922191  0.78228965  0.76438749  1
  O2-  O196  1  0.61954680  0.26714384  0.26770825  1
  O2-  O197  1  0.63217838  0.27429779  0.78129997  1
  O2-  O198  1  0.63300277  0.78315286  0.27539078  1
  O2-  O199  1  0.63642452  0.77781790  0.76620872  1
  O2-  O200  1  0.37891637  0.23337588  0.23509111  1
  O2-  O201  1  0.36450269  0.23709217  0.71622330  1
  O2-  O202  1  0.36658484  0.71533727  0.23978641  1
  O2-  O203  1  0.36474671  0.73818650  0.73293075  1
  O2-  O204  1  0.86432388  0.21809070  0.23008069  1
  O2-  O205  1  0.86714729  0.22231159  0.72907975  1
  O2-  O206  1  0.86206779  0.73235940  0.23324533  1
  O2-  O207  1  0.86892674  0.72681919  0.72267011  1
  O2-  O208  1  0.27019992  0.38314079  0.26011865  1
  O2-  O209  1  0.27211742  0.38093836  0.74956032  1
  O2-  O210  1  0.28513924  0.86374788  0.24535482  1
  O2-  O211  1  0.27488094  0.87774765  0.74693877  1
  O2-  O212  1  0.77594348  0.36308924  0.25105877  1
  O2-  O213  1  0.78002493  0.36861674  0.75220292  1
  O2-  O214  1  0.76542618  0.88207786  0.24368865  1
  O2-  O215  1  0.77476839  0.86627409  0.73436411  1
  O2-  O216  1  0.22373790  0.13461131  0.24244161  1
  O2-  O217  1  0.23056468  0.12413972  0.74074444  1
  O2-  O218  1  0.23240736  0.62033982  0.25004545  1
  O2-  O219  1  0.22852222  0.62889360  0.75359687  1
  O2-  O220  1  0.72279537  0.11949198  0.25589925  1
  O2-  O221  1  0.71900189  0.13203929  0.75769445  1
  O2-  O222  1  0.71788900  0.63355020  0.26790942  1
  O2-  O223  1  0.71881911  0.63676081  0.74752501  1
  O2-  O224  1  0.13422913  0.47997859  0.23808123  1
  O2-  O225  1  0.13573848  0.48752258  0.73599064  1
  O2-  O226  1  0.11613861  0.97267621  0.23870606  1
  O2-  O227  1  0.13412465  0.98240296  0.72870450  1
  O2-  O228  1  0.61010992  0.47067302  0.23225470  1
  O2-  O229  1  0.61103293  0.46960505  0.73521639  1
  O2-  O230  1  0.62486529  0.98448062  0.23247256  1
  O2-  O231  1  0.61209953  0.98040168  0.72788700  1
  O2-  O232  1  0.38770699  0.03046102  0.26910170  1
  O2-  O233  1  0.36817254  0.02455674  0.76221854  1
  O2-  O234  1  0.37133622  0.51373948  0.27022023  1
  O2-  O235  1  0.36696930  0.52983582  0.76137474  1
  O2-  O236  1  0.86924873  0.01993032  0.26403819  1
  O2-  O237  1  0.88716006  0.01964960  0.77151575  1
  O2-  O238  1  0.88158350  0.52368404  0.27182448  1
  O2-  O239  1  0.88187432  0.53123585  0.76173774  1
  O2-  O240  1  0.47983220  0.37028884  0.26461480  1
  O2-  O241  1  0.46028279  0.38911289  0.75782549  1
  O2-  O242  1  0.47771393  0.88763627  0.26836096  1
  O2-  O243  1  0.47784586  0.88735032  0.77434243  1
  O2-  O244  1  0.98082331  0.38427828  0.22195849  1
  O2-  O245  1  0.98950805  0.38823133  0.72206372  1
  O2-  O246  1  0.97210774  0.88582259  0.23964632  1
  O2-  O247  1  0.98654458  0.88485149  0.72312039  1
  O2-  O248  1  0.01295800  0.11206917  0.28384199  1
  O2-  O249  1  0.03035881  0.11356109  0.75399751  1
  O2-  O250  1  0.02497001  0.61418480  0.27791190  1
  O2-  O251  1  0.02995812  0.61878410  0.76941182  1
  O2-  O252  1  0.51915544  0.12990042  0.23476807  1
  O2-  O253  1  0.51189639  0.11786150  0.73582735  1
  O2-  O254  1  0.51834761  0.61182063  0.23549917  1
  O2-  O255  1  0.51082526  0.61371358  0.71920941  1
  O2-  O256  1  0.13950100  0.48825200  0.01594884  1
  O2-  O257  1  0.13947498  0.48603599  0.52071243  1
  O2-  O258  1  0.13777933  0.97567574  0.02127599  1
  O2-  O259  1  0.12468483  0.97758267  0.51475272  1
  O2-  O260  1  0.62903796  0.47584888  0.02465696  1
  O2-  O261  1  0.61414815  0.48397115  0.51449041  1
  O2-  O262  1  0.61609146  0.97797743  0.01591324  1
  O2-  O263  1  0.63783142  0.96510422  0.51537809  1
  O2-  O264  1  0.37629660  0.01288601  -0.01733775  1
  O2-  O265  1  0.36479254  0.01760263  0.48116626  1
  O2-  O266  1  0.36379428  0.53997396  -0.00953169  1
  O2-  O267  1  0.37449613  0.52896602  0.49097197  1
  O2-  O268  1  0.86338893  0.01654308  -0.02482293  1
  O2-  O269  1  0.87896376  0.00967270  0.48496616  1
  O2-  O270  1  0.86481657  0.52977645  -0.01929427  1
  O2-  O271  1  0.86498161  0.52967860  0.47442399  1
  O2-  O272  1  0.46965588  0.36510180  -0.00974345  1
  O2-  O273  1  0.47584605  0.37976748  0.48566437  1
  O2-  O274  1  0.47897885  0.88248704  -0.01678546  1
  O2-  O275  1  0.48048800  0.86351783  0.47285496  1
  O2-  O276  1  0.97908753  0.36740301  0.02206136  1
  O2-  O277  1  0.98119987  0.36704222  0.52272066  1
  O2-  O278  1  0.98860319  0.86690495  0.03260837  1
  O2-  O279  1  0.99153772  0.87519705  0.52004042  1
  O2-  O280  1  0.02536686  0.13108357  -0.02336903  1
  O2-  O281  1  0.01896368  0.11447561  0.48531443  1
  O2-  O282  1  0.02303327  0.63698196  -0.02403107  1
  O2-  O283  1  0.01928088  0.63699402  0.47086040  1
  O2-  O284  1  0.51355861  0.12050335  0.01737392  1
  O2-  O285  1  0.53063453  0.13479825  0.51284110  1
  O2-  O286  1  0.51304698  0.63839897  0.03140521  1
  O2-  O287  1  0.51533444  0.62062638  0.51639392  1
  O2-  O288  1  0.11893452  0.27771424  -0.01261074  1
  O2-  O289  1  0.11344653  0.26297762  0.46521735  1
  O2-  O290  1  0.13384937  0.77570161  -0.00834203  1
  O2-  O291  1  0.13489079  0.76776390  0.48145854  1
  O2-  O292  1  0.61059916  0.26452579  -0.01204986  1
  O2-  O293  1  0.61653781  0.28070943  0.47787182  1
  O2-  O294  1  0.61289150  0.77115737  -0.02578737  1
  O2-  O295  1  0.62943610  0.76729700  0.47826703  1
  O2-  O296  1  0.38159806  0.22334199  0.02899738  1
  O2-  O297  1  0.38717714  0.22894336  0.51339606  1
  O2-  O298  1  0.36667072  0.74095228  0.02264288  1
  O2-  O299  1  0.37799516  0.73421338  0.52232075  1
  O2-  O300  1  0.88351474  0.22258039  0.01731516  1
  O2-  O301  1  0.88423063  0.22204159  0.52550021  1
  O2-  O302  1  0.88346480  0.72935719  0.02429124  1
  O2-  O303  1  0.88012372  0.73268197  0.51557434  1
  O2-  O304  1  0.28476253  0.38518183  -0.00107123  1
  O2-  O305  1  0.27931541  0.38812816  0.49709158  1
  O2-  O306  1  0.27060880  0.87535625  -0.00644247  1
  O2-  O307  1  0.27293442  0.86847690  0.51074785  1
  O2-  O308  1  0.76999718  0.38367998  -0.00196051  1
  O2-  O309  1  0.78088500  0.38655988  0.50506536  1
  O2-  O310  1  0.75928515  0.88497949  0.03209932  1
  O2-  O311  1  0.77435214  0.87032236  0.49831919  1
  O2-  O312  1  0.22976236  0.11227746  -0.01134245  1
  O2-  O313  1  0.22513893  0.11354714  0.50072802  1
  O2-  O314  1  0.22823500  0.63232514  0.00012227  1
  O2-  O315  1  0.23720087  0.63116477  0.50616723  1
  O2-  O316  1  0.71687542  0.10896888  -0.00597847  1
  O2-  O317  1  0.72449367  0.11255990  0.49833718  1
  O2-  O318  1  0.71441647  0.62047203  -0.00158985  1
  O2-  O319  1  0.73266639  0.63267430  0.48566646  1
