# generated using pymatgen
data_Sr64Ca21Nb43O192
_symmetry_space_group_name_H-M   'P 1'
_cell_length_a   16.54760311
_cell_length_b   16.56216167
_cell_length_c   16.70295080
_cell_angle_alpha   89.99039940
_cell_angle_beta   90.01806431
_cell_angle_gamma   90.06830561
_symmetry_Int_Tables_number   1
_chemical_formula_structural   Sr64Ca21Nb43O192
_chemical_formula_sum   'Sr64 Ca21 Nb43 O192'
_cell_volume   4577.67526428
_cell_formula_units_Z   1
loop_
 _symmetry_equiv_pos_site_id
 _symmetry_equiv_pos_as_xyz
  1  'x, y, z'
loop_
 _atom_type_symbol
 _atom_type_oxidation_number
  Sr2+  2.0
  Ca2+  2.0
  Nb5+  5.0
  O2-  -2.0
loop_
 _atom_site_type_symbol
 _atom_site_label
 _atom_site_symmetry_multiplicity
 _atom_site_fract_x
 _atom_site_fract_y
 _atom_site_fract_z
 _atom_site_occupancy
  Sr2+  Sr0  1  0.11877178  0.11230781  0.12375668  1
  Sr2+  Sr1  1  0.12827748  0.12459675  0.63964339  1
  Sr2+  Sr2  1  0.12819617  0.62281436  0.12107776  1
  Sr2+  Sr3  1  0.12313832  0.62660396  0.63376446  1
  Sr2+  Sr4  1  0.62076215  0.13340790  0.12530201  1
  Sr2+  Sr5  1  0.61910274  0.12107183  0.62811350  1
  Sr2+  Sr6  1  0.61797994  0.63086711  0.11952566  1
  Sr2+  Sr7  1  0.62620033  0.62346490  0.63513227  1
  Sr2+  Sr8  1  0.36957211  0.38240807  0.12977383  1
  Sr2+  Sr9  1  0.37218554  0.35513322  0.61996054  1
  Sr2+  Sr10  1  0.37279883  0.89118782  0.11880915  1
  Sr2+  Sr11  1  0.37279373  0.89699353  0.62668748  1
  Sr2+  Sr12  1  0.87211029  0.37243280  0.11808601  1
  Sr2+  Sr13  1  0.87222749  0.38187581  0.62697164  1
  Sr2+  Sr14  1  0.87536729  0.88970803  0.13319503  1
  Sr2+  Sr15  1  0.87180150  0.89685016  0.62576490  1
  Sr2+  Sr16  1  0.12514171  0.37454900  0.38004092  1
  Sr2+  Sr17  1  0.12456661  0.37487901  0.87207961  1
  Sr2+  Sr18  1  0.12972976  0.87294436  0.37704359  1
  Sr2+  Sr19  1  0.13132534  0.86694397  0.87736409  1
  Sr2+  Sr20  1  0.62059163  0.37620569  0.37888652  1
  Sr2+  Sr21  1  0.63561753  0.37197365  0.87318089  1
  Sr2+  Sr22  1  0.63443146  0.87906727  0.37030066  1
  Sr2+  Sr23  1  0.61791289  0.88143438  0.87535489  1
  Sr2+  Sr24  1  0.36336217  0.12612745  0.37959746  1
  Sr2+  Sr25  1  0.37519339  0.11078841  0.86766997  1
  Sr2+  Sr26  1  0.37359526  0.62736012  0.37479013  1
  Sr2+  Sr27  1  0.37110906  0.63145422  0.87613837  1
  Sr2+  Sr28  1  0.87125391  0.11506405  0.37713716  1
  Sr2+  Sr29  1  0.87561546  0.12278563  0.87977530  1
  Sr2+  Sr30  1  0.87193701  0.63208987  0.38563942  1
  Sr2+  Sr31  1  0.87712214  0.62734139  0.86874225  1
  Sr2+  Sr32  1  0.11318190  0.13316623  0.36777228  1
  Sr2+  Sr33  1  0.12343085  0.11290232  0.87098822  1
  Sr2+  Sr34  1  0.12343761  0.63382017  0.37680497  1
  Sr2+  Sr35  1  0.12174227  0.63331333  0.87687772  1
  Sr2+  Sr36  1  0.63532478  0.12950486  0.37535502  1
  Sr2+  Sr37  1  0.62986623  0.12224588  0.87681961  1
  Sr2+  Sr38  1  0.63129938  0.64103713  0.37002073  1
  Sr2+  Sr39  1  0.64084809  0.63914066  0.87560385  1
  Sr2+  Sr40  1  0.37045790  0.37403657  0.37548780  1
  Sr2+  Sr41  1  0.36960311  0.35203040  0.87110047  1
  Sr2+  Sr42  1  0.37438171  0.87479418  0.38356697  1
  Sr2+  Sr43  1  0.37240949  0.87713679  0.86677362  1
  Sr2+  Sr44  1  0.88427100  0.35716425  0.37871456  1
  Sr2+  Sr45  1  0.87982233  0.36419661  0.87664038  1
  Sr2+  Sr46  1  0.87286920  0.88856820  0.37298820  1
  Sr2+  Sr47  1  0.88597661  0.86360598  0.87106510  1
  Sr2+  Sr48  1  0.11015730  0.38855934  0.12759872  1
  Sr2+  Sr49  1  0.10232060  0.37521911  0.62666998  1
  Sr2+  Sr50  1  0.12405720  0.87379296  0.11665172  1
  Sr2+  Sr51  1  0.12886741  0.88047978  0.63387230  1
  Sr2+  Sr52  1  0.60952232  0.37746862  0.12564866  1
  Sr2+  Sr53  1  0.61125588  0.38404460  0.62485159  1
  Sr2+  Sr54  1  0.61069741  0.88410064  0.12450243  1
  Sr2+  Sr55  1  0.61463278  0.88236119  0.63102344  1
  Sr2+  Sr56  1  0.37537289  0.12955754  0.12709688  1
  Sr2+  Sr57  1  0.37600726  0.11879704  0.63308347  1
  Sr2+  Sr58  1  0.37585564  0.61971115  0.12448789  1
  Sr2+  Sr59  1  0.37429277  0.62281206  0.62399669  1
  Sr2+  Sr60  1  0.86882592  0.13074789  0.13374709  1
  Sr2+  Sr61  1  0.88141290  0.13556619  0.61699570  1
  Sr2+  Sr62  1  0.86559854  0.61427914  0.12062653  1
  Sr2+  Sr63  1  0.85916464  0.61707160  0.63094048  1
  Ca2+  Ca64  1  -0.00551439  -0.00218163  -0.00324078  1
  Ca2+  Ca65  1  0.49994879  0.00193249  0.00165702  1
  Ca2+  Ca66  1  0.50024182  -0.00174903  0.49556941  1
  Ca2+  Ca67  1  0.49681982  0.49589981  -0.00248501  1
  Ca2+  Ca68  1  0.00420214  0.00012409  0.50315456  1
  Ca2+  Ca69  1  0.24826796  0.25038676  0.00334843  1
  Ca2+  Ca70  1  0.75165681  0.75453183  0.00276568  1
  Ca2+  Ca71  1  0.74857226  0.75449760  0.50501239  1
  Ca2+  Ca72  1  0.24766798  0.25091380  0.50038355  1
  Ca2+  Ca73  1  0.74959365  0.25375541  0.50095321  1
  Ca2+  Ca74  1  0.50355856  0.25098692  0.75015571  1
  Ca2+  Ca75  1  -0.00324516  0.25156247  0.24518627  1
  Ca2+  Ca76  1  0.24991094  0.49692905  0.74758867  1
  Ca2+  Ca77  1  0.75024758  0.50209169  0.25129519  1
  Ca2+  Ca78  1  0.24619878  -0.00349284  0.75341727  1
  Ca2+  Ca79  1  0.75415753  0.00533610  0.75255197  1
  Ca2+  Ca80  1  0.00004582  0.75217504  0.74181372  1
  Ca2+  Ca81  1  0.25070346  -0.00243546  0.25150413  1
  Ca2+  Ca82  1  -0.00202943  0.25064583  0.75264762  1
  Ca2+  Ca83  1  0.00003556  0.74810020  0.24719274  1
  Ca2+  Ca84  1  0.50100373  0.74447525  0.74786488  1
  Nb5+  Nb85  1  -0.00235627  0.50280718  0.00318908  1
  Nb5+  Nb86  1  -0.00624550  0.50535240  0.50390973  1
  Nb5+  Nb87  1  0.49220607  0.50266169  0.49883771  1
  Nb5+  Nb88  1  0.25171027  0.74700575  0.50411623  1
  Nb5+  Nb89  1  0.25209596  0.74788081  0.00627344  1
  Nb5+  Nb90  1  0.74803073  0.24811141  0.00032553  1
  Nb5+  Nb91  1  0.49535964  0.75601939  0.24857113  1
  Nb5+  Nb92  1  0.74806420  0.49744020  0.75256668  1
  Nb5+  Nb93  1  0.74634491  0.00251158  0.24798601  1
  Nb5+  Nb94  1  0.24790254  0.49974311  0.25212712  1
  Nb5+  Nb95  1  0.49795894  0.25286193  0.25115773  1
  Nb5+  Nb96  1  0.00548180  -0.00318019  0.25159224  1
  Nb5+  Nb97  1  -0.00317433  0.00049865  0.75051964  1
  Nb5+  Nb98  1  -0.00489373  0.50919367  0.25752642  1
  Nb5+  Nb99  1  -0.00043331  0.49872501  0.75693478  1
  Nb5+  Nb100  1  0.49921320  0.01058358  0.25503671  1
  Nb5+  Nb101  1  0.50318440  -0.00115164  0.75038260  1
  Nb5+  Nb102  1  0.50187266  0.50544709  0.25370102  1
  Nb5+  Nb103  1  0.49548437  0.49645202  0.75893708  1
  Nb5+  Nb104  1  0.24201236  0.25213792  0.24530499  1
  Nb5+  Nb105  1  0.24971885  0.24966529  0.75127213  1
  Nb5+  Nb106  1  0.25595339  0.75215569  0.25360816  1
  Nb5+  Nb107  1  0.25226213  0.74569429  0.75477253  1
  Nb5+  Nb108  1  0.75008479  0.25623588  0.25096658  1
  Nb5+  Nb109  1  0.75082469  0.25052553  0.74598493  1
  Nb5+  Nb110  1  0.75097828  0.75008019  0.24078345  1
  Nb5+  Nb111  1  0.75205476  0.75883946  0.75146005  1
  Nb5+  Nb112  1  0.00510143  0.24874559  0.49931556  1
  Nb5+  Nb113  1  0.00531888  0.24800160  1.00328406  1
  Nb5+  Nb114  1  -0.00343859  0.75023660  0.50126626  1
  Nb5+  Nb115  1  -0.00353341  0.74799720  1.00440865  1
  Nb5+  Nb116  1  0.50272741  0.24538913  0.49748850  1
  Nb5+  Nb117  1  0.49986821  0.24910660  0.99673894  1
  Nb5+  Nb118  1  0.49838051  0.74681415  0.49714112  1
  Nb5+  Nb119  1  0.50000147  0.74907285  0.99340039  1
  Nb5+  Nb120  1  0.24630064  0.00322699  0.00105182  1
  Nb5+  Nb121  1  0.24319567  0.00450564  0.49728171  1
  Nb5+  Nb122  1  0.25057319  0.49894666  -0.00456178  1
  Nb5+  Nb123  1  0.24370219  0.50089645  0.50090609  1
  Nb5+  Nb124  1  0.75470847  -0.00280846  -0.00091225  1
  Nb5+  Nb125  1  0.74498829  -0.00063851  0.50624454  1
  Nb5+  Nb126  1  0.74625389  0.49757887  0.00077491  1
  Nb5+  Nb127  1  0.74200013  0.50335873  0.49681638  1
  O2-  O128  1  0.00526820  -0.00440775  0.13270742  1
  O2-  O129  1  0.03094331  -0.00049899  0.63463711  1
  O2-  O130  1  -0.00696301  0.51001128  0.12256870  1
  O2-  O131  1  -0.00541361  0.50032907  0.62177470  1
  O2-  O132  1  0.50756793  0.00874500  0.13885305  1
  O2-  O133  1  0.51185789  0.01638771  0.62968245  1
  O2-  O134  1  0.49606627  0.51273237  0.13680236  1
  O2-  O135  1  0.50602419  0.52369038  0.61227047  1
  O2-  O136  1  -0.01361163  0.01484071  0.36805183  1
  O2-  O137  1  -0.03979224  -0.00169898  0.86634658  1
  O2-  O138  1  0.00247308  0.50571588  0.37523254  1
  O2-  O139  1  0.00411966  0.49649618  0.87580991  1
  O2-  O140  1  0.49802152  -0.03342899  0.36288095  1
  O2-  O141  1  0.48755991  -0.02041045  0.86904888  1
  O2-  O142  1  0.49548176  0.47503057  0.37223893  1
  O2-  O143  1  0.49413238  0.45888175  0.86579526  1
  O2-  O144  1  0.28715924  0.25202574  0.13670437  1
  O2-  O145  1  0.27407583  0.23084518  0.63209672  1
  O2-  O146  1  0.24182802  0.74049069  0.12444029  1
  O2-  O147  1  0.23985607  0.73147575  0.61828233  1
  O2-  O148  1  0.76733652  0.25762684  0.12435017  1
  O2-  O149  1  0.78049559  0.25902090  0.63480944  1
  O2-  O150  1  0.71021175  0.77267431  0.13297799  1
  O2-  O151  1  0.71526254  0.76304351  0.63803248  1
  O2-  O152  1  0.23750880  0.26543346  0.36220825  1
  O2-  O153  1  0.23137816  0.26998103  0.86980999  1
  O2-  O154  1  0.27021017  0.75218202  0.37037608  1
  O2-  O155  1  0.26294790  0.75102859  0.87485171  1
  O2-  O156  1  0.72517472  0.25070687  0.36429657  1
  O2-  O157  1  0.72551631  0.24508219  0.88310118  1
  O2-  O158  1  0.76404394  0.73814787  0.36060233  1
  O2-  O159  1  0.77374837  0.73357290  0.86912163  1
  O2-  O160  1  -0.03520014  0.25062934  0.11372155  1
  O2-  O161  1  -0.02024599  0.26254344  0.61426941  1
  O2-  O162  1  0.03328765  0.74208046  0.11529980  1
  O2-  O163  1  0.03908643  0.75245180  0.60928334  1
  O2-  O164  1  0.49259884  0.22449058  0.13508758  1
  O2-  O165  1  0.48521833  0.23004783  0.61137938  1
  O2-  O166  1  0.50855125  0.73054633  0.13217383  1
  O2-  O167  1  0.51122185  0.71828351  0.60789312  1
  O2-  O168  1  0.25901626  -0.02577076  0.38360213  1
  O2-  O169  1  0.27188326  -0.01086783  0.88695139  1
  O2-  O170  1  0.25060590  0.49333667  0.37196437  1
  O2-  O171  1  0.23297582  0.49453728  0.88334054  1
  O2-  O172  1  0.75120323  0.01211203  0.36997679  1
  O2-  O173  1  0.75419534  0.02548116  0.88722265  1
  O2-  O174  1  0.74467355  0.53125035  0.38568255  1
  O2-  O175  1  0.74926303  0.51049891  0.87555314  1
  O2-  O176  1  0.02094697  0.26091290  0.37867338  1
  O2-  O177  1  0.01214212  0.27147946  0.88831881  1
  O2-  O178  1  -0.00722333  0.72847595  0.38325371  1
  O2-  O179  1  -0.00113279  0.74871987  0.88416184  1
  O2-  O180  1  0.52490629  0.26401220  0.36697130  1
  O2-  O181  1  0.51998259  0.27309229  0.88692923  1
  O2-  O182  1  0.47160226  0.75511255  0.36840681  1
  O2-  O183  1  0.46913376  0.75872147  0.88352060  1
  O2-  O184  1  0.23037639  -0.01193352  0.11887813  1
  O2-  O185  1  0.23740661  0.00462781  0.61714502  1
  O2-  O186  1  0.25139866  0.50727260  0.12940114  1
  O2-  O187  1  0.25036942  0.52276696  0.61259460  1
  O2-  O188  1  0.74233690  -0.01173301  0.12914225  1
  O2-  O189  1  0.73321023  -0.01439916  0.61923820  1
  O2-  O190  1  0.76893882  0.48842266  0.11490830  1
  O2-  O191  1  0.75208035  0.48518356  0.63052832  1
  O2-  O192  1  0.13276791  0.27550256  0.22329150  1
  O2-  O193  1  0.13414315  0.27259250  0.72792976  1
  O2-  O194  1  0.14176945  0.77075620  0.26063240  1
  O2-  O195  1  0.13656576  0.77727670  0.75477706  1
  O2-  O196  1  0.62712008  0.26316333  0.22777577  1
  O2-  O197  1  0.63786236  0.28663437  0.73801828  1
  O2-  O198  1  0.61183821  0.76338179  0.27143696  1
  O2-  O199  1  0.63493011  0.76226670  0.78356099  1
  O2-  O200  1  0.38457541  0.23071214  0.27141877  1
  O2-  O201  1  0.37093610  0.22815690  0.77613523  1
  O2-  O202  1  0.37756708  0.71662528  0.23833358  1
  O2-  O203  1  0.36627147  0.71379976  0.74064374  1
  O2-  O204  1  0.86159838  0.22127248  0.26720114  1
  O2-  O205  1  0.86254317  0.23492997  0.78266964  1
  O2-  O206  1  0.86166079  0.74111384  0.21025655  1
  O2-  O207  1  0.86430404  0.72377335  0.72955924  1
  O2-  O208  1  0.27308574  0.38012490  0.24702789  1
  O2-  O209  1  0.28453285  0.36638160  0.74118320  1
  O2-  O210  1  0.28851328  0.86159095  0.24220650  1
  O2-  O211  1  0.27940118  0.86198907  0.73948796  1
  O2-  O212  1  0.77903831  0.36800749  0.25674248  1
  O2-  O213  1  0.77508834  0.37955263  0.76650214  1
  O2-  O214  1  0.76082164  0.87846898  0.26151706  1
  O2-  O215  1  0.77977946  0.86991848  0.76088371  1
  O2-  O216  1  0.22637641  0.13575209  0.25177395  1
  O2-  O217  1  0.22816020  0.13129133  0.76538703  1
  O2-  O218  1  0.23787173  0.62101681  0.25557012  1
  O2-  O219  1  0.21758020  0.63159242  0.75789025  1
  O2-  O220  1  0.72804634  0.12217916  0.23907120  1
  O2-  O221  1  0.71961881  0.13920036  0.74265899  1
  O2-  O222  1  0.72309925  0.63647161  0.22969155  1
  O2-  O223  1  0.73279716  0.61623992  0.74245468  1
  O2-  O224  1  0.13095540  0.47606875  0.25183087  1
  O2-  O225  1  0.11246532  0.47126808  0.74436701  1
  O2-  O226  1  0.11704589  0.96899469  0.26019999  1
  O2-  O227  1  0.11311395  0.97768211  0.78227767  1
  O2-  O228  1  0.61487557  0.47297022  0.25207052  1
  O2-  O229  1  0.63144429  0.47445706  0.75131176  1
  O2-  O230  1  0.62534492  0.98154791  0.25382691  1
  O2-  O231  1  0.62057238  0.97443998  0.75894280  1
  O2-  O232  1  0.38450570  0.03271377  0.25208566  1
  O2-  O233  1  0.38258796  0.01787149  0.74092046  1
  O2-  O234  1  0.37565682  0.51177570  0.25441894  1
  O2-  O235  1  0.38577542  0.52985449  0.75249802  1
  O2-  O236  1  0.86662241  0.01703220  0.24325084  1
  O2-  O237  1  0.88326621  0.03011118  0.71573356  1
  O2-  O238  1  0.88573078  0.54438023  0.25737767  1
  O2-  O239  1  0.87338867  0.52111588  0.75258913  1
  O2-  O240  1  0.48344289  0.36785645  0.23519813  1
  O2-  O241  1  0.48671009  0.38875101  0.71063383  1
  O2-  O242  1  0.47903464  0.86868335  0.23111404  1
  O2-  O243  1  0.48598408  0.87862741  0.72597849  1
  O2-  O244  1  0.98034429  0.39259054  0.24100773  1
  O2-  O245  1  0.96956709  0.38529817  0.74411914  1
  O2-  O246  1  0.96986207  0.88194021  0.25572388  1
  O2-  O247  1  0.96900658  0.88313622  0.74087156  1
  O2-  O248  1  0.02445730  0.11753769  0.24310754  1
  O2-  O249  1  0.02612154  0.11971623  0.75575065  1
  O2-  O250  1  0.04276644  0.61465254  0.24563424  1
  O2-  O251  1  0.01846394  0.61519521  0.74956256  1
  O2-  O252  1  0.52595260  0.12349226  0.26979547  1
  O2-  O253  1  0.52517484  0.11704579  0.76644877  1
  O2-  O254  1  0.51768777  0.61911758  0.26813359  1
  O2-  O255  1  0.53562131  0.60731690  0.76635321  1
  O2-  O256  1  0.12275767  0.48478014  0.01025384  1
  O2-  O257  1  0.12736930  0.48080411  0.49825712  1
  O2-  O258  1  0.13096502  0.96953302  -0.01344397  1
  O2-  O259  1  0.13474866  0.95831137  0.49500691  1
  O2-  O260  1  0.63433401  0.47174697  0.00172270  1
  O2-  O261  1  0.62662293  0.48174183  0.49799308  1
  O2-  O262  1  0.63675666  0.97597458  -0.00023250  1
  O2-  O263  1  0.63178488  0.96605667  0.49091291  1
  O2-  O264  1  0.36473982  0.01895592  0.02381457  1
  O2-  O265  1  0.36409873  0.01892346  0.50923646  1
  O2-  O266  1  0.36276019  0.53062872  -0.00440848  1
  O2-  O267  1  0.37727925  0.52089447  0.49414048  1
  O2-  O268  1  0.86366255  0.03701326  0.02158992  1
  O2-  O269  1  0.86550690  0.02700978  0.51179685  1
  O2-  O270  1  0.88031190  0.52146501  -0.00972201  1
  O2-  O271  1  0.87949178  0.52792838  0.49899416  1
  O2-  O272  1  0.48389536  0.36073931  0.03426168  1
  O2-  O273  1  0.48340476  0.38326504  0.50884071  1
  O2-  O274  1  0.48494601  0.86197627  0.02634783  1
  O2-  O275  1  0.47358266  0.85791612  0.51352414  1
  O2-  O276  1  0.98305581  0.38425578  0.00776278  1
  O2-  O277  1  0.98207804  0.38700054  0.49492869  1
  O2-  O278  1  0.97641021  0.86193031  0.01041728  1
  O2-  O279  1  0.97714856  0.86316066  0.49024251  1
  O2-  O280  1  0.02473265  0.13449459  -0.00529903  1
  O2-  O281  1  0.03123432  0.13696184  0.50648271  1
  O2-  O282  1  0.02499431  0.61989555  -0.00541986  1
  O2-  O283  1  0.03114956  0.61797713  0.50260978  1
  O2-  O284  1  0.53417718  0.13570577  -0.00374132  1
  O2-  O285  1  0.52124939  0.13412243  0.47527145  1
  O2-  O286  1  0.52124393  0.63129481  -0.00730583  1
  O2-  O287  1  0.51326353  0.61668697  0.46488585  1
  O2-  O288  1  0.11409738  0.27369181  0.03098937  1
  O2-  O289  1  0.11759184  0.28688778  0.51041030  1
  O2-  O290  1  0.13358362  0.76439529  -0.01129392  1
  O2-  O291  1  0.13743578  0.75743356  0.47371771  1
  O2-  O292  1  0.63134356  0.27386810  0.02149031  1
  O2-  O293  1  0.61500292  0.28269879  0.50973152  1
  O2-  O294  1  0.61440024  0.76688680  -0.02332112  1
  O2-  O295  1  0.61112797  0.75879203  0.46942445  1
  O2-  O296  1  0.38696763  0.22393171  -0.01820767  1
  O2-  O297  1  0.38693905  0.24731572  0.46973008  1
  O2-  O298  1  0.37046705  0.72229909  0.01077705  1
  O2-  O299  1  0.37267284  0.71710286  0.50174119  1
  O2-  O300  1  0.86834757  0.23607412  -0.01862001  1
  O2-  O301  1  0.88633493  0.23501181  0.47339131  1
  O2-  O302  1  0.88632769  0.71663314  0.01522547  1
  O2-  O303  1  0.88762238  0.71956068  0.52153933  1
  O2-  O304  1  0.27530573  0.38655083  0.00663240  1
  O2-  O305  1  0.27589195  0.38928363  0.50226642  1
  O2-  O306  1  0.27251285  0.86436239  0.00375572  1
  O2-  O307  1  0.27640241  0.86053159  0.50953339  1
  O2-  O308  1  0.77354062  0.37525319  -0.01161984  1
  O2-  O309  1  0.78010601  0.39224137  0.48817274  1
  O2-  O310  1  0.78840592  0.88734447  -0.00937167  1
  O2-  O311  1  0.78005052  0.88467884  0.48751796  1
  O2-  O312  1  0.21967760  0.11568891  -0.00120404  1
  O2-  O313  1  0.22192078  0.11587128  0.47536189  1
  O2-  O314  1  0.22711524  0.62663716  -0.00566593  1
  O2-  O315  1  0.23890287  0.62179908  0.47740099  1
  O2-  O316  1  0.72708274  0.13308832  0.01477182  1
  O2-  O317  1  0.71925749  0.11782847  0.50623669  1
  O2-  O318  1  0.72990579  0.61419647  0.01222115  1
  O2-  O319  1  0.73814617  0.61661502  0.52997999  1
