# generated using pymatgen
data_Sr64Ca21Nb43O192
_symmetry_space_group_name_H-M   'P 1'
_cell_length_a   16.55165061
_cell_length_b   16.56678606
_cell_length_c   16.71817622
_cell_angle_alpha   90.02393652
_cell_angle_beta   89.99187607
_cell_angle_gamma   90.02873797
_symmetry_Int_Tables_number   1
_chemical_formula_structural   Sr64Ca21Nb43O192
_chemical_formula_sum   'Sr64 Ca21 Nb43 O192'
_cell_volume   4584.25086660
_cell_formula_units_Z   1
loop_
 _symmetry_equiv_pos_site_id
 _symmetry_equiv_pos_as_xyz
  1  'x, y, z'
loop_
 _atom_type_symbol
 _atom_type_oxidation_number
  Sr2+  2.0
  Ca2+  2.0
  Nb5+  5.0
  O2-  -2.0
loop_
 _atom_site_type_symbol
 _atom_site_label
 _atom_site_symmetry_multiplicity
 _atom_site_fract_x
 _atom_site_fract_y
 _atom_site_fract_z
 _atom_site_occupancy
  Sr2+  Sr0  1  0.11094128  0.13789322  0.12248215  1
  Sr2+  Sr1  1  0.11875333  0.12413304  0.62428240  1
  Sr2+  Sr2  1  0.12667621  0.62515025  0.12871305  1
  Sr2+  Sr3  1  0.11812221  0.62305802  0.62416155  1
  Sr2+  Sr4  1  0.62942596  0.11690056  0.13037395  1
  Sr2+  Sr5  1  0.61322902  0.13933887  0.62374875  1
  Sr2+  Sr6  1  0.62075461  0.62791527  0.11530022  1
  Sr2+  Sr7  1  0.63108198  0.62386100  0.62691203  1
  Sr2+  Sr8  1  0.37696985  0.38538549  0.11838457  1
  Sr2+  Sr9  1  0.38019506  0.37138200  0.62961831  1
  Sr2+  Sr10  1  0.38765911  0.86706955  0.13342535  1
  Sr2+  Sr11  1  0.37295926  0.86625337  0.62537997  1
  Sr2+  Sr12  1  0.87168402  0.35649921  0.12931931  1
  Sr2+  Sr13  1  0.86927426  0.38179974  0.62892968  1
  Sr2+  Sr14  1  0.87651460  0.86974293  0.12092912  1
  Sr2+  Sr15  1  0.87983280  0.87187157  0.62231748  1
  Sr2+  Sr16  1  0.13656216  0.36513071  0.37305508  1
  Sr2+  Sr17  1  0.13815873  0.36253211  0.88783835  1
  Sr2+  Sr18  1  0.13542958  0.88136658  0.37224201  1
  Sr2+  Sr19  1  0.13524720  0.88834459  0.87083689  1
  Sr2+  Sr20  1  0.62934266  0.37666119  0.36674303  1
  Sr2+  Sr21  1  0.61832361  0.37549591  0.87331212  1
  Sr2+  Sr22  1  0.62956942  0.88525595  0.37144094  1
  Sr2+  Sr23  1  0.64481671  0.87287370  0.87409294  1
  Sr2+  Sr24  1  0.38634523  0.11782913  0.37949879  1
  Sr2+  Sr25  1  0.37325420  0.12129556  0.86595020  1
  Sr2+  Sr26  1  0.37421649  0.62171881  0.37221373  1
  Sr2+  Sr27  1  0.37761595  0.61895084  0.89154422  1
  Sr2+  Sr28  1  0.88264297  0.11936678  0.36850651  1
  Sr2+  Sr29  1  0.86688526  0.11837819  0.88234975  1
  Sr2+  Sr30  1  0.88219082  0.62553240  0.36783934  1
  Sr2+  Sr31  1  0.88200977  0.62269981  0.85939155  1
  Sr2+  Sr32  1  0.12739152  0.12824317  0.37483300  1
  Sr2+  Sr33  1  0.12522390  0.12575236  0.88468276  1
  Sr2+  Sr34  1  0.13566673  0.62112959  0.37366221  1
  Sr2+  Sr35  1  0.13210630  0.63468778  0.87654787  1
  Sr2+  Sr36  1  0.61536634  0.13186583  0.37353835  1
  Sr2+  Sr37  1  0.61912650  0.12957227  0.87494816  1
  Sr2+  Sr38  1  0.62514901  0.63477179  0.38002217  1
  Sr2+  Sr39  1  0.61392144  0.63407045  0.87205927  1
  Sr2+  Sr40  1  0.37423057  0.35622077  0.37498229  1
  Sr2+  Sr41  1  0.37969052  0.36138203  0.87444308  1
  Sr2+  Sr42  1  0.37902038  0.85361893  0.37824899  1
  Sr2+  Sr43  1  0.37314189  0.85901438  0.86779007  1
  Sr2+  Sr44  1  0.86699063  0.36810101  0.36343261  1
  Sr2+  Sr45  1  0.87186303  0.36599516  0.86777909  1
  Sr2+  Sr46  1  0.87269949  0.87683383  0.37498293  1
  Sr2+  Sr47  1  0.88006880  0.87692767  0.88571146  1
  Sr2+  Sr48  1  0.11549729  0.38162844  0.12706335  1
  Sr2+  Sr49  1  0.11092386  0.37844258  0.62317940  1
  Sr2+  Sr50  1  0.11789150  0.87389104  0.11265674  1
  Sr2+  Sr51  1  0.12081673  0.87658034  0.62822814  1
  Sr2+  Sr52  1  0.63659109  0.38462945  0.11834707  1
  Sr2+  Sr53  1  0.62836212  0.38701616  0.62791070  1
  Sr2+  Sr54  1  0.62812870  0.87394368  0.11562405  1
  Sr2+  Sr55  1  0.64167278  0.86633611  0.62790768  1
  Sr2+  Sr56  1  0.38908619  0.11830682  0.13770227  1
  Sr2+  Sr57  1  0.37541685  0.12663398  0.62601371  1
  Sr2+  Sr58  1  0.38003693  0.62285703  0.12449875  1
  Sr2+  Sr59  1  0.39284345  0.62542968  0.62476835  1
  Sr2+  Sr60  1  0.87385033  0.11941375  0.11621036  1
  Sr2+  Sr61  1  0.87264656  0.12344970  0.61549473  1
  Sr2+  Sr62  1  0.90159086  0.62671464  0.13069956  1
  Sr2+  Sr63  1  0.89629314  0.62094149  0.62475895  1
  Ca2+  Ca64  1  0.49844182  0.50080056  0.49852005  1
  Ca2+  Ca65  1  0.49614193  0.00207827  -0.00418651  1
  Ca2+  Ca66  1  0.50176698  -0.00204068  0.50261090  1
  Ca2+  Ca67  1  -0.00225331  0.49727708  0.49477861  1
  Ca2+  Ca68  1  -0.00353227  0.50060563  -0.00104955  1
  Ca2+  Ca69  1  0.74627806  0.25210278  -0.00277294  1
  Ca2+  Ca70  1  0.24923351  0.75452449  0.00128959  1
  Ca2+  Ca71  1  0.75413213  0.74346533  0.00196032  1
  Ca2+  Ca72  1  0.75032512  0.25302483  0.50004455  1
  Ca2+  Ca73  1  0.25586009  0.24414829  0.00385723  1
  Ca2+  Ca74  1  0.24834977  0.49757060  0.75017208  1
  Ca2+  Ca75  1  0.24980639  -0.00223022  0.24819582  1
  Ca2+  Ca76  1  0.00061054  0.75344261  0.75463478  1
  Ca2+  Ca77  1  0.00067001  0.24821975  0.25257862  1
  Ca2+  Ca78  1  0.75292623  -0.00149451  0.24794237  1
  Ca2+  Ca79  1  0.00148692  0.75316238  0.25623712  1
  Ca2+  Ca80  1  0.50022474  0.25447214  0.24698435  1
  Ca2+  Ca81  1  0.50388787  0.74638498  0.25244319  1
  Ca2+  Ca82  1  0.50055069  0.75318674  0.74968948  1
  Ca2+  Ca83  1  0.75305121  0.00101065  0.74673848  1
  Ca2+  Ca84  1  -0.00014385  0.24552683  0.75193675  1
  Nb5+  Nb85  1  0.00219290  -0.00022357  -0.00490695  1
  Nb5+  Nb86  1  0.00221726  -0.00037008  0.49384429  1
  Nb5+  Nb87  1  0.50209491  0.49679659  -0.00015235  1
  Nb5+  Nb88  1  0.24991261  0.24155750  0.50228038  1
  Nb5+  Nb89  1  0.76055469  0.74541340  0.50240684  1
  Nb5+  Nb90  1  0.25160144  0.74274832  0.50439695  1
  Nb5+  Nb91  1  0.75367964  0.50566208  0.24017530  1
  Nb5+  Nb92  1  0.75003494  0.50171395  0.74612232  1
  Nb5+  Nb93  1  0.50257653  0.24999479  0.75021952  1
  Nb5+  Nb94  1  0.25624494  0.49755718  0.25192496  1
  Nb5+  Nb95  1  0.25136274  0.00145285  0.74717445  1
  Nb5+  Nb96  1  0.00182651  -0.00225791  0.24144388  1
  Nb5+  Nb97  1  -0.00282964  0.00728356  0.74493158  1
  Nb5+  Nb98  1  0.00696348  0.49649994  0.25534119  1
  Nb5+  Nb99  1  0.00573672  0.49281541  0.75715650  1
  Nb5+  Nb100  1  0.50156669  -0.00420198  0.25074235  1
  Nb5+  Nb101  1  0.50289688  -0.00350207  0.74817485  1
  Nb5+  Nb102  1  0.50580592  0.50067193  0.25075437  1
  Nb5+  Nb103  1  0.49894028  0.50244590  0.74937313  1
  Nb5+  Nb104  1  0.25278172  0.24597616  0.24391562  1
  Nb5+  Nb105  1  0.24740766  0.25018290  0.74551931  1
  Nb5+  Nb106  1  0.24750503  0.75202495  0.25017443  1
  Nb5+  Nb107  1  0.24735739  0.74382745  0.74790522  1
  Nb5+  Nb108  1  0.74378239  0.24380153  0.25062882  1
  Nb5+  Nb109  1  0.74947125  0.24619403  0.75008947  1
  Nb5+  Nb110  1  0.74814537  0.74844060  0.24950308  1
  Nb5+  Nb111  1  0.75592386  0.75048006  0.75256536  1
  Nb5+  Nb112  1  -0.00296301  0.24880897  0.50212740  1
  Nb5+  Nb113  1  -0.00226752  0.25539018  1.00039569  1
  Nb5+  Nb114  1  0.00953389  0.75104653  0.49770549  1
  Nb5+  Nb115  1  0.00300800  0.74591367  0.99932689  1
  Nb5+  Nb116  1  0.50356696  0.25735131  0.50051800  1
  Nb5+  Nb117  1  0.49987598  0.24878183  1.00453969  1
  Nb5+  Nb118  1  0.51273714  0.75404934  0.50266573  1
  Nb5+  Nb119  1  0.49649523  0.75697970  0.99786061  1
  Nb5+  Nb120  1  0.25507261  0.00120246  0.00542617  1
  Nb5+  Nb121  1  0.25108700  -0.00608606  0.49963580  1
  Nb5+  Nb122  1  0.24634232  0.49915162  -0.00215164  1
  Nb5+  Nb123  1  0.24755374  0.49129885  0.50150939  1
  Nb5+  Nb124  1  0.74598549  -0.00248522  -0.00256331  1
  Nb5+  Nb125  1  0.74604288  0.00137342  0.50217418  1
  Nb5+  Nb126  1  0.75528837  0.50661899  -0.00818371  1
  Nb5+  Nb127  1  0.75300722  0.50066644  0.48955839  1
  O2-  O128  1  0.00234924  0.00816342  0.12308397  1
  O2-  O129  1  -0.00341356  0.01061822  0.62560801  1
  O2-  O130  1  0.01434530  0.51935686  0.13714073  1
  O2-  O131  1  0.01283872  0.51084808  0.63600883  1
  O2-  O132  1  0.48428919  -0.01063534  0.13043506  1
  O2-  O133  1  0.49667085  0.02309738  0.63510124  1
  O2-  O134  1  0.50841653  0.48224595  0.11814680  1
  O2-  O135  1  0.50909292  0.48409613  0.63506344  1
  O2-  O136  1  0.00714907  -0.01206854  0.37788220  1
  O2-  O137  1  0.00281085  -0.00659696  0.87599775  1
  O2-  O138  1  -0.03225648  0.47974298  0.36499722  1
  O2-  O139  1  -0.03548610  0.48957098  0.86703664  1
  O2-  O140  1  0.52212455  0.00952740  0.36842534  1
  O2-  O141  1  0.49573118  0.02541937  0.86128911  1
  O2-  O142  1  0.49840163  0.52561162  0.36284344  1
  O2-  O143  1  0.49426919  0.50685963  0.87567041  1
  O2-  O144  1  0.28397233  0.26274698  0.13620056  1
  O2-  O145  1  0.27664871  0.25869140  0.61943757  1
  O2-  O146  1  0.22730602  0.76654023  0.13853769  1
  O2-  O147  1  0.22630286  0.76840400  0.61976227  1
  O2-  O148  1  0.77094652  0.23689138  0.13367314  1
  O2-  O149  1  0.77647799  0.25200739  0.63438324  1
  O2-  O150  1  0.71875484  0.74454552  0.13859492  1
  O2-  O151  1  0.72926688  0.73906118  0.62206677  1
  O2-  O152  1  0.23062411  0.24285624  0.38391088  1
  O2-  O153  1  0.23407290  0.23487184  0.86045960  1
  O2-  O154  1  0.26790950  0.73324251  0.38737400  1
  O2-  O155  1  0.26952766  0.73119908  0.86194081  1
  O2-  O156  1  0.72465299  0.26533630  0.36800402  1
  O2-  O157  1  0.72145629  0.26820640  0.86246647  1
  O2-  O158  1  0.77305065  0.74315335  0.38561104  1
  O2-  O159  1  0.77418965  0.76153730  0.86652574  1
  O2-  O160  1  -0.01985869  0.22823278  0.11707152  1
  O2-  O161  1  -0.00736796  0.21721062  0.61639600  1
  O2-  O162  1  0.02919024  0.74563886  0.12087057  1
  O2-  O163  1  0.01443406  0.74872871  0.61693885  1
  O2-  O164  1  0.46824055  0.25644159  0.11392317  1
  O2-  O165  1  0.47923443  0.25038282  0.62621382  1
  O2-  O166  1  0.51991088  0.76510335  0.11583161  1
  O2-  O167  1  0.51962230  0.77307546  0.61887034  1
  O2-  O168  1  0.22946910  0.01254776  0.38675131  1
  O2-  O169  1  0.24148006  0.02570170  0.86225544  1
  O2-  O170  1  0.26248605  0.51375227  0.37248201  1
  O2-  O171  1  0.25191687  0.52525344  0.88576539  1
  O2-  O172  1  0.75602500  -0.01437298  0.38607630  1
  O2-  O173  1  0.76279563  -0.02242529  0.87916390  1
  O2-  O174  1  0.75793409  0.49744334  0.37285784  1
  O2-  O175  1  0.76422448  0.48951652  0.87580907  1
  O2-  O176  1  0.02773983  0.25631113  0.38850422  1
  O2-  O177  1  0.03070570  0.25731228  0.88594348  1
  O2-  O178  1  -0.03153888  0.76163351  0.39023659  1
  O2-  O179  1  -0.03346812  0.75186551  0.88710007  1
  O2-  O180  1  0.52199236  0.26169085  0.38437252  1
  O2-  O181  1  0.52245716  0.25152803  0.86693219  1
  O2-  O182  1  0.48125083  0.72912220  0.38974477  1
  O2-  O183  1  0.47510225  0.73231737  0.88171177  1
  O2-  O184  1  0.26154476  -0.03461251  0.11327132  1
  O2-  O185  1  0.25218957  -0.01415526  0.62167693  1
  O2-  O186  1  0.24011791  0.47985675  0.13381743  1
  O2-  O187  1  0.22202960  0.48697816  0.61391266  1
  O2-  O188  1  0.75132202  0.02138111  0.11328714  1
  O2-  O189  1  0.77906685  -0.00451643  0.61374291  1
  O2-  O190  1  0.73113950  0.51454209  0.12664705  1
  O2-  O191  1  0.73597483  0.50471852  0.62835815  1
  O2-  O192  1  0.13768534  0.27704117  0.23771543  1
  O2-  O193  1  0.13749791  0.27071366  0.72300979  1
  O2-  O194  1  0.13538526  0.75358998  0.28812954  1
  O2-  O195  1  0.13564447  0.78055392  0.76383242  1
  O2-  O196  1  0.63326055  0.28067597  0.22668534  1
  O2-  O197  1  0.62043665  0.27142450  0.72201004  1
  O2-  O198  1  0.63582741  0.75902876  0.29038979  1
  O2-  O199  1  0.63650846  0.76096968  0.76852420  1
  O2-  O200  1  0.36461750  0.23214343  0.28308759  1
  O2-  O201  1  0.38252926  0.23198707  0.76038716  1
  O2-  O202  1  0.36267570  0.72272545  0.24380165  1
  O2-  O203  1  0.36201920  0.74420487  0.71783984  1
  O2-  O204  1  0.86297860  0.24247530  0.27614805  1
  O2-  O205  1  0.86186273  0.23342067  0.77893354  1
  O2-  O206  1  0.86164111  0.71599109  0.24263226  1
  O2-  O207  1  0.86698981  0.71767011  0.73066091  1
  O2-  O208  1  0.26513942  0.37909706  0.27093753  1
  O2-  O209  1  0.27997306  0.36288998  0.75540991  1
  O2-  O210  1  0.26896742  0.86256246  0.27582371  1
  O2-  O211  1  0.26939566  0.88442554  0.75879508  1
  O2-  O212  1  0.76515029  0.38597941  0.24362620  1
  O2-  O213  1  0.76318214  0.38107784  0.74371087  1
  O2-  O214  1  0.77319657  0.86148789  0.25142302  1
  O2-  O215  1  0.76998410  0.86317503  0.72982967  1
  O2-  O216  1  0.22636598  0.13387216  0.23336711  1
  O2-  O217  1  0.24107953  0.12784726  0.72153992  1
  O2-  O218  1  0.22725692  0.61679694  0.24434121  1
  O2-  O219  1  0.22101437  0.63334300  0.73239559  1
  O2-  O220  1  0.71844262  0.13221606  0.26178675  1
  O2-  O221  1  0.71683682  0.13462765  0.74937935  1
  O2-  O222  1  0.72237002  0.61823474  0.26375538  1
  O2-  O223  1  0.73040403  0.61942543  0.76426498  1
  O2-  O224  1  0.12320273  0.47993786  0.26877767  1
  O2-  O225  1  0.11531552  0.46319333  0.77505940  1
  O2-  O226  1  0.11478424  0.95904155  0.24104836  1
  O2-  O227  1  0.12976702  0.98099132  0.73880128  1
  O2-  O228  1  0.62122611  0.47921820  0.25318064  1
  O2-  O229  1  0.62682010  0.48387915  0.76243806  1
  O2-  O230  1  0.61855359  0.96718777  0.23399114  1
  O2-  O231  1  0.61593191  0.96734055  0.74828821  1
  O2-  O232  1  0.38294909  0.02836208  0.25960046  1
  O2-  O233  1  0.36873927  0.02578995  0.74427555  1
  O2-  O234  1  0.36993805  0.51885230  0.23896222  1
  O2-  O235  1  0.38377841  0.52106487  0.74483629  1
  O2-  O236  1  0.88569636  0.03535884  0.24655048  1
  O2-  O237  1  0.88736043  0.04290101  0.75095297  1
  O2-  O238  1  0.86732240  0.52198558  0.23588591  1
  O2-  O239  1  0.86688112  0.51946671  0.73541598  1
  O2-  O240  1  0.46876802  0.38944624  0.25395745  1
  O2-  O241  1  0.48584781  0.37464522  0.75829482  1
  O2-  O242  1  0.47091495  0.87961496  0.26281812  1
  O2-  O243  1  0.46537139  0.88802246  0.75095420  1
  O2-  O244  1  0.97983720  0.38309204  0.22952204  1
  O2-  O245  1  0.97039451  0.37974751  0.73676353  1
  O2-  O246  1  0.96152353  0.88565672  0.24761775  1
  O2-  O247  1  0.97584665  0.88992470  0.74785154  1
  O2-  O248  1  0.03237955  0.11226541  0.26244764  1
  O2-  O249  1  0.04117795  0.11477848  0.76130048  1
  O2-  O250  1  0.01045853  0.61477551  0.27463842  1
  O2-  O251  1  0.02208954  0.61399320  0.76786623  1
  O2-  O252  1  0.52500581  0.11860645  0.23804230  1
  O2-  O253  1  0.52465710  0.13425811  0.74712974  1
  O2-  O254  1  0.50816287  0.61318622  0.21670233  1
  O2-  O255  1  0.52156046  0.61663631  0.73861186  1
  O2-  O256  1  0.13283692  0.47230772  -0.00323163  1
  O2-  O257  1  0.13307263  0.48804888  0.46946528  1
  O2-  O258  1  0.12098013  0.97901951  -0.00115467  1
  O2-  O259  1  0.12265560  0.98150647  0.51254227  1
  O2-  O260  1  0.61916569  0.47740899  -0.01026504  1
  O2-  O261  1  0.63533274  0.47706881  0.49129066  1
  O2-  O262  1  0.63151132  0.97475707  -0.00494192  1
  O2-  O263  1  0.63690789  0.96664056  0.51334657  1
  O2-  O264  1  0.36291880  0.04007964  -0.00316309  1
  O2-  O265  1  0.36338229  0.01917604  0.49615405  1
  O2-  O266  1  0.37632109  0.51511036  0.01187436  1
  O2-  O267  1  0.35890764  0.52951536  0.51016862  1
  O2-  O268  1  0.88094485  0.01461936  -0.00173518  1
  O2-  O269  1  0.88395152  0.02057195  0.49130892  1
  O2-  O270  1  0.86175295  0.54354874  0.00905065  1
  O2-  O271  1  0.86380545  0.53706597  0.50761097  1
  O2-  O272  1  0.47637365  0.37903370  -0.01172998  1
  O2-  O273  1  0.46260550  0.36856871  0.50076961  1
  O2-  O274  1  0.46887128  0.86850199  -0.01286819  1
  O2-  O275  1  0.47167243  0.86515222  0.49246966  1
  O2-  O276  1  0.97555650  0.36781410  0.01616130  1
  O2-  O277  1  0.98627829  0.36179836  0.52557364  1
  O2-  O278  1  0.98305390  0.88060456  0.01047504  1
  O2-  O279  1  0.98536646  0.87981806  0.51147638  1
  O2-  O280  1  0.01592106  0.11927722  -0.00603213  1
  O2-  O281  1  0.02598835  0.11754644  0.48904325  1
  O2-  O282  1  0.03058679  0.63329596  -0.00804572  1
  O2-  O283  1  0.02129825  0.63579709  0.49206399  1
  O2-  O284  1  0.53232238  0.13709837  0.00906741  1
  O2-  O285  1  0.51199816  0.13826959  0.49702569  1
  O2-  O286  1  0.51190496  0.61784530  0.00634600  1
  O2-  O287  1  0.51491330  0.63611993  0.52654546  1
  O2-  O288  1  0.11823010  0.26790417  0.02589824  1
  O2-  O289  1  0.13260866  0.26453353  0.52275914  1
  O2-  O290  1  0.11585649  0.77856282  -0.02626709  1
  O2-  O291  1  0.12392702  0.77333150  0.48162272  1
  O2-  O292  1  0.61220923  0.28537349  0.00900677  1
  O2-  O293  1  0.61482094  0.27500699  0.52788111  1
  O2-  O294  1  0.61414902  0.76576617  -0.02405686  1
  O2-  O295  1  0.62658990  0.77009524  0.48205117  1
  O2-  O296  1  0.38909119  0.23518949  -0.03681049  1
  O2-  O297  1  0.36898780  0.23168616  0.48292806  1
  O2-  O298  1  0.38089312  0.73073978  0.02315874  1
  O2-  O299  1  0.36532522  0.73700257  0.52524259  1
  O2-  O300  1  0.88276542  0.23541650  -0.02724589  1
  O2-  O301  1  0.88605978  0.22305810  0.48040751  1
  O2-  O302  1  0.88752808  0.74104424  0.03555577  1
  O2-  O303  1  0.87358334  0.73371579  0.52515505  1
  O2-  O304  1  0.27372613  0.38268804  -0.01477667  1
  O2-  O305  1  0.26562075  0.37595032  0.48830592  1
  O2-  O306  1  0.26227504  0.89141016  -0.03921509  1
  O2-  O307  1  0.26228992  0.87589730  0.48768826  1
  O2-  O308  1  0.76748260  0.39180610  0.01907538  1
  O2-  O309  1  0.78374965  0.38867319  0.50153127  1
  O2-  O310  1  0.76815979  0.88030831  0.01660893  1
  O2-  O311  1  0.76998679  0.86424385  0.50781187  1
  O2-  O312  1  0.21382823  0.11199397  0.01467496  1
  O2-  O313  1  0.23245211  0.12585230  0.51523470  1
  O2-  O314  1  0.23486893  0.61525616  0.02468976  1
  O2-  O315  1  0.22224493  0.63052111  0.51232180  1
  O2-  O316  1  0.73665281  0.11568172  -0.02637130  1
  O2-  O317  1  0.72212419  0.11470823  0.50106147  1
  O2-  O318  1  0.70818523  0.61409181  -0.01134934  1
  O2-  O319  1  0.72220656  0.62688212  0.49707078  1
