# generated using pymatgen
data_Sr64Ca21Nb43O192
_symmetry_space_group_name_H-M   'P 1'
_cell_length_a   16.54945041
_cell_length_b   16.53639722
_cell_length_c   16.68760143
_cell_angle_alpha   90.03279428
_cell_angle_beta   89.97135801
_cell_angle_gamma   89.93634290
_symmetry_Int_Tables_number   1
_chemical_formula_structural   Sr64Ca21Nb43O192
_chemical_formula_sum   'Sr64 Ca21 Nb43 O192'
_cell_volume   4566.86313848
_cell_formula_units_Z   1
loop_
 _symmetry_equiv_pos_site_id
 _symmetry_equiv_pos_as_xyz
  1  'x, y, z'
loop_
 _atom_type_symbol
 _atom_type_oxidation_number
  Sr2+  2.0
  Ca2+  2.0
  Nb5+  5.0
  O2-  -2.0
loop_
 _atom_site_type_symbol
 _atom_site_label
 _atom_site_symmetry_multiplicity
 _atom_site_fract_x
 _atom_site_fract_y
 _atom_site_fract_z
 _atom_site_occupancy
  Sr2+  Sr0  1  0.13402631  0.13582473  0.12680096  1
  Sr2+  Sr1  1  0.12942726  0.13789373  0.62662231  1
  Sr2+  Sr2  1  0.13176947  0.63503436  0.12045168  1
  Sr2+  Sr3  1  0.13603663  0.63268206  0.62806522  1
  Sr2+  Sr4  1  0.63154010  0.13650051  0.12049218  1
  Sr2+  Sr5  1  0.63691018  0.13305093  0.62321286  1
  Sr2+  Sr6  1  0.63402538  0.63712742  0.12439543  1
  Sr2+  Sr7  1  0.62912709  0.62742384  0.62654275  1
  Sr2+  Sr8  1  0.38518079  0.38699084  0.11347151  1
  Sr2+  Sr9  1  0.37870108  0.39252038  0.62689343  1
  Sr2+  Sr10  1  0.37645454  0.87879977  0.13772360  1
  Sr2+  Sr11  1  0.38613834  0.88295102  0.62561032  1
  Sr2+  Sr12  1  0.88005573  0.38597816  0.12960079  1
  Sr2+  Sr13  1  0.88299448  0.38477595  0.62542670  1
  Sr2+  Sr14  1  0.88107735  0.89084246  0.12285611  1
  Sr2+  Sr15  1  0.88000645  0.88314404  0.62375984  1
  Sr2+  Sr16  1  0.11484006  0.36011180  0.36574661  1
  Sr2+  Sr17  1  0.11662662  0.37198397  0.87422984  1
  Sr2+  Sr18  1  0.12013361  0.87509177  0.36942664  1
  Sr2+  Sr19  1  0.11917974  0.86832958  0.87989595  1
  Sr2+  Sr20  1  0.61465843  0.37296464  0.37382788  1
  Sr2+  Sr21  1  0.61083079  0.36704535  0.87484216  1
  Sr2+  Sr22  1  0.61322451  0.86210345  0.37167170  1
  Sr2+  Sr23  1  0.60650601  0.87025296  0.88028637  1
  Sr2+  Sr24  1  0.35686813  0.11926364  0.37287297  1
  Sr2+  Sr25  1  0.36882001  0.10863820  0.86990813  1
  Sr2+  Sr26  1  0.36051915  0.61468158  0.37510045  1
  Sr2+  Sr27  1  0.36139893  0.61819878  0.87838732  1
  Sr2+  Sr28  1  0.87589890  0.12105847  0.37442510  1
  Sr2+  Sr29  1  0.87004630  0.11856117  0.87327586  1
  Sr2+  Sr30  1  0.86219640  0.61545046  0.37669787  1
  Sr2+  Sr31  1  0.87640756  0.62192250  0.86717537  1
  Sr2+  Sr32  1  0.12019270  0.11460487  0.37035920  1
  Sr2+  Sr33  1  0.11944408  0.13065029  0.87489316  1
  Sr2+  Sr34  1  0.11453512  0.61578541  0.37459375  1
  Sr2+  Sr35  1  0.11871177  0.61154216  0.87890759  1
  Sr2+  Sr36  1  0.61801823  0.11649610  0.37321998  1
  Sr2+  Sr37  1  0.62037075  0.11126410  0.88054031  1
  Sr2+  Sr38  1  0.62329039  0.61167734  0.37241516  1
  Sr2+  Sr39  1  0.61851035  0.62313914  0.87385995  1
  Sr2+  Sr40  1  0.37133848  0.36201210  0.38071066  1
  Sr2+  Sr41  1  0.36300153  0.36458325  0.87777978  1
  Sr2+  Sr42  1  0.35888286  0.86646161  0.37333769  1
  Sr2+  Sr43  1  0.37387949  0.86172731  0.87371822  1
  Sr2+  Sr44  1  0.86513350  0.36959604  0.36970129  1
  Sr2+  Sr45  1  0.87328855  0.37017624  0.87096654  1
  Sr2+  Sr46  1  0.87175650  0.86072567  0.37762778  1
  Sr2+  Sr47  1  0.87101826  0.87262323  0.87386906  1
  Sr2+  Sr48  1  0.14016499  0.38552164  0.12042723  1
  Sr2+  Sr49  1  0.14199092  0.38028236  0.63169601  1
  Sr2+  Sr50  1  0.14054796  0.88095850  0.12432912  1
  Sr2+  Sr51  1  0.13963997  0.88522774  0.62540631  1
  Sr2+  Sr52  1  0.63333748  0.37979603  0.11937404  1
  Sr2+  Sr53  1  0.61751083  0.38294966  0.62236309  1
  Sr2+  Sr54  1  0.63162064  0.88475918  0.12861157  1
  Sr2+  Sr55  1  0.63622469  0.87913113  0.62848083  1
  Sr2+  Sr56  1  0.39182247  0.13157881  0.13566863  1
  Sr2+  Sr57  1  0.38341943  0.13086273  0.62647951  1
  Sr2+  Sr58  1  0.36831095  0.63328775  0.11958999  1
  Sr2+  Sr59  1  0.38759505  0.62945427  0.62288255  1
  Sr2+  Sr60  1  0.87181087  0.12852305  0.11417794  1
  Sr2+  Sr61  1  0.87971184  0.12616670  0.62421887  1
  Sr2+  Sr62  1  0.88731571  0.62407398  0.13542589  1
  Sr2+  Sr63  1  0.87924332  0.63335100  0.62218509  1
  Ca2+  Ca64  1  0.50041569  -0.00016400  0.49698620  1
  Ca2+  Ca65  1  -0.00133749  0.49761440  0.49890980  1
  Ca2+  Ca66  1  0.50362372  0.50230031  -0.00087639  1
  Ca2+  Ca67  1  0.49617035  -0.00153592  0.00363629  1
  Ca2+  Ca68  1  -0.00239361  0.49809338  0.00158610  1
  Ca2+  Ca69  1  0.75122026  0.75188631  -0.00161587  1
  Ca2+  Ca70  1  0.24852866  0.74801119  0.50081968  1
  Ca2+  Ca71  1  0.24761567  0.24979612  0.49957833  1
  Ca2+  Ca72  1  0.24970709  0.24585439  0.00110332  1
  Ca2+  Ca73  1  0.24916863  0.75408601  -0.00244653  1
  Ca2+  Ca74  1  -0.00170417  0.24921507  0.24804984  1
  Ca2+  Ca75  1  0.49864161  0.74626258  0.25420186  1
  Ca2+  Ca76  1  0.75018089  0.49735198  0.74923762  1
  Ca2+  Ca77  1  0.25304788  0.49862494  0.24951159  1
  Ca2+  Ca78  1  -0.00156168  0.75129522  0.25048019  1
  Ca2+  Ca79  1  0.24964281  -0.00297401  0.75036777  1
  Ca2+  Ca80  1  0.50278644  0.25087352  0.75079105  1
  Ca2+  Ca81  1  0.75383121  0.00262701  0.25287290  1
  Ca2+  Ca82  1  0.25007996  0.50211681  0.74969478  1
  Ca2+  Ca83  1  0.74912586  0.00005268  0.75048825  1
  Ca2+  Ca84  1  0.50221353  0.25344725  0.25154495  1
  Nb5+  Nb85  1  0.49758555  0.50346689  0.49860184  1
  Nb5+  Nb86  1  -0.00101855  -0.00006754  0.49684967  1
  Nb5+  Nb87  1  0.00220912  0.00070421  -0.00701341  1
  Nb5+  Nb88  1  0.75067792  0.25368036  -0.00894352  1
  Nb5+  Nb89  1  0.74821889  0.24583461  0.49414164  1
  Nb5+  Nb90  1  0.74655790  0.74444935  0.49948489  1
  Nb5+  Nb91  1  0.74787243  0.50018895  0.24804943  1
  Nb5+  Nb92  1  -0.00325337  0.25397655  0.74938105  1
  Nb5+  Nb93  1  0.00523216  0.75602071  0.74693576  1
  Nb5+  Nb94  1  0.50600584  0.75007425  0.74751827  1
  Nb5+  Nb95  1  0.24884377  0.00167326  0.24966217  1
  Nb5+  Nb96  1  0.00108476  0.00190717  0.23978856  1
  Nb5+  Nb97  1  0.00417612  0.00353091  0.74455111  1
  Nb5+  Nb98  1  0.00599678  0.49741108  0.25232893  1
  Nb5+  Nb99  1  0.00089608  0.50688419  0.74468295  1
  Nb5+  Nb100  1  0.50429190  -0.00119777  0.25489062  1
  Nb5+  Nb101  1  0.50490624  0.00395947  0.74479367  1
  Nb5+  Nb102  1  0.49931098  0.50256043  0.24670290  1
  Nb5+  Nb103  1  0.49677716  0.50122834  0.75563100  1
  Nb5+  Nb104  1  0.25472126  0.25595244  0.24462440  1
  Nb5+  Nb105  1  0.25539179  0.24439941  0.75211776  1
  Nb5+  Nb106  1  0.24337410  0.74563319  0.25441550  1
  Nb5+  Nb107  1  0.25987667  0.74793147  0.74828266  1
  Nb5+  Nb108  1  0.74881094  0.24966884  0.24430839  1
  Nb5+  Nb109  1  0.75085459  0.25183232  0.74219869  1
  Nb5+  Nb110  1  0.75537435  0.75183767  0.24533475  1
  Nb5+  Nb111  1  0.75321063  0.75086654  0.75124813  1
  Nb5+  Nb112  1  -0.00192085  0.25074155  0.50198479  1
  Nb5+  Nb113  1  -0.00456236  0.25257929  1.00350441  1
  Nb5+  Nb114  1  0.00340154  0.74966522  0.50408297  1
  Nb5+  Nb115  1  -0.00598675  0.75099024  1.00283800  1
  Nb5+  Nb116  1  0.49952105  0.24635685  0.50290063  1
  Nb5+  Nb117  1  0.49442533  0.24556664  0.99396737  1
  Nb5+  Nb118  1  0.49802753  0.74750386  0.49613829  1
  Nb5+  Nb119  1  0.49885939  0.75076829  1.00778078  1
  Nb5+  Nb120  1  0.25493312  0.00327374  0.00152554  1
  Nb5+  Nb121  1  0.25099554  0.00363898  0.50409228  1
  Nb5+  Nb122  1  0.25040376  0.50050768  -0.00123462  1
  Nb5+  Nb123  1  0.24073436  0.49399333  0.49358051  1
  Nb5+  Nb124  1  0.74981002  -0.00253819  0.00020896  1
  Nb5+  Nb125  1  0.75012447  -0.00738410  0.49615007  1
  Nb5+  Nb126  1  0.75373289  0.50308057  -0.00494776  1
  Nb5+  Nb127  1  0.74834382  0.49208181  0.50160341  1
  O2-  O128  1  0.01337713  -0.01748466  0.12461706  1
  O2-  O129  1  0.01478424  -0.01492760  0.62869154  1
  O2-  O130  1  0.01027464  0.46868405  0.13593413  1
  O2-  O131  1  0.01923665  0.47233013  0.63298316  1
  O2-  O132  1  0.50288260  -0.03302474  0.13787120  1
  O2-  O133  1  0.51551339  -0.03037656  0.63058396  1
  O2-  O134  1  0.51587433  0.47341127  0.13633704  1
  O2-  O135  1  0.51509627  0.49012687  0.62020211  1
  O2-  O136  1  -0.00973239  0.01751656  0.38245906  1
  O2-  O137  1  -0.00944347  0.01293958  0.87579476  1
  O2-  O138  1  -0.01554647  0.53128913  0.36649586  1
  O2-  O139  1  -0.02363078  0.50935044  0.86238814  1
  O2-  O140  1  0.48493284  0.03851054  0.36607600  1
  O2-  O141  1  0.48825852  0.01680261  0.86386939  1
  O2-  O142  1  0.49125269  0.52850490  0.38219915  1
  O2-  O143  1  0.48844634  0.53433364  0.86516071  1
  O2-  O144  1  0.26624920  0.21410761  0.13394618  1
  O2-  O145  1  0.25836005  0.22009958  0.63449021  1
  O2-  O146  1  0.25767531  0.73272657  0.13453562  1
  O2-  O147  1  0.26186673  0.71702421  0.63329376  1
  O2-  O148  1  0.76507620  0.23754160  0.12921195  1
  O2-  O149  1  0.76704976  0.23214370  0.62748282  1
  O2-  O150  1  0.77053289  0.72356329  0.13488898  1
  O2-  O151  1  0.76005172  0.73077321  0.61980842  1
  O2-  O152  1  0.23427644  0.27094118  0.36300984  1
  O2-  O153  1  0.22526377  0.26863482  0.86570348  1
  O2-  O154  1  0.23077893  0.77729981  0.36899289  1
  O2-  O155  1  0.24096682  0.78263113  0.86167877  1
  O2-  O156  1  0.73467997  0.27005346  0.38279019  1
  O2-  O157  1  0.74106583  0.27143589  0.87751088  1
  O2-  O158  1  0.73475199  0.76674124  0.38233025  1
  O2-  O159  1  0.72973279  0.77440926  0.86136861  1
  O2-  O160  1  -0.03483997  0.25220628  0.11450893  1
  O2-  O161  1  -0.02738481  0.25077582  0.62931712  1
  O2-  O162  1  -0.03561288  0.76455605  0.11271506  1
  O2-  O163  1  -0.02964880  0.76036200  0.62971747  1
  O2-  O164  1  0.48290250  0.26785745  0.11164378  1
  O2-  O165  1  0.48614170  0.28080050  0.61598034  1
  O2-  O166  1  0.47186328  0.75814135  0.11906665  1
  O2-  O167  1  0.48240153  0.75922772  0.62380632  1
  O2-  O168  1  0.25562990  -0.01616562  0.37374371  1
  O2-  O169  1  0.27207704  -0.01732111  0.88842024  1
  O2-  O170  1  0.28362368  0.48137215  0.38258143  1
  O2-  O171  1  0.27861309  0.48673968  0.88219657  1
  O2-  O172  1  0.79016506  -0.00504758  0.38577458  1
  O2-  O173  1  0.77860929  -0.00326437  0.88546150  1
  O2-  O174  1  0.76448491  0.48953274  0.37760144  1
  O2-  O175  1  0.78454525  0.49275437  0.88522324  1
  O2-  O176  1  0.01539321  0.22998750  0.38973666  1
  O2-  O177  1  0.01172676  0.23990237  0.87024527  1
  O2-  O178  1  0.02039418  0.74498580  0.39033127  1
  O2-  O179  1  0.01977331  0.73895128  0.86257220  1
  O2-  O180  1  0.53645166  0.24257553  0.39121477  1
  O2-  O181  1  0.53749515  0.23413423  0.88211395  1
  O2-  O182  1  0.53266582  0.73178345  0.38760649  1
  O2-  O183  1  0.52224987  0.73839338  0.86360644  1
  O2-  O184  1  0.22732135  0.01436491  0.13260397  1
  O2-  O185  1  0.22175942  0.01815928  0.61503614  1
  O2-  O186  1  0.22536363  0.51861354  0.11696135  1
  O2-  O187  1  0.22668145  0.51280889  0.61178511  1
  O2-  O188  1  0.73915534  0.02069878  0.11681318  1
  O2-  O189  1  0.73419374  0.01690919  0.61121231  1
  O2-  O190  1  0.72478720  0.50879854  0.13297253  1
  O2-  O191  1  0.72170766  0.50360782  0.61377961  1
  O2-  O192  1  0.13421978  0.27101232  0.22663238  1
  O2-  O193  1  0.11343881  0.26192715  0.73002825  1
  O2-  O194  1  0.12900469  0.77601611  0.23198895  1
  O2-  O195  1  0.11745393  0.76841201  0.72567313  1
  O2-  O196  1  0.63633389  0.28314048  0.23754200  1
  O2-  O197  1  0.63946105  0.28106390  0.73294032  1
  O2-  O198  1  0.63784021  0.77132865  0.23608788  1
  O2-  O199  1  0.62163070  0.76566376  0.72679273  1
  O2-  O200  1  0.36917871  0.22828456  0.27212124  1
  O2-  O201  1  0.36823803  0.22466995  0.77098146  1
  O2-  O202  1  0.36275659  0.73698165  0.27176548  1
  O2-  O203  1  0.37568155  0.72877498  0.76396577  1
  O2-  O204  1  0.86197338  0.23876253  0.27886707  1
  O2-  O205  1  0.87945711  0.22124587  0.76416110  1
  O2-  O206  1  0.86610937  0.73008700  0.28263389  1
  O2-  O207  1  0.87087921  0.73179939  0.76227863  1
  O2-  O208  1  0.27801382  0.36644346  0.21856297  1
  O2-  O209  1  0.26366264  0.36260987  0.72922465  1
  O2-  O210  1  0.26432544  0.88116153  0.23664940  1
  O2-  O211  1  0.26625387  0.86331346  0.71686312  1
  O2-  O212  1  0.77174489  0.37932831  0.24055898  1
  O2-  O213  1  0.78986506  0.36316018  0.74301319  1
  O2-  O214  1  0.77758680  0.86631644  0.23433259  1
  O2-  O215  1  0.76566924  0.86469570  0.72062657  1
  O2-  O216  1  0.23096995  0.11909167  0.27010360  1
  O2-  O217  1  0.22340599  0.12969078  0.77115614  1
  O2-  O218  1  0.22337420  0.63273481  0.27330391  1
  O2-  O219  1  0.22214585  0.63752058  0.77363752  1
  O2-  O220  1  0.72280281  0.13850552  0.26571679  1
  O2-  O221  1  0.73046034  0.13767944  0.76964104  1
  O2-  O222  1  0.73583335  0.62114037  0.26697862  1
  O2-  O223  1  0.72834902  0.63474074  0.75924035  1
  O2-  O224  1  0.11842949  0.47905942  0.27287453  1
  O2-  O225  1  0.11458154  0.48281533  0.77138420  1
  O2-  O226  1  0.12392665  0.98064896  0.26307584  1
  O2-  O227  1  0.11396687  0.96923146  0.76739294  1
  O2-  O228  1  0.63187890  0.48123365  0.27200469  1
  O2-  O229  1  0.61468777  0.48092185  0.76262318  1
  O2-  O230  1  0.61856934  0.97864833  0.27040297  1
  O2-  O231  1  0.61741577  0.96938127  0.76747213  1
  O2-  O232  1  0.36730974  0.01708119  0.23954924  1
  O2-  O233  1  0.38482013  0.01804895  0.72871374  1
  O2-  O234  1  0.38815388  0.53346065  0.23514060  1
  O2-  O235  1  0.38387819  0.52011776  0.72275743  1
  O2-  O236  1  0.88780288  0.03203925  0.23200438  1
  O2-  O237  1  0.88637549  0.01157304  0.73665429  1
  O2-  O238  1  0.86838681  0.51595950  0.23870373  1
  O2-  O239  1  0.88351391  0.51778265  0.72043384  1
  O2-  O240  1  0.48519506  0.39058945  0.28429333  1
  O2-  O241  1  0.47552899  0.38698399  0.77215092  1
  O2-  O242  1  0.47825653  0.88419372  0.28319349  1
  O2-  O243  1  0.47702568  0.86561723  0.76103517  1
  O2-  O244  1  0.97822500  0.38266215  0.27734923  1
  O2-  O245  1  0.97964811  0.36833217  0.75975189  1
  O2-  O246  1  0.97787567  0.88974550  0.27046172  1
  O2-  O247  1  0.97783680  0.87062662  0.76052060  1
  O2-  O248  1  0.03098915  0.11595151  0.24367611  1
  O2-  O249  1  0.02098775  0.11983560  0.74076304  1
  O2-  O250  1  0.01625047  0.61535691  0.22148980  1
  O2-  O251  1  0.01487863  0.62595759  0.73299483  1
  O2-  O252  1  0.52046153  0.11565609  0.22186157  1
  O2-  O253  1  0.52840797  0.11620680  0.72515461  1
  O2-  O254  1  0.53955194  0.61408348  0.23954786  1
  O2-  O255  1  0.51667993  0.62940590  0.72922167  1
  O2-  O256  1  0.13168722  0.47851895  -0.02228936  1
  O2-  O257  1  0.13091318  0.46943601  0.46935556  1
  O2-  O258  1  0.11802869  0.97666877  -0.00919888  1
  O2-  O259  1  0.11599180  0.97950990  0.48811471  1
  O2-  O260  1  0.64162966  0.46655049  -0.01288637  1
  O2-  O261  1  0.62696611  0.48833805  0.47912228  1
  O2-  O262  1  0.63592686  0.98371075  -0.01680689  1
  O2-  O263  1  0.63824974  0.98371812  0.46778096  1
  O2-  O264  1  0.36347703  0.03534994  0.02128656  1
  O2-  O265  1  0.36450989  0.02547074  0.51609227  1
  O2-  O266  1  0.36948609  0.52094130  0.02302921  1
  O2-  O267  1  0.38314551  0.51860875  0.51632053  1
  O2-  O268  1  0.88288700  0.01678088  0.01770024  1
  O2-  O269  1  0.87929845  0.01312734  0.52278067  1
  O2-  O270  1  0.86322653  0.51265576  0.03841252  1
  O2-  O271  1  0.86112744  0.52014177  0.51693318  1
  O2-  O272  1  0.48573549  0.36566243  -0.02623297  1
  O2-  O273  1  0.49307421  0.38321771  0.48391694  1
  O2-  O274  1  0.48231387  0.86507313  -0.02624104  1
  O2-  O275  1  0.48279133  0.86275979  0.48205914  1
  O2-  O276  1  0.97545111  0.36334759  -0.01852951  1
  O2-  O277  1  0.96586415  0.36109373  0.48936359  1
  O2-  O278  1  0.97726195  0.88128277  -0.01775259  1
  O2-  O279  1  0.97657038  0.87839723  0.49477163  1
  O2-  O280  1  0.01425937  0.12147425  0.00642797  1
  O2-  O281  1  0.00971848  0.11981188  0.52121128  1
  O2-  O282  1  0.01436592  0.63605088  0.01041285  1
  O2-  O283  1  0.01197692  0.63529011  0.52378128  1
  O2-  O284  1  0.52644815  0.13250188  0.01737584  1
  O2-  O285  1  0.51947557  0.13554799  0.53024435  1
  O2-  O286  1  0.53488151  0.63659657  0.00829677  1
  O2-  O287  1  0.52282661  0.62433969  0.52003144  1
  O2-  O288  1  0.10959124  0.26548105  0.02016481  1
  O2-  O289  1  0.10917462  0.26863269  0.52758208  1
  O2-  O290  1  0.10925873  0.77784550  0.00841980  1
  O2-  O291  1  0.11243900  0.77132517  0.53180418  1
  O2-  O292  1  0.63702198  0.26637352  0.01829306  1
  O2-  O293  1  0.63568238  0.26373004  0.52842306  1
  O2-  O294  1  0.61751473  0.78012059  0.02172166  1
  O2-  O295  1  0.63010034  0.76758525  0.52111721  1
  O2-  O296  1  0.38401814  0.22467268  -0.03161752  1
  O2-  O297  1  0.38743246  0.23274445  0.47920958  1
  O2-  O298  1  0.38548234  0.72677228  -0.02341456  1
  O2-  O299  1  0.38633729  0.72258291  0.48188304  1
  O2-  O300  1  0.87239423  0.22524748  -0.02001227  1
  O2-  O301  1  0.86796602  0.22473778  0.49188903  1
  O2-  O302  1  0.88409768  0.74181142  -0.04181471  1
  O2-  O303  1  0.86999140  0.73791917  0.48794673  1
  O2-  O304  1  0.26899999  0.38074426  0.01891821  1
  O2-  O305  1  0.27478537  0.38161576  0.52100352  1
  O2-  O306  1  0.26492818  0.88831449  0.03138743  1
  O2-  O307  1  0.26650577  0.88552007  0.51590420  1
  O2-  O308  1  0.77738802  0.36747480  0.01579043  1
  O2-  O309  1  0.76715924  0.37390611  0.51154346  1
  O2-  O310  1  0.77468859  0.88554654  0.01844315  1
  O2-  O311  1  0.76637920  0.87610240  0.51433098  1
  O2-  O312  1  0.21215036  0.11272835  -0.01069212  1
  O2-  O313  1  0.22558419  0.11622951  0.47423667  1
  O2-  O314  1  0.22999015  0.61954480  -0.02078453  1
  O2-  O315  1  0.23011866  0.61289171  0.47428307  1
  O2-  O316  1  0.73829068  0.13035692  -0.01113465  1
  O2-  O317  1  0.73164148  0.12829846  0.48349967  1
  O2-  O318  1  0.72884288  0.61563883  -0.01390311  1
  O2-  O319  1  0.73311773  0.62744796  0.48573748  1
