# generated using pymatgen
data_Sr64Ca21Nb43O192
_symmetry_space_group_name_H-M   'P 1'
_cell_length_a   16.58441086
_cell_length_b   16.54610252
_cell_length_c   16.71735804
_cell_angle_alpha   90.05419872
_cell_angle_beta   89.97780926
_cell_angle_gamma   89.95267287
_symmetry_Int_Tables_number   1
_chemical_formula_structural   Sr64Ca21Nb43O192
_chemical_formula_sum   'Sr64 Ca21 Nb43 O192'
_cell_volume   4587.36216149
_cell_formula_units_Z   1
loop_
 _symmetry_equiv_pos_site_id
 _symmetry_equiv_pos_as_xyz
  1  'x, y, z'
loop_
 _atom_type_symbol
 _atom_type_oxidation_number
  Sr2+  2.0
  Ca2+  2.0
  Nb5+  5.0
  O2-  -2.0
loop_
 _atom_site_type_symbol
 _atom_site_label
 _atom_site_symmetry_multiplicity
 _atom_site_fract_x
 _atom_site_fract_y
 _atom_site_fract_z
 _atom_site_occupancy
  Sr2+  Sr0  1  0.12549698  0.12295206  0.12264456  1
  Sr2+  Sr1  1  0.13119014  0.13848071  0.62996193  1
  Sr2+  Sr2  1  0.13065303  0.64071387  0.12007985  1
  Sr2+  Sr3  1  0.12820138  0.63526615  0.63096344  1
  Sr2+  Sr4  1  0.63127712  0.12489033  0.12207770  1
  Sr2+  Sr5  1  0.62489191  0.12024643  0.62267759  1
  Sr2+  Sr6  1  0.63298905  0.63720532  0.12724495  1
  Sr2+  Sr7  1  0.63128940  0.63819916  0.62223714  1
  Sr2+  Sr8  1  0.38853807  0.37413174  0.12140671  1
  Sr2+  Sr9  1  0.38532913  0.37067631  0.61801868  1
  Sr2+  Sr10  1  0.37671772  0.87790988  0.13078445  1
  Sr2+  Sr11  1  0.38225471  0.88367285  0.62756920  1
  Sr2+  Sr12  1  0.88139170  0.36691870  0.12451752  1
  Sr2+  Sr13  1  0.88494245  0.36363903  0.63074988  1
  Sr2+  Sr14  1  0.88034809  0.88231451  0.12740257  1
  Sr2+  Sr15  1  0.88272502  0.87847320  0.61794113  1
  Sr2+  Sr16  1  0.13596394  0.36899950  0.38182785  1
  Sr2+  Sr17  1  0.14887904  0.37630768  0.87458763  1
  Sr2+  Sr18  1  0.11613674  0.87264897  0.36423098  1
  Sr2+  Sr19  1  0.11563309  0.86857799  0.87583994  1
  Sr2+  Sr20  1  0.60382873  0.38295615  0.36912693  1
  Sr2+  Sr21  1  0.60118748  0.37982635  0.87704613  1
  Sr2+  Sr22  1  0.60854816  0.87123069  0.37975480  1
  Sr2+  Sr23  1  0.61246605  0.86878063  0.87522485  1
  Sr2+  Sr24  1  0.36618080  0.12582367  0.37899959  1
  Sr2+  Sr25  1  0.37643371  0.12524742  0.85998649  1
  Sr2+  Sr26  1  0.37947859  0.62471585  0.37504061  1
  Sr2+  Sr27  1  0.35668913  0.61325555  0.87446395  1
  Sr2+  Sr28  1  0.86700927  0.12364847  0.39179919  1
  Sr2+  Sr29  1  0.86600997  0.12044066  0.87393659  1
  Sr2+  Sr30  1  0.86349145  0.61848190  0.38016302  1
  Sr2+  Sr31  1  0.86570493  0.62283020  0.87672559  1
  Sr2+  Sr32  1  0.12039215  0.13100212  0.37789579  1
  Sr2+  Sr33  1  0.11381521  0.11880247  0.87215138  1
  Sr2+  Sr34  1  0.11969371  0.60331220  0.37848999  1
  Sr2+  Sr35  1  0.11658288  0.61626833  0.87867139  1
  Sr2+  Sr36  1  0.61437463  0.12545746  0.37407367  1
  Sr2+  Sr37  1  0.60951179  0.13711588  0.87347854  1
  Sr2+  Sr38  1  0.62015978  0.61760191  0.37499986  1
  Sr2+  Sr39  1  0.61976934  0.61626335  0.87301719  1
  Sr2+  Sr40  1  0.37011784  0.36827212  0.36955598  1
  Sr2+  Sr41  1  0.37803480  0.37381715  0.87114650  1
  Sr2+  Sr42  1  0.36647731  0.86316520  0.37530393  1
  Sr2+  Sr43  1  0.36855631  0.86989986  0.87213459  1
  Sr2+  Sr44  1  0.87831590  0.37638383  0.38367582  1
  Sr2+  Sr45  1  0.86617141  0.37538981  0.87397834  1
  Sr2+  Sr46  1  0.86787172  0.86973053  0.37518122  1
  Sr2+  Sr47  1  0.87049160  0.86724069  0.87218820  1
  Sr2+  Sr48  1  0.13447134  0.37505363  0.12736438  1
  Sr2+  Sr49  1  0.13903218  0.37131562  0.62604247  1
  Sr2+  Sr50  1  0.13863043  0.88472622  0.12489783  1
  Sr2+  Sr51  1  0.13472305  0.87168072  0.63414067  1
  Sr2+  Sr52  1  0.62965976  0.37318454  0.13194645  1
  Sr2+  Sr53  1  0.62649265  0.37763224  0.64189784  1
  Sr2+  Sr54  1  0.61504028  0.87768396  0.12305579  1
  Sr2+  Sr55  1  0.61010335  0.88004169  0.62277502  1
  Sr2+  Sr56  1  0.36612626  0.12437017  0.13117232  1
  Sr2+  Sr57  1  0.39709072  0.12526915  0.62378391  1
  Sr2+  Sr58  1  0.39003621  0.64133923  0.12970648  1
  Sr2+  Sr59  1  0.38934020  0.63931898  0.61880964  1
  Sr2+  Sr60  1  0.87774224  0.12471871  0.12029822  1
  Sr2+  Sr61  1  0.88199048  0.12111999  0.62964803  1
  Sr2+  Sr62  1  0.88262333  0.62932772  0.12602717  1
  Sr2+  Sr63  1  0.88761478  0.62768569  0.62403984  1
  Ca2+  Ca64  1  0.49545002  0.00219136  0.49601997  1
  Ca2+  Ca65  1  0.50153426  0.49904533  0.50256226  1
  Ca2+  Ca66  1  0.49872787  0.00221737  -0.00014869  1
  Ca2+  Ca67  1  0.50012347  0.50390775  0.00324424  1
  Ca2+  Ca68  1  0.00558982  -0.00120970  0.49799193  1
  Ca2+  Ca69  1  0.24737294  0.74839055  0.50058274  1
  Ca2+  Ca70  1  0.75131763  0.75166690  0.50084637  1
  Ca2+  Ca71  1  0.24758919  0.24550046  -0.00078764  1
  Ca2+  Ca72  1  0.25010501  0.75210721  -0.00064688  1
  Ca2+  Ca73  1  0.75046427  0.25240351  0.50078183  1
  Ca2+  Ca74  1  -0.00278704  0.25028909  0.24960906  1
  Ca2+  Ca75  1  0.24708166  0.00129403  0.74734496  1
  Ca2+  Ca76  1  0.50189808  0.74947040  0.75266306  1
  Ca2+  Ca77  1  0.74782914  -0.00631132  0.75255805  1
  Ca2+  Ca78  1  0.00323217  0.25244295  0.75457875  1
  Ca2+  Ca79  1  0.50082655  0.24709198  0.24885079  1
  Ca2+  Ca80  1  0.50234189  0.25292694  0.74673763  1
  Ca2+  Ca81  1  0.50263877  0.75289347  0.25058895  1
  Ca2+  Ca82  1  0.00169860  0.74706961  0.24821010  1
  Ca2+  Ca83  1  0.24865580  0.50256055  0.74427138  1
  Ca2+  Ca84  1  0.24694635  0.49989604  0.24724957  1
  Nb5+  Nb85  1  0.00040336  0.00130209  0.00197035  1
  Nb5+  Nb86  1  0.00010197  0.49708992  0.51078780  1
  Nb5+  Nb87  1  -0.00086544  0.49860227  0.00394952  1
  Nb5+  Nb88  1  0.25327013  0.24883323  0.50215467  1
  Nb5+  Nb89  1  0.74955116  0.25622233  -0.00172505  1
  Nb5+  Nb90  1  0.75196841  0.75589346  0.00181739  1
  Nb5+  Nb91  1  0.75185756  0.50050338  0.75529111  1
  Nb5+  Nb92  1  0.74754932  -0.00669864  0.25000085  1
  Nb5+  Nb93  1  0.24552026  0.00080062  0.25448282  1
  Nb5+  Nb94  1  -0.00222394  0.74852195  0.75090556  1
  Nb5+  Nb95  1  0.75277692  0.49417608  0.25348228  1
  Nb5+  Nb96  1  -0.00701242  0.00397700  0.25206532  1
  Nb5+  Nb97  1  0.00143441  -0.00193529  0.74667020  1
  Nb5+  Nb98  1  -0.00272054  0.49792034  0.25543740  1
  Nb5+  Nb99  1  -0.00388030  0.49863105  0.75881202  1
  Nb5+  Nb100  1  0.49130331  0.00397526  0.25071467  1
  Nb5+  Nb101  1  0.50071434  0.00006923  0.75276483  1
  Nb5+  Nb102  1  0.49430006  0.50397659  0.24559827  1
  Nb5+  Nb103  1  0.49258414  0.50758780  0.74687034  1
  Nb5+  Nb104  1  0.24888775  0.24948246  0.24743113  1
  Nb5+  Nb105  1  0.25502077  0.25213408  0.75187891  1
  Nb5+  Nb106  1  0.24592341  0.74480899  0.25344420  1
  Nb5+  Nb107  1  0.25565184  0.74695949  0.75376073  1
  Nb5+  Nb108  1  0.75422145  0.24409121  0.25277030  1
  Nb5+  Nb109  1  0.74748339  0.24384291  0.74970828  1
  Nb5+  Nb110  1  0.74914735  0.74705347  0.25378856  1
  Nb5+  Nb111  1  0.75381289  0.75007335  0.74650034  1
  Nb5+  Nb112  1  0.00171781  0.24590927  0.50654895  1
  Nb5+  Nb113  1  -0.00033962  0.25742358  0.99398953  1
  Nb5+  Nb114  1  0.00509420  0.74687246  0.49182609  1
  Nb5+  Nb115  1  -0.00412742  0.75442648  1.00003301  1
  Nb5+  Nb116  1  0.50877590  0.25364823  0.49430633  1
  Nb5+  Nb117  1  0.49369632  0.24701271  1.00220401  1
  Nb5+  Nb118  1  0.50043202  0.75036780  0.49908963  1
  Nb5+  Nb119  1  0.49537014  0.74766803  0.99479352  1
  Nb5+  Nb120  1  0.25380523  0.00337053  -0.00409050  1
  Nb5+  Nb121  1  0.24493663  -0.00160446  0.50255567  1
  Nb5+  Nb122  1  0.25340357  0.50180159  0.00862423  1
  Nb5+  Nb123  1  0.25238443  0.50288962  0.50120556  1
  Nb5+  Nb124  1  0.75133412  0.00062702  -0.00039647  1
  Nb5+  Nb125  1  0.75061500  0.00127795  0.50430640  1
  Nb5+  Nb126  1  0.74944032  0.50442896  0.00449073  1
  Nb5+  Nb127  1  0.74963064  0.49839691  0.51011266  1
  O2-  O128  1  0.00863744  -0.02797490  0.12160437  1
  O2-  O129  1  0.00999053  -0.03417302  0.63619987  1
  O2-  O130  1  0.00443401  0.47069921  0.11511187  1
  O2-  O131  1  0.00532599  0.48401130  0.62564622  1
  O2-  O132  1  0.49986636  -0.02623585  0.13411058  1
  O2-  O133  1  0.50167986  -0.01676614  0.63094124  1
  O2-  O134  1  0.51291208  0.47068646  0.13438859  1
  O2-  O135  1  0.51015674  0.47369104  0.63526604  1
  O2-  O136  1  -0.01143232  0.03329505  0.36252255  1
  O2-  O137  1  -0.01538983  0.01295013  0.88489033  1
  O2-  O138  1  -0.01883916  0.51905268  0.36896157  1
  O2-  O139  1  -0.02153307  0.51832250  0.87310821  1
  O2-  O140  1  0.49591706  0.03262130  0.36477260  1
  O2-  O141  1  0.49647143  0.02982824  0.86767739  1
  O2-  O142  1  0.50262000  0.52274509  0.36506943  1
  O2-  O143  1  0.49175109  0.52460938  0.86756684  1
  O2-  O144  1  0.23388545  0.22631390  0.13535575  1
  O2-  O145  1  0.23826860  0.24056688  0.62028383  1
  O2-  O146  1  0.26882421  0.73263132  0.13503867  1
  O2-  O147  1  0.25923137  0.71682627  0.63766968  1
  O2-  O148  1  0.72964235  0.24072863  0.11517040  1
  O2-  O149  1  0.72291084  0.23962398  0.63611155  1
  O2-  O150  1  0.76962170  0.73091059  0.11868149  1
  O2-  O151  1  0.76865968  0.72033751  0.63626969  1
  O2-  O152  1  0.25925226  0.26414165  0.38010339  1
  O2-  O153  1  0.27131466  0.26745786  0.86655171  1
  O2-  O154  1  0.23423706  0.78166736  0.36577086  1
  O2-  O155  1  0.23715549  0.78437245  0.86726101  1
  O2-  O156  1  0.78471376  0.25867659  0.36140436  1
  O2-  O157  1  0.77467828  0.25593853  0.87978057  1
  O2-  O158  1  0.73344220  0.77284080  0.36376405  1
  O2-  O159  1  0.74334325  0.76598911  0.88042696  1
  O2-  O160  1  0.01602595  0.26631363  0.10968674  1
  O2-  O161  1  0.01655833  0.27866884  0.61947048  1
  O2-  O162  1  -0.02838988  0.75820194  0.11293849  1
  O2-  O163  1  -0.02415767  0.75897138  0.63607216  1
  O2-  O164  1  0.51806726  0.27475144  0.11512302  1
  O2-  O165  1  0.51211961  0.27974142  0.61251618  1
  O2-  O166  1  0.48520330  0.77259322  0.11306953  1
  O2-  O167  1  0.48021327  0.77003960  0.61890204  1
  O2-  O168  1  0.27427971  -0.01074651  0.36830747  1
  O2-  O169  1  0.26145007  -0.01742428  0.88460154  1
  O2-  O170  1  0.25719238  0.47422026  0.38474996  1
  O2-  O171  1  0.26684126  0.48026872  0.88835443  1
  O2-  O172  1  0.77356472  -0.00915618  0.36322225  1
  O2-  O173  1  0.77128511  -0.01729505  0.88865764  1
  O2-  O174  1  0.76645199  0.48538183  0.36771317  1
  O2-  O175  1  0.76785183  0.49157003  0.87257088  1
  O2-  O176  1  -0.01392483  0.23895550  0.38823430  1
  O2-  O177  1  -0.01857151  0.21439256  0.88529701  1
  O2-  O178  1  0.03188141  0.72591269  0.38315383  1
  O2-  O179  1  0.01274519  0.73059217  0.87822954  1
  O2-  O180  1  0.48627326  0.22206333  0.38218593  1
  O2-  O181  1  0.48766777  0.23245194  0.88263267  1
  O2-  O182  1  0.52323606  0.72986324  0.38266617  1
  O2-  O183  1  0.53662657  0.73655701  0.88462917  1
  O2-  O184  1  0.24202008  0.02257497  0.13393636  1
  O2-  O185  1  0.20910592  0.01197056  0.61151285  1
  O2-  O186  1  0.20525030  0.51194067  0.11631356  1
  O2-  O187  1  0.21132425  0.50831215  0.61154455  1
  O2-  O188  1  0.74542544  0.01374955  0.12801316  1
  O2-  O189  1  0.73974328  0.01819529  0.61727497  1
  O2-  O190  1  0.74056161  0.51436446  0.12009102  1
  O2-  O191  1  0.74004088  0.51853642  0.62490270  1
  O2-  O192  1  0.13234328  0.26535605  0.26883531  1
  O2-  O193  1  0.13646599  0.28233621  0.75564707  1
  O2-  O194  1  0.13315248  0.77464107  0.22495552  1
  O2-  O195  1  0.11541768  0.76171231  0.73975407  1
  O2-  O196  1  0.64083561  0.27497640  0.26001402  1
  O2-  O197  1  0.63812502  0.28076579  0.77385747  1
  O2-  O198  1  0.63806095  0.76661962  0.21997360  1
  O2-  O199  1  0.64103890  0.77107574  0.73598619  1
  O2-  O200  1  0.36503103  0.22312392  0.24875877  1
  O2-  O201  1  0.36917965  0.22381137  0.73352686  1
  O2-  O202  1  0.36639809  0.73551515  0.26964359  1
  O2-  O203  1  0.36765566  0.72931724  0.77468873  1
  O2-  O204  1  0.86354950  0.24143844  0.21160225  1
  O2-  O205  1  0.86505553  0.23910425  0.73162867  1
  O2-  O206  1  0.86629729  0.73415848  0.26480190  1
  O2-  O207  1  0.87871330  0.72734234  0.77322722  1
  O2-  O208  1  0.27114651  0.36386269  0.23024900  1
  O2-  O209  1  0.27772551  0.36963311  0.72757416  1
  O2-  O210  1  0.26637160  0.88470198  0.23359443  1
  O2-  O211  1  0.26070543  0.86386931  0.72023605  1
  O2-  O212  1  0.76727567  0.38102550  0.22887404  1
  O2-  O213  1  0.77177952  0.38381773  0.73683743  1
  O2-  O214  1  0.77023167  0.87740266  0.23332746  1
  O2-  O215  1  0.78792100  0.86052693  0.73586171  1
  O2-  O216  1  0.23226236  0.12223599  0.27325942  1
  O2-  O217  1  0.22088359  0.13699130  0.76278789  1
  O2-  O218  1  0.22138118  0.63358680  0.27231107  1
  O2-  O219  1  0.22398014  0.63427105  0.78095856  1
  O2-  O220  1  0.73683717  0.12628897  0.25844514  1
  O2-  O221  1  0.73261222  0.13232974  0.77301573  1
  O2-  O222  1  0.73207455  0.62820285  0.26362302  1
  O2-  O223  1  0.73770576  0.62413817  0.77232983  1
  O2-  O224  1  0.10901385  0.47184012  0.26695155  1
  O2-  O225  1  0.11006320  0.48458922  0.76891270  1
  O2-  O226  1  0.12713595  0.98564390  0.25841684  1
  O2-  O227  1  0.11280015  0.98082196  0.78021778  1
  O2-  O228  1  0.63463016  0.48702303  0.25619954  1
  O2-  O229  1  0.63573580  0.48361814  0.76089972  1
  O2-  O230  1  0.63331347  0.98081389  0.25905069  1
  O2-  O231  1  0.61715496  0.96637513  0.75713089  1
  O2-  O232  1  0.37545644  0.02068892  0.24035391  1
  O2-  O233  1  0.38078245  0.02513472  0.74064788  1
  O2-  O234  1  0.38113134  0.52737479  0.23692985  1
  O2-  O235  1  0.38181625  0.53662436  0.73506170  1
  O2-  O236  1  0.87722790  0.01226697  0.23069221  1
  O2-  O237  1  0.88459361  0.01509228  0.74776549  1
  O2-  O238  1  0.86707384  0.52714667  0.23614281  1
  O2-  O239  1  0.87213111  0.52392631  0.73601202  1
  O2-  O240  1  0.48350193  0.38461277  0.27103978  1
  O2-  O241  1  0.48630086  0.38877619  0.77212461  1
  O2-  O242  1  0.48882842  0.88745061  0.27843345  1
  O2-  O243  1  0.47388549  0.88332287  0.77119349  1
  O2-  O244  1  0.95993533  0.38650178  0.25439122  1
  O2-  O245  1  0.96779194  0.38699425  0.76361353  1
  O2-  O246  1  0.98675072  0.88572252  0.27253583  1
  O2-  O247  1  0.98453737  0.86670583  0.77316708  1
  O2-  O248  1  0.01373327  0.11497660  0.21798255  1
  O2-  O249  1  0.01809972  0.11287228  0.72999895  1
  O2-  O250  1  0.01343732  0.60871431  0.21616275  1
  O2-  O251  1  0.01129239  0.62350061  0.73622895  1
  O2-  O252  1  0.52868298  0.11411847  0.22477629  1
  O2-  O253  1  0.53013814  0.11891877  0.73222945  1
  O2-  O254  1  0.52277156  0.61824935  0.22520966  1
  O2-  O255  1  0.53555426  0.61688732  0.73075350  1
  O2-  O256  1  0.10966500  0.48222850  -0.02480213  1
  O2-  O257  1  0.11241244  0.48447263  0.47802371  1
  O2-  O258  1  0.11564042  0.97454587  -0.00727305  1
  O2-  O259  1  0.13625003  0.99180109  0.45577004  1
  O2-  O260  1  0.63856764  0.48293173  -0.01605824  1
  O2-  O261  1  0.63958887  0.47199776  0.49180566  1
  O2-  O262  1  0.63972379  0.97367799  -0.00060414  1
  O2-  O263  1  0.63600854  0.97407434  0.48739248  1
  O2-  O264  1  0.36338286  0.03506630  0.00743911  1
  O2-  O265  1  0.35841617  0.03106969  0.51003432  1
  O2-  O266  1  0.36347828  0.52161065  0.03304470  1
  O2-  O267  1  0.36378985  0.51631861  0.52376114  1
  O2-  O268  1  0.87709819  0.00478151  0.02098040  1
  O2-  O269  1  0.87148834  0.02695232  0.51055335  1
  O2-  O270  1  0.87340619  0.50795719  0.00558447  1
  O2-  O271  1  0.88086604  0.52302597  0.50517684  1
  O2-  O272  1  0.48227655  0.36714964  -0.01966847  1
  O2-  O273  1  0.47569629  0.36714848  0.47195304  1
  O2-  O274  1  0.48654282  0.86673581  -0.02615304  1
  O2-  O275  1  0.48024070  0.86772145  0.47680509  1
  O2-  O276  1  0.97578822  0.37245323  -0.02284187  1
  O2-  O277  1  0.98234949  0.38096233  0.48863610  1
  O2-  O278  1  0.98018292  0.86888090  -0.01970680  1
  O2-  O279  1  0.98743923  0.86206338  0.47586518  1
  O2-  O280  1  0.01010782  0.11629567  0.02001372  1
  O2-  O281  1  0.02374577  0.13347710  0.52431388  1
  O2-  O282  1  0.00792376  0.61679243  0.01552692  1
  O2-  O283  1  0.01899329  0.61908458  0.51933035  1
  O2-  O284  1  0.53438030  0.13589073  0.01297118  1
  O2-  O285  1  0.51705603  0.13691328  0.52398744  1
  O2-  O286  1  0.52709935  0.63597095  0.02385089  1
  O2-  O287  1  0.51954926  0.63181073  0.52400289  1
  O2-  O288  1  0.11275041  0.26580394  -0.02712259  1
  O2-  O289  1  0.12583504  0.26778399  0.49177658  1
  O2-  O290  1  0.11093791  0.76170603  0.01719477  1
  O2-  O291  1  0.11288763  0.75970711  0.53720213  1
  O2-  O292  1  0.63488881  0.26604825  -0.02307949  1
  O2-  O293  1  0.62008830  0.26985693  0.47002027  1
  O2-  O294  1  0.63748925  0.76801563  0.01744039  1
  O2-  O295  1  0.61931523  0.77090780  0.52022906  1
  O2-  O296  1  0.38209910  0.22902527  0.02227429  1
  O2-  O297  1  0.36985199  0.23653663  0.51133731  1
  O2-  O298  1  0.38455184  0.72315615  -0.02338949  1
  O2-  O299  1  0.38205728  0.72610514  0.48341280  1
  O2-  O300  1  0.87258672  0.23746817  0.01593220  1
  O2-  O301  1  0.88526174  0.23261069  0.52514147  1
  O2-  O302  1  0.87435452  0.73033472  -0.01901083  1
  O2-  O303  1  0.88878516  0.72502284  0.48935601  1
  O2-  O304  1  0.25416658  0.38204483  0.02528350  1
  O2-  O305  1  0.25916026  0.37252046  0.51614174  1
  O2-  O306  1  0.26255530  0.88945911  0.03014033  1
  O2-  O307  1  0.26779432  0.88590030  0.51734606  1
  O2-  O308  1  0.76741849  0.37434149  0.01009755  1
  O2-  O309  1  0.78653266  0.38716268  0.51237256  1
  O2-  O310  1  0.77555515  0.87029488  0.01686581  1
  O2-  O311  1  0.78434384  0.88563482  0.50424942  1
  O2-  O312  1  0.20805853  0.11225283  -0.01012543  1
  O2-  O313  1  0.22904464  0.13288884  0.48449526  1
  O2-  O314  1  0.22418170  0.61536511  -0.01752436  1
  O2-  O315  1  0.23097845  0.61373285  0.47456161  1
  O2-  O316  1  0.74307332  0.11978610  -0.01103346  1
  O2-  O317  1  0.73206062  0.11590529  0.47179103  1
  O2-  O318  1  0.74020136  0.62209351  -0.01451249  1
  O2-  O319  1  0.73823312  0.61235281  0.47533216  1
