# generated using pymatgen
data_Sr64Ca21Nb43O192
_symmetry_space_group_name_H-M   'P 1'
_cell_length_a   16.59537314
_cell_length_b   16.56338858
_cell_length_c   16.72788053
_cell_angle_alpha   89.96168962
_cell_angle_beta   90.07673233
_cell_angle_gamma   90.02232270
_symmetry_Int_Tables_number   1
_chemical_formula_structural   Sr64Ca21Nb43O192
_chemical_formula_sum   'Sr64 Ca21 Nb43 O192'
_cell_volume   4598.08092880
_cell_formula_units_Z   1
loop_
 _symmetry_equiv_pos_site_id
 _symmetry_equiv_pos_as_xyz
  1  'x, y, z'
loop_
 _atom_type_symbol
 _atom_type_oxidation_number
  Sr2+  2.0
  Ca2+  2.0
  Nb5+  5.0
  O2-  -2.0
loop_
 _atom_site_type_symbol
 _atom_site_label
 _atom_site_symmetry_multiplicity
 _atom_site_fract_x
 _atom_site_fract_y
 _atom_site_fract_z
 _atom_site_occupancy
  Sr2+  Sr0  1  0.12002335  0.11809574  0.13181222  1
  Sr2+  Sr1  1  0.12360290  0.11613782  0.63122078  1
  Sr2+  Sr2  1  0.12112243  0.61723135  0.11371796  1
  Sr2+  Sr3  1  0.12036924  0.62420764  0.61978959  1
  Sr2+  Sr4  1  0.62579440  0.12530450  0.12262441  1
  Sr2+  Sr5  1  0.62065963  0.12788852  0.62474190  1
  Sr2+  Sr6  1  0.62513675  0.64637083  0.13344625  1
  Sr2+  Sr7  1  0.62356937  0.63842450  0.62531838  1
  Sr2+  Sr8  1  0.36597371  0.37380214  0.11797527  1
  Sr2+  Sr9  1  0.38035457  0.37537357  0.62279222  1
  Sr2+  Sr10  1  0.37956801  0.86374932  0.11682170  1
  Sr2+  Sr11  1  0.37177195  0.86824893  0.62431271  1
  Sr2+  Sr12  1  0.86863967  0.36145132  0.12364711  1
  Sr2+  Sr13  1  0.87317680  0.37422413  0.62772625  1
  Sr2+  Sr14  1  0.86661767  0.85662632  0.11963170  1
  Sr2+  Sr15  1  0.87638542  0.86291337  0.63003192  1
  Sr2+  Sr16  1  0.12480778  0.37756212  0.37912275  1
  Sr2+  Sr17  1  0.12666828  0.38719727  0.87832230  1
  Sr2+  Sr18  1  0.12727203  0.87865253  0.38040772  1
  Sr2+  Sr19  1  0.13300120  0.87996445  0.87362263  1
  Sr2+  Sr20  1  0.62431629  0.38719653  0.37540226  1
  Sr2+  Sr21  1  0.63213190  0.37590606  0.87759088  1
  Sr2+  Sr22  1  0.62941338  0.88577344  0.36974856  1
  Sr2+  Sr23  1  0.62272474  0.88187845  0.87157837  1
  Sr2+  Sr24  1  0.36064895  0.12715558  0.36962316  1
  Sr2+  Sr25  1  0.36978703  0.12780159  0.87567813  1
  Sr2+  Sr26  1  0.36057980  0.62930282  0.37069181  1
  Sr2+  Sr27  1  0.36237310  0.62848422  0.87848208  1
  Sr2+  Sr28  1  0.89587399  0.12866414  0.36991265  1
  Sr2+  Sr29  1  0.87918211  0.14163160  0.88209801  1
  Sr2+  Sr30  1  0.88873716  0.63056995  0.37191169  1
  Sr2+  Sr31  1  0.89309156  0.62482807  0.87374081  1
  Sr2+  Sr32  1  0.12879135  0.14335467  0.37557262  1
  Sr2+  Sr33  1  0.12739854  0.11599828  0.87624240  1
  Sr2+  Sr34  1  0.12624939  0.64517899  0.37404926  1
  Sr2+  Sr35  1  0.12713843  0.61898522  0.87666573  1
  Sr2+  Sr36  1  0.62614256  0.13324849  0.37142026  1
  Sr2+  Sr37  1  0.62370136  0.13785803  0.87316249  1
  Sr2+  Sr38  1  0.62438730  0.63514098  0.37510678  1
  Sr2+  Sr39  1  0.62848415  0.63875500  0.87305979  1
  Sr2+  Sr40  1  0.37052534  0.38207497  0.37590838  1
  Sr2+  Sr41  1  0.37238337  0.38782785  0.87415689  1
  Sr2+  Sr42  1  0.37207492  0.87799979  0.37427925  1
  Sr2+  Sr43  1  0.37380285  0.87192991  0.87325781  1
  Sr2+  Sr44  1  0.88049991  0.38575612  0.36906718  1
  Sr2+  Sr45  1  0.87874382  0.38733767  0.87229406  1
  Sr2+  Sr46  1  0.88181480  0.88242202  0.36817294  1
  Sr2+  Sr47  1  0.89009827  0.88498016  0.88051543  1
  Sr2+  Sr48  1  0.10789999  0.36736211  0.12484854  1
  Sr2+  Sr49  1  0.12167849  0.35856957  0.62029169  1
  Sr2+  Sr50  1  0.10605693  0.86202119  0.11852519  1
  Sr2+  Sr51  1  0.11469905  0.86706767  0.62699566  1
  Sr2+  Sr52  1  0.62236929  0.37083628  0.13247503  1
  Sr2+  Sr53  1  0.61595547  0.37484657  0.62515337  1
  Sr2+  Sr54  1  0.62948609  0.87603009  0.11889251  1
  Sr2+  Sr55  1  0.61995667  0.87154446  0.62641445  1
  Sr2+  Sr56  1  0.38769548  0.11640868  0.12292958  1
  Sr2+  Sr57  1  0.37481655  0.12421932  0.62349687  1
  Sr2+  Sr58  1  0.37914134  0.61548744  0.11811338  1
  Sr2+  Sr59  1  0.38417256  0.62586320  0.62077836  1
  Sr2+  Sr60  1  0.86681046  0.11847853  0.12193749  1
  Sr2+  Sr61  1  0.87217574  0.11872829  0.63002660  1
  Sr2+  Sr62  1  0.87163587  0.62328104  0.13258900  1
  Sr2+  Sr63  1  0.86330595  0.61785326  0.63419807  1
  Ca2+  Ca64  1  -0.00101066  0.00136327  0.00333729  1
  Ca2+  Ca65  1  -0.00086801  0.50095011  0.50142723  1
  Ca2+  Ca66  1  -0.00502059  0.49793435  0.00327421  1
  Ca2+  Ca67  1  0.50395278  0.49759629  -0.00085524  1
  Ca2+  Ca68  1  0.00060459  0.00081196  0.50032829  1
  Ca2+  Ca69  1  0.24729373  0.75201699  -0.00102883  1
  Ca2+  Ca70  1  0.25121750  0.24896268  -0.00350072  1
  Ca2+  Ca71  1  0.74868147  0.75129839  0.49849075  1
  Ca2+  Ca72  1  0.75122995  0.74603566  -0.00564948  1
  Ca2+  Ca73  1  0.74897032  0.25094000  0.49758416  1
  Ca2+  Ca74  1  0.00249533  0.75040810  0.24993208  1
  Ca2+  Ca75  1  -0.00036827  0.25009392  0.24903265  1
  Ca2+  Ca76  1  0.49684448  0.24881886  0.25473424  1
  Ca2+  Ca77  1  0.49693290  0.74979346  0.25273595  1
  Ca2+  Ca78  1  0.25196334  -0.00337801  0.24910830  1
  Ca2+  Ca79  1  0.00174765  0.25060806  0.75242500  1
  Ca2+  Ca80  1  0.25163933  0.49955072  0.74326096  1
  Ca2+  Ca81  1  0.49703150  0.75076832  0.75327384  1
  Ca2+  Ca82  1  0.25027378  0.49932764  0.25014354  1
  Ca2+  Ca83  1  0.74870433  0.00224502  0.75240878  1
  Ca2+  Ca84  1  0.00202635  0.75035433  0.75184051  1
  Nb5+  Nb85  1  0.50138460  0.00586182  0.49573295  1
  Nb5+  Nb86  1  0.50241618  0.50721029  0.49834796  1
  Nb5+  Nb87  1  0.50258493  0.00124052  -0.01002009  1
  Nb5+  Nb88  1  0.25208724  0.25154478  0.50239999  1
  Nb5+  Nb89  1  0.74892087  0.24998076  -0.00014671  1
  Nb5+  Nb90  1  0.25099623  0.75246960  0.50048107  1
  Nb5+  Nb91  1  0.25295596  -0.00099999  0.74835639  1
  Nb5+  Nb92  1  0.74769577  0.50560139  0.25516601  1
  Nb5+  Nb93  1  0.74358572  0.50232307  0.75764016  1
  Nb5+  Nb94  1  0.74911595  0.00662362  0.24936564  1
  Nb5+  Nb95  1  0.49771474  0.25061730  0.75113658  1
  Nb5+  Nb96  1  0.00644858  -0.00378424  0.24691455  1
  Nb5+  Nb97  1  -0.00577927  0.00608128  0.75333708  1
  Nb5+  Nb98  1  0.00563657  0.49785743  0.24981874  1
  Nb5+  Nb99  1  0.00486835  0.49535847  0.74510993  1
  Nb5+  Nb100  1  0.50104646  -0.00181440  0.24478502  1
  Nb5+  Nb101  1  0.49793173  0.00094567  0.74199239  1
  Nb5+  Nb102  1  0.49809037  0.49907422  0.25026709  1
  Nb5+  Nb103  1  0.50368188  0.50370498  0.75160021  1
  Nb5+  Nb104  1  0.24878757  0.25090337  0.24185598  1
  Nb5+  Nb105  1  0.25158130  0.25331672  0.75109410  1
  Nb5+  Nb106  1  0.24870391  0.75086516  0.24197120  1
  Nb5+  Nb107  1  0.24744675  0.74714753  0.74747774  1
  Nb5+  Nb108  1  0.75326711  0.25265727  0.25515989  1
  Nb5+  Nb109  1  0.74781844  0.25118406  0.74598248  1
  Nb5+  Nb110  1  0.75255453  0.75793575  0.25459488  1
  Nb5+  Nb111  1  0.75270633  0.75581283  0.75505064  1
  Nb5+  Nb112  1  -0.00692345  0.24824921  0.50627614  1
  Nb5+  Nb113  1  0.00747068  0.25092952  0.99490797  1
  Nb5+  Nb114  1  -0.00695668  0.74788224  0.50584840  1
  Nb5+  Nb115  1  -0.00142998  0.74714655  0.99835861  1
  Nb5+  Nb116  1  0.49732285  0.25393771  0.49825831  1
  Nb5+  Nb117  1  0.49852777  0.25032703  1.00337483  1
  Nb5+  Nb118  1  0.49813744  0.75926018  0.49649867  1
  Nb5+  Nb119  1  0.50101624  0.74558167  1.00049485  1
  Nb5+  Nb120  1  0.25210001  -0.00050877  0.00678246  1
  Nb5+  Nb121  1  0.25067395  0.00027411  0.50298743  1
  Nb5+  Nb122  1  0.25053070  0.49859086  0.00028502  1
  Nb5+  Nb123  1  0.24926108  0.50060042  0.50528463  1
  Nb5+  Nb124  1  0.74815681  0.00126998  -0.00572830  1
  Nb5+  Nb125  1  0.75385049  0.00306133  0.50028055  1
  Nb5+  Nb126  1  0.74499999  0.50021405  0.00965149  1
  Nb5+  Nb127  1  0.74953856  0.50077228  0.50411116  1
  O2-  O128  1  -0.01167815  0.03501357  0.13536580  1
  O2-  O129  1  -0.01278700  0.02408908  0.63535139  1
  O2-  O130  1  -0.01227583  0.53111892  0.13669411  1
  O2-  O131  1  -0.02901655  0.51725666  0.63448374  1
  O2-  O132  1  0.48521543  -0.01284428  0.12944563  1
  O2-  O133  1  0.47624355  -0.00794724  0.62768740  1
  O2-  O134  1  0.48118965  0.47953705  0.13744429  1
  O2-  O135  1  0.48833926  0.49119362  0.62249814  1
  O2-  O136  1  0.00628629  -0.03014868  0.36488695  1
  O2-  O137  1  0.02646833  -0.01660678  0.86689462  1
  O2-  O138  1  0.00565421  0.47005921  0.36802836  1
  O2-  O139  1  0.00810483  0.47976644  0.86549125  1
  O2-  O140  1  0.52510869  0.01369599  0.38449664  1
  O2-  O141  1  0.52001001  0.01252330  0.87606893  1
  O2-  O142  1  0.52667124  0.51232761  0.38334811  1
  O2-  O143  1  0.52669924  0.49111993  0.86267263  1
  O2-  O144  1  0.22294886  0.25628385  0.13074498  1
  O2-  O145  1  0.23476624  0.24099160  0.62402590  1
  O2-  O146  1  0.21894673  0.75440604  0.13233351  1
  O2-  O147  1  0.23073942  0.75447062  0.62006536  1
  O2-  O148  1  0.72661808  0.26203105  0.11769010  1
  O2-  O149  1  0.72788922  0.27240215  0.63389778  1
  O2-  O150  1  0.72940530  0.76200512  0.13492121  1
  O2-  O151  1  0.72495999  0.76469796  0.63583076  1
  O2-  O152  1  0.27279006  0.25162406  0.38637399  1
  O2-  O153  1  0.28226459  0.25102467  0.86135100  1
  O2-  O154  1  0.27275618  0.75520992  0.38485611  1
  O2-  O155  1  0.26960807  0.75133626  0.86145037  1
  O2-  O156  1  0.77668322  0.22926511  0.36355868  1
  O2-  O157  1  0.75346392  0.23594990  0.87645840  1
  O2-  O158  1  0.77492050  0.73034974  0.36641520  1
  O2-  O159  1  0.76566836  0.70897337  0.86211932  1
  O2-  O160  1  0.02500990  0.23144064  0.11313299  1
  O2-  O161  1  0.03246064  0.23272155  0.61828040  1
  O2-  O162  1  0.02642333  0.73323308  0.11672229  1
  O2-  O163  1  0.03107496  0.73858075  0.61880083  1
  O2-  O164  1  0.51906911  0.25748767  0.11651902  1
  O2-  O165  1  0.51757735  0.25314187  0.62396371  1
  O2-  O166  1  0.52101685  0.77316226  0.11733167  1
  O2-  O167  1  0.51592369  0.75746913  0.61511160  1
  O2-  O168  1  0.23733147  -0.00482374  0.38797215  1
  O2-  O169  1  0.24207835  -0.00388034  0.86644890  1
  O2-  O170  1  0.24062731  0.48738180  0.38965118  1
  O2-  O171  1  0.23094662  0.49803105  0.87759421  1
  O2-  O172  1  0.72371062  0.01353726  0.36577024  1
  O2-  O173  1  0.71407067  0.01270461  0.88526446  1
  O2-  O174  1  0.72549736  0.51253043  0.36813052  1
  O2-  O175  1  0.72013332  0.50975006  0.86969297  1
  O2-  O176  1  -0.02194691  0.26926625  0.38818990  1
  O2-  O177  1  -0.03419504  0.26689928  0.88408567  1
  O2-  O178  1  -0.01875526  0.76603891  0.38839606  1
  O2-  O179  1  -0.03171556  0.76122497  0.88280302  1
  O2-  O180  1  0.47229743  0.22678301  0.38999689  1
  O2-  O181  1  0.48623848  0.23553163  0.86822843  1
  O2-  O182  1  0.46930635  0.73156021  0.38777749  1
  O2-  O183  1  0.46773770  0.73994088  0.88606827  1
  O2-  O184  1  0.28209514  0.00766077  0.11604675  1
  O2-  O185  1  0.27899650  0.00546676  0.62536642  1
  O2-  O186  1  0.27728901  0.50195182  0.11684031  1
  O2-  O187  1  0.29340913  0.50663685  0.61328554  1
  O2-  O188  1  0.76126399  -0.00799824  0.12598161  1
  O2-  O189  1  0.77367015  -0.01066034  0.61401910  1
  O2-  O190  1  0.76825154  0.48498344  0.12336587  1
  O2-  O191  1  0.76272407  0.48430364  0.61935093  1
  O2-  O192  1  0.13535228  0.27308278  0.27696044  1
  O2-  O193  1  0.14005802  0.27534966  0.76784425  1
  O2-  O194  1  0.13631734  0.77489998  0.27948364  1
  O2-  O195  1  0.13768210  0.78888373  0.75765467  1
  O2-  O196  1  0.63619845  0.26072827  0.26800488  1
  O2-  O197  1  0.61822043  0.26672811  0.76592904  1
  O2-  O198  1  0.63557745  0.75494218  0.27674976  1
  O2-  O199  1  0.63242480  0.76499886  0.77429670  1
  O2-  O200  1  0.36496199  0.21783542  0.23202651  1
  O2-  O201  1  0.38291462  0.22983586  0.72830727  1
  O2-  O202  1  0.36508794  0.71870544  0.22812629  1
  O2-  O203  1  0.36367354  0.73655647  0.72098132  1
  O2-  O204  1  0.86351461  0.23325796  0.21714150  1
  O2-  O205  1  0.86125991  0.23202366  0.73406167  1
  O2-  O206  1  0.86670171  0.73467983  0.22950184  1
  O2-  O207  1  0.86548993  0.73589301  0.72231004  1
  O2-  O208  1  0.28494200  0.36374149  0.25232549  1
  O2-  O209  1  0.28130721  0.36468970  0.73603476  1
  O2-  O210  1  0.28712626  0.86408683  0.25090898  1
  O2-  O211  1  0.27990427  0.88315533  0.74464584  1
  O2-  O212  1  0.76592161  0.37148032  0.25894682  1
  O2-  O213  1  0.75867052  0.37541193  0.76710583  1
  O2-  O214  1  0.76420346  0.87585490  0.26371139  1
  O2-  O215  1  0.77175217  0.86761437  0.77891283  1
  O2-  O216  1  0.22556261  0.13270653  0.25956874  1
  O2-  O217  1  0.24120551  0.12480590  0.74900538  1
  O2-  O218  1  0.22880595  0.63406325  0.26567411  1
  O2-  O219  1  0.21935625  0.63509994  0.74504785  1
  O2-  O220  1  0.73307445  0.12313701  0.23310522  1
  O2-  O221  1  0.72245918  0.13688218  0.73806708  1
  O2-  O222  1  0.73744417  0.61893400  0.23270122  1
  O2-  O223  1  0.72923578  0.61545079  0.72844689  1
  O2-  O224  1  0.11728688  0.47508485  0.23420494  1
  O2-  O225  1  0.11597659  0.47363683  0.72428786  1
  O2-  O226  1  0.11795268  0.97461867  0.22761379  1
  O2-  O227  1  0.13886440  0.98517764  0.72884118  1
  O2-  O228  1  0.63228723  0.47678778  0.23505633  1
  O2-  O229  1  0.62631462  0.47692327  0.72851921  1
  O2-  O230  1  0.62957468  0.97724596  0.23326216  1
  O2-  O231  1  0.61368156  0.98569762  0.72766042  1
  O2-  O232  1  0.38999625  0.01901458  0.27011030  1
  O2-  O233  1  0.37950220  0.02466846  0.76503121  1
  O2-  O234  1  0.38787180  0.51835521  0.27465387  1
  O2-  O235  1  0.38927244  0.51967424  0.76755005  1
  O2-  O236  1  0.86519879  0.01651613  0.26616212  1
  O2-  O237  1  0.88336302  0.03030561  0.77590727  1
  O2-  O238  1  0.86531630  0.51227438  0.26893199  1
  O2-  O239  1  0.86025122  0.51505852  0.76589892  1
  O2-  O240  1  0.49719121  0.38380362  0.28292629  1
  O2-  O241  1  0.48258623  0.36942165  0.74738363  1
  O2-  O242  1  0.49602357  0.88576515  0.28089273  1
  O2-  O243  1  0.48365330  0.88788935  0.76576972  1
  O2-  O244  1  0.97340714  0.38404455  0.22583663  1
  O2-  O245  1  0.96784626  0.38199544  0.73669815  1
  O2-  O246  1  0.97079554  0.88554507  0.22294260  1
  O2-  O247  1  0.98127193  0.88848026  0.73523681  1
  O2-  O248  1  0.01646079  0.11431898  0.27842971  1
  O2-  O249  1  0.03518929  0.11813214  0.76312596  1
  O2-  O250  1  0.01014854  0.61417377  0.28145304  1
  O2-  O251  1  0.01377869  0.61349542  0.76788640  1
  O2-  O252  1  0.53074958  0.11244483  0.24469702  1
  O2-  O253  1  0.51769284  0.12569669  0.74124484  1
  O2-  O254  1  0.53032709  0.61237454  0.24452596  1
  O2-  O255  1  0.52743982  0.61581054  0.74259196  1
  O2-  O256  1  0.13370049  0.47376459  0.01950429  1
  O2-  O257  1  0.13891371  0.49128854  0.53299720  1
  O2-  O258  1  0.13875710  0.98234106  0.02222826  1
  O2-  O259  1  0.13894083  0.99010076  0.52765356  1
  O2-  O260  1  0.63557958  0.45726459  0.01077897  1
  O2-  O261  1  0.61844655  0.47456738  0.51265160  1
  O2-  O262  1  0.62035727  0.98793532  0.02072727  1
  O2-  O263  1  0.61384255  0.98090211  0.52355238  1
  O2-  O264  1  0.38629761  0.02320573  -0.01370232  1
  O2-  O265  1  0.38009347  0.01038712  0.48310253  1
  O2-  O266  1  0.37072169  0.52304850  -0.02168998  1
  O2-  O267  1  0.38511115  0.50777667  0.47678754  1
  O2-  O268  1  0.86068705  0.02346770  -0.02045845  1
  O2-  O269  1  0.86288501  0.02649434  0.47605015  1
  O2-  O270  1  0.85626687  0.50948694  -0.02640154  1
  O2-  O271  1  0.86022029  0.52458221  0.48168205  1
  O2-  O272  1  0.47563370  0.36153864  -0.01304152  1
  O2-  O273  1  0.48352983  0.37112785  0.49455837  1
  O2-  O274  1  0.48442275  0.88393863  -0.01205775  1
  O2-  O275  1  0.48069556  0.87665133  0.49272915  1
  O2-  O276  1  0.97831221  0.36379475  0.02353780  1
  O2-  O277  1  0.99672037  0.36633695  0.52761236  1
  O2-  O278  1  0.97489531  0.86806833  0.01799811  1
  O2-  O279  1  0.98888220  0.86701646  0.52544308  1
  O2-  O280  1  0.00915375  0.13375738  -0.02634339  1
  O2-  O281  1  0.01778515  0.13484495  0.47799048  1
  O2-  O282  1  0.02097780  0.63038970  -0.02131408  1
  O2-  O283  1  0.02637873  0.63434694  0.48668947  1
  O2-  O284  1  0.52103593  0.12143834  0.00971955  1
  O2-  O285  1  0.50639005  0.12135223  0.51951426  1
  O2-  O286  1  0.52344817  0.63274086  0.01580816  1
  O2-  O287  1  0.51032352  0.62264117  0.51520078  1
  O2-  O288  1  0.11750397  0.26942357  -0.03106699  1
  O2-  O289  1  0.13552566  0.26397422  0.48373638  1
  O2-  O290  1  0.11421028  0.77794881  -0.02252290  1
  O2-  O291  1  0.13485948  0.76690104  0.48225850  1
  O2-  O292  1  0.62131461  0.25770726  -0.02174921  1
  O2-  O293  1  0.61130183  0.26057248  0.47734248  1
  O2-  O294  1  0.61489718  0.77048800  -0.02848921  1
  O2-  O295  1  0.61124176  0.76525919  0.47406522  1
  O2-  O296  1  0.38689016  0.21995400  0.01448141  1
  O2-  O297  1  0.37431115  0.24355961  0.52699522  1
  O2-  O298  1  0.38334921  0.73801491  0.02873898  1
  O2-  O299  1  0.37261700  0.74242240  0.52413100  1
  O2-  O300  1  0.86293770  0.22884774  0.01665873  1
  O2-  O301  1  0.88154969  0.23415233  0.53397140  1
  O2-  O302  1  0.88109001  0.72550582  0.02613045  1
  O2-  O303  1  0.88184064  0.72835217  0.52914767  1
  O2-  O304  1  0.27959306  0.38123735  -0.00672126  1
  O2-  O305  1  0.26364987  0.37355831  0.51178355  1
  O2-  O306  1  0.28160030  0.88685020  -0.00929823  1
  O2-  O307  1  0.26865326  0.87729168  0.50578761  1
  O2-  O308  1  0.76592686  0.36622988  -0.01529971  1
  O2-  O309  1  0.75832560  0.38654669  0.47171294  1
  O2-  O310  1  0.76313321  0.88538683  -0.01130880  1
  O2-  O311  1  0.75419591  0.88848210  0.47250845  1
  O2-  O312  1  0.23900401  0.11405234  -0.01790117  1
  O2-  O313  1  0.24855814  0.12463417  0.49953688  1
  O2-  O314  1  0.22698595  0.61781426  -0.00359893  1
  O2-  O315  1  0.24475871  0.62619763  0.49769852  1
  O2-  O316  1  0.72901600  0.12611602  0.01211531  1
  O2-  O317  1  0.71422522  0.11462713  0.50495615  1
  O2-  O318  1  0.71713947  0.61065403  0.01600632  1
  O2-  O319  1  0.71409381  0.61358627  0.50703462  1
