# generated using pymatgen
data_Sr64Ca21Nb43O192
_symmetry_space_group_name_H-M   'P 1'
_cell_length_a   16.59094095
_cell_length_b   16.58901819
_cell_length_c   16.72872304
_cell_angle_alpha   89.97128102
_cell_angle_beta   89.97796466
_cell_angle_gamma   89.93274532
_symmetry_Int_Tables_number   1
_chemical_formula_structural   Sr64Ca21Nb43O192
_chemical_formula_sum   'Sr64 Ca21 Nb43 O192'
_cell_volume   4604.19921453
_cell_formula_units_Z   1
loop_
 _symmetry_equiv_pos_site_id
 _symmetry_equiv_pos_as_xyz
  1  'x, y, z'
loop_
 _atom_type_symbol
 _atom_type_oxidation_number
  Sr2+  2.0
  Ca2+  2.0
  Nb5+  5.0
  O2-  -2.0
loop_
 _atom_site_type_symbol
 _atom_site_label
 _atom_site_symmetry_multiplicity
 _atom_site_fract_x
 _atom_site_fract_y
 _atom_site_fract_z
 _atom_site_occupancy
  Sr2+  Sr0  1  0.12183875  0.12906948  0.13070257  1
  Sr2+  Sr1  1  0.11830340  0.10916209  0.62936747  1
  Sr2+  Sr2  1  0.11502858  0.60541195  0.12753374  1
  Sr2+  Sr3  1  0.12280211  0.61785680  0.61873343  1
  Sr2+  Sr4  1  0.61929526  0.11767044  0.13017112  1
  Sr2+  Sr5  1  0.61395260  0.12385978  0.61025792  1
  Sr2+  Sr6  1  0.62305588  0.60960976  0.12610922  1
  Sr2+  Sr7  1  0.62291200  0.61316174  0.62605235  1
  Sr2+  Sr8  1  0.36221858  0.36915009  0.12833577  1
  Sr2+  Sr9  1  0.36860779  0.36719989  0.62957771  1
  Sr2+  Sr10  1  0.37062353  0.87025788  0.11664437  1
  Sr2+  Sr11  1  0.36766257  0.86508153  0.63300948  1
  Sr2+  Sr12  1  0.87399461  0.36393270  0.12064866  1
  Sr2+  Sr13  1  0.86204557  0.36818257  0.63213680  1
  Sr2+  Sr14  1  0.86397598  0.86162694  0.13076271  1
  Sr2+  Sr15  1  0.87579671  0.86708367  0.62164766  1
  Sr2+  Sr16  1  0.13633154  0.37601922  0.37302447  1
  Sr2+  Sr17  1  0.13390423  0.38613636  0.87836930  1
  Sr2+  Sr18  1  0.13280922  0.88294047  0.37486808  1
  Sr2+  Sr19  1  0.13771741  0.88162743  0.87060723  1
  Sr2+  Sr20  1  0.62941878  0.37724836  0.36991036  1
  Sr2+  Sr21  1  0.63990756  0.37817444  0.87132197  1
  Sr2+  Sr22  1  0.63564531  0.88111331  0.38138155  1
  Sr2+  Sr23  1  0.62473454  0.88096452  0.87300516  1
  Sr2+  Sr24  1  0.38168635  0.13150996  0.37158853  1
  Sr2+  Sr25  1  0.38489173  0.13430863  0.87657123  1
  Sr2+  Sr26  1  0.38875625  0.63653163  0.36878553  1
  Sr2+  Sr27  1  0.39024320  0.63671715  0.87437348  1
  Sr2+  Sr28  1  0.88228270  0.13371615  0.37963322  1
  Sr2+  Sr29  1  0.88498100  0.13498549  0.87377611  1
  Sr2+  Sr30  1  0.88494276  0.63276190  0.37718769  1
  Sr2+  Sr31  1  0.88319742  0.62821174  0.87716491  1
  Sr2+  Sr32  1  0.13234807  0.13901622  0.37952852  1
  Sr2+  Sr33  1  0.13189144  0.14011539  0.86982561  1
  Sr2+  Sr34  1  0.13435412  0.63907731  0.37078894  1
  Sr2+  Sr35  1  0.12492941  0.62636884  0.88775342  1
  Sr2+  Sr36  1  0.63656984  0.13844318  0.37041323  1
  Sr2+  Sr37  1  0.63054072  0.13953532  0.87755511  1
  Sr2+  Sr38  1  0.62354045  0.61283394  0.38092480  1
  Sr2+  Sr39  1  0.63529975  0.63444672  0.87412540  1
  Sr2+  Sr40  1  0.38631696  0.39681180  0.37170862  1
  Sr2+  Sr41  1  0.38374786  0.38536386  0.87736170  1
  Sr2+  Sr42  1  0.36856722  0.88082424  0.37225456  1
  Sr2+  Sr43  1  0.38701910  0.88933689  0.87540933  1
  Sr2+  Sr44  1  0.88134879  0.37721901  0.36834291  1
  Sr2+  Sr45  1  0.88514493  0.38424268  0.87264501  1
  Sr2+  Sr46  1  0.87787687  0.88394622  0.37730510  1
  Sr2+  Sr47  1  0.87488663  0.88109542  0.88053223  1
  Sr2+  Sr48  1  0.11781944  0.36759747  0.11760106  1
  Sr2+  Sr49  1  0.12005550  0.36256447  0.62349328  1
  Sr2+  Sr50  1  0.10763542  0.86567064  0.13303435  1
  Sr2+  Sr51  1  0.10960177  0.86933105  0.62492627  1
  Sr2+  Sr52  1  0.61318429  0.36638916  0.13140181  1
  Sr2+  Sr53  1  0.60891046  0.37374878  0.62185240  1
  Sr2+  Sr54  1  0.61781798  0.87315085  0.12587764  1
  Sr2+  Sr55  1  0.61649246  0.86713797  0.62963837  1
  Sr2+  Sr56  1  0.36205927  0.11690167  0.12244306  1
  Sr2+  Sr57  1  0.36278912  0.12458462  0.63112833  1
  Sr2+  Sr58  1  0.36126557  0.61703160  0.13197880  1
  Sr2+  Sr59  1  0.37073497  0.62053623  0.61870025  1
  Sr2+  Sr60  1  0.85708353  0.11991945  0.12344398  1
  Sr2+  Sr61  1  0.88526466  0.11497226  0.62908962  1
  Sr2+  Sr62  1  0.88217049  0.62115737  0.12538625  1
  Sr2+  Sr63  1  0.86761510  0.61955028  0.62287579  1
  Ca2+  Ca64  1  0.00270834  0.50014901  0.50260263  1
  Ca2+  Ca65  1  0.49909350  -0.00004756  0.50064883  1
  Ca2+  Ca66  1  0.49663887  0.50034295  0.50178398  1
  Ca2+  Ca67  1  -0.00135149  -0.00094061  0.00420763  1
  Ca2+  Ca68  1  0.50263547  0.50170609  0.00016467  1
  Ca2+  Ca69  1  0.25116070  0.24902860  -0.00100212  1
  Ca2+  Ca70  1  0.25000822  0.74969270  -0.00018212  1
  Ca2+  Ca71  1  0.74924141  0.24958273  -0.00067942  1
  Ca2+  Ca72  1  0.75141393  0.25131815  0.50261949  1
  Ca2+  Ca73  1  0.25212822  0.24809491  0.49992702  1
  Ca2+  Ca74  1  0.75341602  0.50265056  0.24742819  1
  Ca2+  Ca75  1  -0.00243486  0.74710329  0.75245877  1
  Ca2+  Ca76  1  0.25329811  0.50196808  0.74855747  1
  Ca2+  Ca77  1  -0.00079911  0.25160457  0.74873612  1
  Ca2+  Ca78  1  -0.00080426  0.24829975  0.25073824  1
  Ca2+  Ca79  1  0.74933596  0.00118924  0.74837683  1
  Ca2+  Ca80  1  -0.00153934  0.74793165  0.25139458  1
  Ca2+  Ca81  1  0.50507731  0.75375992  0.24843028  1
  Ca2+  Ca82  1  0.49750173  0.24899830  0.24722784  1
  Ca2+  Ca83  1  0.24619783  0.50110893  0.25280596  1
  Ca2+  Ca84  1  0.25111141  -0.00036121  0.75014044  1
  Nb5+  Nb85  1  -0.00194478  0.49697193  0.00019157  1
  Nb5+  Nb86  1  0.50076577  0.00450350  0.00018976  1
  Nb5+  Nb87  1  0.00229084  -0.00151860  0.49576641  1
  Nb5+  Nb88  1  0.74610946  0.74879670  0.00706793  1
  Nb5+  Nb89  1  0.75168632  0.75037296  0.50612902  1
  Nb5+  Nb90  1  0.25462474  0.75202934  0.50069018  1
  Nb5+  Nb91  1  0.74403238  -0.00368635  0.24975732  1
  Nb5+  Nb92  1  0.75227562  0.50065093  0.75173789  1
  Nb5+  Nb93  1  0.49971079  0.25694158  0.74998284  1
  Nb5+  Nb94  1  0.24114041  -0.00079151  0.24724973  1
  Nb5+  Nb95  1  0.50002495  0.75371500  0.74879788  1
  Nb5+  Nb96  1  -0.01011946  0.00470882  0.24881424  1
  Nb5+  Nb97  1  0.00098592  -0.00639924  0.75898784  1
  Nb5+  Nb98  1  0.00039795  0.49455799  0.25739228  1
  Nb5+  Nb99  1  0.00509002  0.50161602  0.74702738  1
  Nb5+  Nb100  1  0.49339705  -0.00433963  0.25447178  1
  Nb5+  Nb101  1  0.50335637  0.01242285  0.75062733  1
  Nb5+  Nb102  1  0.50062124  0.50339805  0.24706092  1
  Nb5+  Nb103  1  0.50215616  0.50774218  0.75631741  1
  Nb5+  Nb104  1  0.25332405  0.25373760  0.25333496  1
  Nb5+  Nb105  1  0.24756543  0.25364373  0.75206973  1
  Nb5+  Nb106  1  0.24765333  0.75349302  0.24372541  1
  Nb5+  Nb107  1  0.24701043  0.74694456  0.75354660  1
  Nb5+  Nb108  1  0.75306319  0.25419982  0.24943249  1
  Nb5+  Nb109  1  0.74653717  0.24173275  0.74374170  1
  Nb5+  Nb110  1  0.74521597  0.74766404  0.25947087  1
  Nb5+  Nb111  1  0.75293442  0.74884037  0.75591665  1
  Nb5+  Nb112  1  -0.00377031  0.25590912  0.50443566  1
  Nb5+  Nb113  1  0.00152793  0.24382417  0.99699347  1
  Nb5+  Nb114  1  0.00721435  0.75005499  0.49572548  1
  Nb5+  Nb115  1  -0.00000252  0.75305900  0.99872170  1
  Nb5+  Nb116  1  0.49652579  0.25230629  0.49266989  1
  Nb5+  Nb117  1  0.49995581  0.25435735  1.00209291  1
  Nb5+  Nb118  1  0.50426113  0.75687784  0.49879551  1
  Nb5+  Nb119  1  0.50429546  0.74822501  1.00355054  1
  Nb5+  Nb120  1  0.24178423  -0.00359524  0.00118332  1
  Nb5+  Nb121  1  0.25195566  0.00024615  0.49950536  1
  Nb5+  Nb122  1  0.25667724  0.50436361  -0.00332393  1
  Nb5+  Nb123  1  0.25197129  0.49500448  0.49795467  1
  Nb5+  Nb124  1  0.74589554  0.00058525  -0.00273991  1
  Nb5+  Nb125  1  0.75139977  -0.00012405  0.50378093  1
  Nb5+  Nb126  1  0.75305134  0.49718104  0.00039184  1
  Nb5+  Nb127  1  0.75386791  0.49646122  0.49747535  1
  O2-  O128  1  -0.01239958  0.03477344  0.13723454  1
  O2-  O129  1  -0.00933493  0.00923710  0.61460132  1
  O2-  O130  1  -0.01663456  0.51334632  0.11747082  1
  O2-  O131  1  -0.01298464  0.53240371  0.63754347  1
  O2-  O132  1  0.49008004  0.02145917  0.11796816  1
  O2-  O133  1  0.48845652  0.03137829  0.63728308  1
  O2-  O134  1  0.48715503  0.53538871  0.13197506  1
  O2-  O135  1  0.49173557  0.51704777  0.63944161  1
  O2-  O136  1  0.00736825  -0.02827267  0.37588038  1
  O2-  O137  1  0.01295507  -0.03282030  0.86987700  1
  O2-  O138  1  0.01200999  0.46719578  0.36911850  1
  O2-  O139  1  0.00989446  0.48074330  0.87869264  1
  O2-  O140  1  0.50971547  -0.03354931  0.36401465  1
  O2-  O141  1  0.51427006  -0.01605224  0.87830690  1
  O2-  O142  1  0.52121191  0.47967601  0.36735574  1
  O2-  O143  1  0.52313739  0.47093672  0.86623713  1
  O2-  O144  1  0.23291342  0.26710395  0.13515788  1
  O2-  O145  1  0.24601910  0.27685440  0.63358930  1
  O2-  O146  1  0.23523899  0.78196725  0.13352922  1
  O2-  O147  1  0.23748040  0.77938235  0.61679227  1
  O2-  O148  1  0.72679139  0.26069044  0.13348547  1
  O2-  O149  1  0.73007126  0.28615812  0.63642723  1
  O2-  O150  1  0.72930051  0.76263332  0.12009808  1
  O2-  O151  1  0.73464451  0.76510718  0.62152853  1
  O2-  O152  1  0.26506562  0.21785666  0.36648466  1
  O2-  O153  1  0.26339232  0.21981227  0.86521112  1
  O2-  O154  1  0.26720425  0.73849989  0.38082072  1
  O2-  O155  1  0.26264981  0.71804010  0.86333843  1
  O2-  O156  1  0.76495874  0.23072665  0.36703536  1
  O2-  O157  1  0.76015267  0.22906836  0.86164869  1
  O2-  O158  1  0.76068233  0.73985864  0.37542364  1
  O2-  O159  1  0.76289950  0.73457334  0.87114452  1
  O2-  O160  1  0.02537092  0.24454987  0.11438965  1
  O2-  O161  1  0.02708576  0.22636871  0.61645444  1
  O2-  O162  1  0.01532221  0.72868794  0.11441521  1
  O2-  O163  1  0.01357110  0.73663876  0.61294330  1
  O2-  O164  1  0.52727992  0.23469598  0.11241941  1
  O2-  O165  1  0.52029159  0.23548924  0.63511193  1
  O2-  O166  1  0.53847221  0.73836463  0.11162102  1
  O2-  O167  1  0.52166591  0.73138299  0.63292673  1
  O2-  O168  1  0.22978857  0.01035388  0.36808907  1
  O2-  O169  1  0.22277518  0.01333099  0.88774364  1
  O2-  O170  1  0.21091963  0.51422493  0.38660199  1
  O2-  O171  1  0.21964965  0.51374674  0.88326074  1
  O2-  O172  1  0.73483351  0.00204338  0.37083660  1
  O2-  O173  1  0.72081316  0.00660571  0.88530714  1
  O2-  O174  1  0.73008523  0.50413616  0.38508367  1
  O2-  O175  1  0.73433800  0.51666426  0.87386130  1
  O2-  O176  1  -0.02887315  0.25915683  0.38746506  1
  O2-  O177  1  -0.02857368  0.26167943  0.88189135  1
  O2-  O178  1  -0.03122422  0.76361483  0.38451382  1
  O2-  O179  1  -0.03758609  0.75918904  0.88654128  1
  O2-  O180  1  0.47359212  0.26894752  0.38194861  1
  O2-  O181  1  0.47918000  0.26102219  0.87073732  1
  O2-  O182  1  0.48238921  0.77735015  0.38863781  1
  O2-  O183  1  0.48412339  0.76506004  0.86887359  1
  O2-  O184  1  0.27309845  -0.01695308  0.13166971  1
  O2-  O185  1  0.27212693  -0.01617940  0.61156874  1
  O2-  O186  1  0.27014319  0.48817934  0.11568108  1
  O2-  O187  1  0.28790880  0.49431741  0.61317888  1
  O2-  O188  1  0.76459372  -0.01720002  0.12882330  1
  O2-  O189  1  0.78224494  -0.01074119  0.61339074  1
  O2-  O190  1  0.78028520  0.50398310  0.11192199  1
  O2-  O191  1  0.77007061  0.49747902  0.63209297  1
  O2-  O192  1  0.13463027  0.25943186  0.27240359  1
  O2-  O193  1  0.13459418  0.27594370  0.76785645  1
  O2-  O194  1  0.13363700  0.77105869  0.27548439  1
  O2-  O195  1  0.13470724  0.77130506  0.76380071  1
  O2-  O196  1  0.63300713  0.26221462  0.27197253  1
  O2-  O197  1  0.62086527  0.26763571  0.77017033  1
  O2-  O198  1  0.63725154  0.79204177  0.26212899  1
  O2-  O199  1  0.62445890  0.76436286  0.76379622  1
  O2-  O200  1  0.36631177  0.22272167  0.22786998  1
  O2-  O201  1  0.38442178  0.22844555  0.73690200  1
  O2-  O202  1  0.36658562  0.74055162  0.23879187  1
  O2-  O203  1  0.38464345  0.72711375  0.73275464  1
  O2-  O204  1  0.86499462  0.22065497  0.22928905  1
  O2-  O205  1  0.86170850  0.22988803  0.72748083  1
  O2-  O206  1  0.85900843  0.73528184  0.22743018  1
  O2-  O207  1  0.86215851  0.72679550  0.72810679  1
  O2-  O208  1  0.27472480  0.36579424  0.27349756  1
  O2-  O209  1  0.28334076  0.36589950  0.77050196  1
  O2-  O210  1  0.26343460  0.87973805  0.26892561  1
  O2-  O211  1  0.28112828  0.86066595  0.76443013  1
  O2-  O212  1  0.77498547  0.36716507  0.25985815  1
  O2-  O213  1  0.76580056  0.38399781  0.76939572  1
  O2-  O214  1  0.77658295  0.87886792  0.26034005  1
  O2-  O215  1  0.76708507  0.86408184  0.76245134  1
  O2-  O216  1  0.23516250  0.11543915  0.23098322  1
  O2-  O217  1  0.23586621  0.13443636  0.72378597  1
  O2-  O218  1  0.23031184  0.63837161  0.23180596  1
  O2-  O219  1  0.24073029  0.63767743  0.71153708  1
  O2-  O220  1  0.73269174  0.11375860  0.23652386  1
  O2-  O221  1  0.71754475  0.13358991  0.72153278  1
  O2-  O222  1  0.71468568  0.63815935  0.24587329  1
  O2-  O223  1  0.72627392  0.62690226  0.73934402  1
  O2-  O224  1  0.11352202  0.47424624  0.22408985  1
  O2-  O225  1  0.11624666  0.47481763  0.73267778  1
  O2-  O226  1  0.12706851  0.98165109  0.23208227  1
  O2-  O227  1  0.11739533  0.97414796  0.73111453  1
  O2-  O228  1  0.61921702  0.48167444  0.22651743  1
  O2-  O229  1  0.63007475  0.48676389  0.73530912  1
  O2-  O230  1  0.62891629  0.97946076  0.23696060  1
  O2-  O231  1  0.61347760  0.97281456  0.73799081  1
  O2-  O232  1  0.37735887  0.01238729  0.26665027  1
  O2-  O233  1  0.38742563  0.01003360  0.77281434  1
  O2-  O234  1  0.38243150  0.52230888  0.26980985  1
  O2-  O235  1  0.38906818  0.51789365  0.77890296  1
  O2-  O236  1  0.87484938  0.01777085  0.26693063  1
  O2-  O237  1  0.88410359  0.02431374  0.76695924  1
  O2-  O238  1  0.88504119  0.53031517  0.26730179  1
  O2-  O239  1  0.86791742  0.52448129  0.76652345  1
  O2-  O240  1  0.47867221  0.38554940  0.22474388  1
  O2-  O241  1  0.48647904  0.37242122  0.73378654  1
  O2-  O242  1  0.48668913  0.88665453  0.21166130  1
  O2-  O243  1  0.48533648  0.86870790  0.73467971  1
  O2-  O244  1  0.96713779  0.38242400  0.23210148  1
  O2-  O245  1  0.96759290  0.38854745  0.73810868  1
  O2-  O246  1  0.98571353  0.88662315  0.22737351  1
  O2-  O247  1  0.97482748  0.88132112  0.72796448  1
  O2-  O248  1  0.02265186  0.11156250  0.28130660  1
  O2-  O249  1  0.02428833  0.11241969  0.76247631  1
  O2-  O250  1  0.02668980  0.61340590  0.26438656  1
  O2-  O251  1  0.01721854  0.61441599  0.78214305  1
  O2-  O252  1  0.52243298  0.10958270  0.26279782  1
  O2-  O253  1  0.52089762  0.12493202  0.77431605  1
  O2-  O254  1  0.52152172  0.62176586  0.27509899  1
  O2-  O255  1  0.52167573  0.62380128  0.77206361  1
  O2-  O256  1  0.11560822  0.48456556  0.01487511  1
  O2-  O257  1  0.13741199  0.48745405  0.53723730  1
  O2-  O258  1  0.13383093  0.96835151  0.02655217  1
  O2-  O259  1  0.12093642  0.97505878  0.50726724  1
  O2-  O260  1  0.63879506  0.48100183  0.02137175  1
  O2-  O261  1  0.63794227  0.49186969  0.52521529  1
  O2-  O262  1  0.62238244  0.97862059  0.01820681  1
  O2-  O263  1  0.63807797  0.97373173  0.51878478  1
  O2-  O264  1  0.38265037  0.01490590  -0.01424557  1
  O2-  O265  1  0.36349636  0.01397132  0.47094901  1
  O2-  O266  1  0.36756029  0.52728164  -0.02514337  1
  O2-  O267  1  0.36351701  0.52905401  0.46816285  1
  O2-  O268  1  0.86114387  0.01445724  -0.01950318  1
  O2-  O269  1  0.87669139  0.00748100  0.47749665  1
  O2-  O270  1  0.87549565  0.51986678  -0.02192980  1
  O2-  O271  1  0.86442469  0.53787464  0.49201675  1
  O2-  O272  1  0.47469041  0.36588475  0.01890388  1
  O2-  O273  1  0.47692466  0.36604125  0.52575856  1
  O2-  O274  1  0.48937841  0.87403072  0.00765543  1
  O2-  O275  1  0.48795689  0.86641918  0.54010670  1
  O2-  O276  1  0.97699652  0.37979903  0.01118058  1
  O2-  O277  1  0.97731557  0.36651188  0.53016475  1
  O2-  O278  1  0.97389151  0.86381501  0.02406905  1
  O2-  O279  1  0.98340063  0.87215980  0.51397060  1
  O2-  O280  1  0.02292597  0.13101199  -0.02333059  1
  O2-  O281  1  0.01594291  0.11309759  0.48111414  1
  O2-  O282  1  0.00815021  0.62272404  -0.01444824  1
  O2-  O283  1  0.01917182  0.63512639  0.47611139  1
  O2-  O284  1  0.52367948  0.11795945  -0.01897260  1
  O2-  O285  1  0.52871819  0.13416533  0.47991862  1
  O2-  O286  1  0.52070630  0.63744857  -0.02857126  1
  O2-  O287  1  0.51083338  0.63946565  0.48972411  1
  O2-  O288  1  0.11579016  0.27439607  -0.02413939  1
  O2-  O289  1  0.11401026  0.26844631  0.47834103  1
  O2-  O290  1  0.11157790  0.76926025  -0.02832578  1
  O2-  O291  1  0.12320976  0.76950567  0.48141194  1
  O2-  O292  1  0.61404104  0.26485898  -0.03069800  1
  O2-  O293  1  0.61557166  0.27759119  0.48773706  1
  O2-  O294  1  0.62981715  0.76853505  -0.02702047  1
  O2-  O295  1  0.62341206  0.77137503  0.48933287  1
  O2-  O296  1  0.38821780  0.21664866  0.00834076  1
  O2-  O297  1  0.38642274  0.21780797  0.52120790  1
  O2-  O298  1  0.38999809  0.73330828  0.02377126  1
  O2-  O299  1  0.37237257  0.74398394  0.51888550  1
  O2-  O300  1  0.88368498  0.22946058  0.02261938  1
  O2-  O301  1  0.88394606  0.21807448  0.52393260  1
  O2-  O302  1  0.86314360  0.73197855  0.01847667  1
  O2-  O303  1  0.86777193  0.73644091  0.51735872  1
  O2-  O304  1  0.26812433  0.38536933  -0.01718133  1
  O2-  O305  1  0.27061969  0.38362747  0.47724719  1
  O2-  O306  1  0.27949945  0.88411728  -0.01674235  1
  O2-  O307  1  0.25761055  0.87587384  0.47660210  1
  O2-  O308  1  0.77302741  0.38536114  -0.01878996  1
  O2-  O309  1  0.78426918  0.38627340  0.49241171  1
  O2-  O310  1  0.76349348  0.87115474  -0.01018032  1
  O2-  O311  1  0.76523025  0.87011282  0.48288860  1
  O2-  O312  1  0.23647662  0.11094946  0.02836704  1
  O2-  O313  1  0.22147690  0.11093939  0.51330803  1
  O2-  O314  1  0.22381303  0.61804562  0.02159250  1
  O2-  O315  1  0.23246277  0.63817494  0.51519740  1
  O2-  O316  1  0.72824487  0.11222326  0.02176503  1
  O2-  O317  1  0.72964455  0.11274343  0.50359462  1
  O2-  O318  1  0.72698368  0.63031268  0.00465926  1
  O2-  O319  1  0.72725141  0.63515058  0.50827094  1
