# generated using pymatgen
data_Sr64Ca21Nb43O192
_symmetry_space_group_name_H-M   'P 1'
_cell_length_a   16.55607809
_cell_length_b   16.55346484
_cell_length_c   16.71488126
_cell_angle_alpha   90.00834204
_cell_angle_beta   90.09600082
_cell_angle_gamma   90.04471250
_symmetry_Int_Tables_number   1
_chemical_formula_structural   Sr64Ca21Nb43O192
_chemical_formula_sum   'Sr64 Ca21 Nb43 O192'
_cell_volume   4580.88011376
_cell_formula_units_Z   1
loop_
 _symmetry_equiv_pos_site_id
 _symmetry_equiv_pos_as_xyz
  1  'x, y, z'
loop_
 _atom_type_symbol
 _atom_type_oxidation_number
  Sr2+  2.0
  Ca2+  2.0
  Nb5+  5.0
  O2-  -2.0
loop_
 _atom_site_type_symbol
 _atom_site_label
 _atom_site_symmetry_multiplicity
 _atom_site_fract_x
 _atom_site_fract_y
 _atom_site_fract_z
 _atom_site_occupancy
  Sr2+  Sr0  1  0.12164760  0.12397278  0.12583367  1
  Sr2+  Sr1  1  0.12060705  0.14338699  0.62521719  1
  Sr2+  Sr2  1  0.11735271  0.61160273  0.12539538  1
  Sr2+  Sr3  1  0.12112343  0.62376778  0.62316501  1
  Sr2+  Sr4  1  0.62319267  0.12265534  0.11900791  1
  Sr2+  Sr5  1  0.62265358  0.11252710  0.61959486  1
  Sr2+  Sr6  1  0.63433642  0.61913479  0.12621654  1
  Sr2+  Sr7  1  0.61822699  0.63129562  0.63284796  1
  Sr2+  Sr8  1  0.37235577  0.37303544  0.12563117  1
  Sr2+  Sr9  1  0.36859225  0.37499138  0.62871163  1
  Sr2+  Sr10  1  0.36514526  0.86295627  0.11882508  1
  Sr2+  Sr11  1  0.37114866  0.86477386  0.62771580  1
  Sr2+  Sr12  1  0.87527823  0.37990173  0.12004303  1
  Sr2+  Sr13  1  0.87234982  0.36654323  0.62742017  1
  Sr2+  Sr14  1  0.87191214  0.86851338  0.12604269  1
  Sr2+  Sr15  1  0.87370146  0.87475069  0.63014686  1
  Sr2+  Sr16  1  0.12702459  0.38437592  0.38619091  1
  Sr2+  Sr17  1  0.12867738  0.38788351  0.87656324  1
  Sr2+  Sr18  1  0.13296310  0.88028730  0.37316608  1
  Sr2+  Sr19  1  0.12681567  0.88631094  0.87204440  1
  Sr2+  Sr20  1  0.63388376  0.38030581  0.37284478  1
  Sr2+  Sr21  1  0.63704779  0.38210653  0.86682128  1
  Sr2+  Sr22  1  0.62725388  0.89168756  0.38034360  1
  Sr2+  Sr23  1  0.64338606  0.87748028  0.86782265  1
  Sr2+  Sr24  1  0.38239049  0.12536894  0.37470639  1
  Sr2+  Sr25  1  0.38701616  0.12965465  0.87033887  1
  Sr2+  Sr26  1  0.37702473  0.63218393  0.37538007  1
  Sr2+  Sr27  1  0.39050217  0.63249699  0.88017781  1
  Sr2+  Sr28  1  0.86398350  0.13243239  0.36752693  1
  Sr2+  Sr29  1  0.87299040  0.12821136  0.89017709  1
  Sr2+  Sr30  1  0.88556078  0.62944968  0.37291377  1
  Sr2+  Sr31  1  0.86241621  0.62760757  0.88321699  1
  Sr2+  Sr32  1  0.12266101  0.13318354  0.37563218  1
  Sr2+  Sr33  1  0.11438647  0.13739577  0.87589450  1
  Sr2+  Sr34  1  0.12539570  0.63636802  0.37189281  1
  Sr2+  Sr35  1  0.12162921  0.63135738  0.87871145  1
  Sr2+  Sr36  1  0.62479861  0.13204893  0.37439306  1
  Sr2+  Sr37  1  0.63613263  0.13787078  0.87467813  1
  Sr2+  Sr38  1  0.63823472  0.62930420  0.37544154  1
  Sr2+  Sr39  1  0.63679047  0.64060700  0.87420615  1
  Sr2+  Sr40  1  0.38757654  0.39184450  0.37331834  1
  Sr2+  Sr41  1  0.38222557  0.39248799  0.87265250  1
  Sr2+  Sr42  1  0.37836075  0.88754765  0.37336224  1
  Sr2+  Sr43  1  0.38218593  0.88778752  0.87853867  1
  Sr2+  Sr44  1  0.87110129  0.39028203  0.37744380  1
  Sr2+  Sr45  1  0.87420781  0.39649098  0.87510562  1
  Sr2+  Sr46  1  0.88354858  0.86634272  0.37013214  1
  Sr2+  Sr47  1  0.87788106  0.89127910  0.87276324  1
  Sr2+  Sr48  1  0.13309487  0.37423403  0.11642869  1
  Sr2+  Sr49  1  0.12602894  0.37114010  0.62691627  1
  Sr2+  Sr50  1  0.11714076  0.87503618  0.12557315  1
  Sr2+  Sr51  1  0.12265900  0.86916413  0.62831945  1
  Sr2+  Sr52  1  0.60372615  0.36700743  0.12156207  1
  Sr2+  Sr53  1  0.62250054  0.36920257  0.62938273  1
  Sr2+  Sr54  1  0.62101800  0.86604692  0.13050915  1
  Sr2+  Sr55  1  0.61275684  0.87192770  0.62319104  1
  Sr2+  Sr56  1  0.35943700  0.12472946  0.12668930  1
  Sr2+  Sr57  1  0.36653636  0.11861484  0.62464928  1
  Sr2+  Sr58  1  0.35968149  0.61373200  0.12652072  1
  Sr2+  Sr59  1  0.36431195  0.62399631  0.62428521  1
  Sr2+  Sr60  1  0.87557044  0.11148935  0.12028159  1
  Sr2+  Sr61  1  0.86752010  0.11709876  0.61697352  1
  Sr2+  Sr62  1  0.87190748  0.61919454  0.13238225  1
  Sr2+  Sr63  1  0.87183967  0.61013885  0.62474402  1
  Ca2+  Ca64  1  0.50080623  0.00119606  0.00156245  1
  Ca2+  Ca65  1  0.50247334  0.49894113  0.50278748  1
  Ca2+  Ca66  1  0.00192196  -0.00009415  0.49846538  1
  Ca2+  Ca67  1  0.00184721  0.49953379  0.49765623  1
  Ca2+  Ca68  1  0.50241096  0.50210830  -0.00034749  1
  Ca2+  Ca69  1  0.24833963  0.74805360  -0.00035473  1
  Ca2+  Ca70  1  0.75129869  0.75362544  0.00125487  1
  Ca2+  Ca71  1  0.75045932  0.75075897  0.50133992  1
  Ca2+  Ca72  1  0.25159629  0.24783403  -0.00326786  1
  Ca2+  Ca73  1  0.75156775  0.25385037  0.00291588  1
  Ca2+  Ca74  1  0.24751774  0.49833580  0.25191919  1
  Ca2+  Ca75  1  0.75124888  0.00464944  0.75034675  1
  Ca2+  Ca76  1  0.75047579  0.50228395  0.74642262  1
  Ca2+  Ca77  1  0.24931839  0.50211640  0.75052485  1
  Ca2+  Ca78  1  -0.00181057  0.74814857  0.75201906  1
  Ca2+  Ca79  1  -0.00399052  0.25279370  0.75233506  1
  Ca2+  Ca80  1  0.24852393  0.00047870  0.74666770  1
  Ca2+  Ca81  1  0.49876619  0.75186253  0.25179069  1
  Ca2+  Ca82  1  0.74847363  -0.00041995  0.25014426  1
  Ca2+  Ca83  1  0.74836731  0.49801391  0.24979697  1
  Ca2+  Ca84  1  -0.00091266  0.24879004  0.24792788  1
  Nb5+  Nb85  1  -0.00057974  0.50668793  -0.00057009  1
  Nb5+  Nb86  1  0.49719914  -0.00084288  0.50273110  1
  Nb5+  Nb87  1  0.00372044  0.00295919  0.00067961  1
  Nb5+  Nb88  1  0.74257562  0.25069217  0.49931887  1
  Nb5+  Nb89  1  0.25069507  0.75850879  0.49785554  1
  Nb5+  Nb90  1  0.25073443  0.25541800  0.49593941  1
  Nb5+  Nb91  1  0.50063313  0.25369876  0.74279522  1
  Nb5+  Nb92  1  0.49778714  0.24678796  0.24661483  1
  Nb5+  Nb93  1  0.49625539  0.75877652  0.75313071  1
  Nb5+  Nb94  1  0.00267718  0.74850634  0.24610507  1
  Nb5+  Nb95  1  0.25022397  -0.00169725  0.24841514  1
  Nb5+  Nb96  1  0.00067076  0.00062949  0.25238185  1
  Nb5+  Nb97  1  -0.00175402  0.00240882  0.74462751  1
  Nb5+  Nb98  1  0.00028341  0.49443051  0.25172846  1
  Nb5+  Nb99  1  0.00016146  0.50081602  0.74716005  1
  Nb5+  Nb100  1  0.49576669  0.00133455  0.24489588  1
  Nb5+  Nb101  1  0.50434325  0.00518217  0.75539544  1
  Nb5+  Nb102  1  0.50280887  0.50764988  0.25120652  1
  Nb5+  Nb103  1  0.50110280  0.51116852  0.75141782  1
  Nb5+  Nb104  1  0.25030430  0.25282070  0.25716300  1
  Nb5+  Nb105  1  0.25153328  0.24598248  0.75452336  1
  Nb5+  Nb106  1  0.24783913  0.74954688  0.24654853  1
  Nb5+  Nb107  1  0.25053317  0.74807922  0.75655086  1
  Nb5+  Nb108  1  0.74642228  0.24794666  0.24380359  1
  Nb5+  Nb109  1  0.75520474  0.24549056  0.74865145  1
  Nb5+  Nb110  1  0.74419054  0.75395682  0.25509990  1
  Nb5+  Nb111  1  0.75580598  0.75057699  0.74268727  1
  Nb5+  Nb112  1  -0.00966747  0.24641326  0.49671140  1
  Nb5+  Nb113  1  -0.00020851  0.25895793  1.00199858  1
  Nb5+  Nb114  1  -0.00157952  0.74725252  0.50408098  1
  Nb5+  Nb115  1  -0.00427057  0.75442108  0.99616472  1
  Nb5+  Nb116  1  0.49480610  0.24912756  0.49855261  1
  Nb5+  Nb117  1  0.49798921  0.25159217  0.98607498  1
  Nb5+  Nb118  1  0.50063318  0.74969366  0.49650907  1
  Nb5+  Nb119  1  0.50402013  0.74977713  1.00763574  1
  Nb5+  Nb120  1  0.24930531  0.00423209  -0.00916138  1
  Nb5+  Nb121  1  0.24800338  0.00398372  0.50130946  1
  Nb5+  Nb122  1  0.25243848  0.50184540  -0.00412511  1
  Nb5+  Nb123  1  0.24914561  0.51010157  0.49863869  1
  Nb5+  Nb124  1  0.74448271  -0.00269410  0.00623732  1
  Nb5+  Nb125  1  0.75773371  -0.00029533  0.49503302  1
  Nb5+  Nb126  1  0.74636350  0.49757768  0.00426734  1
  Nb5+  Nb127  1  0.74624559  0.50359621  0.50274812  1
  O2-  O128  1  -0.00900606  -0.00498777  0.12492772  1
  O2-  O129  1  -0.02974005  0.00209549  0.63290303  1
  O2-  O130  1  -0.02124043  0.50444993  0.12020342  1
  O2-  O131  1  -0.01648298  0.50432172  0.63226817  1
  O2-  O132  1  0.48162232  0.03363718  0.13651458  1
  O2-  O133  1  0.48244498  0.01661221  0.62104876  1
  O2-  O134  1  0.47209644  0.50840764  0.13571024  1
  O2-  O135  1  0.47240597  0.51727958  0.63653932  1
  O2-  O136  1  0.02686396  -0.00952059  0.36410356  1
  O2-  O137  1  0.02145034  -0.00338988  0.88426198  1
  O2-  O138  1  0.02739408  0.50175556  0.36237580  1
  O2-  O139  1  0.01594904  0.49611160  0.88206206  1
  O2-  O140  1  0.50735911  -0.01278508  0.38066202  1
  O2-  O141  1  0.52347991  -0.02178818  0.86507863  1
  O2-  O142  1  0.51692409  0.47417164  0.36587630  1
  O2-  O143  1  0.52013428  0.47380026  0.86389585  1
  O2-  O144  1  0.24402038  0.26422785  0.14145088  1
  O2-  O145  1  0.24342038  0.26775422  0.61398865  1
  O2-  O146  1  0.23414823  0.77946497  0.13638027  1
  O2-  O147  1  0.23973936  0.77251322  0.61547060  1
  O2-  O148  1  0.71393366  0.26297534  0.13570996  1
  O2-  O149  1  0.73200074  0.26174055  0.61876125  1
  O2-  O150  1  0.73107078  0.76193926  0.13642303  1
  O2-  O151  1  0.71814538  0.76834591  0.63158317  1
  O2-  O152  1  0.26587951  0.21921197  0.38106554  1
  O2-  O153  1  0.26354230  0.21390930  0.86295007  1
  O2-  O154  1  0.26069738  0.73273733  0.37759507  1
  O2-  O155  1  0.26635332  0.71869111  0.86525118  1
  O2-  O156  1  0.75303799  0.23400480  0.38072852  1
  O2-  O157  1  0.76577183  0.23395425  0.86382613  1
  O2-  O158  1  0.77623424  0.73294964  0.36850085  1
  O2-  O159  1  0.75919626  0.73763818  0.86229220  1
  O2-  O160  1  0.03692269  0.25417310  0.11596060  1
  O2-  O161  1  0.01627656  0.26469074  0.61292418  1
  O2-  O162  1  0.02895268  0.74950315  0.12872945  1
  O2-  O163  1  0.02839469  0.74909217  0.61564222  1
  O2-  O164  1  0.51613063  0.23239439  0.13430898  1
  O2-  O165  1  0.52140984  0.23228794  0.62875811  1
  O2-  O166  1  0.53475266  0.73783293  0.11793463  1
  O2-  O167  1  0.51094836  0.74524980  0.62260740  1
  O2-  O168  1  0.23470852  0.00945510  0.37763823  1
  O2-  O169  1  0.21688216  0.01922800  0.88288224  1
  O2-  O170  1  0.21818840  0.51187301  0.38397758  1
  O2-  O171  1  0.21630825  0.51818035  0.88411435  1
  O2-  O172  1  0.72025183  0.01576720  0.38442788  1
  O2-  O173  1  0.72719863  0.01210246  0.88735102  1
  O2-  O174  1  0.72415319  0.50308293  0.38444094  1
  O2-  O175  1  0.73814601  0.50028359  0.88356597  1
  O2-  O176  1  -0.01716127  0.22379622  0.38066917  1
  O2-  O177  1  -0.02554573  0.23861425  0.88722963  1
  O2-  O178  1  -0.01049667  0.75162105  0.36995224  1
  O2-  O179  1  -0.03741641  0.74658732  0.88641633  1
  O2-  O180  1  0.48082270  0.25825017  0.38436748  1
  O2-  O181  1  0.47523197  0.26256634  0.87157795  1
  O2-  O182  1  0.46883278  0.76507961  0.38586771  1
  O2-  O183  1  0.47299386  0.76615296  0.86616577  1
  O2-  O184  1  0.27288694  -0.01591593  0.13459718  1
  O2-  O185  1  0.27732240  -0.01776330  0.61124117  1
  O2-  O186  1  0.26484334  0.47568939  0.11483097  1
  O2-  O187  1  0.27392479  0.48759728  0.61327582  1
  O2-  O188  1  0.78185640  -0.00831981  0.11971379  1
  O2-  O189  1  0.77118942  -0.00529921  0.61294649  1
  O2-  O190  1  0.78043049  0.49996523  0.11811426  1
  O2-  O191  1  0.78329295  0.48631373  0.61465770  1
  O2-  O192  1  0.13728474  0.26082016  0.28097794  1
  O2-  O193  1  0.13753721  0.26754999  0.75977618  1
  O2-  O194  1  0.12584982  0.76878796  0.27122470  1
  O2-  O195  1  0.13713583  0.77292959  0.76596934  1
  O2-  O196  1  0.61189319  0.26384578  0.27514550  1
  O2-  O197  1  0.61606052  0.26479077  0.77087725  1
  O2-  O198  1  0.63338495  0.77943848  0.27902971  1
  O2-  O199  1  0.61378842  0.76633374  0.76448232  1
  O2-  O200  1  0.37572536  0.22229343  0.24626828  1
  O2-  O201  1  0.38419795  0.22486877  0.73375934  1
  O2-  O202  1  0.36335383  0.73117720  0.23507045  1
  O2-  O203  1  0.38016156  0.73111503  0.72894504  1
  O2-  O204  1  0.85889253  0.22180976  0.23037935  1
  O2-  O205  1  0.86410161  0.22746355  0.71849961  1
  O2-  O206  1  0.88570754  0.73518860  0.23352243  1
  O2-  O207  1  0.86573542  0.73366310  0.71261374  1
  O2-  O208  1  0.27474074  0.36258819  0.27762911  1
  O2-  O209  1  0.28354210  0.36001262  0.75812550  1
  O2-  O210  1  0.26443281  0.87667316  0.27310088  1
  O2-  O211  1  0.28131110  0.86313897  0.76229047  1
  O2-  O212  1  0.76302499  0.36167067  0.27185839  1
  O2-  O213  1  0.75608643  0.36383018  0.75311449  1
  O2-  O214  1  0.78158912  0.86713115  0.26011382  1
  O2-  O215  1  0.76575242  0.86926431  0.76245261  1
  O2-  O216  1  0.23481248  0.11787446  0.23989952  1
  O2-  O217  1  0.24287642  0.13453305  0.71309539  1
  O2-  O218  1  0.22595550  0.63582627  0.23379362  1
  O2-  O219  1  0.23882883  0.63699350  0.71542174  1
  O2-  O220  1  0.71516976  0.13313714  0.24776863  1
  O2-  O221  1  0.71596600  0.13560659  0.73361148  1
  O2-  O222  1  0.72882598  0.63453599  0.24257640  1
  O2-  O223  1  0.72351429  0.63512093  0.73752672  1
  O2-  O224  1  0.11350931  0.48351406  0.21724896  1
  O2-  O225  1  0.11504957  0.46315373  0.74147514  1
  O2-  O226  1  0.13289796  0.97806461  0.23513324  1
  O2-  O227  1  0.11427876  0.96851509  0.73843539  1
  O2-  O228  1  0.61347935  0.47287839  0.22479346  1
  O2-  O229  1  0.61390245  0.48674770  0.72329855  1
  O2-  O230  1  0.60979671  0.97874455  0.23889912  1
  O2-  O231  1  0.61469557  0.98518878  0.71954492  1
  O2-  O232  1  0.37068813  0.01540074  0.27256228  1
  O2-  O233  1  0.38637589  0.01491430  0.76803472  1
  O2-  O234  1  0.38282568  0.51966599  0.27414254  1
  O2-  O235  1  0.38401124  0.51392279  0.78004481  1
  O2-  O236  1  0.88783146  0.01854820  0.26787132  1
  O2-  O237  1  0.88626277  0.02691782  0.78191389  1
  O2-  O238  1  0.88580626  0.52608989  0.26524954  1
  O2-  O239  1  0.88595280  0.53428972  0.77145974  1
  O2-  O240  1  0.47403154  0.36184777  0.23938064  1
  O2-  O241  1  0.48410120  0.36763827  0.73089493  1
  O2-  O242  1  0.47018989  0.88754414  0.23187323  1
  O2-  O243  1  0.48347022  0.87500901  0.73318905  1
  O2-  O244  1  0.97167903  0.38223770  0.25046482  1
  O2-  O245  1  0.96306546  0.38536016  0.75508999  1
  O2-  O246  1  0.98943238  0.87307886  0.24227061  1
  O2-  O247  1  0.97130578  0.88313446  0.75230865  1
  O2-  O248  1  0.02804335  0.11265018  0.24303603  1
  O2-  O249  1  0.03260397  0.11722292  0.74888576  1
  O2-  O250  1  0.02093996  0.63008978  0.24936833  1
  O2-  O251  1  0.03802749  0.61544240  0.75375493  1
  O2-  O252  1  0.50815783  0.12446669  0.27694817  1
  O2-  O253  1  0.51794768  0.12299360  0.76825963  1
  O2-  O254  1  0.53068008  0.61836229  0.26614549  1
  O2-  O255  1  0.51680333  0.62806210  0.76590955  1
  O2-  O256  1  0.11708695  0.48409623  0.01816759  1
  O2-  O257  1  0.13710513  0.47324662  0.52095740  1
  O2-  O258  1  0.12446616  0.98153774  0.02052795  1
  O2-  O259  1  0.13772936  0.97334827  0.51567299  1
  O2-  O260  1  0.63450572  0.47975458  0.02780506  1
  O2-  O261  1  0.63557154  0.46475307  0.52086476  1
  O2-  O262  1  0.63377163  0.98118927  0.03591004  1
  O2-  O263  1  0.61795466  0.98620319  0.51603345  1
  O2-  O264  1  0.36466198  0.02019004  -0.02732400  1
  O2-  O265  1  0.37658513  0.01528778  0.48131710  1
  O2-  O266  1  0.36573940  0.51752387  -0.02412208  1
  O2-  O267  1  0.36534057  0.51372475  0.47165677  1
  O2-  O268  1  0.88601509  0.01516736  -0.01244340  1
  O2-  O269  1  0.86733826  0.02921468  0.47511225  1
  O2-  O270  1  0.88173196  0.51747769  -0.01797545  1
  O2-  O271  1  0.86510908  0.51565564  0.47256701  1
  O2-  O272  1  0.47837397  0.36359182  0.02147206  1
  O2-  O273  1  0.48249982  0.36036180  0.52425823  1
  O2-  O274  1  0.47255353  0.86634051  0.01317313  1
  O2-  O275  1  0.47997263  0.88091754  0.51615120  1
  O2-  O276  1  0.98226518  0.37627098  0.00150624  1
  O2-  O277  1  0.99125424  0.36275774  0.47472534  1
  O2-  O278  1  0.98671757  0.87355425  0.00388476  1
  O2-  O279  1  0.97716005  0.86406454  0.49951724  1
  O2-  O280  1  0.01983381  0.11979235  0.00575182  1
  O2-  O281  1  0.02860769  0.13341561  0.50843141  1
  O2-  O282  1  0.01672804  0.62479112  -0.00017088  1
  O2-  O283  1  0.03143371  0.63354552  0.48903673  1
  O2-  O284  1  0.53020435  0.13584650  -0.01660856  1
  O2-  O285  1  0.51413627  0.12430673  0.49218989  1
  O2-  O286  1  0.52037867  0.63659514  -0.02899593  1
  O2-  O287  1  0.51936913  0.63607933  0.48632656  1
  O2-  O288  1  0.11645489  0.26221930  -0.02951001  1
  O2-  O289  1  0.13464528  0.26161324  0.48220896  1
  O2-  O290  1  0.11251166  0.76235707  -0.02786624  1
  O2-  O291  1  0.13258312  0.76958714  0.48233339  1
  O2-  O292  1  0.61571948  0.27788726  -0.02190201  1
  O2-  O293  1  0.62232229  0.26183683  0.48668826  1
  O2-  O294  1  0.61506409  0.77784369  -0.02680131  1
  O2-  O295  1  0.61190409  0.77872775  0.48119850  1
  O2-  O296  1  0.38659156  0.22184931  0.01487659  1
  O2-  O297  1  0.37753803  0.22678722  0.51596150  1
  O2-  O298  1  0.38531894  0.72415642  0.02318041  1
  O2-  O299  1  0.37140744  0.73589938  0.51655842  1
  O2-  O300  1  0.88814620  0.23232330  0.03350167  1
  O2-  O301  1  0.87340554  0.23159114  0.51445586  1
  O2-  O302  1  0.88706784  0.73463453  0.03689650  1
  O2-  O303  1  0.88669809  0.71913570  0.51625483  1
  O2-  O304  1  0.25778751  0.38215738  -0.02612355  1
  O2-  O305  1  0.27145383  0.36712971  0.47673622  1
  O2-  O306  1  0.26561861  0.88590027  -0.01305034  1
  O2-  O307  1  0.27089238  0.87290179  0.47870900  1
  O2-  O308  1  0.78279896  0.38381614  -0.00413099  1
  O2-  O309  1  0.77096482  0.36515073  0.48924449  1
  O2-  O310  1  0.77724605  0.88542288  -0.01375041  1
  O2-  O311  1  0.77131541  0.88562757  0.48059970  1
  O2-  O312  1  0.23477285  0.11357997  0.03227751  1
  O2-  O313  1  0.23684246  0.12026481  0.51494274  1
  O2-  O314  1  0.23105038  0.61520949  0.02849438  1
  O2-  O315  1  0.23668986  0.62712427  0.51408209  1
  O2-  O316  1  0.74369272  0.11774000  0.01503846  1
  O2-  O317  1  0.73432196  0.12864739  0.51364443  1
  O2-  O318  1  0.73636591  0.61784996  0.00284775  1
  O2-  O319  1  0.71935864  0.61579244  0.51685897  1
