# generated using pymatgen
data_Sr64Ca21Nb43O192
_symmetry_space_group_name_H-M   'P 1'
_cell_length_a   16.64394724
_cell_length_b   16.59555962
_cell_length_c   16.72697316
_cell_angle_alpha   89.89293457
_cell_angle_beta   90.02859170
_cell_angle_gamma   89.97834606
_symmetry_Int_Tables_number   1
_chemical_formula_structural   Sr64Ca21Nb43O192
_chemical_formula_sum   'Sr64 Ca21 Nb43 O192'
_cell_volume   4620.24226651
_cell_formula_units_Z   1
loop_
 _symmetry_equiv_pos_site_id
 _symmetry_equiv_pos_as_xyz
  1  'x, y, z'
loop_
 _atom_type_symbol
 _atom_type_oxidation_number
  Sr2+  2.0
  Ca2+  2.0
  Nb5+  5.0
  O2-  -2.0
loop_
 _atom_site_type_symbol
 _atom_site_label
 _atom_site_symmetry_multiplicity
 _atom_site_fract_x
 _atom_site_fract_y
 _atom_site_fract_z
 _atom_site_occupancy
  Sr2+  Sr0  1  0.12163254  0.11626037  0.11722368  1
  Sr2+  Sr1  1  0.12763102  0.11444417  0.62688176  1
  Sr2+  Sr2  1  0.12808394  0.61689518  0.10842624  1
  Sr2+  Sr3  1  0.12628479  0.62171433  0.62121080  1
  Sr2+  Sr4  1  0.62495388  0.14002857  0.12737356  1
  Sr2+  Sr5  1  0.62706814  0.11288538  0.62653531  1
  Sr2+  Sr6  1  0.62801002  0.64283851  0.12778573  1
  Sr2+  Sr7  1  0.62389808  0.61108428  0.62668566  1
  Sr2+  Sr8  1  0.38292185  0.35829654  0.12053658  1
  Sr2+  Sr9  1  0.38487357  0.36344110  0.62439823  1
  Sr2+  Sr10  1  0.38300550  0.86012630  0.12318233  1
  Sr2+  Sr11  1  0.38489643  0.86276279  0.62884588  1
  Sr2+  Sr12  1  0.87156956  0.36665835  0.12093150  1
  Sr2+  Sr13  1  0.86805446  0.36072776  0.63063251  1
  Sr2+  Sr14  1  0.86413526  0.86311734  0.12296698  1
  Sr2+  Sr15  1  0.86357457  0.86160283  0.62430360  1
  Sr2+  Sr16  1  0.13389956  0.37472470  0.37106645  1
  Sr2+  Sr17  1  0.12335422  0.37341512  0.86662950  1
  Sr2+  Sr18  1  0.12493392  0.87252310  0.37982464  1
  Sr2+  Sr19  1  0.13120069  0.87993163  0.87591557  1
  Sr2+  Sr20  1  0.62680457  0.38991328  0.37362843  1
  Sr2+  Sr21  1  0.61444794  0.38072878  0.87637811  1
  Sr2+  Sr22  1  0.62703332  0.89072149  0.37043536  1
  Sr2+  Sr23  1  0.61921952  0.87902750  0.88735903  1
  Sr2+  Sr24  1  0.35625590  0.13252510  0.38178421  1
  Sr2+  Sr25  1  0.36390299  0.13052834  0.87586369  1
  Sr2+  Sr26  1  0.35544199  0.63346357  0.37420643  1
  Sr2+  Sr27  1  0.36878041  0.63482440  0.87005530  1
  Sr2+  Sr28  1  0.88708692  0.12739272  0.36771650  1
  Sr2+  Sr29  1  0.88823414  0.12905331  0.87192378  1
  Sr2+  Sr30  1  0.88861581  0.62956026  0.37160132  1
  Sr2+  Sr31  1  0.88022744  0.63328100  0.87493906  1
  Sr2+  Sr32  1  0.12315033  0.10657451  0.37244265  1
  Sr2+  Sr33  1  0.12685866  0.10404120  0.86907081  1
  Sr2+  Sr34  1  0.12216184  0.63296489  0.38013814  1
  Sr2+  Sr35  1  0.12240758  0.60182927  0.87395657  1
  Sr2+  Sr36  1  0.63981550  0.12838629  0.37545194  1
  Sr2+  Sr37  1  0.61358936  0.13173803  0.88303584  1
  Sr2+  Sr38  1  0.62350686  0.62876112  0.37245006  1
  Sr2+  Sr39  1  0.62802657  0.63806728  0.87788300  1
  Sr2+  Sr40  1  0.37543001  0.37420032  0.37552509  1
  Sr2+  Sr41  1  0.36989103  0.38861612  0.87159690  1
  Sr2+  Sr42  1  0.36686781  0.87675211  0.36774747  1
  Sr2+  Sr43  1  0.37398136  0.89508741  0.87706433  1
  Sr2+  Sr44  1  0.87946833  0.38374071  0.37124195  1
  Sr2+  Sr45  1  0.87652650  0.37937561  0.86685783  1
  Sr2+  Sr46  1  0.88045420  0.89561436  0.37399026  1
  Sr2+  Sr47  1  0.87782414  0.88334374  0.88161119  1
  Sr2+  Sr48  1  0.12866244  0.37011020  0.11648120  1
  Sr2+  Sr49  1  0.12931329  0.36595657  0.62705241  1
  Sr2+  Sr50  1  0.12731060  0.86874369  0.11865566  1
  Sr2+  Sr51  1  0.12467262  0.86682553  0.62995257  1
  Sr2+  Sr52  1  0.62530608  0.36922336  0.13120700  1
  Sr2+  Sr53  1  0.62679953  0.36894301  0.62480000  1
  Sr2+  Sr54  1  0.61773995  0.86917064  0.13147022  1
  Sr2+  Sr55  1  0.62113033  0.86812697  0.62271221  1
  Sr2+  Sr56  1  0.39890862  0.12246338  0.12064423  1
  Sr2+  Sr57  1  0.38896361  0.11192450  0.62510623  1
  Sr2+  Sr58  1  0.38595394  0.62035056  0.12837347  1
  Sr2+  Sr59  1  0.38983139  0.62108287  0.62519033  1
  Sr2+  Sr60  1  0.86362861  0.12499436  0.12508064  1
  Sr2+  Sr61  1  0.86194635  0.12202246  0.62792499  1
  Sr2+  Sr62  1  0.86977645  0.62167470  0.11900902  1
  Sr2+  Sr63  1  0.87818415  0.62112345  0.62404692  1
  Ca2+  Ca64  1  0.49985817  -0.00139242  0.49472301  1
  Ca2+  Ca65  1  -0.00159636  -0.00000370  0.00235913  1
  Ca2+  Ca66  1  0.50316331  -0.00249827  0.00393974  1
  Ca2+  Ca67  1  0.50404887  0.50023306  0.00298018  1
  Ca2+  Ca68  1  -0.00219441  0.00423136  0.50506130  1
  Ca2+  Ca69  1  0.75168012  0.24835131  0.49742680  1
  Ca2+  Ca70  1  0.74857249  0.74779463  0.49441148  1
  Ca2+  Ca71  1  0.75258994  0.25265576  -0.00492147  1
  Ca2+  Ca72  1  0.24787620  0.25179057  -0.00200500  1
  Ca2+  Ca73  1  0.24956125  0.75092907  -0.00576055  1
  Ca2+  Ca74  1  0.49768117  0.24789596  0.74997569  1
  Ca2+  Ca75  1  -0.00062495  0.74933240  0.75175937  1
  Ca2+  Ca76  1  0.49944568  0.24775232  0.25654394  1
  Ca2+  Ca77  1  0.25338026  0.00140814  0.24868130  1
  Ca2+  Ca78  1  0.75141459  -0.00504042  0.75436279  1
  Ca2+  Ca79  1  0.00312547  0.74798750  0.24508249  1
  Ca2+  Ca80  1  0.50183416  0.75056013  0.75080189  1
  Ca2+  Ca81  1  0.49926951  0.74736147  0.25650867  1
  Ca2+  Ca82  1  0.74805882  0.50090006  0.75152790  1
  Ca2+  Ca83  1  0.25102924  0.49956053  0.74696986  1
  Ca2+  Ca84  1  0.24701087  0.50412876  0.24957929  1
  Nb5+  Nb85  1  -0.00325572  0.49812048  -0.00558857  1
  Nb5+  Nb86  1  0.50501832  0.49799192  0.50221447  1
  Nb5+  Nb87  1  0.00651167  0.49497186  0.49670406  1
  Nb5+  Nb88  1  0.75148793  0.75069499  -0.00037717  1
  Nb5+  Nb89  1  0.24867165  0.74719684  0.50372106  1
  Nb5+  Nb90  1  0.24566163  0.24546791  0.50357828  1
  Nb5+  Nb91  1  0.00356257  0.25102164  0.24345719  1
  Nb5+  Nb92  1  0.75029856  0.00422826  0.24572742  1
  Nb5+  Nb93  1  0.25273069  -0.00003887  0.74619196  1
  Nb5+  Nb94  1  0.00260969  0.24744627  0.74113451  1
  Nb5+  Nb95  1  0.75070395  0.50534461  0.24831421  1
  Nb5+  Nb96  1  0.00013755  -0.00350389  0.24142520  1
  Nb5+  Nb97  1  -0.00338940  -0.00351159  0.74551345  1
  Nb5+  Nb98  1  -0.00067371  0.49750895  0.24234908  1
  Nb5+  Nb99  1  -0.00191697  0.49902346  0.74142721  1
  Nb5+  Nb100  1  0.49524434  0.00172137  0.25742585  1
  Nb5+  Nb101  1  0.50758560  -0.00417891  0.74736028  1
  Nb5+  Nb102  1  0.49420984  0.49967729  0.25386397  1
  Nb5+  Nb103  1  0.50221436  0.50174955  0.75615738  1
  Nb5+  Nb104  1  0.24925297  0.24866956  0.24368142  1
  Nb5+  Nb105  1  0.25213841  0.24969480  0.74651957  1
  Nb5+  Nb106  1  0.24595022  0.75146030  0.24111885  1
  Nb5+  Nb107  1  0.24747524  0.74988580  0.75123383  1
  Nb5+  Nb108  1  0.75382067  0.25671571  0.25373216  1
  Nb5+  Nb109  1  0.74539512  0.24881617  0.75342522  1
  Nb5+  Nb110  1  0.75594787  0.75476162  0.25364682  1
  Nb5+  Nb111  1  0.74839972  0.75015204  0.74708894  1
  Nb5+  Nb112  1  0.00185490  0.25144186  0.49442152  1
  Nb5+  Nb113  1  0.00143974  0.25115847  0.99031841  1
  Nb5+  Nb114  1  -0.00445339  0.75346736  0.50336701  1
  Nb5+  Nb115  1  0.00081249  0.75271076  1.00117536  1
  Nb5+  Nb116  1  0.50453030  0.24918423  0.49676041  1
  Nb5+  Nb117  1  0.49904994  0.25138245  0.99668451  1
  Nb5+  Nb118  1  0.50108419  0.75256079  0.49296551  1
  Nb5+  Nb119  1  0.49517471  0.74282221  0.99952993  1
  Nb5+  Nb120  1  0.25520006  0.00655194  0.00905057  1
  Nb5+  Nb121  1  0.25017828  -0.00854233  0.50455041  1
  Nb5+  Nb122  1  0.25807595  0.50433674  0.00048173  1
  Nb5+  Nb123  1  0.25657892  0.49740535  0.50189124  1
  Nb5+  Nb124  1  0.74550589  0.00374008  -0.00089125  1
  Nb5+  Nb125  1  0.75273989  -0.00401143  0.50273381  1
  Nb5+  Nb126  1  0.74802724  0.49837031  -0.00010983  1
  Nb5+  Nb127  1  0.76015523  0.50161505  0.49830212  1
  O2-  O128  1  -0.01371099  0.04169822  0.13394867  1
  O2-  O129  1  -0.00981176  0.03991068  0.63666548  1
  O2-  O130  1  -0.01985934  0.51174370  0.12989794  1
  O2-  O131  1  -0.01793665  0.50895719  0.62603387  1
  O2-  O132  1  0.47790563  -0.02433778  0.14048441  1
  O2-  O133  1  0.47879097  -0.01728034  0.62950688  1
  O2-  O134  1  0.47538594  0.48231320  0.14024922  1
  O2-  O135  1  0.47334261  0.48640283  0.61682045  1
  O2-  O136  1  0.01417256  -0.01188653  0.36185208  1
  O2-  O137  1  0.01999905  -0.01689488  0.86369911  1
  O2-  O138  1  0.01240299  0.47697710  0.38235311  1
  O2-  O139  1  0.01212662  0.48085878  0.88063763  1
  O2-  O140  1  0.54111114  0.01942398  0.36541100  1
  O2-  O141  1  0.52335788  0.00879561  0.86472337  1
  O2-  O142  1  0.52439889  0.51103211  0.38277523  1
  O2-  O143  1  0.53421847  0.51406999  0.86587160  1
  O2-  O144  1  0.21595662  0.23803297  0.13575934  1
  O2-  O145  1  0.21838794  0.23975992  0.62116752  1
  O2-  O146  1  0.22599442  0.73890104  0.13004750  1
  O2-  O147  1  0.22283624  0.74462831  0.62172627  1
  O2-  O148  1  0.74052113  0.26043610  0.13528375  1
  O2-  O149  1  0.74000010  0.26754261  0.63187652  1
  O2-  O150  1  0.73553583  0.76221895  0.12408164  1
  O2-  O151  1  0.73620490  0.76677646  0.63206084  1
  O2-  O152  1  0.25930921  0.26956920  0.38794999  1
  O2-  O153  1  0.26571143  0.26930410  0.86024696  1
  O2-  O154  1  0.25911804  0.77064956  0.38728725  1
  O2-  O155  1  0.27490568  0.77534932  0.86082265  1
  O2-  O156  1  0.77670981  0.22586420  0.36425187  1
  O2-  O157  1  0.78159514  0.23105754  0.86413224  1
  O2-  O158  1  0.77111553  0.72484107  0.36239951  1
  O2-  O159  1  0.76281162  0.73101975  0.88422450  1
  O2-  O160  1  0.02185790  0.24511895  0.13044597  1
  O2-  O161  1  0.02366033  0.24344424  0.62747642  1
  O2-  O162  1  0.01551539  0.71806252  0.11299984  1
  O2-  O163  1  0.02002403  0.72962622  0.61580838  1
  O2-  O164  1  0.51461034  0.27163432  0.11875895  1
  O2-  O165  1  0.50925989  0.27548959  0.61211400  1
  O2-  O166  1  0.51022971  0.76452600  0.11933847  1
  O2-  O167  1  0.51290318  0.76166945  0.61120269  1
  O2-  O168  1  0.23194219  -0.01745517  0.38871968  1
  O2-  O169  1  0.23679074  -0.01480822  0.86372605  1
  O2-  O170  1  0.22124180  0.49842186  0.39036440  1
  O2-  O171  1  0.22881579  0.47734361  0.88612434  1
  O2-  O172  1  0.73767771  0.00583803  0.36414125  1
  O2-  O173  1  0.72053333  0.00234837  0.88675702  1
  O2-  O174  1  0.73577412  0.51140664  0.36892372  1
  O2-  O175  1  0.72728602  0.51018301  0.88858694  1
  O2-  O176  1  -0.01514770  0.26981446  0.38071433  1
  O2-  O177  1  -0.01740796  0.26677465  0.87666868  1
  O2-  O178  1  -0.00804645  0.75334064  0.38429386  1
  O2-  O179  1  -0.02919997  0.76001379  0.88622422  1
  O2-  O180  1  0.45850405  0.24120599  0.38891958  1
  O2-  O181  1  0.48457991  0.22050335  0.88263794  1
  O2-  O182  1  0.47589577  0.71376025  0.38652972  1
  O2-  O183  1  0.49352969  0.71834412  0.88326578  1
  O2-  O184  1  0.26947290  0.03762949  0.11776958  1
  O2-  O185  1  0.26049122  0.02556698  0.62547212  1
  O2-  O186  1  0.26128937  0.53442572  0.11684153  1
  O2-  O187  1  0.25639002  0.53138911  0.61313654  1
  O2-  O188  1  0.77635686  -0.01219996  0.12831356  1
  O2-  O189  1  0.77408523  -0.01383263  0.61566146  1
  O2-  O190  1  0.77578128  0.48757546  0.13306799  1
  O2-  O191  1  0.77618896  0.49293496  0.61246491  1
  O2-  O192  1  0.11791654  0.27117156  0.26703652  1
  O2-  O193  1  0.12158922  0.26816183  0.76085108  1
  O2-  O194  1  0.13368025  0.78783611  0.26136408  1
  O2-  O195  1  0.13411828  0.78645090  0.75964138  1
  O2-  O196  1  0.63890412  0.25823690  0.27127005  1
  O2-  O197  1  0.63378324  0.26415883  0.77668691  1
  O2-  O198  1  0.63840777  0.75876768  0.26185934  1
  O2-  O199  1  0.63633010  0.78253962  0.77279273  1
  O2-  O200  1  0.36262749  0.23374306  0.22500186  1
  O2-  O201  1  0.36192558  0.22618136  0.72412420  1
  O2-  O202  1  0.36429710  0.72332880  0.23794135  1
  O2-  O203  1  0.36104922  0.73646473  0.72084040  1
  O2-  O204  1  0.88053157  0.23609595  0.23264575  1
  O2-  O205  1  0.88560410  0.23293014  0.72850388  1
  O2-  O206  1  0.86791167  0.73178672  0.22413086  1
  O2-  O207  1  0.86472923  0.71354406  0.73716363  1
  O2-  O208  1  0.26398725  0.36627360  0.25102624  1
  O2-  O209  1  0.26252789  0.36463957  0.72054794  1
  O2-  O210  1  0.28254627  0.86748966  0.23798676  1
  O2-  O211  1  0.26516880  0.88578532  0.72408404  1
  O2-  O212  1  0.77040634  0.37180706  0.26438900  1
  O2-  O213  1  0.77426120  0.36561335  0.75927051  1
  O2-  O214  1  0.77195228  0.87208628  0.26107377  1
  O2-  O215  1  0.79009370  0.86161874  0.76508399  1
  O2-  O216  1  0.23493817  0.13849423  0.28332676  1
  O2-  O217  1  0.22736919  0.12782156  0.75784460  1
  O2-  O218  1  0.22512591  0.63992989  0.27658292  1
  O2-  O219  1  0.22490521  0.63803640  0.76642796  1
  O2-  O220  1  0.74193259  0.12093175  0.23379380  1
  O2-  O221  1  0.73979842  0.13166018  0.72805965  1
  O2-  O222  1  0.73977458  0.61952412  0.23330951  1
  O2-  O223  1  0.71522642  0.63462092  0.74743692  1
  O2-  O224  1  0.11132933  0.47405445  0.23301446  1
  O2-  O225  1  0.11361875  0.47409826  0.74164743  1
  O2-  O226  1  0.11674609  0.99482570  0.22590051  1
  O2-  O227  1  0.12653112  0.99320161  0.73304267  1
  O2-  O228  1  0.63719383  0.47567032  0.23873055  1
  O2-  O229  1  0.61435163  0.47892108  0.71914073  1
  O2-  O230  1  0.63726424  0.98139567  0.23041885  1
  O2-  O231  1  0.61868715  0.97651550  0.72380090  1
  O2-  O232  1  0.38589908  0.01801781  0.28726168  1
  O2-  O233  1  0.36688098  0.02381863  0.76367942  1
  O2-  O234  1  0.38423541  0.51986692  0.27881521  1
  O2-  O235  1  0.38277909  0.51944859  0.77505043  1
  O2-  O236  1  0.87612259  0.01551823  0.26479326  1
  O2-  O237  1  0.88622752  0.02012112  0.77103254  1
  O2-  O238  1  0.87469274  0.50796726  0.27209501  1
  O2-  O239  1  0.88584493  0.51083440  0.77471387  1
  O2-  O240  1  0.49766168  0.38388302  0.27854523  1
  O2-  O241  1  0.47792109  0.38358726  0.76418794  1
  O2-  O242  1  0.49631268  0.88266036  0.28055382  1
  O2-  O243  1  0.46905968  0.88378952  0.76310996  1
  O2-  O244  1  0.97532099  0.37312393  0.24509279  1
  O2-  O245  1  0.98150716  0.37077670  0.74154485  1
  O2-  O246  1  0.98030764  0.88617364  0.22154092  1
  O2-  O247  1  0.98391464  0.88612344  0.71730672  1
  O2-  O248  1  0.01154697  0.13704854  0.27209732  1
  O2-  O249  1  0.01550061  0.13474532  0.77229257  1
  O2-  O250  1  0.01189144  0.60829351  0.27361057  1
  O2-  O251  1  0.02204578  0.61141618  0.75942539  1
  O2-  O252  1  0.51775479  0.11507720  0.22588472  1
  O2-  O253  1  0.51358320  0.11381669  0.72748813  1
  O2-  O254  1  0.53244735  0.60992515  0.24162373  1
  O2-  O255  1  0.51013310  0.61549844  0.72316767  1
  O2-  O256  1  0.11182331  0.48974216  0.02251877  1
  O2-  O257  1  0.11883282  0.48527936  0.52255294  1
  O2-  O258  1  0.13559844  0.98497695  0.01614704  1
  O2-  O259  1  0.13318594  0.98899619  0.52355506  1
  O2-  O260  1  0.63925303  0.47442256  0.02779616  1
  O2-  O261  1  0.61865573  0.47844508  0.51875123  1
  O2-  O262  1  0.63704401  0.96619155  0.02446872  1
  O2-  O263  1  0.63623865  0.96590015  0.50900784  1
  O2-  O264  1  0.36864075  0.01813114  -0.02503439  1
  O2-  O265  1  0.36114868  0.02751116  0.48958406  1
  O2-  O266  1  0.36830047  0.52308665  -0.02356100  1
  O2-  O267  1  0.36886248  0.51493097  0.47885138  1
  O2-  O268  1  0.86388666  0.01401566  -0.02077138  1
  O2-  O269  1  0.86641865  0.02711044  0.47616073  1
  O2-  O270  1  0.87837373  0.52409250  -0.00855302  1
  O2-  O271  1  0.87468675  0.51801024  0.47866434  1
  O2-  O272  1  0.47711416  0.36835689  -0.02455451  1
  O2-  O273  1  0.47716648  0.38022344  0.48605393  1
  O2-  O274  1  0.48702474  0.86057672  -0.02081124  1
  O2-  O275  1  0.46893066  0.86240312  0.47912486  1
  O2-  O276  1  0.97665078  0.38110092  0.01333242  1
  O2-  O277  1  0.97863397  0.38011402  0.51815845  1
  O2-  O278  1  0.97987306  0.86490224  0.02648372  1
  O2-  O279  1  0.97874115  0.86680202  0.51569401  1
  O2-  O280  1  0.02486474  0.13843532  -0.01768001  1
  O2-  O281  1  0.02669244  0.14049071  0.48305197  1
  O2-  O282  1  0.01264783  0.62005577  -0.01937907  1
  O2-  O283  1  0.01414168  0.61404188  0.49034277  1
  O2-  O284  1  0.52373617  0.13212856  0.02005551  1
  O2-  O285  1  0.51366254  0.13605505  0.51875077  1
  O2-  O286  1  0.52890024  0.63030973  0.02147875  1
  O2-  O287  1  0.50951485  0.61722297  0.51863736  1
  O2-  O288  1  0.11283258  0.28689987  -0.00867235  1
  O2-  O289  1  0.12224708  0.28478849  0.49303919  1
  O2-  O290  1  0.11347601  0.77437716  -0.01574202  1
  O2-  O291  1  0.12443852  0.76704100  0.48856408  1
  O2-  O292  1  0.61846131  0.27178384  -0.02032201  1
  O2-  O293  1  0.61311823  0.26755001  0.46803071  1
  O2-  O294  1  0.63248741  0.76060020  -0.01112403  1
  O2-  O295  1  0.61284808  0.76657461  0.46964305  1
  O2-  O296  1  0.38131571  0.23329766  0.02120264  1
  O2-  O297  1  0.35996668  0.23812741  0.52503986  1
  O2-  O298  1  0.38211651  0.72217909  0.01611910  1
  O2-  O299  1  0.36462894  0.73223401  0.51962525  1
  O2-  O300  1  0.88979563  0.23546292  0.02447279  1
  O2-  O301  1  0.89024839  0.23657258  0.52360098  1
  O2-  O302  1  0.87071528  0.73241980  0.01912977  1
  O2-  O303  1  0.88368134  0.72266799  0.51529716  1
  O2-  O304  1  0.26321698  0.38891933  0.03000968  1
  O2-  O305  1  0.26306838  0.38246180  0.51877285  1
  O2-  O306  1  0.27056590  0.88732217  0.01839018  1
  O2-  O307  1  0.26660321  0.87754623  0.52249258  1
  O2-  O308  1  0.78336686  0.38755738  -0.00732586  1
  O2-  O309  1  0.75718792  0.38620747  0.47587708  1
  O2-  O310  1  0.77204835  0.86729874  -0.00848504  1
  O2-  O311  1  0.77947177  0.88110450  0.47915967  1
  O2-  O312  1  0.23111530  0.11843389  -0.02813911  1
  O2-  O313  1  0.22565283  0.13275785  0.48667154  1
  O2-  O314  1  0.22095172  0.61758591  -0.02069718  1
  O2-  O315  1  0.23042348  0.63218123  0.48775396  1
  O2-  O316  1  0.72768732  0.11572829  0.01697240  1
  O2-  O317  1  0.72020333  0.11289859  0.50630392  1
  O2-  O318  1  0.74042145  0.62261455  0.02047828  1
  O2-  O319  1  0.71911401  0.61141979  0.50325252  1
