# generated using pymatgen
data_Sr64Ca21Nb43O192
_symmetry_space_group_name_H-M   'P 1'
_cell_length_a   16.53328621
_cell_length_b   16.54382533
_cell_length_c   16.68669807
_cell_angle_alpha   89.98859321
_cell_angle_beta   90.01878367
_cell_angle_gamma   90.02834617
_symmetry_Int_Tables_number   1
_chemical_formula_structural   Sr64Ca21Nb43O192
_chemical_formula_sum   'Sr64 Ca21 Nb43 O192'
_cell_volume   4564.20815639
_cell_formula_units_Z   1
loop_
 _symmetry_equiv_pos_site_id
 _symmetry_equiv_pos_as_xyz
  1  'x, y, z'
loop_
 _atom_type_symbol
 _atom_type_oxidation_number
  Sr2+  2.0
  Ca2+  2.0
  Nb5+  5.0
  O2-  -2.0
loop_
 _atom_site_type_symbol
 _atom_site_label
 _atom_site_symmetry_multiplicity
 _atom_site_fract_x
 _atom_site_fract_y
 _atom_site_fract_z
 _atom_site_occupancy
  Sr2+  Sr0  1  0.12407450  0.11615631  0.12258413  1
  Sr2+  Sr1  1  0.12993907  0.12491341  0.61224700  1
  Sr2+  Sr2  1  0.12510082  0.62932671  0.13108844  1
  Sr2+  Sr3  1  0.11956379  0.63378959  0.63031521  1
  Sr2+  Sr4  1  0.62265340  0.13099344  0.12753569  1
  Sr2+  Sr5  1  0.62179459  0.13103640  0.62648615  1
  Sr2+  Sr6  1  0.62743798  0.62444228  0.12245378  1
  Sr2+  Sr7  1  0.62464880  0.60637746  0.63017547  1
  Sr2+  Sr8  1  0.37562496  0.39260607  0.12473812  1
  Sr2+  Sr9  1  0.37295260  0.39020856  0.62749793  1
  Sr2+  Sr10  1  0.37559867  0.87099850  0.12425229  1
  Sr2+  Sr11  1  0.37423624  0.87010286  0.62506452  1
  Sr2+  Sr12  1  0.86881044  0.35238699  0.13080451  1
  Sr2+  Sr13  1  0.86806845  0.39079627  0.61915624  1
  Sr2+  Sr14  1  0.87351041  0.87446578  0.12458466  1
  Sr2+  Sr15  1  0.86831131  0.87861087  0.62839465  1
  Sr2+  Sr16  1  0.11287918  0.36817079  0.37380937  1
  Sr2+  Sr17  1  0.12571634  0.37010732  0.87577647  1
  Sr2+  Sr18  1  0.12994379  0.87336623  0.37632365  1
  Sr2+  Sr19  1  0.13089832  0.87396253  0.86843954  1
  Sr2+  Sr20  1  0.66101326  0.37132177  0.37610672  1
  Sr2+  Sr21  1  0.60510881  0.37109153  0.86906480  1
  Sr2+  Sr22  1  0.62123607  0.87140570  0.38520761  1
  Sr2+  Sr23  1  0.63174819  0.87462436  0.87138523  1
  Sr2+  Sr24  1  0.37805696  0.12820682  0.37213911  1
  Sr2+  Sr25  1  0.37971926  0.13431896  0.87722269  1
  Sr2+  Sr26  1  0.37310291  0.61765179  0.37390573  1
  Sr2+  Sr27  1  0.38043871  0.61073311  0.87205667  1
  Sr2+  Sr28  1  0.88674075  0.13690740  0.36992685  1
  Sr2+  Sr29  1  0.88540267  0.13037721  0.86907539  1
  Sr2+  Sr30  1  0.87831902  0.61796999  0.37707451  1
  Sr2+  Sr31  1  0.87977222  0.62304572  0.87690774  1
  Sr2+  Sr32  1  0.13441721  0.12644237  0.37666290  1
  Sr2+  Sr33  1  0.12867444  0.13662370  0.87822172  1
  Sr2+  Sr34  1  0.12043801  0.60444615  0.37661917  1
  Sr2+  Sr35  1  0.12530996  0.61988910  0.86883676  1
  Sr2+  Sr36  1  0.62051483  0.12755482  0.37473268  1
  Sr2+  Sr37  1  0.63220017  0.12910462  0.86990345  1
  Sr2+  Sr38  1  0.63213932  0.60978887  0.38075886  1
  Sr2+  Sr39  1  0.63431880  0.60389457  0.87390830  1
  Sr2+  Sr40  1  0.37512912  0.38087290  0.37191577  1
  Sr2+  Sr41  1  0.37414902  0.37422200  0.87315727  1
  Sr2+  Sr42  1  0.37826029  0.86165292  0.38214361  1
  Sr2+  Sr43  1  0.38482926  0.87502155  0.86940088  1
  Sr2+  Sr44  1  0.88035360  0.37528966  0.37471627  1
  Sr2+  Sr45  1  0.88066990  0.38124432  0.87681016  1
  Sr2+  Sr46  1  0.87677383  0.86297205  0.38632681  1
  Sr2+  Sr47  1  0.87671273  0.87549412  0.87322897  1
  Sr2+  Sr48  1  0.12522437  0.37407706  0.11932572  1
  Sr2+  Sr49  1  0.11569723  0.37142793  0.61312379  1
  Sr2+  Sr50  1  0.12774391  0.87374297  0.13089547  1
  Sr2+  Sr51  1  0.14166950  0.87285695  0.62484692  1
  Sr2+  Sr52  1  0.63066797  0.37001680  0.13460662  1
  Sr2+  Sr53  1  0.62108221  0.37565183  0.63179703  1
  Sr2+  Sr54  1  0.63204921  0.87121402  0.11759686  1
  Sr2+  Sr55  1  0.60817255  0.87740614  0.62681522  1
  Sr2+  Sr56  1  0.38428173  0.12582372  0.12640672  1
  Sr2+  Sr57  1  0.37991177  0.12654079  0.61675587  1
  Sr2+  Sr58  1  0.39594302  0.62492455  0.12909496  1
  Sr2+  Sr59  1  0.37357451  0.63363912  0.62268951  1
  Sr2+  Sr60  1  0.87379198  0.11326939  0.12431083  1
  Sr2+  Sr61  1  0.85688214  0.12028381  0.62929791  1
  Sr2+  Sr62  1  0.86506618  0.64219060  0.12718952  1
  Sr2+  Sr63  1  0.87528980  0.63441935  0.62354174  1
  Ca2+  Ca64  1  0.50027532  0.49583370  0.49737169  1
  Ca2+  Ca65  1  -0.00278092  0.00007260  0.50003718  1
  Ca2+  Ca66  1  0.50440229  0.49744852  -0.00009237  1
  Ca2+  Ca67  1  -0.00230794  0.50262911  0.00537490  1
  Ca2+  Ca68  1  0.00153892  0.50284387  0.50429207  1
  Ca2+  Ca69  1  0.24743186  0.74873987  0.49753021  1
  Ca2+  Ca70  1  0.74946676  0.24711282  -0.00250495  1
  Ca2+  Ca71  1  0.75169973  0.24739957  0.50184132  1
  Ca2+  Ca72  1  0.24916329  0.74970013  -0.00196250  1
  Ca2+  Ca73  1  0.74627154  0.74885788  0.50483937  1
  Ca2+  Ca74  1  0.49589894  0.24584204  0.74797740  1
  Ca2+  Ca75  1  0.74967493  -0.00425352  0.25190184  1
  Ca2+  Ca76  1  0.75443286  0.49811704  0.75277357  1
  Ca2+  Ca77  1  0.24763943  0.00739378  0.75235045  1
  Ca2+  Ca78  1  0.50309372  0.75332608  0.25109532  1
  Ca2+  Ca79  1  0.50349752  0.74766423  0.75239623  1
  Ca2+  Ca80  1  0.75565843  0.50161111  0.24360680  1
  Ca2+  Ca81  1  0.49999914  0.25360367  0.25267724  1
  Ca2+  Ca82  1  0.00410746  0.24611712  0.24728321  1
  Ca2+  Ca83  1  0.24551712  0.49728358  0.74941407  1
  Ca2+  Ca84  1  0.00274612  0.24809388  0.74564194  1
  Nb5+  Nb85  1  0.00718746  -0.00387101  -0.00181872  1
  Nb5+  Nb86  1  0.50532458  -0.00245635  -0.00396086  1
  Nb5+  Nb87  1  0.49972724  -0.00040202  0.49490581  1
  Nb5+  Nb88  1  0.25222264  0.25068211  -0.00199053  1
  Nb5+  Nb89  1  0.74928395  0.75136286  -0.00412526  1
  Nb5+  Nb90  1  0.25432263  0.25340701  0.49221771  1
  Nb5+  Nb91  1  0.00204654  0.75163892  0.25575586  1
  Nb5+  Nb92  1  0.24936707  0.49444844  0.25101672  1
  Nb5+  Nb93  1  0.25272839  -0.00314767  0.24934644  1
  Nb5+  Nb94  1  0.74641461  -0.00212904  0.74964320  1
  Nb5+  Nb95  1  -0.00111929  0.75423637  0.75546982  1
  Nb5+  Nb96  1  0.00024551  -0.00218702  0.25359553  1
  Nb5+  Nb97  1  -0.00102536  -0.00038251  0.74785577  1
  Nb5+  Nb98  1  -0.00235806  0.49907452  0.24452224  1
  Nb5+  Nb99  1  -0.00092027  0.49645742  0.75080238  1
  Nb5+  Nb100  1  0.50258503  -0.00564249  0.24462913  1
  Nb5+  Nb101  1  0.49495285  0.00286920  0.74710431  1
  Nb5+  Nb102  1  0.50861310  0.49770411  0.25300337  1
  Nb5+  Nb103  1  0.49758281  0.49897607  0.74951290  1
  Nb5+  Nb104  1  0.24837498  0.24484344  0.24295429  1
  Nb5+  Nb105  1  0.24864979  0.25081786  0.73819218  1
  Nb5+  Nb106  1  0.25048310  0.74210106  0.24974979  1
  Nb5+  Nb107  1  0.25399778  0.74814006  0.75470888  1
  Nb5+  Nb108  1  0.75158059  0.24336515  0.24994776  1
  Nb5+  Nb109  1  0.75533751  0.25434689  0.75132951  1
  Nb5+  Nb110  1  0.74691116  0.75538525  0.25472406  1
  Nb5+  Nb111  1  0.74912665  0.75007878  0.74857378  1
  Nb5+  Nb112  1  -0.00384219  0.24464521  0.50346353  1
  Nb5+  Nb113  1  -0.00223486  0.25026510  1.00273561  1
  Nb5+  Nb114  1  -0.00102950  0.75401143  0.50740179  1
  Nb5+  Nb115  1  0.00268317  0.75351268  1.00208389  1
  Nb5+  Nb116  1  0.50022368  0.25421463  0.49781084  1
  Nb5+  Nb117  1  0.49993735  0.25313479  1.00240794  1
  Nb5+  Nb118  1  0.50210149  0.74317280  0.50060779  1
  Nb5+  Nb119  1  0.49998321  0.74784415  0.99573577  1
  Nb5+  Nb120  1  0.25741083  0.00291836  -0.00075693  1
  Nb5+  Nb121  1  0.25397235  0.00051743  0.50134933  1
  Nb5+  Nb122  1  0.24638634  0.50459620  0.00076441  1
  Nb5+  Nb123  1  0.24560821  0.50205142  0.50356391  1
  Nb5+  Nb124  1  0.75509682  0.00167826  -0.00289428  1
  Nb5+  Nb125  1  0.74845660  0.00188509  0.49235735  1
  Nb5+  Nb126  1  0.75545436  0.49237314  0.00180117  1
  Nb5+  Nb127  1  0.74986811  0.50049696  0.50121794  1
  O2-  O128  1  -0.00947224  0.00849042  0.12010939  1
  O2-  O129  1  -0.02476008  0.01606569  0.63665057  1
  O2-  O130  1  0.03926173  0.51018966  0.13611644  1
  O2-  O131  1  0.03722059  0.50765420  0.63789065  1
  O2-  O132  1  0.48977540  0.00126586  0.12470794  1
  O2-  O133  1  0.48904029  0.00670879  0.62743443  1
  O2-  O134  1  0.50768598  0.49981560  0.13345886  1
  O2-  O135  1  0.51946002  0.49484098  0.63123709  1
  O2-  O136  1  0.00684844  -0.03026447  0.36389278  1
  O2-  O137  1  0.00597535  -0.02210141  0.88077618  1
  O2-  O138  1  -0.01336920  0.50357125  0.36452909  1
  O2-  O139  1  -0.02927873  0.50039815  0.87033227  1
  O2-  O140  1  0.50714447  -0.00580493  0.37639647  1
  O2-  O141  1  0.50521081  -0.00788802  0.87803350  1
  O2-  O142  1  0.47389534  0.50972255  0.36505697  1
  O2-  O143  1  0.47411617  0.49224720  0.86920636  1
  O2-  O144  1  0.24275133  0.25336336  0.12566477  1
  O2-  O145  1  0.24633413  0.25136152  0.61968605  1
  O2-  O146  1  0.24814692  0.76180819  0.13373506  1
  O2-  O147  1  0.25706644  0.75985001  0.63405515  1
  O2-  O148  1  0.73592477  0.25639519  0.13063798  1
  O2-  O149  1  0.73889950  0.24514159  0.63485754  1
  O2-  O150  1  0.76021383  0.76574591  0.11619847  1
  O2-  O151  1  0.77779689  0.75422427  0.63701082  1
  O2-  O152  1  0.25783515  0.24568091  0.37284239  1
  O2-  O153  1  0.25550484  0.24549938  0.87992602  1
  O2-  O154  1  0.24390911  0.76831171  0.36286795  1
  O2-  O155  1  0.21918407  0.74680919  0.86716967  1
  O2-  O156  1  0.77280268  0.23993159  0.36779662  1
  O2-  O157  1  0.75752622  0.22507697  0.86677605  1
  O2-  O158  1  0.73730517  0.74239511  0.36763089  1
  O2-  O159  1  0.74831057  0.75268945  0.87570551  1
  O2-  O160  1  0.02796490  0.23414794  0.11490649  1
  O2-  O161  1  0.03198482  0.23571175  0.61514333  1
  O2-  O162  1  -0.00750491  0.74236455  0.12047836  1
  O2-  O163  1  -0.01033389  0.74355740  0.62609516  1
  O2-  O164  1  0.50485865  0.23187710  0.11803250  1
  O2-  O165  1  0.50163213  0.23359020  0.61419993  1
  O2-  O166  1  0.50287501  0.76327720  0.11309047  1
  O2-  O167  1  0.47833878  0.75085793  0.61787197  1
  O2-  O168  1  0.24247452  0.00666546  0.36865168  1
  O2-  O169  1  0.22875026  0.01072196  0.88814054  1
  O2-  O170  1  0.26946820  0.50373486  0.37293463  1
  O2-  O171  1  0.27190937  0.50105060  0.88775823  1
  O2-  O172  1  0.71636726  -0.00267917  0.38294061  1
  O2-  O173  1  0.73195339  0.00137929  0.87583680  1
  O2-  O174  1  0.76422845  0.51711715  0.37971816  1
  O2-  O175  1  0.77934557  0.51126827  0.88589900  1
  O2-  O176  1  -0.01094191  0.26352387  0.38262862  1
  O2-  O177  1  0.00309396  0.25483504  0.88466154  1
  O2-  O178  1  0.00746137  0.77088107  0.36955908  1
  O2-  O179  1  0.00544868  0.76930610  0.87424414  1
  O2-  O180  1  0.48815240  0.23082653  0.38409572  1
  O2-  O181  1  0.48811464  0.24183981  0.88499885  1
  O2-  O182  1  0.50766853  0.76854607  0.38411694  1
  O2-  O183  1  0.50864437  0.78029813  0.88468488  1
  O2-  O184  1  0.25357751  0.00492812  0.12484177  1
  O2-  O185  1  0.26595338  0.00615323  0.61644754  1
  O2-  O186  1  0.22842183  0.49447957  0.13320993  1
  O2-  O187  1  0.23101883  0.47736393  0.61492034  1
  O2-  O188  1  0.75912861  -0.01183401  0.11371273  1
  O2-  O189  1  0.75944258  -0.00616080  0.63078248  1
  O2-  O190  1  0.71271467  0.49759042  0.11354061  1
  O2-  O191  1  0.73086030  0.48116410  0.61896811  1
  O2-  O192  1  0.13676380  0.28066931  0.25633463  1
  O2-  O193  1  0.13684541  0.29142296  0.75153050  1
  O2-  O194  1  0.12326428  0.77161511  0.24271284  1
  O2-  O195  1  0.11471669  0.77774208  0.73820619  1
  O2-  O196  1  0.63479810  0.27603636  0.26212177  1
  O2-  O197  1  0.63479104  0.27258401  0.75890896  1
  O2-  O198  1  0.63708581  0.78545039  0.24090897  1
  O2-  O199  1  0.63764611  0.77982910  0.74094397  1
  O2-  O200  1  0.36396674  0.22897272  0.24448682  1
  O2-  O201  1  0.36101381  0.20868078  0.74604965  1
  O2-  O202  1  0.36537330  0.72261877  0.25105469  1
  O2-  O203  1  0.36575157  0.72455961  0.77187688  1
  O2-  O204  1  0.87053939  0.21921285  0.22765278  1
  O2-  O205  1  0.86882185  0.21313141  0.74178424  1
  O2-  O206  1  0.88432491  0.72990812  0.25844771  1
  O2-  O207  1  0.87790465  0.73396408  0.76611199  1
  O2-  O208  1  0.27175281  0.37887005  0.25108321  1
  O2-  O209  1  0.28684459  0.36322164  0.75300848  1
  O2-  O210  1  0.27017442  0.88304009  0.24672458  1
  O2-  O211  1  0.26894115  0.86955554  0.76002698  1
  O2-  O212  1  0.78151658  0.36661815  0.25474781  1
  O2-  O213  1  0.78822258  0.36456581  0.75713036  1
  O2-  O214  1  0.79217124  0.86474830  0.25466841  1
  O2-  O215  1  0.77240436  0.87630092  0.75993697  1
  O2-  O216  1  0.22308919  0.12921461  0.24544421  1
  O2-  O217  1  0.20452731  0.13853141  0.74696016  1
  O2-  O218  1  0.22208945  0.62833917  0.25375867  1
  O2-  O219  1  0.22001025  0.63403281  0.74106749  1
  O2-  O220  1  0.71839242  0.12841233  0.24654198  1
  O2-  O221  1  0.72660432  0.11353564  0.74411587  1
  O2-  O222  1  0.73878060  0.64042141  0.22730595  1
  O2-  O223  1  0.72806894  0.63550567  0.75061713  1
  O2-  O224  1  0.12992269  0.48772251  0.27561973  1
  O2-  O225  1  0.11364236  0.49234777  0.78909191  1
  O2-  O226  1  0.13011090  0.98080281  0.23870635  1
  O2-  O227  1  0.11074841  0.97115534  0.73746547  1
  O2-  O228  1  0.61885533  0.47129968  0.26958443  1
  O2-  O229  1  0.61818551  0.47610142  0.76712296  1
  O2-  O230  1  0.61206672  0.96334880  0.23994735  1
  O2-  O231  1  0.62767891  0.97172060  0.74643874  1
  O2-  O232  1  0.36638096  0.03102958  0.25046643  1
  O2-  O233  1  0.38404935  0.02649423  0.76677148  1
  O2-  O234  1  0.36221480  0.52809281  0.23519646  1
  O2-  O235  1  0.38135614  0.52887452  0.72891380  1
  O2-  O236  1  0.88708740  0.02446697  0.25520983  1
  O2-  O237  1  0.86832134  0.01298679  0.76954442  1
  O2-  O238  1  0.88951209  0.53241628  0.22700219  1
  O2-  O239  1  0.88722121  0.53062181  0.72511017  1
  O2-  O240  1  0.46482064  0.38625131  0.24831860  1
  O2-  O241  1  0.47476806  0.37934542  0.74741623  1
  O2-  O242  1  0.45469085  0.88704534  0.25209910  1
  O2-  O243  1  0.47882462  0.88513099  0.74304740  1
  O2-  O244  1  0.98044841  0.38491937  0.23780832  1
  O2-  O245  1  0.97472334  0.38412133  0.74056527  1
  O2-  O246  1  0.99064631  0.87288777  0.22613254  1
  O2-  O247  1  0.97004903  0.87521071  0.74507469  1
  O2-  O248  1  0.03131026  0.11035651  0.26233008  1
  O2-  O249  1  0.01422977  0.11005033  0.77739227  1
  O2-  O250  1  0.02647218  0.63525796  0.25575964  1
  O2-  O251  1  0.01834796  0.63746996  0.75896353  1
  O2-  O252  1  0.51818715  0.11088313  0.25365827  1
  O2-  O253  1  0.53590922  0.11248579  0.75528801  1
  O2-  O254  1  0.52609126  0.61844461  0.24458233  1
  O2-  O255  1  0.52823601  0.61602574  0.76159712  1
  O2-  O256  1  0.13530177  0.46342522  -0.00738960  1
  O2-  O257  1  0.13487352  0.47156504  0.47361329  1
  O2-  O258  1  0.12141150  0.97952093  0.01419589  1
  O2-  O259  1  0.13720152  0.98348473  0.50682612  1
  O2-  O260  1  0.63804104  0.48275643  -0.03286032  1
  O2-  O261  1  0.63335185  0.47336181  0.47882619  1
  O2-  O262  1  0.61860757  0.97290517  0.00489252  1
  O2-  O263  1  0.61467767  0.97438668  0.51227278  1
  O2-  O264  1  0.37189166  0.02790184  -0.00604884  1
  O2-  O265  1  0.37649848  0.02621519  0.48688385  1
  O2-  O266  1  0.36214361  0.51756074  0.02936141  1
  O2-  O267  1  0.36306378  0.52333465  0.51545209  1
  O2-  O268  1  0.87034958  0.02157354  -0.01351528  1
  O2-  O269  1  0.85985305  0.03090601  0.47903098  1
  O2-  O270  1  0.86393350  0.53266057  0.02989605  1
  O2-  O271  1  0.86796571  0.52603287  0.52064120  1
  O2-  O272  1  0.46752732  0.36338168  0.00518425  1
  O2-  O273  1  0.46285511  0.36287703  0.50060434  1
  O2-  O274  1  0.46746831  0.88453548  0.00401707  1
  O2-  O275  1  0.46964293  0.88396616  0.50787470  1
  O2-  O276  1  0.97679248  0.36367084  0.01372212  1
  O2-  O277  1  0.98388686  0.36505446  0.51601030  1
  O2-  O278  1  0.97017877  0.87988613  0.00843939  1
  O2-  O279  1  0.96431244  0.86880556  0.51087616  1
  O2-  O280  1  0.01902012  0.11441341  -0.01213366  1
  O2-  O281  1  0.03033042  0.13148578  0.48037695  1
  O2-  O282  1  0.02215123  0.64079717  -0.01401541  1
  O2-  O283  1  0.02887217  0.63893232  0.49413584  1
  O2-  O284  1  0.51654661  0.11650393  -0.00170072  1
  O2-  O285  1  0.51906666  0.11715131  0.49992905  1
  O2-  O286  1  0.53072837  0.63620980  -0.00662279  1
  O2-  O287  1  0.53171882  0.63224981  0.49889530  1
  O2-  O288  1  0.13147271  0.26498692  -0.00779374  1
  O2-  O289  1  0.13554349  0.26854176  0.48857308  1
  O2-  O290  1  0.11220453  0.78867533  0.00596263  1
  O2-  O291  1  0.11360947  0.78808633  0.50368354  1
  O2-  O292  1  0.61352539  0.27639110  -0.00475452  1
  O2-  O293  1  0.61421618  0.27586941  0.49090208  1
  O2-  O294  1  0.63124244  0.77740125  0.00055964  1
  O2-  O295  1  0.61338197  0.78496881  0.51249677  1
  O2-  O296  1  0.36959523  0.22144962  0.00730167  1
  O2-  O297  1  0.36983673  0.22113221  0.50197218  1
  O2-  O298  1  0.38556336  0.72144751  -0.00734744  1
  O2-  O299  1  0.38204332  0.72518231  0.48375557  1
  O2-  O300  1  0.88654053  0.21792990  0.01364815  1
  O2-  O301  1  0.88591833  0.21640368  0.51740763  1
  O2-  O302  1  0.87454525  0.73923743  -0.00891851  1
  O2-  O303  1  0.88480573  0.72666551  0.48002445  1
  O2-  O304  1  0.27355274  0.36742714  0.00456258  1
  O2-  O305  1  0.27719144  0.36894247  0.49337148  1
  O2-  O306  1  0.27525476  0.88825593  -0.00235021  1
  O2-  O307  1  0.27712261  0.88664506  0.49616690  1
  O2-  O308  1  0.78580162  0.38119310  0.00235847  1
  O2-  O309  1  0.78110898  0.38182783  0.48699161  1
  O2-  O310  1  0.76626544  0.87859147  -0.01222123  1
  O2-  O311  1  0.77024961  0.88545882  0.50092756  1
  O2-  O312  1  0.22761314  0.12673904  0.00896248  1
  O2-  O313  1  0.23319890  0.12641091  0.49696113  1
  O2-  O314  1  0.21450607  0.61522033  0.00475272  1
  O2-  O315  1  0.21824536  0.61499127  0.50456277  1
  O2-  O316  1  0.71664593  0.11101699  0.00631476  1
  O2-  O317  1  0.71329765  0.11343318  0.51036682  1
  O2-  O318  1  0.72983055  0.63625624  0.00240228  1
  O2-  O319  1  0.71865447  0.61650635  0.51212821  1
