# generated using pymatgen
data_Sr64Ca21Nb43O192
_symmetry_space_group_name_H-M   'P 1'
_cell_length_a   16.56889385
_cell_length_b   16.59518059
_cell_length_c   16.75411120
_cell_angle_alpha   90.03861804
_cell_angle_beta   89.96420030
_cell_angle_gamma   89.98341791
_symmetry_Int_Tables_number   1
_chemical_formula_structural   Sr64Ca21Nb43O192
_chemical_formula_sum   'Sr64 Ca21 Nb43 O192'
_cell_volume   4606.77170148
_cell_formula_units_Z   1
loop_
 _symmetry_equiv_pos_site_id
 _symmetry_equiv_pos_as_xyz
  1  'x, y, z'
loop_
 _atom_type_symbol
 _atom_type_oxidation_number
  Sr2+  2.0
  Ca2+  2.0
  Nb5+  5.0
  O2-  -2.0
loop_
 _atom_site_type_symbol
 _atom_site_label
 _atom_site_symmetry_multiplicity
 _atom_site_fract_x
 _atom_site_fract_y
 _atom_site_fract_z
 _atom_site_occupancy
  Sr2+  Sr0  1  0.11513047  0.11175859  0.12197019  1
  Sr2+  Sr1  1  0.11966467  0.11128795  0.62292346  1
  Sr2+  Sr2  1  0.11637505  0.62763531  0.12444305  1
  Sr2+  Sr3  1  0.12221486  0.60703959  0.62911268  1
  Sr2+  Sr4  1  0.61596240  0.11581717  0.12500139  1
  Sr2+  Sr5  1  0.63613525  0.10744459  0.62457319  1
  Sr2+  Sr6  1  0.63893712  0.61344658  0.12370102  1
  Sr2+  Sr7  1  0.62561289  0.62269456  0.62097526  1
  Sr2+  Sr8  1  0.37590022  0.37116584  0.12703040  1
  Sr2+  Sr9  1  0.38216446  0.37298042  0.64012576  1
  Sr2+  Sr10  1  0.38421513  0.87213567  0.12553650  1
  Sr2+  Sr11  1  0.37277657  0.86768078  0.60535286  1
  Sr2+  Sr12  1  0.86470198  0.37454388  0.13222585  1
  Sr2+  Sr13  1  0.86898917  0.35814437  0.61793443  1
  Sr2+  Sr14  1  0.87556566  0.87708128  0.12138001  1
  Sr2+  Sr15  1  0.87234141  0.89957065  0.62374590  1
  Sr2+  Sr16  1  0.12838835  0.38549932  0.37932039  1
  Sr2+  Sr17  1  0.13424073  0.36919842  0.88310687  1
  Sr2+  Sr18  1  0.14006531  0.87546996  0.37139706  1
  Sr2+  Sr19  1  0.13816977  0.88091389  0.86990230  1
  Sr2+  Sr20  1  0.63239720  0.37812599  0.36472086  1
  Sr2+  Sr21  1  0.62525518  0.37898551  0.86379837  1
  Sr2+  Sr22  1  0.61604178  0.88398605  0.38497727  1
  Sr2+  Sr23  1  0.61388703  0.88040637  0.87123721  1
  Sr2+  Sr24  1  0.37721545  0.12947456  0.37679111  1
  Sr2+  Sr25  1  0.36667944  0.12882927  0.87412259  1
  Sr2+  Sr26  1  0.38143336  0.62510447  0.38317851  1
  Sr2+  Sr27  1  0.37259191  0.63300039  0.87038445  1
  Sr2+  Sr28  1  0.87643056  0.13807560  0.38138777  1
  Sr2+  Sr29  1  0.88925486  0.13146255  0.87129924  1
  Sr2+  Sr30  1  0.88718811  0.63248397  0.37883597  1
  Sr2+  Sr31  1  0.88110502  0.63188438  0.86760646  1
  Sr2+  Sr32  1  0.13820114  0.14010264  0.38141774  1
  Sr2+  Sr33  1  0.12981184  0.12735767  0.87092639  1
  Sr2+  Sr34  1  0.12761599  0.62934033  0.37550206  1
  Sr2+  Sr35  1  0.13099548  0.63985588  0.86834964  1
  Sr2+  Sr36  1  0.62088869  0.13856977  0.38157685  1
  Sr2+  Sr37  1  0.61451247  0.13361899  0.87466842  1
  Sr2+  Sr38  1  0.62833250  0.64035633  0.38131569  1
  Sr2+  Sr39  1  0.63057332  0.62931675  0.86515750  1
  Sr2+  Sr40  1  0.37860298  0.37229198  0.36614052  1
  Sr2+  Sr41  1  0.37801436  0.39161372  0.88203473  1
  Sr2+  Sr42  1  0.37773071  0.88305402  0.38180471  1
  Sr2+  Sr43  1  0.37756608  0.88726066  0.87372979  1
  Sr2+  Sr44  1  0.88172036  0.38491586  0.38062493  1
  Sr2+  Sr45  1  0.87427459  0.36842395  0.85485059  1
  Sr2+  Sr46  1  0.87236556  0.88632352  0.37853482  1
  Sr2+  Sr47  1  0.87296897  0.88364124  0.87138553  1
  Sr2+  Sr48  1  0.13181373  0.37525806  0.12781817  1
  Sr2+  Sr49  1  0.11263198  0.36559326  0.62046884  1
  Sr2+  Sr50  1  0.10998636  0.86723893  0.12521442  1
  Sr2+  Sr51  1  0.11306056  0.87226404  0.63286432  1
  Sr2+  Sr52  1  0.61406143  0.36932909  0.12634156  1
  Sr2+  Sr53  1  0.62557720  0.36737487  0.63383189  1
  Sr2+  Sr54  1  0.63508827  0.87042374  0.12460859  1
  Sr2+  Sr55  1  0.62664672  0.86719055  0.61781974  1
  Sr2+  Sr56  1  0.37619243  0.12032389  0.12774898  1
  Sr2+  Sr57  1  0.36447730  0.11529421  0.62114755  1
  Sr2+  Sr58  1  0.37596636  0.61354974  0.11968893  1
  Sr2+  Sr59  1  0.39951239  0.62388717  0.62622715  1
  Sr2+  Sr60  1  0.87886290  0.11707799  0.12738264  1
  Sr2+  Sr61  1  0.87109815  0.13310318  0.61992705  1
  Sr2+  Sr62  1  0.87666023  0.62671079  0.12272673  1
  Sr2+  Sr63  1  0.87017067  0.62044911  0.62084465  1
  Ca2+  Ca64  1  0.50040426  0.00703459  0.50100188  1
  Ca2+  Ca65  1  0.50457120  0.50238816  0.00109829  1
  Ca2+  Ca66  1  0.49977204  0.48988589  0.50085561  1
  Ca2+  Ca67  1  -0.00314388  0.49809094  0.00107521  1
  Ca2+  Ca68  1  0.00344162  -0.00131796  0.49550084  1
  Ca2+  Ca69  1  0.24587098  0.74426354  0.49829988  1
  Ca2+  Ca70  1  0.25625757  0.25620544  0.49828169  1
  Ca2+  Ca71  1  0.75140260  0.25395080  -0.00048284  1
  Ca2+  Ca72  1  0.75639889  0.75198417  0.49887779  1
  Ca2+  Ca73  1  0.74281959  0.25424579  0.49746286  1
  Ca2+  Ca74  1  0.49614154  0.24422669  0.75244244  1
  Ca2+  Ca75  1  0.74952221  -0.00201421  0.75385566  1
  Ca2+  Ca76  1  0.25367365  -0.00094438  0.74772171  1
  Ca2+  Ca77  1  0.50087123  0.75188037  0.75295380  1
  Ca2+  Ca78  1  0.24935143  0.00046763  0.24903021  1
  Ca2+  Ca79  1  0.00458860  0.24954020  0.74965667  1
  Ca2+  Ca80  1  0.50050380  0.75161036  0.24805180  1
  Ca2+  Ca81  1  0.24835647  0.49639725  0.75259986  1
  Ca2+  Ca82  1  0.74901244  0.00159378  0.24850919  1
  Ca2+  Ca83  1  -0.00259438  0.74874651  0.74916971  1
  Ca2+  Ca84  1  0.00174507  0.25182415  0.24924674  1
  Nb5+  Nb85  1  0.49396029  0.00129229  -0.00070437  1
  Nb5+  Nb86  1  -0.00517015  -0.00214579  -0.00353066  1
  Nb5+  Nb87  1  -0.00181620  0.50190820  0.50351205  1
  Nb5+  Nb88  1  0.25465879  0.75662481  0.00328380  1
  Nb5+  Nb89  1  0.25030826  0.25277553  0.00178755  1
  Nb5+  Nb90  1  0.75588708  0.74700037  -0.00134286  1
  Nb5+  Nb91  1  -0.00437241  0.75317586  0.25276568  1
  Nb5+  Nb92  1  0.25796468  0.50591749  0.24959037  1
  Nb5+  Nb93  1  0.49916507  0.25021997  0.24932512  1
  Nb5+  Nb94  1  0.75805534  0.50440524  0.25059336  1
  Nb5+  Nb95  1  0.75287971  0.49862130  0.74079454  1
  Nb5+  Nb96  1  0.00508243  0.00218124  0.25709798  1
  Nb5+  Nb97  1  -0.00176547  0.00068684  0.74799812  1
  Nb5+  Nb98  1  0.00577264  0.50213801  0.24948873  1
  Nb5+  Nb99  1  0.00260696  0.49230943  0.75644895  1
  Nb5+  Nb100  1  0.49974516  0.00014212  0.25194436  1
  Nb5+  Nb101  1  0.49974142  -0.00217944  0.74297359  1
  Nb5+  Nb102  1  0.50902760  0.50307570  0.24762179  1
  Nb5+  Nb103  1  0.50041552  0.50061255  0.75549877  1
  Nb5+  Nb104  1  0.24831040  0.24986958  0.24581436  1
  Nb5+  Nb105  1  0.24843406  0.25333596  0.74168014  1
  Nb5+  Nb106  1  0.25365873  0.74641647  0.24565865  1
  Nb5+  Nb107  1  0.24769033  0.75170687  0.74161958  1
  Nb5+  Nb108  1  0.74942627  0.24732108  0.24437604  1
  Nb5+  Nb109  1  0.74594862  0.24327374  0.75392226  1
  Nb5+  Nb110  1  0.75165711  0.75364467  0.25067678  1
  Nb5+  Nb111  1  0.75175005  0.75068533  0.74463803  1
  Nb5+  Nb112  1  0.00255052  0.24712217  0.49464431  1
  Nb5+  Nb113  1  -0.00400554  0.25034292  1.00807893  1
  Nb5+  Nb114  1  0.00365641  0.74943187  0.50676406  1
  Nb5+  Nb115  1  0.00413112  0.75040685  0.99646048  1
  Nb5+  Nb116  1  0.49698112  0.25378148  0.50885629  1
  Nb5+  Nb117  1  0.49786631  0.25055979  0.99947372  1
  Nb5+  Nb118  1  0.50084661  0.74874349  0.49814251  1
  Nb5+  Nb119  1  0.50925437  0.74984843  1.00470449  1
  Nb5+  Nb120  1  0.24448974  0.00364674  0.00576438  1
  Nb5+  Nb121  1  0.24660505  -0.00041780  0.49886011  1
  Nb5+  Nb122  1  0.24453435  0.51031101  0.00178140  1
  Nb5+  Nb123  1  0.25394307  0.49951259  0.50686624  1
  Nb5+  Nb124  1  0.74063535  0.00117398  -0.00033914  1
  Nb5+  Nb125  1  0.75072791  0.00239818  0.49552134  1
  Nb5+  Nb126  1  0.75529290  0.49801064  -0.01000117  1
  Nb5+  Nb127  1  0.74608171  0.49905761  0.49421255  1
  O2-  O128  1  -0.01432650  0.01071812  0.11812808  1
  O2-  O129  1  -0.02015621  0.02512247  0.63562853  1
  O2-  O130  1  -0.01147450  0.52825838  0.13773576  1
  O2-  O131  1  -0.01364340  0.52316104  0.61846214  1
  O2-  O132  1  0.47920302  -0.00320142  0.11974841  1
  O2-  O133  1  0.46985839  -0.01083103  0.63364981  1
  O2-  O134  1  0.47916313  0.48894893  0.13506438  1
  O2-  O135  1  0.49011873  0.48149035  0.63810006  1
  O2-  O136  1  0.01447288  -0.03831167  0.36291865  1
  O2-  O137  1  0.01801755  -0.02758337  0.88425562  1
  O2-  O138  1  0.00796262  0.48769514  0.37245254  1
  O2-  O139  1  0.01052716  0.46328834  0.86702732  1
  O2-  O140  1  0.52647922  0.01392776  0.36328845  1
  O2-  O141  1  0.52764086  0.01290892  0.88795573  1
  O2-  O142  1  0.50171820  0.49321549  0.36329755  1
  O2-  O143  1  0.53278985  0.51313486  0.87065011  1
  O2-  O144  1  0.24903146  0.27497592  0.12463157  1
  O2-  O145  1  0.24644663  0.28081557  0.63127666  1
  O2-  O146  1  0.22270206  0.76197591  0.12052834  1
  O2-  O147  1  0.23426111  0.77784279  0.63252906  1
  O2-  O148  1  0.73639425  0.28420908  0.13268789  1
  O2-  O149  1  0.74006076  0.24323688  0.63410179  1
  O2-  O150  1  0.73566593  0.73415769  0.12660995  1
  O2-  O151  1  0.72530424  0.74258080  0.63414970  1
  O2-  O152  1  0.26740364  0.23762934  0.35980144  1
  O2-  O153  1  0.24837234  0.22851952  0.88761106  1
  O2-  O154  1  0.25919532  0.71625591  0.35625586  1
  O2-  O155  1  0.25763628  0.72736907  0.89161605  1
  O2-  O156  1  0.75034946  0.25137504  0.36053081  1
  O2-  O157  1  0.75714725  0.27400237  0.86782089  1
  O2-  O158  1  0.77648342  0.74380864  0.36236648  1
  O2-  O159  1  0.77271151  0.74881942  0.88400158  1
  O2-  O160  1  0.00995920  0.21279434  0.11924715  1
  O2-  O161  1  0.01800187  0.23754765  0.61346272  1
  O2-  O162  1  0.00835535  0.73737374  0.12102639  1
  O2-  O163  1  0.03241377  0.72782167  0.61481282  1
  O2-  O164  1  0.50461226  0.25476135  0.12399457  1
  O2-  O165  1  0.50456846  0.27426749  0.62029418  1
  O2-  O166  1  0.51095777  0.78609223  0.11625978  1
  O2-  O167  1  0.51795335  0.75988565  0.61747165  1
  O2-  O168  1  0.21458920  0.01325131  0.38141668  1
  O2-  O169  1  0.23836734  0.01524534  0.88906101  1
  O2-  O170  1  0.23866828  0.52220034  0.36189974  1
  O2-  O171  1  0.22083433  0.50872799  0.88825203  1
  O2-  O172  1  0.72956221  -0.01728292  0.37940215  1
  O2-  O173  1  0.73806829  -0.03303199  0.88940760  1
  O2-  O174  1  0.73121575  0.50341020  0.37646213  1
  O2-  O175  1  0.73512675  0.49539014  0.87650222  1
  O2-  O176  1  -0.02030807  0.27122073  0.38013621  1
  O2-  O177  1  -0.00155188  0.26302712  0.89070788  1
  O2-  O178  1  -0.02524183  0.76517264  0.36522690  1
  O2-  O179  1  -0.02738829  0.76534113  0.88715583  1
  O2-  O180  1  0.48620699  0.24068958  0.36530285  1
  O2-  O181  1  0.48490684  0.22579896  0.88787257  1
  O2-  O182  1  0.47853951  0.73848932  0.37982595  1
  O2-  O183  1  0.47837753  0.73764879  0.89307274  1
  O2-  O184  1  0.28059862  -0.01640312  0.11395019  1
  O2-  O185  1  0.28157494  -0.01257681  0.61489033  1
  O2-  O186  1  0.26983586  0.48725414  0.12293598  1
  O2-  O187  1  0.26003982  0.47322101  0.61677504  1
  O2-  O188  1  0.77697882  -0.00004022  0.11078845  1
  O2-  O189  1  0.77308102  0.01908750  0.61762067  1
  O2-  O190  1  0.77064226  0.50632825  0.13455725  1
  O2-  O191  1  0.76706861  0.50550615  0.62553815  1
  O2-  O192  1  0.13733138  0.28337596  0.25783447  1
  O2-  O193  1  0.13472824  0.28458235  0.76360102  1
  O2-  O194  1  0.11752831  0.76065476  0.25597869  1
  O2-  O195  1  0.13153289  0.76622167  0.77596722  1
  O2-  O196  1  0.61812283  0.27258137  0.25500819  1
  O2-  O197  1  0.63103231  0.27572023  0.75897149  1
  O2-  O198  1  0.63790680  0.77369200  0.26749472  1
  O2-  O199  1  0.63973067  0.75929336  0.78302209  1
  O2-  O200  1  0.37583027  0.24269534  0.23305860  1
  O2-  O201  1  0.36262117  0.21462920  0.74186283  1
  O2-  O202  1  0.36359458  0.73090927  0.21650729  1
  O2-  O203  1  0.36397643  0.72379929  0.74084416  1
  O2-  O204  1  0.86389148  0.23258601  0.23171338  1
  O2-  O205  1  0.86699223  0.23075589  0.74679315  1
  O2-  O206  1  0.87833134  0.72797518  0.23000825  1
  O2-  O207  1  0.86351444  0.71246866  0.74065242  1
  O2-  O208  1  0.26977116  0.38682181  0.25469190  1
  O2-  O209  1  0.28285782  0.36290133  0.77723121  1
  O2-  O210  1  0.26281117  0.86037385  0.26656584  1
  O2-  O211  1  0.26660598  0.86305024  0.78009135  1
  O2-  O212  1  0.76671493  0.38642771  0.26229433  1
  O2-  O213  1  0.77006878  0.38011935  0.73997005  1
  O2-  O214  1  0.77692359  0.86486772  0.23666936  1
  O2-  O215  1  0.78028857  0.86168779  0.74309354  1
  O2-  O216  1  0.22912373  0.13896017  0.22535312  1
  O2-  O217  1  0.21636164  0.13666593  0.73697404  1
  O2-  O218  1  0.23092774  0.62067075  0.21964759  1
  O2-  O219  1  0.22259315  0.63286456  0.74278110  1
  O2-  O220  1  0.72237005  0.13679124  0.23268025  1
  O2-  O221  1  0.72616252  0.13130536  0.77227813  1
  O2-  O222  1  0.72680114  0.62072208  0.25416367  1
  O2-  O223  1  0.72989563  0.61676487  0.75267762  1
  O2-  O224  1  0.12297253  0.48836920  0.23902289  1
  O2-  O225  1  0.11260753  0.47964058  0.72477866  1
  O2-  O226  1  0.11545293  0.97999536  0.21866761  1
  O2-  O227  1  0.11637929  0.97944453  0.74071477  1
  O2-  O228  1  0.62533338  0.47938757  0.23555052  1
  O2-  O229  1  0.63391309  0.47722988  0.73814868  1
  O2-  O230  1  0.61300394  0.98803231  0.21628356  1
  O2-  O231  1  0.61840669  0.97023005  0.72807536  1
  O2-  O232  1  0.38476111  0.03295651  0.25920241  1
  O2-  O233  1  0.38781693  0.01780417  0.78065040  1
  O2-  O234  1  0.37305604  0.52703625  0.25810849  1
  O2-  O235  1  0.38563184  0.51999556  0.77208400  1
  O2-  O236  1  0.88757952  0.02257029  0.26011414  1
  O2-  O237  1  0.88479550  0.00939052  0.78429637  1
  O2-  O238  1  0.87179768  0.52194770  0.27012399  1
  O2-  O239  1  0.86977620  0.51452023  0.76845513  1
  O2-  O240  1  0.48410498  0.37211372  0.24889028  1
  O2-  O241  1  0.48732224  0.38220140  0.77542662  1
  O2-  O242  1  0.47329215  0.88803204  0.26017574  1
  O2-  O243  1  0.49006120  0.88373816  0.77948705  1
  O2-  O244  1  0.97803521  0.39050855  0.23423857  1
  O2-  O245  1  0.96904229  0.38408323  0.72354650  1
  O2-  O246  1  0.98253015  0.86848177  0.22852652  1
  O2-  O247  1  0.98134726  0.88189943  0.72888695  1
  O2-  O248  1  0.02927575  0.11384863  0.27437003  1
  O2-  O249  1  0.01640920  0.11524699  0.77796501  1
  O2-  O250  1  0.01224153  0.62779627  0.26828446  1
  O2-  O251  1  0.01125538  0.61013811  0.77311531  1
  O2-  O252  1  0.51711742  0.13215794  0.23705043  1
  O2-  O253  1  0.53297929  0.11170513  0.74358593  1
  O2-  O254  1  0.52696862  0.61640211  0.24123952  1
  O2-  O255  1  0.52450014  0.61622154  0.73484465  1
  O2-  O256  1  0.13236665  0.48294845  0.02726603  1
  O2-  O257  1  0.11627825  0.47805574  0.51115393  1
  O2-  O258  1  0.12970215  0.98349788  0.02024168  1
  O2-  O259  1  0.13220441  0.98010602  0.53423989  1
  O2-  O260  1  0.64334123  0.48338576  0.02809559  1
  O2-  O261  1  0.63652639  0.47249010  0.51686589  1
  O2-  O262  1  0.62574453  0.98550651  0.02374563  1
  O2-  O263  1  0.63460353  0.97781548  0.52225379  1
  O2-  O264  1  0.37823745  0.01372532  -0.01864067  1
  O2-  O265  1  0.36535609  0.01496393  0.46978785  1
  O2-  O266  1  0.36354532  0.51836377  -0.01806213  1
  O2-  O267  1  0.36438954  0.53114243  0.49720882  1
  O2-  O268  1  0.87918947  0.00750753  -0.02020434  1
  O2-  O269  1  0.87009729  0.02077279  0.47280870  1
  O2-  O270  1  0.86356859  0.54327155  -0.00727198  1
  O2-  O271  1  0.87739231  0.52098691  0.48370733  1
  O2-  O272  1  0.47422894  0.36473478  -0.00271021  1
  O2-  O273  1  0.44860263  0.36266269  0.49315314  1
  O2-  O274  1  0.48696279  0.88173862  -0.01243361  1
  O2-  O275  1  0.48222999  0.86885359  0.48882012  1
  O2-  O276  1  0.98558687  0.36115634  0.03582293  1
  O2-  O277  1  0.97906580  0.38246929  0.51193316  1
  O2-  O278  1  0.98963901  0.87475427  0.01953615  1
  O2-  O279  1  0.98277566  0.86207992  0.52295306  1
  O2-  O280  1  0.02112212  0.11231604  -0.01737318  1
  O2-  O281  1  0.02022924  0.13394609  0.47436624  1
  O2-  O282  1  0.01957057  0.63568744  -0.01622941  1
  O2-  O283  1  0.01837509  0.61839432  0.47891097  1
  O2-  O284  1  0.51001055  0.12298238  0.01712288  1
  O2-  O285  1  0.53788157  0.13906683  0.51014981  1
  O2-  O286  1  0.51220235  0.63809184  0.03247718  1
  O2-  O287  1  0.52262180  0.62822529  0.50649251  1
  O2-  O288  1  0.12877691  0.25879493  0.00500835  1
  O2-  O289  1  0.11802354  0.27641123  0.48096143  1
  O2-  O290  1  0.12089236  0.76959473  -0.01376099  1
  O2-  O291  1  0.11158627  0.75963422  0.46122750  1
  O2-  O292  1  0.61256687  0.26649095  -0.00944928  1
  O2-  O293  1  0.60812863  0.28839503  0.47886290  1
  O2-  O294  1  0.62314442  0.76655916  -0.01478309  1
  O2-  O295  1  0.61975973  0.76640752  0.47563029  1
  O2-  O296  1  0.36811322  0.22953588  0.01416117  1
  O2-  O297  1  0.38598357  0.20821136  0.50592637  1
  O2-  O298  1  0.36806149  0.74274754  0.02476947  1
  O2-  O299  1  0.38138638  0.72861763  0.51947137  1
  O2-  O300  1  0.88455087  0.21610136  0.00803579  1
  O2-  O301  1  0.88233808  0.23432312  0.51070743  1
  O2-  O302  1  0.87149475  0.73694783  0.01909395  1
  O2-  O303  1  0.89016588  0.71690429  0.50786269  1
  O2-  O304  1  0.26159250  0.36949763  -0.01323506  1
  O2-  O305  1  0.25783176  0.39258569  0.45977064  1
  O2-  O306  1  0.26132613  0.87311842  -0.01400690  1
  O2-  O307  1  0.26277604  0.87944946  0.47595333  1
  O2-  O308  1  0.79315086  0.39047716  -0.00215755  1
  O2-  O309  1  0.78168173  0.38655909  0.49625961  1
  O2-  O310  1  0.75562302  0.86374356  0.01800102  1
  O2-  O311  1  0.77927664  0.88333214  0.50835588  1
  O2-  O312  1  0.23759119  0.12124416  0.02482166  1
  O2-  O313  1  0.22813834  0.11920366  0.51548685  1
  O2-  O314  1  0.23273986  0.62600976  0.01982292  1
  O2-  O315  1  0.21348233  0.61004353  0.50888952  1
  O2-  O316  1  0.72838601  0.11433613  -0.01235356  1
  O2-  O317  1  0.72861100  0.11953238  0.48605703  1
  O2-  O318  1  0.72219395  0.63051469  -0.00430463  1
  O2-  O319  1  0.73154260  0.61573393  0.50281085  1
