# generated using pymatgen
data_Sr64Ca21Nb43O192
_symmetry_space_group_name_H-M   'P 1'
_cell_length_a   16.57171774
_cell_length_b   16.55442833
_cell_length_c   16.75565582
_cell_angle_alpha   89.98451854
_cell_angle_beta   89.99844637
_cell_angle_gamma   89.98895722
_symmetry_Int_Tables_number   1
_chemical_formula_structural   Sr64Ca21Nb43O192
_chemical_formula_sum   'Sr64 Ca21 Nb43 O192'
_cell_volume   4596.66783954
_cell_formula_units_Z   1
loop_
 _symmetry_equiv_pos_site_id
 _symmetry_equiv_pos_as_xyz
  1  'x, y, z'
loop_
 _atom_type_symbol
 _atom_type_oxidation_number
  Sr2+  2.0
  Ca2+  2.0
  Nb5+  5.0
  O2-  -2.0
loop_
 _atom_site_type_symbol
 _atom_site_label
 _atom_site_symmetry_multiplicity
 _atom_site_fract_x
 _atom_site_fract_y
 _atom_site_fract_z
 _atom_site_occupancy
  Sr2+  Sr0  1  0.12809899  0.11930303  0.12539037  1
  Sr2+  Sr1  1  0.12116887  0.12785431  0.63004826  1
  Sr2+  Sr2  1  0.11701870  0.61553224  0.12136673  1
  Sr2+  Sr3  1  0.13195317  0.62689128  0.62504688  1
  Sr2+  Sr4  1  0.62649987  0.10791785  0.12809337  1
  Sr2+  Sr5  1  0.63495620  0.11181156  0.62565547  1
  Sr2+  Sr6  1  0.62793038  0.62468576  0.12389736  1
  Sr2+  Sr7  1  0.63129786  0.61256033  0.62478235  1
  Sr2+  Sr8  1  0.37338222  0.36794693  0.10937098  1
  Sr2+  Sr9  1  0.38607672  0.36788971  0.63116306  1
  Sr2+  Sr10  1  0.36938444  0.87136220  0.12022334  1
  Sr2+  Sr11  1  0.37370198  0.86328558  0.63340506  1
  Sr2+  Sr12  1  0.86890945  0.35885247  0.12168524  1
  Sr2+  Sr13  1  0.87346998  0.36708931  0.62886681  1
  Sr2+  Sr14  1  0.87055863  0.86489221  0.12612406  1
  Sr2+  Sr15  1  0.87569788  0.87765700  0.63037190  1
  Sr2+  Sr16  1  0.12807093  0.38303008  0.37515908  1
  Sr2+  Sr17  1  0.13609101  0.38604373  0.87081811  1
  Sr2+  Sr18  1  0.12899095  0.87767587  0.37641370  1
  Sr2+  Sr19  1  0.13537170  0.88255729  0.87583608  1
  Sr2+  Sr20  1  0.61991317  0.37756522  0.37469009  1
  Sr2+  Sr21  1  0.59986385  0.37879686  0.87118760  1
  Sr2+  Sr22  1  0.61521171  0.88803887  0.37159627  1
  Sr2+  Sr23  1  0.60757646  0.88045448  0.87886981  1
  Sr2+  Sr24  1  0.37716696  0.12978972  0.36657937  1
  Sr2+  Sr25  1  0.37697508  0.13125458  0.87957398  1
  Sr2+  Sr26  1  0.36628172  0.63095359  0.38045963  1
  Sr2+  Sr27  1  0.37136726  0.62215445  0.87288593  1
  Sr2+  Sr28  1  0.87337406  0.12938573  0.37402648  1
  Sr2+  Sr29  1  0.88842836  0.12903165  0.88367591  1
  Sr2+  Sr30  1  0.88773228  0.62950319  0.37734301  1
  Sr2+  Sr31  1  0.86663232  0.63088275  0.86300054  1
  Sr2+  Sr32  1  0.13574260  0.13724040  0.37353364  1
  Sr2+  Sr33  1  0.12878278  0.14300894  0.87101302  1
  Sr2+  Sr34  1  0.12859573  0.63559736  0.37536352  1
  Sr2+  Sr35  1  0.12895508  0.61947010  0.88424196  1
  Sr2+  Sr36  1  0.62375364  0.13215977  0.37182573  1
  Sr2+  Sr37  1  0.61815567  0.13924631  0.88475634  1
  Sr2+  Sr38  1  0.62078938  0.62500584  0.37400085  1
  Sr2+  Sr39  1  0.62052924  0.64044411  0.87873152  1
  Sr2+  Sr40  1  0.38155500  0.36162099  0.37661579  1
  Sr2+  Sr41  1  0.36553724  0.37346369  0.87255159  1
  Sr2+  Sr42  1  0.36678467  0.87524239  0.37488951  1
  Sr2+  Sr43  1  0.37600790  0.87924603  0.87466566  1
  Sr2+  Sr44  1  0.87308196  0.37785353  0.37681060  1
  Sr2+  Sr45  1  0.87895258  0.37442320  0.87238615  1
  Sr2+  Sr46  1  0.88255341  0.87811603  0.37253309  1
  Sr2+  Sr47  1  0.86956809  0.87665421  0.87796912  1
  Sr2+  Sr48  1  0.13349948  0.37504912  0.11795108  1
  Sr2+  Sr49  1  0.12000657  0.36936182  0.63036875  1
  Sr2+  Sr50  1  0.10789046  0.86941785  0.12459972  1
  Sr2+  Sr51  1  0.12937128  0.87416022  0.62848687  1
  Sr2+  Sr52  1  0.62316717  0.37319042  0.12744513  1
  Sr2+  Sr53  1  0.63726117  0.37255495  0.62065038  1
  Sr2+  Sr54  1  0.62982208  0.86673260  0.12690959  1
  Sr2+  Sr55  1  0.60767022  0.87354291  0.62966956  1
  Sr2+  Sr56  1  0.37495060  0.11765638  0.11618005  1
  Sr2+  Sr57  1  0.38912073  0.10699874  0.62843238  1
  Sr2+  Sr58  1  0.36635102  0.61072622  0.12377393  1
  Sr2+  Sr59  1  0.39634395  0.62452774  0.62324708  1
  Sr2+  Sr60  1  0.86666111  0.11637285  0.11961574  1
  Sr2+  Sr61  1  0.87401597  0.12306263  0.63201112  1
  Sr2+  Sr62  1  0.86751060  0.62321094  0.12144478  1
  Sr2+  Sr63  1  0.87905805  0.61240460  0.63142407  1
  Ca2+  Ca64  1  -0.00731560  0.50006190  0.00081694  1
  Ca2+  Ca65  1  0.49866599  -0.00206482  0.49888828  1
  Ca2+  Ca66  1  0.50114606  0.00124485  0.00229696  1
  Ca2+  Ca67  1  0.00246117  -0.00065005  0.00148711  1
  Ca2+  Ca68  1  0.50100904  0.50293851  0.00202077  1
  Ca2+  Ca69  1  0.75406579  0.74847479  0.49959092  1
  Ca2+  Ca70  1  0.24584279  0.75218107  0.00364514  1
  Ca2+  Ca71  1  0.24750860  0.24925933  -0.00177918  1
  Ca2+  Ca72  1  0.74874278  0.25080724  0.00024176  1
  Ca2+  Ca73  1  0.25074177  0.24831707  0.50310030  1
  Ca2+  Ca74  1  0.24806487  0.49906381  0.25280846  1
  Ca2+  Ca75  1  0.25015684  0.50504756  0.74432711  1
  Ca2+  Ca76  1  0.74541150  0.49702564  0.75343256  1
  Ca2+  Ca77  1  0.49888185  0.74807275  0.75283402  1
  Ca2+  Ca78  1  0.50242194  0.24854220  0.74579319  1
  Ca2+  Ca79  1  0.00271575  0.24912810  0.25134596  1
  Ca2+  Ca80  1  0.25075595  0.00491363  0.74745376  1
  Ca2+  Ca81  1  0.49980507  0.74633396  0.25052817  1
  Ca2+  Ca82  1  0.75069838  0.00023369  0.75224984  1
  Ca2+  Ca83  1  0.00176078  0.75103070  0.74858939  1
  Ca2+  Ca84  1  0.50049681  0.24938274  0.24636848  1
  Nb5+  Nb85  1  0.50582308  0.49789454  0.49999250  1
  Nb5+  Nb86  1  0.00564615  0.49873360  0.49971170  1
  Nb5+  Nb87  1  0.00081320  0.00573298  0.49823301  1
  Nb5+  Nb88  1  0.75085089  0.75099000  -0.00074616  1
  Nb5+  Nb89  1  0.24903536  0.75015655  0.50018599  1
  Nb5+  Nb90  1  0.75065962  0.24706949  0.49880066  1
  Nb5+  Nb91  1  0.24224086  -0.00256709  0.24868891  1
  Nb5+  Nb92  1  0.00151800  0.74650063  0.25066108  1
  Nb5+  Nb93  1  -0.00134025  0.25251501  0.75217070  1
  Nb5+  Nb94  1  0.75306266  0.49326941  0.24945876  1
  Nb5+  Nb95  1  0.74931596  -0.00580830  0.25174370  1
  Nb5+  Nb96  1  -0.00282392  0.00132924  0.25279650  1
  Nb5+  Nb97  1  0.00171283  -0.00103605  0.75439043  1
  Nb5+  Nb98  1  -0.00638827  0.49395379  0.24883227  1
  Nb5+  Nb99  1  0.00234601  0.50115169  0.75249278  1
  Nb5+  Nb100  1  0.48858127  -0.00103561  0.25344692  1
  Nb5+  Nb101  1  0.50243281  0.00308448  0.75126222  1
  Nb5+  Nb102  1  0.49309642  0.50308868  0.25147643  1
  Nb5+  Nb103  1  0.50070989  0.50399849  0.75150799  1
  Nb5+  Nb104  1  0.25450583  0.25439529  0.25024966  1
  Nb5+  Nb105  1  0.25576497  0.24820973  0.74171376  1
  Nb5+  Nb106  1  0.24707678  0.74915388  0.24633700  1
  Nb5+  Nb107  1  0.25017063  0.75147689  0.75846043  1
  Nb5+  Nb108  1  0.75142750  0.24569638  0.25022063  1
  Nb5+  Nb109  1  0.75228148  0.24857061  0.75617453  1
  Nb5+  Nb110  1  0.75171707  0.74446578  0.25557863  1
  Nb5+  Nb111  1  0.74633017  0.75195204  0.74279841  1
  Nb5+  Nb112  1  -0.00264482  0.25574624  0.49740741  1
  Nb5+  Nb113  1  0.00392481  0.25151755  1.00626741  1
  Nb5+  Nb114  1  0.00060541  0.75537150  0.50231828  1
  Nb5+  Nb115  1  -0.00331094  0.75084148  0.99279622  1
  Nb5+  Nb116  1  0.50008434  0.24367504  0.50509816  1
  Nb5+  Nb117  1  0.50023189  0.25336862  1.00084590  1
  Nb5+  Nb118  1  0.50629467  0.75247357  0.49266913  1
  Nb5+  Nb119  1  0.49258029  0.74687811  1.00611605  1
  Nb5+  Nb120  1  0.24802083  0.00226648  -0.00442228  1
  Nb5+  Nb121  1  0.24967225  0.00216669  0.49758209  1
  Nb5+  Nb122  1  0.24927742  0.50210323  0.00080256  1
  Nb5+  Nb123  1  0.25972019  0.49865343  0.49805313  1
  Nb5+  Nb124  1  0.74582060  -0.00080585  -0.00413460  1
  Nb5+  Nb125  1  0.75532494  -0.00668435  0.49950030  1
  Nb5+  Nb126  1  0.74756242  0.49736817  -0.00482614  1
  Nb5+  Nb127  1  0.75582269  0.50076500  0.49585699  1
  O2-  O128  1  -0.01641760  0.01277579  0.13932757  1
  O2-  O129  1  -0.02327203  0.00463008  0.61236453  1
  O2-  O130  1  -0.01896546  0.52092704  0.13878981  1
  O2-  O131  1  -0.01989626  0.49701955  0.61464726  1
  O2-  O132  1  0.47654042  -0.01788165  0.13813546  1
  O2-  O133  1  0.47513903  -0.02546545  0.63011708  1
  O2-  O134  1  0.47655851  0.48679096  0.13895232  1
  O2-  O135  1  0.47844922  0.48750886  0.61399910  1
  O2-  O136  1  0.01382781  -0.01997198  0.37672726  1
  O2-  O137  1  0.02729574  -0.00702117  0.86481231  1
  O2-  O138  1  0.00572370  0.48394606  0.37919361  1
  O2-  O139  1  0.01763338  0.49799614  0.86554418  1
  O2-  O140  1  0.52482460  0.01831584  0.36691295  1
  O2-  O141  1  0.52811953  0.02130840  0.86597594  1
  O2-  O142  1  0.51397928  0.51693006  0.38247484  1
  O2-  O143  1  0.52015335  0.51974424  0.86353841  1
  O2-  O144  1  0.22647233  0.25784014  0.13611810  1
  O2-  O145  1  0.21409494  0.25583532  0.63102269  1
  O2-  O146  1  0.22161976  0.77163690  0.13702653  1
  O2-  O147  1  0.22814198  0.75833224  0.61398800  1
  O2-  O148  1  0.73125302  0.26296835  0.13793792  1
  O2-  O149  1  0.73616974  0.25602128  0.61460399  1
  O2-  O150  1  0.74190778  0.75685797  0.13301649  1
  O2-  O151  1  0.71521184  0.75388776  0.63287684  1
  O2-  O152  1  0.27481018  0.23650567  0.36994026  1
  O2-  O153  1  0.26826483  0.24286788  0.86158799  1
  O2-  O154  1  0.26088152  0.74643007  0.37227763  1
  O2-  O155  1  0.27535263  0.74550992  0.86959634  1
  O2-  O156  1  0.77565284  0.24739108  0.37629091  1
  O2-  O157  1  0.77750339  0.23398604  0.86625300  1
  O2-  O158  1  0.78541467  0.74241560  0.36543187  1
  O2-  O159  1  0.77586696  0.75021994  0.88709500  1
  O2-  O160  1  0.03485685  0.24986609  0.11668443  1
  O2-  O161  1  0.01368914  0.24798408  0.61969313  1
  O2-  O162  1  0.02113997  0.73817719  0.13602854  1
  O2-  O163  1  0.03157907  0.75107223  0.61232735  1
  O2-  O164  1  0.50760154  0.28400445  0.11649865  1
  O2-  O165  1  0.52151991  0.28419671  0.61217994  1
  O2-  O166  1  0.52594133  0.76467670  0.11926914  1
  O2-  O167  1  0.50294507  0.76500929  0.61039739  1
  O2-  O168  1  0.22526317  0.00108598  0.37178174  1
  O2-  O169  1  0.22256043  0.01007106  0.88412175  1
  O2-  O170  1  0.22187766  0.50774681  0.38717461  1
  O2-  O171  1  0.23786034  0.50820654  0.88066732  1
  O2-  O172  1  0.73860108  0.00368852  0.37253549  1
  O2-  O173  1  0.71819106  -0.00225173  0.88626147  1
  O2-  O174  1  0.73290045  0.49493579  0.37445128  1
  O2-  O175  1  0.71150308  0.49913682  0.88789011  1
  O2-  O176  1  -0.03178468  0.25178520  0.38544728  1
  O2-  O177  1  -0.02669495  0.25496143  0.86512988  1
  O2-  O178  1  -0.01772279  0.75445754  0.37612475  1
  O2-  O179  1  -0.03497577  0.75356230  0.88314061  1
  O2-  O180  1  0.48494757  0.23927184  0.38699205  1
  O2-  O181  1  0.49121663  0.22789379  0.87999321  1
  O2-  O182  1  0.48126297  0.71751923  0.38372694  1
  O2-  O183  1  0.48266845  0.72635621  0.88677104  1
  O2-  O184  1  0.27454033  -0.00763100  0.13721464  1
  O2-  O185  1  0.27004062  -0.01075762  0.60946016  1
  O2-  O186  1  0.26321603  0.49342021  0.12067616  1
  O2-  O187  1  0.24385033  0.51503644  0.60928609  1
  O2-  O188  1  0.77518183  -0.00403636  0.13718672  1
  O2-  O189  1  0.77969101  0.00225346  0.61118488  1
  O2-  O190  1  0.77937560  0.49405921  0.13606071  1
  O2-  O191  1  0.76417315  0.49773085  0.61214826  1
  O2-  O192  1  0.13726982  0.26453812  0.28153489  1
  O2-  O193  1  0.11402122  0.27514924  0.76615077  1
  O2-  O194  1  0.11811818  0.76633683  0.27376391  1
  O2-  O195  1  0.13420574  0.78793705  0.76329370  1
  O2-  O196  1  0.63732044  0.25917834  0.27891882  1
  O2-  O197  1  0.63844025  0.26897716  0.76919466  1
  O2-  O198  1  0.64068604  0.76595442  0.27538000  1
  O2-  O199  1  0.63559376  0.77119204  0.78240360  1
  O2-  O200  1  0.36592651  0.21546495  0.23203832  1
  O2-  O201  1  0.36599434  0.22880307  0.71524284  1
  O2-  O202  1  0.36127756  0.73485520  0.23029512  1
  O2-  O203  1  0.36144693  0.73042652  0.72149596  1
  O2-  O204  1  0.86738204  0.22462520  0.22875234  1
  O2-  O205  1  0.87965965  0.23744198  0.72502749  1
  O2-  O206  1  0.88125769  0.73681790  0.23212153  1
  O2-  O207  1  0.86530645  0.72634187  0.72545445  1
  O2-  O208  1  0.28378684  0.36625613  0.25706280  1
  O2-  O209  1  0.26794993  0.36806480  0.74794864  1
  O2-  O210  1  0.26041650  0.87582671  0.26473639  1
  O2-  O211  1  0.27533979  0.87092636  0.75183296  1
  O2-  O212  1  0.77238874  0.37430054  0.25798210  1
  O2-  O213  1  0.77794827  0.36427337  0.74689267  1
  O2-  O214  1  0.77153203  0.87582610  0.25796433  1
  O2-  O215  1  0.78163857  0.86600006  0.75539662  1
  O2-  O216  1  0.22748607  0.11536998  0.24719824  1
  O2-  O217  1  0.21619913  0.13613638  0.74554193  1
  O2-  O218  1  0.22023511  0.63547593  0.24394342  1
  O2-  O219  1  0.21219416  0.63928084  0.75036276  1
  O2-  O220  1  0.73722310  0.12206419  0.25065832  1
  O2-  O221  1  0.74196387  0.13516770  0.72768653  1
  O2-  O222  1  0.73981728  0.62453983  0.24640338  1
  O2-  O223  1  0.73279269  0.63421704  0.76441754  1
  O2-  O224  1  0.10866105  0.47225220  0.24093658  1
  O2-  O225  1  0.11459928  0.47303410  0.73201088  1
  O2-  O226  1  0.12520781  0.97798101  0.23340063  1
  O2-  O227  1  0.11243034  0.99414804  0.71409739  1
  O2-  O228  1  0.63715254  0.47986818  0.23827379  1
  O2-  O229  1  0.61370368  0.47608810  0.72132263  1
  O2-  O230  1  0.63457664  0.98025895  0.23589184  1
  O2-  O231  1  0.61973675  0.98527511  0.72068029  1
  O2-  O232  1  0.37239265  0.00907433  0.27488290  1
  O2-  O233  1  0.38463164  0.02837162  0.76829928  1
  O2-  O234  1  0.38334387  0.53246034  0.26982764  1
  O2-  O235  1  0.38393616  0.53197999  0.75078725  1
  O2-  O236  1  0.87966742  0.01113226  0.27292025  1
  O2-  O237  1  0.88799828  0.03119657  0.76464725  1
  O2-  O238  1  0.87190468  0.51909767  0.27783034  1
  O2-  O239  1  0.88277507  0.51641646  0.76121054  1
  O2-  O240  1  0.49673166  0.38816678  0.27872856  1
  O2-  O241  1  0.47302985  0.38587847  0.76242816  1
  O2-  O242  1  0.49303752  0.88194288  0.27623443  1
  O2-  O243  1  0.48721630  0.88366280  0.77163929  1
  O2-  O244  1  0.96350881  0.38318253  0.24273112  1
  O2-  O245  1  0.97761233  0.37424923  0.74000537  1
  O2-  O246  1  0.98690978  0.87197456  0.24469306  1
  O2-  O247  1  0.97574455  0.88699615  0.74159116  1
  O2-  O248  1  0.02407627  0.11192663  0.26979420  1
  O2-  O249  1  0.01824620  0.13302589  0.75020022  1
  O2-  O250  1  0.01235963  0.62615939  0.26988405  1
  O2-  O251  1  0.01915501  0.61493828  0.73499548  1
  O2-  O252  1  0.51973307  0.11286009  0.23438521  1
  O2-  O253  1  0.51756459  0.11783198  0.71480969  1
  O2-  O254  1  0.53796221  0.61201642  0.24472356  1
  O2-  O255  1  0.52301891  0.61811301  0.72081695  1
  O2-  O256  1  0.12910813  0.47874569  0.01255119  1
  O2-  O257  1  0.11671003  0.47098771  0.50966949  1
  O2-  O258  1  0.13588902  0.97929938  0.03089926  1
  O2-  O259  1  0.11649563  0.97704100  0.51092600  1
  O2-  O260  1  0.63906951  0.49231646  0.04168578  1
  O2-  O261  1  0.62284440  0.48074434  0.51131810  1
  O2-  O262  1  0.63571988  0.97944909  0.03532587  1
  O2-  O263  1  0.64074975  0.97742141  0.51360361  1
  O2-  O264  1  0.36691295  0.02575477  -0.01286784  1
  O2-  O265  1  0.36132104  0.01521022  0.46985710  1
  O2-  O266  1  0.36653434  0.53425456  -0.00751599  1
  O2-  O267  1  0.37354467  0.52439445  0.48686994  1
  O2-  O268  1  0.86489367  0.01071659  -0.01995431  1
  O2-  O269  1  0.88148199  0.01529577  0.47207978  1
  O2-  O270  1  0.85906393  0.53568097  -0.01809404  1
  O2-  O271  1  0.87207126  0.51288868  0.48041768  1
  O2-  O272  1  0.47582898  0.37155845  -0.02638783  1
  O2-  O273  1  0.48646047  0.38081960  0.48151888  1
  O2-  O274  1  0.48815213  0.86502354  -0.01931453  1
  O2-  O275  1  0.48443276  0.86450208  0.47150685  1
  O2-  O276  1  0.96901246  0.36621465  0.00196897  1
  O2-  O277  1  0.97435019  0.37210526  0.50415858  1
  O2-  O278  1  0.98095030  0.86476229  0.02502017  1
  O2-  O279  1  0.97970651  0.87019181  0.50339452  1
  O2-  O280  1  0.01859466  0.13451029  -0.01760281  1
  O2-  O281  1  0.01567978  0.12203170  0.49081990  1
  O2-  O282  1  0.01863688  0.63607012  0.00208395  1
  O2-  O283  1  0.01995317  0.61547814  0.49101547  1
  O2-  O284  1  0.52945681  0.13700410  0.02014616  1
  O2-  O285  1  0.52536348  0.13246917  0.52047450  1
  O2-  O286  1  0.53145244  0.63515831  0.01306652  1
  O2-  O287  1  0.51843348  0.62106482  0.51748975  1
  O2-  O288  1  0.11351139  0.27394139  -0.03435112  1
  O2-  O289  1  0.11059724  0.26847517  0.47698388  1
  O2-  O290  1  0.11086939  0.77436822  -0.02454856  1
  O2-  O291  1  0.12174065  0.75777623  0.47344164  1
  O2-  O292  1  0.61870648  0.27978455  -0.01962237  1
  O2-  O293  1  0.63268881  0.26111232  0.47771773  1
  O2-  O294  1  0.63586691  0.77138702  -0.01288126  1
  O2-  O295  1  0.61875955  0.76483735  0.47351246  1
  O2-  O296  1  0.38277536  0.23035738  0.01510622  1
  O2-  O297  1  0.38675160  0.23131119  0.52559354  1
  O2-  O298  1  0.38184330  0.73282024  0.03433092  1
  O2-  O299  1  0.36596945  0.73919197  0.50970238  1
  O2-  O300  1  0.88524605  0.22604228  0.02118006  1
  O2-  O301  1  0.87251068  0.23324890  0.52000503  1
  O2-  O302  1  0.87346016  0.73780872  0.02699801  1
  O2-  O303  1  0.89107822  0.71921874  0.51953654  1
  O2-  O304  1  0.27217493  0.38375433  -0.00633950  1
  O2-  O305  1  0.27806394  0.38498190  0.49638909  1
  O2-  O306  1  0.27670218  0.88562798  -0.00529792  1
  O2-  O307  1  0.25219258  0.87273183  0.48515058  1
  O2-  O308  1  0.77901053  0.38651948  -0.00175758  1
  O2-  O309  1  0.76292789  0.37312125  0.49296648  1
  O2-  O310  1  0.77026071  0.87417500  0.00750157  1
  O2-  O311  1  0.78400204  0.88198970  0.49180986  1
  O2-  O312  1  0.23162797  0.11726239  0.02219997  1
  O2-  O313  1  0.21776178  0.11276923  0.50277916  1
  O2-  O314  1  0.21833283  0.62038883  0.01046333  1
  O2-  O315  1  0.23249178  0.63203212  0.49411706  1
  O2-  O316  1  0.73468295  0.11400203  0.01617169  1
  O2-  O317  1  0.74039629  0.12593505  0.49501312  1
  O2-  O318  1  0.73303371  0.63332097  0.01154723  1
  O2-  O319  1  0.72752620  0.61306244  0.49527578  1
