# generated using pymatgen
data_Sr64Ca21Nb43O192
_symmetry_space_group_name_H-M   'P 1'
_cell_length_a   16.56759901
_cell_length_b   16.57001308
_cell_length_c   16.73617822
_cell_angle_alpha   90.00310830
_cell_angle_beta   90.03248009
_cell_angle_gamma   90.02229857
_symmetry_Int_Tables_number   1
_chemical_formula_structural   Sr64Ca21Nb43O192
_chemical_formula_sum   'Sr64 Ca21 Nb43 O192'
_cell_volume   4594.50379521
_cell_formula_units_Z   1
loop_
 _symmetry_equiv_pos_site_id
 _symmetry_equiv_pos_as_xyz
  1  'x, y, z'
loop_
 _atom_type_symbol
 _atom_type_oxidation_number
  Sr2+  2.0
  Ca2+  2.0
  Nb5+  5.0
  O2-  -2.0
loop_
 _atom_site_type_symbol
 _atom_site_label
 _atom_site_symmetry_multiplicity
 _atom_site_fract_x
 _atom_site_fract_y
 _atom_site_fract_z
 _atom_site_occupancy
  Sr2+  Sr0  1  0.12936312  0.12171908  0.11580474  1
  Sr2+  Sr1  1  0.13589406  0.11090717  0.63223623  1
  Sr2+  Sr2  1  0.12895871  0.62921935  0.12434983  1
  Sr2+  Sr3  1  0.12405507  0.62660142  0.63374826  1
  Sr2+  Sr4  1  0.62181574  0.11518608  0.12278457  1
  Sr2+  Sr5  1  0.62013645  0.12305962  0.62873487  1
  Sr2+  Sr6  1  0.62457220  0.62838481  0.12503294  1
  Sr2+  Sr7  1  0.62230901  0.63193351  0.62092232  1
  Sr2+  Sr8  1  0.37783772  0.39239914  0.12148035  1
  Sr2+  Sr9  1  0.38525055  0.38559110  0.62736038  1
  Sr2+  Sr10  1  0.37975804  0.87098656  0.12835283  1
  Sr2+  Sr11  1  0.37422292  0.88987940  0.62058521  1
  Sr2+  Sr12  1  0.87519973  0.39061272  0.11854723  1
  Sr2+  Sr13  1  0.87279081  0.38589614  0.62531158  1
  Sr2+  Sr14  1  0.87792164  0.87967474  0.11417665  1
  Sr2+  Sr15  1  0.87627112  0.86921053  0.63107005  1
  Sr2+  Sr16  1  0.10107728  0.36830443  0.37872021  1
  Sr2+  Sr17  1  0.14469154  0.37584691  0.87615749  1
  Sr2+  Sr18  1  0.12136231  0.87751118  0.36648193  1
  Sr2+  Sr19  1  0.11254112  0.87040490  0.87120822  1
  Sr2+  Sr20  1  0.62981916  0.37164483  0.37621338  1
  Sr2+  Sr21  1  0.63434879  0.36426554  0.87437543  1
  Sr2+  Sr22  1  0.62038150  0.88192855  0.37548144  1
  Sr2+  Sr23  1  0.62834610  0.87019174  0.88600989  1
  Sr2+  Sr24  1  0.36907176  0.13178465  0.37267807  1
  Sr2+  Sr25  1  0.36033058  0.13448415  0.87089468  1
  Sr2+  Sr26  1  0.37209383  0.62140142  0.37818684  1
  Sr2+  Sr27  1  0.36038060  0.61830614  0.88555166  1
  Sr2+  Sr28  1  0.87723011  0.13954790  0.37372048  1
  Sr2+  Sr29  1  0.86819818  0.12896226  0.88668621  1
  Sr2+  Sr30  1  0.86851136  0.62189696  0.37379114  1
  Sr2+  Sr31  1  0.87757310  0.63313209  0.86517219  1
  Sr2+  Sr32  1  0.12089890  0.12779531  0.36388511  1
  Sr2+  Sr33  1  0.11356901  0.13686275  0.87907164  1
  Sr2+  Sr34  1  0.11125465  0.61849531  0.38077345  1
  Sr2+  Sr35  1  0.11605373  0.61009467  0.87281114  1
  Sr2+  Sr36  1  0.62293066  0.13099614  0.37089067  1
  Sr2+  Sr37  1  0.62958367  0.12132360  0.87411374  1
  Sr2+  Sr38  1  0.62637095  0.62344507  0.37229654  1
  Sr2+  Sr39  1  0.61874590  0.62769098  0.89026246  1
  Sr2+  Sr40  1  0.38128641  0.37398549  0.37126326  1
  Sr2+  Sr41  1  0.37964856  0.37441001  0.87636015  1
  Sr2+  Sr42  1  0.36232015  0.88049693  0.37039182  1
  Sr2+  Sr43  1  0.37834070  0.87275572  0.88324195  1
  Sr2+  Sr44  1  0.86910620  0.39183057  0.37475162  1
  Sr2+  Sr45  1  0.86939997  0.37670767  0.87253666  1
  Sr2+  Sr46  1  0.88147068  0.89323982  0.37518453  1
  Sr2+  Sr47  1  0.87455549  0.88666279  0.87653825  1
  Sr2+  Sr48  1  0.13178878  0.38269308  0.11528281  1
  Sr2+  Sr49  1  0.13713275  0.37973269  0.63336798  1
  Sr2+  Sr50  1  0.12490841  0.87850678  0.12490777  1
  Sr2+  Sr51  1  0.13258497  0.86552716  0.62789749  1
  Sr2+  Sr52  1  0.62290799  0.37423857  0.11408636  1
  Sr2+  Sr53  1  0.62589770  0.37100290  0.63422076  1
  Sr2+  Sr54  1  0.61515259  0.86253903  0.12930532  1
  Sr2+  Sr55  1  0.62996553  0.87675545  0.61985670  1
  Sr2+  Sr56  1  0.37101278  0.12924480  0.12730089  1
  Sr2+  Sr57  1  0.37710777  0.12533429  0.63376361  1
  Sr2+  Sr58  1  0.38184373  0.63358330  0.11971229  1
  Sr2+  Sr59  1  0.36412899  0.62760842  0.61976640  1
  Sr2+  Sr60  1  0.88935013  0.11381330  0.12002935  1
  Sr2+  Sr61  1  0.88629711  0.13254781  0.61863627  1
  Sr2+  Sr62  1  0.88370886  0.63057602  0.13440567  1
  Sr2+  Sr63  1  0.87654518  0.63451342  0.62757734  1
  Ca2+  Ca64  1  0.49731003  0.00272487  0.00003583  1
  Ca2+  Ca65  1  0.50195097  0.49757348  -0.00016016  1
  Ca2+  Ca66  1  -0.00042165  0.50023720  0.50378413  1
  Ca2+  Ca67  1  0.00065299  0.00321393  0.50336128  1
  Ca2+  Ca68  1  -0.00360342  0.50323507  -0.00216734  1
  Ca2+  Ca69  1  0.75266844  0.25103365  0.00594121  1
  Ca2+  Ca70  1  0.25173417  0.24827773  0.00205332  1
  Ca2+  Ca71  1  0.25125062  0.24852111  0.50321745  1
  Ca2+  Ca72  1  0.24689249  0.75328632  0.00059123  1
  Ca2+  Ca73  1  0.75285103  0.74734202  0.00085747  1
  Ca2+  Ca74  1  0.00000679  0.25150341  0.24479591  1
  Ca2+  Ca75  1  -0.00305704  0.24993990  0.75089111  1
  Ca2+  Ca76  1  0.24957137  -0.00410157  0.75226218  1
  Ca2+  Ca77  1  0.49997123  0.74922971  0.74910110  1
  Ca2+  Ca78  1  0.75067657  -0.00102051  0.74851044  1
  Ca2+  Ca79  1  0.49911270  0.75011546  0.25678505  1
  Ca2+  Ca80  1  0.25477460  0.50128680  0.74832972  1
  Ca2+  Ca81  1  -0.00035310  0.75043219  0.25100696  1
  Ca2+  Ca82  1  0.25034705  0.50136969  0.25298880  1
  Ca2+  Ca83  1  0.74846637  0.50314542  0.74469815  1
  Ca2+  Ca84  1  0.74852276  0.00245469  0.24812380  1
  Nb5+  Nb85  1  0.49882185  0.00685907  0.49735208  1
  Nb5+  Nb86  1  0.50266214  0.50387088  0.50024299  1
  Nb5+  Nb87  1  0.00370737  -0.00012047  -0.00399285  1
  Nb5+  Nb88  1  0.74964601  0.25311871  0.50015853  1
  Nb5+  Nb89  1  0.24197472  0.75143569  0.49723572  1
  Nb5+  Nb90  1  0.74828174  0.75810106  0.49472426  1
  Nb5+  Nb91  1  0.74409485  0.49984767  0.24752361  1
  Nb5+  Nb92  1  0.50057915  0.24970024  0.74838369  1
  Nb5+  Nb93  1  0.50100473  0.25005050  0.24437430  1
  Nb5+  Nb94  1  0.25160154  0.00179094  0.24691113  1
  Nb5+  Nb95  1  0.00142208  0.75030541  0.74993300  1
  Nb5+  Nb96  1  -0.00203294  0.00400905  0.25196265  1
  Nb5+  Nb97  1  -0.00271653  0.00275032  0.74611792  1
  Nb5+  Nb98  1  0.00573624  0.49543050  0.25031283  1
  Nb5+  Nb99  1  -0.00203805  0.49398096  0.74911224  1
  Nb5+  Nb100  1  0.49665795  0.00031885  0.24900508  1
  Nb5+  Nb101  1  0.50059070  -0.00334539  0.75450941  1
  Nb5+  Nb102  1  0.50294309  0.50225784  0.24959710  1
  Nb5+  Nb103  1  0.50460368  0.50419195  0.75405417  1
  Nb5+  Nb104  1  0.25069350  0.25474397  0.25295520  1
  Nb5+  Nb105  1  0.24662529  0.24997456  0.74873922  1
  Nb5+  Nb106  1  0.24692787  0.74482822  0.25357878  1
  Nb5+  Nb107  1  0.25360803  0.75000493  0.75418103  1
  Nb5+  Nb108  1  0.74836881  0.25080346  0.24767363  1
  Nb5+  Nb109  1  0.75398068  0.24411222  0.74988611  1
  Nb5+  Nb110  1  0.75483155  0.75533447  0.25214364  1
  Nb5+  Nb111  1  0.74605799  0.75221872  0.75031579  1
  Nb5+  Nb112  1  0.00493224  0.25375930  0.50638329  1
  Nb5+  Nb113  1  -0.00224407  0.25814819  0.99939605  1
  Nb5+  Nb114  1  -0.00617389  0.75007149  0.49861964  1
  Nb5+  Nb115  1  0.00138822  0.74921571  1.00202568  1
  Nb5+  Nb116  1  0.49918240  0.25223125  0.49874674  1
  Nb5+  Nb117  1  0.50166389  0.24624162  0.99378280  1
  Nb5+  Nb118  1  0.49347948  0.75606605  0.49870807  1
  Nb5+  Nb119  1  0.49958636  0.75111056  0.99981547  1
  Nb5+  Nb120  1  0.24954483  -0.00526967  -0.00890068  1
  Nb5+  Nb121  1  0.24541204  0.00039390  0.49660229  1
  Nb5+  Nb122  1  0.24818697  0.50197689  0.00239391  1
  Nb5+  Nb123  1  0.24937093  0.49607255  0.49580221  1
  Nb5+  Nb124  1  0.74439485  -0.00333333  0.00453880  1
  Nb5+  Nb125  1  0.74882058  0.00823526  0.49511073  1
  Nb5+  Nb126  1  0.75287050  0.50325099  -0.00811882  1
  Nb5+  Nb127  1  0.74530215  0.50801812  0.50145114  1
  O2-  O128  1  -0.01041165  -0.01530347  0.12531078  1
  O2-  O129  1  -0.03851278  -0.00551304  0.63712187  1
  O2-  O130  1  0.00714034  0.47679231  0.13375542  1
  O2-  O131  1  0.03103882  0.48675265  0.63359957  1
  O2-  O132  1  0.47159436  0.01096066  0.13636338  1
  O2-  O133  1  0.47948782  0.00471084  0.61420921  1
  O2-  O134  1  0.52529150  0.48955312  0.13710007  1
  O2-  O135  1  0.52575038  0.48891321  0.61503348  1
  O2-  O136  1  0.02234141  0.01285798  0.36729532  1
  O2-  O137  1  0.02734176  0.00392013  0.88040797  1
  O2-  O138  1  -0.01880375  0.52124187  0.36652808  1
  O2-  O139  1  -0.02148022  0.52498414  0.86307382  1
  O2-  O140  1  0.51522846  0.00355401  0.37600775  1
  O2-  O141  1  0.52939470  -0.00666036  0.86498844  1
  O2-  O142  1  0.48404704  0.49748346  0.37763860  1
  O2-  O143  1  0.47641084  0.50824951  0.86458948  1
  O2-  O144  1  0.24502004  0.22089004  0.14010869  1
  O2-  O145  1  0.24810586  0.21337056  0.63576050  1
  O2-  O146  1  0.25776263  0.72665616  0.13888370  1
  O2-  O147  1  0.24679719  0.72775056  0.61411947  1
  O2-  O148  1  0.73806513  0.27650093  0.13846735  1
  O2-  O149  1  0.74271182  0.25138091  0.61893002  1
  O2-  O150  1  0.75694680  0.74921123  0.13752404  1
  O2-  O151  1  0.75958597  0.76575845  0.61204002  1
  O2-  O152  1  0.27900422  0.25997134  0.36882276  1
  O2-  O153  1  0.27077832  0.27179097  0.86446685  1
  O2-  O154  1  0.24223312  0.77765399  0.37899276  1
  O2-  O155  1  0.25296152  0.77990450  0.86364872  1
  O2-  O156  1  0.74462783  0.23785438  0.38039796  1
  O2-  O157  1  0.75226633  0.24942652  0.86614917  1
  O2-  O158  1  0.74583649  0.72826858  0.37888097  1
  O2-  O159  1  0.73758777  0.73031392  0.86231006  1
  O2-  O160  1  0.02864005  0.26660517  0.11383304  1
  O2-  O161  1  -0.02674389  0.27371955  0.61731178  1
  O2-  O162  1  -0.01567225  0.76315950  0.11534933  1
  O2-  O163  1  -0.00344611  0.76571250  0.62663753  1
  O2-  O164  1  0.51045805  0.24495785  0.12920719  1
  O2-  O165  1  0.50869875  0.25146742  0.62537427  1
  O2-  O166  1  0.49113514  0.75372839  0.12239661  1
  O2-  O167  1  0.51011154  0.74281785  0.61248408  1
  O2-  O168  1  0.24105012  -0.02536417  0.37765141  1
  O2-  O169  1  0.23539260  -0.04016194  0.88375416  1
  O2-  O170  1  0.28971876  0.49321667  0.38558645  1
  O2-  O171  1  0.27495359  0.48159548  0.88308134  1
  O2-  O172  1  0.71678260  0.00194293  0.38216120  1
  O2-  O173  1  0.72559678  -0.00476855  0.88440338  1
  O2-  O174  1  0.76158647  0.50797854  0.37928538  1
  O2-  O175  1  0.77712625  0.51464993  0.87994533  1
  O2-  O176  1  0.00161837  0.22391994  0.38869499  1
  O2-  O177  1  -0.01885579  0.22654985  0.88414044  1
  O2-  O178  1  0.01086666  0.73729191  0.38608042  1
  O2-  O179  1  0.01070931  0.73987049  0.86824981  1
  O2-  O180  1  0.49459844  0.24724196  0.38010980  1
  O2-  O181  1  0.49940596  0.24903127  0.87354358  1
  O2-  O182  1  0.51857190  0.73704678  0.38884173  1
  O2-  O183  1  0.51684985  0.75172305  0.88154887  1
  O2-  O184  1  0.26091355  0.02414808  0.13404031  1
  O2-  O185  1  0.27174177  0.01476700  0.61083525  1
  O2-  O186  1  0.22485010  0.51868826  0.11972972  1
  O2-  O187  1  0.23941525  0.53052166  0.60826293  1
  O2-  O188  1  0.78210623  0.00244459  0.11782228  1
  O2-  O189  1  0.75784865  -0.02331907  0.60691864  1
  O2-  O190  1  0.72565806  0.48480420  0.13533149  1
  O2-  O191  1  0.72171919  0.48470839  0.61076570  1
  O2-  O192  1  0.13769012  0.26306216  0.27450384  1
  O2-  O193  1  0.13298107  0.27539212  0.75412555  1
  O2-  O194  1  0.13492328  0.78327346  0.24572877  1
  O2-  O195  1  0.12238991  0.76730534  0.74204616  1
  O2-  O196  1  0.61761185  0.26948346  0.26414426  1
  O2-  O197  1  0.62076397  0.27033762  0.75152986  1
  O2-  O198  1  0.63675115  0.77521730  0.25616007  1
  O2-  O199  1  0.63566696  0.78244700  0.73799277  1
  O2-  O200  1  0.38342842  0.22759817  0.24579462  1
  O2-  O201  1  0.38240166  0.22930286  0.74494157  1
  O2-  O202  1  0.36407585  0.73496801  0.27337060  1
  O2-  O203  1  0.36561800  0.71833579  0.74905604  1
  O2-  O204  1  0.86134105  0.22712657  0.24830885  1
  O2-  O205  1  0.86321971  0.21123195  0.74300103  1
  O2-  O206  1  0.86596542  0.71418603  0.26146204  1
  O2-  O207  1  0.88026709  0.73287390  0.74849482  1
  O2-  O208  1  0.27446916  0.36512913  0.23101436  1
  O2-  O209  1  0.26853253  0.36552437  0.71786907  1
  O2-  O210  1  0.27429438  0.88294024  0.23875502  1
  O2-  O211  1  0.26320397  0.86138496  0.71388603  1
  O2-  O212  1  0.75557429  0.37535863  0.27371441  1
  O2-  O213  1  0.77151330  0.36284709  0.74314201  1
  O2-  O214  1  0.78279295  0.86620680  0.26322101  1
  O2-  O215  1  0.78232951  0.86454029  0.75278510  1
  O2-  O216  1  0.24249118  0.11924654  0.27668302  1
  O2-  O217  1  0.23106714  0.13205415  0.77884726  1
  O2-  O218  1  0.22023422  0.63565091  0.27864497  1
  O2-  O219  1  0.22250172  0.63537422  0.76443359  1
  O2-  O220  1  0.71611398  0.13852425  0.24361997  1
  O2-  O221  1  0.71515706  0.13202757  0.74299352  1
  O2-  O222  1  0.72232402  0.61649450  0.24860399  1
  O2-  O223  1  0.74182396  0.63860978  0.71580672  1
  O2-  O224  1  0.11669484  0.47097610  0.26990852  1
  O2-  O225  1  0.11761049  0.48445045  0.77168016  1
  O2-  O226  1  0.13317264  0.98543787  0.24187957  1
  O2-  O227  1  0.11374643  0.97577886  0.72788476  1
  O2-  O228  1  0.62378592  0.48061591  0.27665670  1
  O2-  O229  1  0.61514767  0.46335247  0.76159767  1
  O2-  O230  1  0.61136866  0.98303950  0.22977568  1
  O2-  O231  1  0.61156390  0.98829672  0.71562394  1
  O2-  O232  1  0.37344279  0.01913556  0.27250546  1
  O2-  O233  1  0.38603957  0.02989454  0.75984107  1
  O2-  O234  1  0.38787616  0.51789277  0.23179337  1
  O2-  O235  1  0.39246504  0.51362137  0.71555873  1
  O2-  O236  1  0.88508125  0.02558264  0.27014194  1
  O2-  O237  1  0.88662901  0.01490841  0.78772330  1
  O2-  O238  1  0.86198031  0.51328827  0.23729122  1
  O2-  O239  1  0.88387286  0.51689021  0.71521509  1
  O2-  O240  1  0.48106460  0.36956480  0.25360545  1
  O2-  O241  1  0.47827320  0.36900053  0.75076451  1
  O2-  O242  1  0.47636459  0.88611061  0.25822447  1
  O2-  O243  1  0.46821383  0.88523615  0.74627550  1
  O2-  O244  1  0.97045522  0.38209726  0.26877394  1
  O2-  O245  1  0.97167012  0.38312670  0.76368192  1
  O2-  O246  1  0.98668611  0.88588431  0.26332314  1
  O2-  O247  1  0.98423971  0.87217273  0.76270712  1
  O2-  O248  1  0.02411872  0.11679111  0.22664029  1
  O2-  O249  1  0.02573115  0.11492228  0.73911164  1
  O2-  O250  1  0.01923240  0.61406588  0.22986702  1
  O2-  O251  1  0.01396278  0.63159639  0.73624410  1
  O2-  O252  1  0.51836584  0.12807962  0.25612712  1
  O2-  O253  1  0.52039585  0.12956452  0.74796516  1
  O2-  O254  1  0.52553709  0.61497615  0.25267074  1
  O2-  O255  1  0.53950090  0.61377028  0.74650265  1
  O2-  O256  1  0.13069808  0.47790179  -0.01793026  1
  O2-  O257  1  0.13743848  0.48922833  0.46803325  1
  O2-  O258  1  0.12279773  0.98277941  0.01891943  1
  O2-  O259  1  0.13503892  0.97497036  0.51874223  1
  O2-  O260  1  0.63609588  0.47287931  -0.02018978  1
  O2-  O261  1  0.62281872  0.48905439  0.47392077  1
  O2-  O262  1  0.63356001  0.97659068  0.03271613  1
  O2-  O263  1  0.61606155  0.97960352  0.51018285  1
  O2-  O264  1  0.36322891  0.01590147  -0.02549343  1
  O2-  O265  1  0.37909181  0.00818143  0.47783061  1
  O2-  O266  1  0.36731469  0.52210587  0.02343414  1
  O2-  O267  1  0.38556972  0.51322497  0.51819732  1
  O2-  O268  1  0.88434954  0.01695840  -0.01448163  1
  O2-  O269  1  0.86177000  0.02169089  0.47317828  1
  O2-  O270  1  0.86216955  0.52468310  0.03479993  1
  O2-  O271  1  0.86082869  0.51199885  0.51718352  1
  O2-  O272  1  0.46957403  0.36220226  0.00346219  1
  O2-  O273  1  0.48805189  0.37072481  0.49670715  1
  O2-  O274  1  0.47174979  0.86962708  0.00077096  1
  O2-  O275  1  0.48465266  0.87318303  0.49518095  1
  O2-  O276  1  0.96949924  0.36879208  -0.01470398  1
  O2-  O277  1  0.97432669  0.36661703  0.47637477  1
  O2-  O278  1  0.98042939  0.87893205  -0.01196063  1
  O2-  O279  1  0.97543527  0.86731111  0.49427328  1
  O2-  O280  1  0.01798186  0.11684187  0.01412096  1
  O2-  O281  1  0.01785548  0.13618121  0.53438813  1
  O2-  O282  1  0.03004085  0.63676972  0.01075595  1
  O2-  O283  1  0.01829656  0.63608546  0.52167418  1
  O2-  O284  1  0.53769732  0.13279139  -0.00125558  1
  O2-  O285  1  0.51999800  0.12298661  0.49889981  1
  O2-  O286  1  0.52446340  0.63231858  0.00826815  1
  O2-  O287  1  0.51618637  0.61997448  0.50150366  1
  O2-  O288  1  0.11638093  0.26219616  -0.02604389  1
  O2-  O289  1  0.11674620  0.28271253  0.51069971  1
  O2-  O290  1  0.11480295  0.78476707  -0.00032737  1
  O2-  O291  1  0.12626197  0.76931595  0.50360875  1
  O2-  O292  1  0.61686952  0.27932689  -0.00236809  1
  O2-  O293  1  0.62310238  0.25863220  0.49765860  1
  O2-  O294  1  0.61895972  0.77875175  0.00835662  1
  O2-  O295  1  0.63137181  0.76994313  0.50194532  1
  O2-  O296  1  0.38739594  0.21266780  0.00350348  1
  O2-  O297  1  0.38793409  0.22598088  0.51216104  1
  O2-  O298  1  0.38156190  0.72660084  -0.01157391  1
  O2-  O299  1  0.37856405  0.73411252  0.49450099  1
  O2-  O300  1  0.88565704  0.22308640  0.02377112  1
  O2-  O301  1  0.86347327  0.22561444  0.49885992  1
  O2-  O302  1  0.88648370  0.73124451  -0.02080278  1
  O2-  O303  1  0.87456050  0.72802512  0.49499468  1
  O2-  O304  1  0.26319954  0.38193263  0.02589113  1
  O2-  O305  1  0.26743118  0.38601421  0.52321217  1
  O2-  O306  1  0.26372240  0.88728676  0.03876209  1
  O2-  O307  1  0.27202086  0.86890705  0.51287126  1
  O2-  O308  1  0.77905462  0.38561420  -0.00416966  1
  O2-  O309  1  0.75780469  0.37009551  0.49078049  1
  O2-  O310  1  0.77850136  0.88214875  -0.00460935  1
  O2-  O311  1  0.76582472  0.87095589  0.47476770  1
  O2-  O312  1  0.22394643  0.11048309  -0.01515301  1
  O2-  O313  1  0.22882866  0.11240020  0.47553319  1
  O2-  O314  1  0.22933354  0.61847551  -0.02432981  1
  O2-  O315  1  0.24439475  0.63413848  0.47130030  1
  O2-  O316  1  0.73395311  0.11578801  -0.00140267  1
  O2-  O317  1  0.72509973  0.12163030  0.50873170  1
  O2-  O318  1  0.71701709  0.61511605  0.01073191  1
  O2-  O319  1  0.72944626  0.62442361  0.50781408  1
