# generated using pymatgen
data_Sr64Ca21Nb43O192
_symmetry_space_group_name_H-M   'P 1'
_cell_length_a   16.62945757
_cell_length_b   16.59585798
_cell_length_c   16.73228407
_cell_angle_alpha   90.03724833
_cell_angle_beta   89.96277204
_cell_angle_gamma   90.09777221
_symmetry_Int_Tables_number   1
_chemical_formula_structural   Sr64Ca21Nb43O192
_chemical_formula_sum   'Sr64 Ca21 Nb43 O192'
_cell_volume   4617.76902872
_cell_formula_units_Z   1
loop_
 _symmetry_equiv_pos_site_id
 _symmetry_equiv_pos_as_xyz
  1  'x, y, z'
loop_
 _atom_type_symbol
 _atom_type_oxidation_number
  Sr2+  2.0
  Ca2+  2.0
  Nb5+  5.0
  O2-  -2.0
loop_
 _atom_site_type_symbol
 _atom_site_label
 _atom_site_symmetry_multiplicity
 _atom_site_fract_x
 _atom_site_fract_y
 _atom_site_fract_z
 _atom_site_occupancy
  Sr2+  Sr0  1  0.12097413  0.12143825  0.12038455  1
  Sr2+  Sr1  1  0.12104262  0.12671807  0.62370331  1
  Sr2+  Sr2  1  0.11273855  0.61485193  0.13136714  1
  Sr2+  Sr3  1  0.11808984  0.61061098  0.62644771  1
  Sr2+  Sr4  1  0.62747151  0.13225203  0.12465734  1
  Sr2+  Sr5  1  0.63396681  0.13429068  0.63089324  1
  Sr2+  Sr6  1  0.63446007  0.62944162  0.12190770  1
  Sr2+  Sr7  1  0.63026804  0.62934141  0.61064409  1
  Sr2+  Sr8  1  0.37332045  0.36855169  0.13024312  1
  Sr2+  Sr9  1  0.38506537  0.37130807  0.62589758  1
  Sr2+  Sr10  1  0.37287731  0.88521211  0.13022081  1
  Sr2+  Sr11  1  0.37735969  0.87880276  0.62138227  1
  Sr2+  Sr12  1  0.88470553  0.35507221  0.12875786  1
  Sr2+  Sr13  1  0.88328958  0.36714967  0.62387468  1
  Sr2+  Sr14  1  0.87996568  0.86840855  0.12274519  1
  Sr2+  Sr15  1  0.88076787  0.88333620  0.62751036  1
  Sr2+  Sr16  1  0.12783566  0.37515435  0.38124369  1
  Sr2+  Sr17  1  0.13249417  0.37172818  0.87701376  1
  Sr2+  Sr18  1  0.13022076  0.87053122  0.37973398  1
  Sr2+  Sr19  1  0.13154648  0.86407354  0.87258099  1
  Sr2+  Sr20  1  0.63201740  0.37950647  0.37373056  1
  Sr2+  Sr21  1  0.62561610  0.38557832  0.87781776  1
  Sr2+  Sr22  1  0.60917604  0.86068519  0.37849552  1
  Sr2+  Sr23  1  0.61366804  0.86799245  0.87423356  1
  Sr2+  Sr24  1  0.37521067  0.12593564  0.37545157  1
  Sr2+  Sr25  1  0.38077009  0.12606021  0.87054690  1
  Sr2+  Sr26  1  0.39880333  0.62116848  0.37404598  1
  Sr2+  Sr27  1  0.38256310  0.62142692  0.87592400  1
  Sr2+  Sr28  1  0.85987505  0.12019959  0.37750811  1
  Sr2+  Sr29  1  0.86402807  0.11937903  0.87260804  1
  Sr2+  Sr30  1  0.85091538  0.63068279  0.37451427  1
  Sr2+  Sr31  1  0.85763186  0.62860517  0.87790364  1
  Sr2+  Sr32  1  0.12451090  0.11478429  0.38017281  1
  Sr2+  Sr33  1  0.12488977  0.12135234  0.87322157  1
  Sr2+  Sr34  1  0.12498165  0.61916118  0.37554204  1
  Sr2+  Sr35  1  0.12695533  0.61979079  0.86531460  1
  Sr2+  Sr36  1  0.61760998  0.12323227  0.38202103  1
  Sr2+  Sr37  1  0.61414807  0.11290013  0.87085095  1
  Sr2+  Sr38  1  0.62018105  0.62099727  0.37076814  1
  Sr2+  Sr39  1  0.62497638  0.61627066  0.87533632  1
  Sr2+  Sr40  1  0.37088817  0.38046897  0.37418626  1
  Sr2+  Sr41  1  0.36832013  0.40079400  0.87568330  1
  Sr2+  Sr42  1  0.37033830  0.85086958  0.37485227  1
  Sr2+  Sr43  1  0.37312271  0.87715744  0.87765569  1
  Sr2+  Sr44  1  0.86166709  0.38195475  0.37162889  1
  Sr2+  Sr45  1  0.86738674  0.38022168  0.86373815  1
  Sr2+  Sr46  1  0.87647581  0.86875144  0.38112253  1
  Sr2+  Sr47  1  0.87122005  0.86372788  0.87720985  1
  Sr2+  Sr48  1  0.13287508  0.36683287  0.12564122  1
  Sr2+  Sr49  1  0.12823123  0.36987005  0.62288133  1
  Sr2+  Sr50  1  0.12672079  0.87709079  0.13267537  1
  Sr2+  Sr51  1  0.12944591  0.87659070  0.62950121  1
  Sr2+  Sr52  1  0.64982422  0.36823567  0.12627834  1
  Sr2+  Sr53  1  0.63443360  0.38813104  0.62718654  1
  Sr2+  Sr54  1  0.62459148  0.88108476  0.12041572  1
  Sr2+  Sr55  1  0.63947053  0.88409746  0.62144463  1
  Sr2+  Sr56  1  0.38425540  0.13097348  0.12353833  1
  Sr2+  Sr57  1  0.40006129  0.12998335  0.62580447  1
  Sr2+  Sr58  1  0.38041343  0.60336147  0.13035077  1
  Sr2+  Sr59  1  0.39627467  0.62374388  0.63322328  1
  Sr2+  Sr60  1  0.86029404  0.12508920  0.12792365  1
  Sr2+  Sr61  1  0.87092816  0.12829320  0.62276963  1
  Sr2+  Sr62  1  0.87592605  0.62409212  0.12765856  1
  Sr2+  Sr63  1  0.87519973  0.61568167  0.62894213  1
  Ca2+  Ca64  1  0.50142217  0.49794571  0.00319926  1
  Ca2+  Ca65  1  0.00074862  0.49699811  -0.00350689  1
  Ca2+  Ca66  1  0.50015481  -0.00064867  0.49783679  1
  Ca2+  Ca67  1  0.49902097  0.49339485  0.49732672  1
  Ca2+  Ca68  1  -0.00292598  0.49957909  0.49622849  1
  Ca2+  Ca69  1  0.75375888  0.25396292  0.50160212  1
  Ca2+  Ca70  1  0.24748651  0.74816467  0.50353249  1
  Ca2+  Ca71  1  0.24805840  0.75029694  0.00302818  1
  Ca2+  Ca72  1  0.75180877  0.24824031  -0.00467808  1
  Ca2+  Ca73  1  0.74986249  0.75302849  0.49956231  1
  Ca2+  Ca74  1  0.75163264  0.50349021  0.75020799  1
  Ca2+  Ca75  1  0.50469482  0.75047756  0.75008636  1
  Ca2+  Ca76  1  0.49967798  0.25370328  0.75491706  1
  Ca2+  Ca77  1  0.49880942  0.24974484  0.25138310  1
  Ca2+  Ca78  1  0.25093648  0.00355478  0.75158825  1
  Ca2+  Ca79  1  0.75247516  0.00100583  0.75323916  1
  Ca2+  Ca80  1  0.75369083  0.50052864  0.24599174  1
  Ca2+  Ca81  1  0.74940261  -0.00247205  0.25180960  1
  Ca2+  Ca82  1  0.25000055  0.50224327  0.74590090  1
  Ca2+  Ca83  1  0.49676194  0.75025520  0.24189136  1
  Ca2+  Ca84  1  0.00210897  0.24446067  0.25280706  1
  Nb5+  Nb85  1  -0.00539929  0.00063719  0.00535726  1
  Nb5+  Nb86  1  0.49367904  0.00038024  0.00117213  1
  Nb5+  Nb87  1  0.00075798  -0.00074337  0.50716515  1
  Nb5+  Nb88  1  0.24816617  0.24500272  0.49591224  1
  Nb5+  Nb89  1  0.25276097  0.24572034  -0.00574332  1
  Nb5+  Nb90  1  0.74707976  0.75301512  0.00063892  1
  Nb5+  Nb91  1  0.00015013  0.74505153  0.75494745  1
  Nb5+  Nb92  1  0.00193762  0.74921992  0.25730344  1
  Nb5+  Nb93  1  0.24927541  -0.00329433  0.25291331  1
  Nb5+  Nb94  1  0.00208017  0.24213013  0.75196460  1
  Nb5+  Nb95  1  0.24839518  0.49259191  0.25064505  1
  Nb5+  Nb96  1  0.00026438  -0.00016036  0.25611147  1
  Nb5+  Nb97  1  -0.00237304  -0.00521127  0.76000430  1
  Nb5+  Nb98  1  -0.00285465  0.49599393  0.25162324  1
  Nb5+  Nb99  1  0.00083164  0.48926247  0.74984711  1
  Nb5+  Nb100  1  0.50241254  -0.00145093  0.25169416  1
  Nb5+  Nb101  1  0.50292711  -0.00479539  0.74523845  1
  Nb5+  Nb102  1  0.50620342  0.49257074  0.24386281  1
  Nb5+  Nb103  1  0.50108302  0.50039249  0.74965241  1
  Nb5+  Nb104  1  0.24385699  0.24072192  0.24698502  1
  Nb5+  Nb105  1  0.25080358  0.24785679  0.74397116  1
  Nb5+  Nb106  1  0.24764125  0.73873883  0.24782579  1
  Nb5+  Nb107  1  0.25408174  0.75007443  0.75213324  1
  Nb5+  Nb108  1  0.74932279  0.24814262  0.25337130  1
  Nb5+  Nb109  1  0.74580408  0.25711454  0.75272376  1
  Nb5+  Nb110  1  0.74539343  0.75759286  0.24720936  1
  Nb5+  Nb111  1  0.75007986  0.75302649  0.74448743  1
  Nb5+  Nb112  1  0.00063711  0.24631723  0.49598450  1
  Nb5+  Nb113  1  -0.00101925  0.24692859  0.99678238  1
  Nb5+  Nb114  1  0.00099539  0.74916035  0.50774467  1
  Nb5+  Nb115  1  0.00329210  0.74828947  1.00244088  1
  Nb5+  Nb116  1  0.50794744  0.25230123  0.50212732  1
  Nb5+  Nb117  1  0.50152707  0.25446683  0.99746925  1
  Nb5+  Nb118  1  0.49623682  0.75022605  0.50249939  1
  Nb5+  Nb119  1  0.49508041  0.74889327  1.00047021  1
  Nb5+  Nb120  1  0.24495182  0.00195477  0.00013380  1
  Nb5+  Nb121  1  0.25077863  0.00173748  0.50222777  1
  Nb5+  Nb122  1  0.24414310  0.50495381  0.00386031  1
  Nb5+  Nb123  1  0.24949549  0.50007935  0.50303260  1
  Nb5+  Nb124  1  0.74214849  0.00001119  -0.00310425  1
  Nb5+  Nb125  1  0.74656573  -0.00120627  0.49606548  1
  Nb5+  Nb126  1  0.75726943  0.49563618  0.00481871  1
  Nb5+  Nb127  1  0.75110810  0.50282549  0.49890583  1
  O2-  O128  1  0.02113257  -0.00596094  0.11889959  1
  O2-  O129  1  0.01849327  -0.00629501  0.62350386  1
  O2-  O130  1  -0.00797241  0.51469187  0.13441577  1
  O2-  O131  1  -0.02347324  0.50223323  0.63245491  1
  O2-  O132  1  0.50803518  -0.02204062  0.11995925  1
  O2-  O133  1  0.51412002  -0.02991324  0.63328452  1
  O2-  O134  1  0.46909374  0.48238271  0.13190156  1
  O2-  O135  1  0.48933625  0.48045916  0.63181448  1
  O2-  O136  1  -0.01305771  0.00026845  0.37207145  1
  O2-  O137  1  -0.01731598  0.00672476  0.87508329  1
  O2-  O138  1  0.03340750  0.49714929  0.36301625  1
  O2-  O139  1  0.03505421  0.49363252  0.86242355  1
  O2-  O140  1  0.49066941  0.02714939  0.36274472  1
  O2-  O141  1  0.48681271  0.01952687  0.88386278  1
  O2-  O142  1  0.51172450  0.51337849  0.36136284  1
  O2-  O143  1  0.50542850  0.52411659  0.86947882  1
  O2-  O144  1  0.25296071  0.25694693  0.13023771  1
  O2-  O145  1  0.25148313  0.26393576  0.62777535  1
  O2-  O146  1  0.25824856  0.77695112  0.13838264  1
  O2-  O147  1  0.25744311  0.78233987  0.63722782  1
  O2-  O148  1  0.74902064  0.22836392  0.13116729  1
  O2-  O149  1  0.76267118  0.23000024  0.63629566  1
  O2-  O150  1  0.76990499  0.73426798  0.11963565  1
  O2-  O151  1  0.76669214  0.72705041  0.63448824  1
  O2-  O152  1  0.23498449  0.23303133  0.37942618  1
  O2-  O153  1  0.24131707  0.23014930  0.88055426  1
  O2-  O154  1  0.22019797  0.74792142  0.36173630  1
  O2-  O155  1  0.22178649  0.73584312  0.86848099  1
  O2-  O156  1  0.75261129  0.27848180  0.36829749  1
  O2-  O157  1  0.74799700  0.28875968  0.86787487  1
  O2-  O158  1  0.74171276  0.77893095  0.36164055  1
  O2-  O159  1  0.74461838  0.77492961  0.88343820  1
  O2-  O160  1  0.00732417  0.24912033  0.11356081  1
  O2-  O161  1  -0.00818166  0.24360130  0.63169616  1
  O2-  O162  1  -0.01447366  0.74633721  0.11955200  1
  O2-  O163  1  -0.01948669  0.75182713  0.62444499  1
  O2-  O164  1  0.47751918  0.25564556  0.11299950  1
  O2-  O165  1  0.48325431  0.25887145  0.61883103  1
  O2-  O166  1  0.48649457  0.78561589  0.11066802  1
  O2-  O167  1  0.46812666  0.76207362  0.61728300  1
  O2-  O168  1  0.25247322  0.02403879  0.36939188  1
  O2-  O169  1  0.26408816  0.02625063  0.88995913  1
  O2-  O170  1  0.22391476  0.50016849  0.36579436  1
  O2-  O171  1  0.23257873  0.50579691  0.88600275  1
  O2-  O172  1  0.78559192  -0.01385889  0.38444926  1
  O2-  O173  1  0.78323740  -0.01580438  0.88837450  1
  O2-  O174  1  0.74564243  0.48018332  0.37910189  1
  O2-  O175  1  0.74726872  0.48567690  0.88666059  1
  O2-  O176  1  0.02424818  0.24060401  0.38572121  1
  O2-  O177  1  0.02033649  0.24291845  0.87486120  1
  O2-  O178  1  0.01729475  0.76045937  0.37082061  1
  O2-  O179  1  0.01093680  0.75504691  0.87214356  1
  O2-  O180  1  0.49944577  0.22269258  0.38757576  1
  O2-  O181  1  0.50386538  0.21599553  0.88664114  1
  O2-  O182  1  0.52067208  0.73571915  0.37856226  1
  O2-  O183  1  0.53365897  0.73662072  0.88785326  1
  O2-  O184  1  0.23219880  -0.00671617  0.13043267  1
  O2-  O185  1  0.23123569  -0.01165025  0.61442425  1
  O2-  O186  1  0.26655632  0.48438142  0.12613412  1
  O2-  O187  1  0.27522975  0.47963590  0.61170805  1
  O2-  O188  1  0.73791439  0.02107028  0.11360283  1
  O2-  O189  1  0.73367776  0.01949937  0.61571707  1
  O2-  O190  1  0.75397713  0.53501688  0.11634782  1
  O2-  O191  1  0.74822898  0.52876217  0.61719359  1
  O2-  O192  1  0.13533873  0.28326718  0.25339516  1
  O2-  O193  1  0.11796270  0.27554258  0.74512747  1
  O2-  O194  1  0.11903371  0.76398556  0.22944893  1
  O2-  O195  1  0.11155534  0.77811932  0.73859068  1
  O2-  O196  1  0.63199428  0.27587196  0.24603392  1
  O2-  O197  1  0.63383049  0.27652994  0.73828636  1
  O2-  O198  1  0.63334988  0.76973553  0.22532223  1
  O2-  O199  1  0.63884027  0.78138665  0.73449703  1
  O2-  O200  1  0.35867981  0.23192652  0.26412529  1
  O2-  O201  1  0.36159413  0.22029809  0.75084614  1
  O2-  O202  1  0.36093486  0.72893058  0.26746832  1
  O2-  O203  1  0.36535444  0.72701612  0.76596003  1
  O2-  O204  1  0.86870061  0.21965064  0.25175890  1
  O2-  O205  1  0.88549524  0.23594281  0.76909166  1
  O2-  O206  1  0.88338715  0.73761084  0.25890884  1
  O2-  O207  1  0.88137536  0.73453883  0.76541667  1
  O2-  O208  1  0.26755721  0.37746051  0.25664820  1
  O2-  O209  1  0.25734879  0.36208139  0.77456039  1
  O2-  O210  1  0.26452270  0.88329142  0.26483952  1
  O2-  O211  1  0.25798558  0.86927228  0.77967971  1
  O2-  O212  1  0.77805949  0.36642113  0.22728909  1
  O2-  O213  1  0.78178195  0.37016783  0.72914599  1
  O2-  O214  1  0.77545451  0.86790373  0.22229845  1
  O2-  O215  1  0.78414409  0.86678757  0.74073180  1
  O2-  O216  1  0.21864010  0.12768269  0.24113610  1
  O2-  O217  1  0.21071694  0.13757742  0.74512974  1
  O2-  O218  1  0.22735803  0.62519456  0.23275556  1
  O2-  O219  1  0.21829904  0.63838177  0.73129486  1
  O2-  O220  1  0.72428841  0.13182359  0.27514489  1
  O2-  O221  1  0.73869814  0.13988833  0.77873358  1
  O2-  O222  1  0.73759810  0.63889047  0.26404706  1
  O2-  O223  1  0.73863732  0.64049203  0.77984165  1
  O2-  O224  1  0.12920156  0.48852118  0.22430474  1
  O2-  O225  1  0.11611919  0.48890444  0.71669259  1
  O2-  O226  1  0.12573634  0.97591550  0.26200457  1
  O2-  O227  1  0.11351080  0.98457441  0.76686020  1
  O2-  O228  1  0.61778545  0.47099211  0.23289863  1
  O2-  O229  1  0.61767345  0.47131149  0.75352284  1
  O2-  O230  1  0.61278083  0.96727868  0.26004470  1
  O2-  O231  1  0.61870264  0.98255684  0.77603693  1
  O2-  O232  1  0.36241997  0.02488407  0.23509374  1
  O2-  O233  1  0.38549629  0.02149055  0.73827345  1
  O2-  O234  1  0.36087536  0.52458493  0.26120321  1
  O2-  O235  1  0.38133833  0.53169175  0.75837236  1
  O2-  O236  1  0.88977679  0.01607533  0.22967656  1
  O2-  O237  1  0.88866746  0.02647075  0.73044335  1
  O2-  O238  1  0.88823027  0.52626784  0.27108626  1
  O2-  O239  1  0.88961248  0.52198360  0.77379917  1
  O2-  O240  1  0.46628884  0.38259904  0.26218545  1
  O2-  O241  1  0.46709620  0.38492613  0.76781799  1
  O2-  O242  1  0.46006855  0.88800421  0.25933429  1
  O2-  O243  1  0.48023610  0.88305703  0.77774502  1
  O2-  O244  1  0.97630951  0.38259200  0.24887393  1
  O2-  O245  1  0.98103866  0.37341954  0.75110804  1
  O2-  O246  1  0.98949367  0.87423689  0.24272530  1
  O2-  O247  1  0.97682605  0.87939731  0.75359321  1
  O2-  O248  1  0.03235870  0.11019902  0.24653380  1
  O2-  O249  1  0.02142739  0.12618384  0.75149880  1
  O2-  O250  1  0.02137156  0.63271548  0.25451705  1
  O2-  O251  1  0.02041055  0.63170673  0.74704581  1
  O2-  O252  1  0.51098409  0.11232264  0.21970060  1
  O2-  O253  1  0.52499765  0.11462759  0.73519736  1
  O2-  O254  1  0.51154955  0.61347520  0.22527895  1
  O2-  O255  1  0.52683520  0.61743267  0.72327230  1
  O2-  O256  1  0.13404233  0.46427411  0.01646984  1
  O2-  O257  1  0.13400414  0.47009661  0.51006377  1
  O2-  O258  1  0.12940078  0.98685035  -0.01433187  1
  O2-  O259  1  0.12027679  0.98577583  0.48081535  1
  O2-  O260  1  0.63635639  0.48312060  0.00837997  1
  O2-  O261  1  0.63335252  0.47297774  0.50364228  1
  O2-  O262  1  0.62774230  0.97943848  -0.01521142  1
  O2-  O263  1  0.63573410  0.97566262  0.47365016  1
  O2-  O264  1  0.37808389  0.01405221  0.01969374  1
  O2-  O265  1  0.36285469  0.02655596  0.51203366  1
  O2-  O266  1  0.36210741  0.51503601  -0.01173118  1
  O2-  O267  1  0.35960677  0.50610155  0.46422765  1
  O2-  O268  1  0.88248238  0.01872973  0.01948016  1
  O2-  O269  1  0.88511703  0.02195455  0.51548943  1
  O2-  O270  1  0.86951892  0.53343635  -0.00701038  1
  O2-  O271  1  0.86706949  0.53725236  0.48937116  1
  O2-  O272  1  0.47892503  0.36314439  -0.02815059  1
  O2-  O273  1  0.46225251  0.35950737  0.48773847  1
  O2-  O274  1  0.49327507  0.88121761  -0.02255046  1
  O2-  O275  1  0.47617501  0.86767984  0.47864341  1
  O2-  O276  1  0.97312282  0.35936496  -0.01114727  1
  O2-  O277  1  0.98186819  0.36060767  0.49897390  1
  O2-  O278  1  0.98152175  0.88320484  -0.00781050  1
  O2-  O279  1  0.97875083  0.88186972  0.49908342  1
  O2-  O280  1  0.02707051  0.11691171  -0.00397896  1
  O2-  O281  1  0.02360443  0.11890474  0.50487035  1
  O2-  O282  1  0.02817925  0.63737278  -0.00696170  1
  O2-  O283  1  0.02950867  0.63793642  0.50072267  1
  O2-  O284  1  0.52055671  0.11547419  0.01880498  1
  O2-  O285  1  0.52571373  0.13227563  0.52465066  1
  O2-  O286  1  0.50896845  0.63730038  0.02868551  1
  O2-  O287  1  0.51179831  0.63052916  0.51475820  1
  O2-  O288  1  0.13049611  0.25902998  0.00321366  1
  O2-  O289  1  0.12426046  0.25763872  0.52117253  1
  O2-  O290  1  0.11197149  0.78595782  0.00980127  1
  O2-  O291  1  0.11207390  0.78624445  0.51039678  1
  O2-  O292  1  0.61533090  0.26923278  0.01101585  1
  O2-  O293  1  0.61787708  0.28290168  0.50495549  1
  O2-  O294  1  0.63264212  0.76686880  0.02102462  1
  O2-  O295  1  0.61430448  0.77394501  0.52145709  1
  O2-  O296  1  0.36937165  0.22225204  -0.00562254  1
  O2-  O297  1  0.35995941  0.21858878  0.50158397  1
  O2-  O298  1  0.38398142  0.74351311  -0.02863031  1
  O2-  O299  1  0.37836121  0.73064639  0.47548327  1
  O2-  O300  1  0.88840907  0.21241619  -0.00456674  1
  O2-  O301  1  0.88870543  0.21796675  0.49435293  1
  O2-  O302  1  0.87923479  0.74517926  -0.01378869  1
  O2-  O303  1  0.88832029  0.74198304  0.47470150  1
  O2-  O304  1  0.26942530  0.36213874  -0.00564555  1
  O2-  O305  1  0.25797919  0.36223371  0.48208695  1
  O2-  O306  1  0.27067702  0.88957249  -0.00474148  1
  O2-  O307  1  0.26343495  0.88939484  0.47694573  1
  O2-  O308  1  0.77866808  0.38446594  0.02785756  1
  O2-  O309  1  0.78474631  0.38815997  0.51687744  1
  O2-  O310  1  0.76532357  0.87661322  0.01981320  1
  O2-  O311  1  0.77427178  0.88593157  0.52475674  1
  O2-  O312  1  0.23850332  0.12463241  0.02525004  1
  O2-  O313  1  0.21883693  0.12361331  0.50614412  1
  O2-  O314  1  0.22301134  0.61545596  0.02384890  1
  O2-  O315  1  0.22308658  0.61207134  0.50914519  1
  O2-  O316  1  0.73182429  0.11451274  -0.02534710  1
  O2-  O317  1  0.73596553  0.11773228  0.47853388  1
  O2-  O318  1  0.73367448  0.63700736  -0.01807107  1
  O2-  O319  1  0.72204613  0.62121504  0.47493000  1
