# generated using pymatgen
data_Sr64Ca21Nb43O192
_symmetry_space_group_name_H-M   'P 1'
_cell_length_a   16.52001106
_cell_length_b   16.52851098
_cell_length_c   16.67775829
_cell_angle_alpha   89.96010526
_cell_angle_beta   90.02956549
_cell_angle_gamma   90.02053000
_symmetry_Int_Tables_number   1
_chemical_formula_structural   Sr64Ca21Nb43O192
_chemical_formula_sum   'Sr64 Ca21 Nb43 O192'
_cell_volume   4553.87965050
_cell_formula_units_Z   1
loop_
 _symmetry_equiv_pos_site_id
 _symmetry_equiv_pos_as_xyz
  1  'x, y, z'
loop_
 _atom_type_symbol
 _atom_type_oxidation_number
  Sr2+  2.0
  Ca2+  2.0
  Nb5+  5.0
  O2-  -2.0
loop_
 _atom_site_type_symbol
 _atom_site_label
 _atom_site_symmetry_multiplicity
 _atom_site_fract_x
 _atom_site_fract_y
 _atom_site_fract_z
 _atom_site_occupancy
  Sr2+  Sr0  1  0.12504902  0.12167640  0.11910449  1
  Sr2+  Sr1  1  0.12365073  0.13471835  0.63260264  1
  Sr2+  Sr2  1  0.11581662  0.62690844  0.13018314  1
  Sr2+  Sr3  1  0.12513506  0.61953893  0.62212290  1
  Sr2+  Sr4  1  0.61500073  0.12407221  0.12820738  1
  Sr2+  Sr5  1  0.61951105  0.12285463  0.63214230  1
  Sr2+  Sr6  1  0.62154397  0.61888477  0.11798336  1
  Sr2+  Sr7  1  0.62029898  0.61597461  0.62467723  1
  Sr2+  Sr8  1  0.36625082  0.37597176  0.12372804  1
  Sr2+  Sr9  1  0.36909440  0.38877663  0.63021147  1
  Sr2+  Sr10  1  0.37026082  0.86486708  0.12430519  1
  Sr2+  Sr11  1  0.36958072  0.87032079  0.62327206  1
  Sr2+  Sr12  1  0.85962934  0.37860718  0.12381470  1
  Sr2+  Sr13  1  0.87105825  0.36952013  0.61604261  1
  Sr2+  Sr14  1  0.87678773  0.86644301  0.12309557  1
  Sr2+  Sr15  1  0.86938261  0.88116210  0.63293813  1
  Sr2+  Sr16  1  0.10770163  0.37188993  0.37644769  1
  Sr2+  Sr17  1  0.13389025  0.37530291  0.87383098  1
  Sr2+  Sr18  1  0.13562700  0.87738378  0.37274656  1
  Sr2+  Sr19  1  0.12196217  0.87956644  0.87312855  1
  Sr2+  Sr20  1  0.64898788  0.37249008  0.37304475  1
  Sr2+  Sr21  1  0.63290292  0.37046268  0.87492723  1
  Sr2+  Sr22  1  0.62668082  0.88784477  0.38198586  1
  Sr2+  Sr23  1  0.63217469  0.87705036  0.88353809  1
  Sr2+  Sr24  1  0.38177697  0.12675677  0.37339998  1
  Sr2+  Sr25  1  0.38026575  0.13507580  0.87754376  1
  Sr2+  Sr26  1  0.37947338  0.62863409  0.37654491  1
  Sr2+  Sr27  1  0.38027260  0.62358684  0.88057677  1
  Sr2+  Sr28  1  0.87976572  0.14027876  0.37761332  1
  Sr2+  Sr29  1  0.90154045  0.12612106  0.87408001  1
  Sr2+  Sr30  1  0.88249031  0.62461134  0.36896884  1
  Sr2+  Sr31  1  0.87258452  0.62724325  0.87745846  1
  Sr2+  Sr32  1  0.13303509  0.11813660  0.37000650  1
  Sr2+  Sr33  1  0.12681974  0.13120468  0.87734487  1
  Sr2+  Sr34  1  0.13029650  0.62701210  0.37265804  1
  Sr2+  Sr35  1  0.12241612  0.61964362  0.86616077  1
  Sr2+  Sr36  1  0.62944897  0.13432551  0.37475841  1
  Sr2+  Sr37  1  0.62422404  0.12338471  0.87245279  1
  Sr2+  Sr38  1  0.63859892  0.62787978  0.37817994  1
  Sr2+  Sr39  1  0.63346278  0.63628993  0.88033996  1
  Sr2+  Sr40  1  0.38109519  0.38162603  0.36910722  1
  Sr2+  Sr41  1  0.37207937  0.37512346  0.87942033  1
  Sr2+  Sr42  1  0.37807551  0.88414268  0.37578886  1
  Sr2+  Sr43  1  0.38373585  0.87371991  0.87532272  1
  Sr2+  Sr44  1  0.87674003  0.37407294  0.37699788  1
  Sr2+  Sr45  1  0.88944333  0.38209846  0.87644136  1
  Sr2+  Sr46  1  0.87975597  0.87486970  0.37232765  1
  Sr2+  Sr47  1  0.87447840  0.88694227  0.87437539  1
  Sr2+  Sr48  1  0.12635482  0.37098981  0.11406051  1
  Sr2+  Sr49  1  0.11652672  0.37869855  0.62375578  1
  Sr2+  Sr50  1  0.11744502  0.87367885  0.13094744  1
  Sr2+  Sr51  1  0.12818917  0.85922402  0.62421129  1
  Sr2+  Sr52  1  0.62373810  0.37772673  0.12926224  1
  Sr2+  Sr53  1  0.62384894  0.37457033  0.62768477  1
  Sr2+  Sr54  1  0.61996563  0.86227018  0.12155950  1
  Sr2+  Sr55  1  0.63652384  0.87816331  0.62903391  1
  Sr2+  Sr56  1  0.36314171  0.12281856  0.12090684  1
  Sr2+  Sr57  1  0.37178711  0.12499845  0.63084790  1
  Sr2+  Sr58  1  0.36651236  0.60981101  0.13352647  1
  Sr2+  Sr59  1  0.37418990  0.62884500  0.61897195  1
  Sr2+  Sr60  1  0.88871852  0.11342432  0.11737516  1
  Sr2+  Sr61  1  0.86442163  0.12300844  0.63289304  1
  Sr2+  Sr62  1  0.85648688  0.62526694  0.12046177  1
  Sr2+  Sr63  1  0.89367208  0.62824053  0.63394305  1
  Ca2+  Ca64  1  0.49964906  -0.00008574  0.00224428  1
  Ca2+  Ca65  1  0.00373788  -0.00418350  -0.00038115  1
  Ca2+  Ca66  1  0.49742613  0.49767790  -0.00170843  1
  Ca2+  Ca67  1  0.00204912  -0.00111773  0.50281020  1
  Ca2+  Ca68  1  0.00085309  0.50107224  0.00520594  1
  Ca2+  Ca69  1  0.25041082  0.25062416  0.49563806  1
  Ca2+  Ca70  1  0.75388118  0.74853039  0.50130551  1
  Ca2+  Ca71  1  0.74763328  0.24880559  0.50272347  1
  Ca2+  Ca72  1  0.24703850  0.74867305  0.00322089  1
  Ca2+  Ca73  1  0.74837638  0.24743457  -0.00076725  1
  Ca2+  Ca74  1  0.50182362  0.74837853  0.74892107  1
  Ca2+  Ca75  1  0.50280175  0.74945851  0.25141992  1
  Ca2+  Ca76  1  0.24938623  0.50160586  0.74697511  1
  Ca2+  Ca77  1  0.75039882  0.50164655  0.25000821  1
  Ca2+  Ca78  1  0.74981107  0.50076852  0.75030988  1
  Ca2+  Ca79  1  0.24513118  0.49702272  0.25479851  1
  Ca2+  Ca80  1  0.75151604  0.00147630  0.24940756  1
  Ca2+  Ca81  1  0.00064270  0.25024307  0.24665979  1
  Ca2+  Ca82  1  -0.00118273  0.25726451  0.75024746  1
  Ca2+  Ca83  1  0.25270591  -0.00169025  0.74915174  1
  Ca2+  Ca84  1  0.00417562  0.75242732  0.74985743  1
  Nb5+  Nb85  1  0.00318011  0.50093182  0.49729181  1
  Nb5+  Nb86  1  0.50746463  0.49947421  0.49682899  1
  Nb5+  Nb87  1  0.49964428  0.00700834  0.50039209  1
  Nb5+  Nb88  1  0.25126914  0.74925819  0.49872434  1
  Nb5+  Nb89  1  0.25106698  0.24988410  -0.00094339  1
  Nb5+  Nb90  1  0.75096904  0.75203300  0.00021484  1
  Nb5+  Nb91  1  0.49632510  0.25182471  0.25510763  1
  Nb5+  Nb92  1  0.25353852  -0.00184208  0.24712539  1
  Nb5+  Nb93  1  0.49868551  0.25242375  0.75371214  1
  Nb5+  Nb94  1  0.00030717  0.74944041  0.25025601  1
  Nb5+  Nb95  1  0.74956735  0.00414704  0.75392037  1
  Nb5+  Nb96  1  -0.00042616  0.00196763  0.25730676  1
  Nb5+  Nb97  1  0.00808760  0.00041230  0.74312678  1
  Nb5+  Nb98  1  -0.00209335  0.49696272  0.24787864  1
  Nb5+  Nb99  1  -0.00101858  0.50095370  0.75239221  1
  Nb5+  Nb100  1  0.49944152  -0.00081940  0.24730498  1
  Nb5+  Nb101  1  0.49912024  -0.00214961  0.75139391  1
  Nb5+  Nb102  1  0.50397141  0.50296525  0.25186748  1
  Nb5+  Nb103  1  0.50014704  0.50046472  0.75200529  1
  Nb5+  Nb104  1  0.25115577  0.25041121  0.25121363  1
  Nb5+  Nb105  1  0.24967084  0.25303000  0.74679582  1
  Nb5+  Nb106  1  0.25035756  0.74810839  0.24808096  1
  Nb5+  Nb107  1  0.25548146  0.74818337  0.75790111  1
  Nb5+  Nb108  1  0.75555307  0.24371313  0.24500462  1
  Nb5+  Nb109  1  0.75236239  0.25294869  0.75553425  1
  Nb5+  Nb110  1  0.74882196  0.75534077  0.25306466  1
  Nb5+  Nb111  1  0.74742768  0.74803701  0.74749290  1
  Nb5+  Nb112  1  0.00431959  0.24447625  0.50164383  1
  Nb5+  Nb113  1  -0.00366961  0.25163944  1.00345049  1
  Nb5+  Nb114  1  -0.00235507  0.74942919  0.49859833  1
  Nb5+  Nb115  1  0.00322521  0.75050712  0.99565681  1
  Nb5+  Nb116  1  0.49395844  0.25594216  0.50430847  1
  Nb5+  Nb117  1  0.50103504  0.25259730  1.00784629  1
  Nb5+  Nb118  1  0.50216444  0.75783460  0.49848034  1
  Nb5+  Nb119  1  0.49362374  0.74385396  1.00473583  1
  Nb5+  Nb120  1  0.25073220  -0.00442206  -0.00646322  1
  Nb5+  Nb121  1  0.24817133  0.00041351  0.50213530  1
  Nb5+  Nb122  1  0.24389408  0.50563177  0.00106260  1
  Nb5+  Nb123  1  0.25588390  0.49884243  0.49522383  1
  Nb5+  Nb124  1  0.75035163  0.00294112  0.00604430  1
  Nb5+  Nb125  1  0.75352016  0.00533650  0.49678599  1
  Nb5+  Nb126  1  0.75019674  0.49477905  -0.00563520  1
  Nb5+  Nb127  1  0.75819549  0.50454389  0.50259467  1
  O2-  O128  1  -0.01558545  -0.00687682  0.13846391  1
  O2-  O129  1  -0.03654271  0.00927294  0.63311763  1
  O2-  O130  1  0.02963241  0.50019416  0.13859693  1
  O2-  O131  1  0.00753671  0.50860893  0.61593841  1
  O2-  O132  1  0.48248123  0.02814247  0.13655803  1
  O2-  O133  1  0.48222567  0.01676623  0.61789025  1
  O2-  O134  1  0.50157741  0.50842727  0.13604084  1
  O2-  O135  1  0.51314948  0.49901290  0.61577900  1
  O2-  O136  1  0.03366546  -0.00942905  0.36961869  1
  O2-  O137  1  0.02229892  -0.00229436  0.86333225  1
  O2-  O138  1  -0.02569254  0.49626643  0.38053990  1
  O2-  O139  1  -0.00148798  0.50113145  0.86850605  1
  O2-  O140  1  0.51124271  -0.01098970  0.37689517  1
  O2-  O141  1  0.51969889  -0.01605378  0.86400170  1
  O2-  O142  1  0.49148144  0.48171812  0.37971064  1
  O2-  O143  1  0.47468078  0.48799542  0.86274720  1
  O2-  O144  1  0.24514776  0.25364161  0.12347510  1
  O2-  O145  1  0.25019448  0.25444500  0.63122466  1
  O2-  O146  1  0.23653714  0.77714544  0.13668683  1
  O2-  O147  1  0.24526864  0.76337682  0.61722862  1
  O2-  O148  1  0.73490998  0.27356204  0.13251992  1
  O2-  O149  1  0.74082412  0.26804213  0.63786080  1
  O2-  O150  1  0.74635768  0.76729732  0.12227464  1
  O2-  O151  1  0.74607023  0.77023373  0.63404010  1
  O2-  O152  1  0.26074627  0.22157807  0.36224122  1
  O2-  O153  1  0.26050959  0.24427311  0.87842715  1
  O2-  O154  1  0.25769870  0.73684830  0.37522464  1
  O2-  O155  1  0.26949183  0.73533176  0.87104723  1
  O2-  O156  1  0.75579318  0.23149957  0.36617744  1
  O2-  O157  1  0.72256337  0.23476101  0.86732997  1
  O2-  O158  1  0.77241105  0.73803798  0.36543767  1
  O2-  O159  1  0.75864790  0.74055042  0.87877671  1
  O2-  O160  1  0.02903571  0.24474560  0.11638780  1
  O2-  O161  1  0.01642922  0.25482416  0.61820380  1
  O2-  O162  1  0.01443524  0.75703979  0.13220353  1
  O2-  O163  1  0.02122980  0.74159438  0.61289136  1
  O2-  O164  1  0.50622316  0.23828376  0.12541417  1
  O2-  O165  1  0.50696315  0.24083937  0.61998164  1
  O2-  O166  1  0.52874590  0.73904863  0.11968422  1
  O2-  O167  1  0.50629095  0.72381641  0.61091305  1
  O2-  O168  1  0.23862985  0.00596854  0.37523585  1
  O2-  O169  1  0.21798346  0.00111781  0.88355901  1
  O2-  O170  1  0.25437434  0.53352274  0.38468645  1
  O2-  O171  1  0.25543668  0.50455589  0.88224089  1
  O2-  O172  1  0.71977459  0.00871855  0.38521072  1
  O2-  O173  1  0.72121506  0.00276869  0.86931140  1
  O2-  O174  1  0.75223662  0.52058718  0.38380154  1
  O2-  O175  1  0.74527953  0.53122802  0.88250540  1
  O2-  O176  1  -0.01661337  0.26058304  0.38293135  1
  O2-  O177  1  0.00036329  0.26841349  0.88516625  1
  O2-  O178  1  -0.01067157  0.75065775  0.37405886  1
  O2-  O179  1  -0.00187300  0.73208763  0.88298091  1
  O2-  O180  1  0.47689634  0.25868304  0.37181292  1
  O2-  O181  1  0.49337833  0.26110514  0.87050390  1
  O2-  O182  1  0.48045338  0.74851380  0.38453685  1
  O2-  O183  1  0.47922168  0.75551752  0.88534770  1
  O2-  O184  1  0.27778925  -0.01171998  0.13234703  1
  O2-  O185  1  0.28228861  -0.00542902  0.61302781  1
  O2-  O186  1  0.24797596  0.48332392  0.11992372  1
  O2-  O187  1  0.23153546  0.48749508  0.60992885  1
  O2-  O188  1  0.78631990  -0.00271477  0.11537770  1
  O2-  O189  1  0.76281929  -0.00570709  0.62802160  1
  O2-  O190  1  0.74736508  0.48584273  0.11553463  1
  O2-  O191  1  0.73586103  0.48180245  0.61619238  1
  O2-  O192  1  0.13739223  0.27387958  0.25872085  1
  O2-  O193  1  0.13624375  0.27719542  0.75585401  1
  O2-  O194  1  0.12523442  0.76853601  0.26553037  1
  O2-  O195  1  0.13913235  0.78717950  0.75934903  1
  O2-  O196  1  0.61323639  0.26871536  0.25964096  1
  O2-  O197  1  0.61622342  0.26964748  0.74717275  1
  O2-  O198  1  0.63778900  0.78465651  0.26816370  1
  O2-  O199  1  0.63420631  0.78348845  0.76614319  1
  O2-  O200  1  0.37667149  0.22377211  0.23472661  1
  O2-  O201  1  0.37950328  0.22400326  0.74585782  1
  O2-  O202  1  0.36572361  0.72939084  0.23850449  1
  O2-  O203  1  0.36817668  0.71667464  0.73513197  1
  O2-  O204  1  0.86649301  0.21240679  0.23088009  1
  O2-  O205  1  0.86357927  0.22055418  0.75479055  1
  O2-  O206  1  0.88352896  0.73068314  0.23667356  1
  O2-  O207  1  0.86584630  0.73343759  0.74795857  1
  O2-  O208  1  0.28122325  0.36208271  0.25757388  1
  O2-  O209  1  0.28319242  0.36614673  0.75834546  1
  O2-  O210  1  0.26811110  0.87659574  0.26811269  1
  O2-  O211  1  0.28840186  0.86544788  0.75503286  1
  O2-  O212  1  0.77185661  0.36307198  0.26640821  1
  O2-  O213  1  0.77157484  0.36572034  0.77633779  1
  O2-  O214  1  0.78727336  0.86831670  0.25178779  1
  O2-  O215  1  0.76704074  0.88442579  0.75695250  1
  O2-  O216  1  0.23398158  0.11857117  0.23378106  1
  O2-  O217  1  0.22917512  0.13413858  0.75075026  1
  O2-  O218  1  0.22799389  0.63482618  0.23340436  1
  O2-  O219  1  0.21613901  0.63562965  0.74061340  1
  O2-  O220  1  0.71218194  0.13309230  0.23710362  1
  O2-  O221  1  0.72637423  0.12320010  0.73869037  1
  O2-  O222  1  0.72912580  0.63940647  0.23078461  1
  O2-  O223  1  0.71750718  0.63713495  0.73960900  1
  O2-  O224  1  0.11097950  0.48943504  0.28514395  1
  O2-  O225  1  0.11470638  0.46692245  0.75070035  1
  O2-  O226  1  0.13532088  0.97950745  0.23767119  1
  O2-  O227  1  0.11756851  0.98288218  0.71226014  1
  O2-  O228  1  0.61536938  0.46299275  0.25820440  1
  O2-  O229  1  0.61191055  0.46106185  0.75132486  1
  O2-  O230  1  0.61299578  0.97876320  0.23321420  1
  O2-  O231  1  0.62197161  0.99257868  0.72538280  1
  O2-  O232  1  0.37228100  0.01711364  0.27188972  1
  O2-  O233  1  0.38731451  0.02787524  0.76643741  1
  O2-  O234  1  0.38461772  0.51943769  0.25886324  1
  O2-  O235  1  0.38582903  0.51514376  0.71856046  1
  O2-  O236  1  0.88801530  0.01859486  0.28373619  1
  O2-  O237  1  0.86428916  0.02400800  0.76981350  1
  O2-  O238  1  0.88603725  0.53576330  0.24078353  1
  O2-  O239  1  0.88208875  0.53618604  0.74850033  1
  O2-  O240  1  0.47312033  0.36769560  0.23896361  1
  O2-  O241  1  0.47434407  0.36697493  0.73461821  1
  O2-  O242  1  0.47081323  0.88613091  0.24113513  1
  O2-  O243  1  0.48014164  0.88600355  0.72838352  1
  O2-  O244  1  0.96789840  0.38475675  0.24639016  1
  O2-  O245  1  0.96110003  0.38849772  0.73439718  1
  O2-  O246  1  0.98783825  0.87200096  0.25595522  1
  O2-  O247  1  0.97216673  0.88616664  0.74986626  1
  O2-  O248  1  0.02912284  0.11464224  0.25135711  1
  O2-  O249  1  0.01829552  0.12035544  0.75412109  1
  O2-  O250  1  0.02380172  0.63158407  0.25831388  1
  O2-  O251  1  0.02928015  0.61678481  0.74102593  1
  O2-  O252  1  0.51415876  0.12707788  0.26923300  1
  O2-  O253  1  0.52017230  0.12892413  0.75358195  1
  O2-  O254  1  0.53328163  0.61348675  0.26761237  1
  O2-  O255  1  0.53114866  0.61156097  0.75882917  1
  O2-  O256  1  0.13282511  0.46157833  -0.00616619  1
  O2-  O257  1  0.12022817  0.48307532  0.48472602  1
  O2-  O258  1  0.13919625  0.98651922  0.03421863  1
  O2-  O259  1  0.13873366  0.96494016  0.51538901  1
  O2-  O260  1  0.63168769  0.47353499  -0.00387602  1
  O2-  O261  1  0.61934332  0.47039617  0.49011216  1
  O2-  O262  1  0.63599901  0.96881044  0.01899970  1
  O2-  O263  1  0.61317546  0.97479789  0.51502549  1
  O2-  O264  1  0.36396264  0.02913255  -0.01512987  1
  O2-  O265  1  0.37863637  0.00928394  0.47731660  1
  O2-  O266  1  0.36266717  0.52900306  0.00674717  1
  O2-  O267  1  0.37451005  0.51770474  0.50795494  1
  O2-  O268  1  0.86311826  0.01799829  -0.03198888  1
  O2-  O269  1  0.86470165  0.02916632  0.47887764  1
  O2-  O270  1  0.86651735  0.52743984  0.00260334  1
  O2-  O271  1  0.87327755  0.52671959  0.51441439  1
  O2-  O272  1  0.46239959  0.36389339  0.00629514  1
  O2-  O273  1  0.46918484  0.37089272  0.50864989  1
  O2-  O274  1  0.47895013  0.86437214  0.01516121  1
  O2-  O275  1  0.47716789  0.87193306  0.50846924  1
  O2-  O276  1  0.96834270  0.36698953  0.01752954  1
  O2-  O277  1  0.97692940  0.38343445  0.50414737  1
  O2-  O278  1  0.96716574  0.86485950  -0.00200690  1
  O2-  O279  1  0.97252762  0.86292430  0.50197117  1
  O2-  O280  1  0.02196562  0.13145598  -0.00789864  1
  O2-  O281  1  0.03419081  0.13315992  0.49378801  1
  O2-  O282  1  0.01857559  0.63618773  0.01723638  1
  O2-  O283  1  0.02453161  0.62197277  0.48669804  1
  O2-  O284  1  0.51693068  0.13737712  -0.01872856  1
  O2-  O285  1  0.51940554  0.12095358  0.48764389  1
  O2-  O286  1  0.52897358  0.63098924  -0.01269547  1
  O2-  O287  1  0.51987842  0.61479843  0.48443772  1
  O2-  O288  1  0.13288283  0.26983785  -0.01000464  1
  O2-  O289  1  0.11756061  0.28420053  0.49212568  1
  O2-  O290  1  0.11475941  0.78643093  -0.00623112  1
  O2-  O291  1  0.12912041  0.76564677  0.48452231  1
  O2-  O292  1  0.61168483  0.28280518  0.00034753  1
  O2-  O293  1  0.60858109  0.26574244  0.47983645  1
  O2-  O294  1  0.63136739  0.76944513  -0.01112975  1
  O2-  O295  1  0.61611157  0.77293001  0.48517007  1
  O2-  O296  1  0.37218963  0.22527564  0.00660280  1
  O2-  O297  1  0.38443641  0.21360380  0.50370549  1
  O2-  O298  1  0.38222185  0.71863616  0.02736225  1
  O2-  O299  1  0.37192389  0.73132028  0.50559142  1
  O2-  O300  1  0.88335980  0.21886770  0.00944814  1
  O2-  O301  1  0.88448879  0.22856636  0.51730972  1
  O2-  O302  1  0.87205860  0.73090219  0.00999464  1
  O2-  O303  1  0.88760684  0.71503602  0.50800646  1
  O2-  O304  1  0.27413982  0.36779860  -0.00349397  1
  O2-  O305  1  0.27227947  0.38607018  0.47518586  1
  O2-  O306  1  0.28057774  0.88337103  -0.00990901  1
  O2-  O307  1  0.27214965  0.86975179  0.48642734  1
  O2-  O308  1  0.77753207  0.38290751  -0.02387697  1
  O2-  O309  1  0.77048390  0.38529751  0.48331193  1
  O2-  O310  1  0.77006414  0.87306313  -0.01146994  1
  O2-  O311  1  0.76674029  0.88671953  0.49665027  1
  O2-  O312  1  0.23100239  0.12775427  0.00686202  1
  O2-  O313  1  0.22295054  0.11302081  0.50748398  1
  O2-  O314  1  0.20864793  0.61604890  0.00911976  1
  O2-  O315  1  0.23597022  0.62949297  0.51416389  1
  O2-  O316  1  0.71650708  0.11374056  0.00948003  1
  O2-  O317  1  0.71788832  0.11602188  0.51919736  1
  O2-  O318  1  0.73045839  0.63279079  0.01571395  1
  O2-  O319  1  0.71454705  0.61574450  0.51138248  1
