# generated using pymatgen
data_Sr64Ca21Nb43O192
_symmetry_space_group_name_H-M   'P 1'
_cell_length_a   16.57538723
_cell_length_b   16.64427314
_cell_length_c   16.75619320
_cell_angle_alpha   90.00905349
_cell_angle_beta   89.96118713
_cell_angle_gamma   89.98285099
_symmetry_Int_Tables_number   1
_chemical_formula_structural   Sr64Ca21Nb43O192
_chemical_formula_sum   'Sr64 Ca21 Nb43 O192'
_cell_volume   4622.78559774
_cell_formula_units_Z   1
loop_
 _symmetry_equiv_pos_site_id
 _symmetry_equiv_pos_as_xyz
  1  'x, y, z'
loop_
 _atom_type_symbol
 _atom_type_oxidation_number
  Sr2+  2.0
  Ca2+  2.0
  Nb5+  5.0
  O2-  -2.0
loop_
 _atom_site_type_symbol
 _atom_site_label
 _atom_site_symmetry_multiplicity
 _atom_site_fract_x
 _atom_site_fract_y
 _atom_site_fract_z
 _atom_site_occupancy
  Sr2+  Sr0  1  0.11624264  0.12147601  0.12176252  1
  Sr2+  Sr1  1  0.11751509  0.12967978  0.62939239  1
  Sr2+  Sr2  1  0.11849310  0.61565401  0.13101740  1
  Sr2+  Sr3  1  0.11566246  0.61059003  0.61559328  1
  Sr2+  Sr4  1  0.62911755  0.12905701  0.12847124  1
  Sr2+  Sr5  1  0.62090248  0.12749550  0.61860137  1
  Sr2+  Sr6  1  0.61407848  0.62291728  0.11691594  1
  Sr2+  Sr7  1  0.62120913  0.63535252  0.62370623  1
  Sr2+  Sr8  1  0.37392491  0.36848879  0.12046606  1
  Sr2+  Sr9  1  0.37206265  0.36411860  0.62477540  1
  Sr2+  Sr10  1  0.37381000  0.88871693  0.13379347  1
  Sr2+  Sr11  1  0.36948911  0.88155216  0.62365633  1
  Sr2+  Sr12  1  0.87280983  0.37999950  0.12211677  1
  Sr2+  Sr13  1  0.87677285  0.37545692  0.63184418  1
  Sr2+  Sr14  1  0.87324735  0.88196563  0.11735671  1
  Sr2+  Sr15  1  0.87331853  0.86697038  0.63103044  1
  Sr2+  Sr16  1  0.13524828  0.39042627  0.37035727  1
  Sr2+  Sr17  1  0.13406696  0.38139648  0.86992097  1
  Sr2+  Sr18  1  0.14047195  0.86237819  0.37123214  1
  Sr2+  Sr19  1  0.13206430  0.86963883  0.87488481  1
  Sr2+  Sr20  1  0.63358772  0.37367895  0.36818901  1
  Sr2+  Sr21  1  0.63391117  0.38576952  0.87693377  1
  Sr2+  Sr22  1  0.63083271  0.87558027  0.37360647  1
  Sr2+  Sr23  1  0.63491420  0.86782118  0.86806543  1
  Sr2+  Sr24  1  0.38371003  0.12414725  0.36931869  1
  Sr2+  Sr25  1  0.38163561  0.12219382  0.86985677  1
  Sr2+  Sr26  1  0.35120511  0.62303194  0.37089259  1
  Sr2+  Sr27  1  0.35913080  0.62405493  0.88114097  1
  Sr2+  Sr28  1  0.87190743  0.12603007  0.37446975  1
  Sr2+  Sr29  1  0.88803309  0.12553318  0.88081348  1
  Sr2+  Sr30  1  0.90065903  0.62914345  0.37513051  1
  Sr2+  Sr31  1  0.85302197  0.62452565  0.87092531  1
  Sr2+  Sr32  1  0.12785501  0.12887664  0.36514364  1
  Sr2+  Sr33  1  0.12915533  0.11927647  0.88000057  1
  Sr2+  Sr34  1  0.12225913  0.62446811  0.36858211  1
  Sr2+  Sr35  1  0.12349783  0.62426729  0.87883231  1
  Sr2+  Sr36  1  0.63160694  0.11927084  0.37602284  1
  Sr2+  Sr37  1  0.63079593  0.12168948  0.86409037  1
  Sr2+  Sr38  1  0.63185986  0.62611631  0.37495019  1
  Sr2+  Sr39  1  0.61917188  0.62721869  0.88816978  1
  Sr2+  Sr40  1  0.38747716  0.38231960  0.36449737  1
  Sr2+  Sr41  1  0.38415662  0.39011634  0.87636617  1
  Sr2+  Sr42  1  0.38114312  0.86821981  0.37711109  1
  Sr2+  Sr43  1  0.37943949  0.85975612  0.86987645  1
  Sr2+  Sr44  1  0.87961083  0.39635671  0.37629809  1
  Sr2+  Sr45  1  0.88442009  0.38849722  0.87245302  1
  Sr2+  Sr46  1  0.88091899  0.86643654  0.37577029  1
  Sr2+  Sr47  1  0.88877970  0.85997823  0.87734627  1
  Sr2+  Sr48  1  0.12894310  0.36469275  0.12759872  1
  Sr2+  Sr49  1  0.11672698  0.36872077  0.62557003  1
  Sr2+  Sr50  1  0.10650512  0.87900157  0.12697357  1
  Sr2+  Sr51  1  0.13552940  0.88259149  0.62640447  1
  Sr2+  Sr52  1  0.62197986  0.37329999  0.11530876  1
  Sr2+  Sr53  1  0.61990067  0.36952716  0.62369158  1
  Sr2+  Sr54  1  0.62289709  0.87722718  0.12444379  1
  Sr2+  Sr55  1  0.61575849  0.88151830  0.62125649  1
  Sr2+  Sr56  1  0.35469090  0.13468270  0.12485382  1
  Sr2+  Sr57  1  0.36354915  0.12246519  0.62373286  1
  Sr2+  Sr58  1  0.36882915  0.61883233  0.11449578  1
  Sr2+  Sr59  1  0.36487139  0.62241741  0.61599860  1
  Sr2+  Sr60  1  0.87685127  0.12058565  0.12019069  1
  Sr2+  Sr61  1  0.86650378  0.13309452  0.62104181  1
  Sr2+  Sr62  1  0.86737385  0.62350921  0.13225424  1
  Sr2+  Sr63  1  0.86782560  0.62604167  0.63060406  1
  Ca2+  Ca64  1  -0.00042318  0.49980773  0.00033719  1
  Ca2+  Ca65  1  0.50156652  0.50040047  0.49995472  1
  Ca2+  Ca66  1  0.50155192  0.00079380  -0.00181375  1
  Ca2+  Ca67  1  -0.00225925  0.49803745  0.50038708  1
  Ca2+  Ca68  1  0.00077291  -0.00120579  0.50218245  1
  Ca2+  Ca69  1  0.25003001  0.24816641  0.49677102  1
  Ca2+  Ca70  1  0.25006567  0.24814881  -0.00750674  1
  Ca2+  Ca71  1  0.75300592  0.24846385  -0.00207611  1
  Ca2+  Ca72  1  0.75269690  0.75114868  0.00349221  1
  Ca2+  Ca73  1  0.24725428  0.75368893  0.00142201  1
  Ca2+  Ca74  1  -0.00255126  0.75408282  0.24704306  1
  Ca2+  Ca75  1  0.50009537  0.74877829  0.75008291  1
  Ca2+  Ca76  1  0.49876718  0.74918242  0.25232219  1
  Ca2+  Ca77  1  0.24896245  -0.00027747  0.25245488  1
  Ca2+  Ca78  1  0.00438509  0.74894243  0.74892903  1
  Ca2+  Ca79  1  0.25151313  0.49857123  0.24604564  1
  Ca2+  Ca80  1  0.74692110  0.49870201  0.74612249  1
  Ca2+  Ca81  1  0.74610031  0.49926543  0.25113943  1
  Ca2+  Ca82  1  0.75447986  0.00007442  0.74645726  1
  Ca2+  Ca83  1  -0.00380311  0.25221576  0.24864844  1
  Ca2+  Ca84  1  0.25235100  0.49778329  0.74892210  1
  Nb5+  Nb85  1  0.49853014  0.00079957  0.49996554  1
  Nb5+  Nb86  1  0.00086731  -0.00039580  -0.00230856  1
  Nb5+  Nb87  1  0.49906435  0.49983421  0.00053571  1
  Nb5+  Nb88  1  0.75076065  0.25607349  0.49797147  1
  Nb5+  Nb89  1  0.75447005  0.75544801  0.49719243  1
  Nb5+  Nb90  1  0.25419781  0.74949708  0.50174265  1
  Nb5+  Nb91  1  0.74996950  -0.00094364  0.25024816  1
  Nb5+  Nb92  1  0.25221427  0.00302194  0.75386163  1
  Nb5+  Nb93  1  0.49578277  0.24962299  0.74561686  1
  Nb5+  Nb94  1  -0.00553257  0.24863594  0.75086135  1
  Nb5+  Nb95  1  0.50028170  0.24650099  0.24229067  1
  Nb5+  Nb96  1  -0.00146721  0.00012047  0.25785205  1
  Nb5+  Nb97  1  -0.00058822  0.00053319  0.74763594  1
  Nb5+  Nb98  1  -0.00383895  0.49859044  0.24667947  1
  Nb5+  Nb99  1  0.00558931  0.50430433  0.75204826  1
  Nb5+  Nb100  1  0.50168130  0.00426047  0.24572698  1
  Nb5+  Nb101  1  0.49806151  -0.00205567  0.75129674  1
  Nb5+  Nb102  1  0.50580870  0.50220057  0.25281911  1
  Nb5+  Nb103  1  0.50310816  0.50584273  0.74801310  1
  Nb5+  Nb104  1  0.24597764  0.24992156  0.25306266  1
  Nb5+  Nb105  1  0.24545183  0.24935415  0.75204189  1
  Nb5+  Nb106  1  0.25382064  0.75466233  0.24072634  1
  Nb5+  Nb107  1  0.24662271  0.74438343  0.74647320  1
  Nb5+  Nb108  1  0.75137781  0.24838162  0.25050946  1
  Nb5+  Nb109  1  0.74680685  0.24677225  0.75250949  1
  Nb5+  Nb110  1  0.74656243  0.75095114  0.24842386  1
  Nb5+  Nb111  1  0.74720260  0.74871527  0.75100053  1
  Nb5+  Nb112  1  0.00233512  0.25200410  0.49382079  1
  Nb5+  Nb113  1  0.00061570  0.25328121  0.99986035  1
  Nb5+  Nb114  1  0.00972641  0.75489118  0.50326978  1
  Nb5+  Nb115  1  0.00225649  0.74322861  1.00003064  1
  Nb5+  Nb116  1  0.49917129  0.24939546  0.49445596  1
  Nb5+  Nb117  1  0.50235272  0.24837777  0.98717017  1
  Nb5+  Nb118  1  0.50542794  0.74706027  0.49977764  1
  Nb5+  Nb119  1  0.49697271  0.75690346  1.00745081  1
  Nb5+  Nb120  1  0.25124448  -0.00403429  0.00518398  1
  Nb5+  Nb121  1  0.24642411  0.00191713  0.49799938  1
  Nb5+  Nb122  1  0.24448679  0.49616510  0.00330545  1
  Nb5+  Nb123  1  0.25561418  0.49174084  0.50052694  1
  Nb5+  Nb124  1  0.75030124  0.00116081  -0.00949053  1
  Nb5+  Nb125  1  0.75110077  0.00365075  0.50199431  1
  Nb5+  Nb126  1  0.75287153  0.50108869  -0.00069534  1
  Nb5+  Nb127  1  0.74688887  0.51063652  0.50209805  1
  O2-  O128  1  0.00886109  0.01047129  0.11804320  1
  O2-  O129  1  0.03312287  0.00347708  0.63733401  1
  O2-  O130  1  -0.02858859  0.51482491  0.13125686  1
  O2-  O131  1  -0.01799005  0.50668760  0.63506603  1
  O2-  O132  1  0.52945833  0.01600676  0.13554286  1
  O2-  O133  1  0.51334059  0.01989131  0.62522790  1
  O2-  O134  1  0.48642459  0.50937277  0.12459681  1
  O2-  O135  1  0.48113622  0.51833108  0.63729983  1
  O2-  O136  1  -0.03110303  -0.00141783  0.36760262  1
  O2-  O137  1  -0.01001146  -0.00139235  0.87403123  1
  O2-  O138  1  0.01861935  0.48515267  0.36615238  1
  O2-  O139  1  0.02349072  0.48213806  0.86791728  1
  O2-  O140  1  0.48511220  -0.00559346  0.38230886  1
  O2-  O141  1  0.47334402  -0.01352092  0.86400765  1
  O2-  O142  1  0.51697643  0.47131225  0.36547235  1
  O2-  O143  1  0.51735994  0.48288390  0.88348024  1
  O2-  O144  1  0.25326004  0.26712028  0.13298940  1
  O2-  O145  1  0.24755517  0.26995605  0.63422683  1
  O2-  O146  1  0.28063307  0.77238658  0.13269297  1
  O2-  O147  1  0.26372213  0.77311552  0.62218211  1
  O2-  O148  1  0.73946063  0.26617508  0.13780505  1
  O2-  O149  1  0.74544972  0.26717976  0.61749092  1
  O2-  O150  1  0.76971362  0.77358009  0.13907970  1
  O2-  O151  1  0.76427567  0.76430093  0.61471951  1
  O2-  O152  1  0.25835216  0.21455100  0.36554744  1
  O2-  O153  1  0.25696619  0.20880439  0.86045573  1
  O2-  O154  1  0.22764955  0.73499328  0.38844553  1
  O2-  O155  1  0.23004022  0.73030177  0.86219471  1
  O2-  O156  1  0.74480974  0.22633544  0.38054861  1
  O2-  O157  1  0.75512802  0.21786897  0.86235858  1
  O2-  O158  1  0.72156667  0.74431276  0.38282081  1
  O2-  O159  1  0.72728597  0.73228670  0.86431512  1
  O2-  O160  1  0.02411591  0.24420511  0.11305711  1
  O2-  O161  1  0.00758357  0.24622274  0.62977247  1
  O2-  O162  1  -0.03253638  0.74478877  0.11374945  1
  O2-  O163  1  -0.01970088  0.73212559  0.61465453  1
  O2-  O164  1  0.51102969  0.23089900  0.12888632  1
  O2-  O165  1  0.51350178  0.23604734  0.63124577  1
  O2-  O166  1  0.48215200  0.72044455  0.11949501  1
  O2-  O167  1  0.47957745  0.73414988  0.61337091  1
  O2-  O168  1  0.27171020  0.02084113  0.38726296  1
  O2-  O169  1  0.26266833  0.02700980  0.86690073  1
  O2-  O170  1  0.22939391  0.51972745  0.38489592  1
  O2-  O171  1  0.23349986  0.52219257  0.88489538  1
  O2-  O172  1  0.75578826  0.01649312  0.37972440  1
  O2-  O173  1  0.76061968  0.02982398  0.88143968  1
  O2-  O174  1  0.71357397  0.50264419  0.38760854  1
  O2-  O175  1  0.72429658  0.52154435  0.88259665  1
  O2-  O176  1  -0.01556576  0.24278015  0.38251401  1
  O2-  O177  1  -0.01714521  0.25330289  0.86895422  1
  O2-  O178  1  0.01094923  0.76896856  0.38456399  1
  O2-  O179  1  0.02216304  0.76632630  0.88349359  1
  O2-  O180  1  0.49263514  0.26218570  0.38011288  1
  O2-  O181  1  0.49072194  0.26931219  0.87322600  1
  O2-  O182  1  0.50740489  0.78212447  0.38884223  1
  O2-  O183  1  0.52080241  0.77245736  0.88769337  1
  O2-  O184  1  0.23472929  -0.03434975  0.11475744  1
  O2-  O185  1  0.24911485  -0.01909057  0.62316167  1
  O2-  O186  1  0.27981620  0.48167832  0.11528880  1
  O2-  O187  1  0.28040051  0.48294053  0.61672198  1
  O2-  O188  1  0.73828696  -0.01991843  0.13572178  1
  O2-  O189  1  0.73464545  -0.02517689  0.61315070  1
  O2-  O190  1  0.76225056  0.47628107  0.11589225  1
  O2-  O191  1  0.78253386  0.48746943  0.61211981  1
  O2-  O192  1  0.13286113  0.27549174  0.26500093  1
  O2-  O193  1  0.12659876  0.26281498  0.75639330  1
  O2-  O194  1  0.13488995  0.77625746  0.23758754  1
  O2-  O195  1  0.13775754  0.78848311  0.73712059  1
  O2-  O196  1  0.61985375  0.25931122  0.26059175  1
  O2-  O197  1  0.62632435  0.26296747  0.75833548  1
  O2-  O198  1  0.63329676  0.78680312  0.24575164  1
  O2-  O199  1  0.63386551  0.77634717  0.72565690  1
  O2-  O200  1  0.38228892  0.22287531  0.24741091  1
  O2-  O201  1  0.37913211  0.22951139  0.73988247  1
  O2-  O202  1  0.36562169  0.73553200  0.27903777  1
  O2-  O203  1  0.36412343  0.74195196  0.76572741  1
  O2-  O204  1  0.86149980  0.21613167  0.24516121  1
  O2-  O205  1  0.87755368  0.22918005  0.73815676  1
  O2-  O206  1  0.85949438  0.74158363  0.28231756  1
  O2-  O207  1  0.86661509  0.72709326  0.75545339  1
  O2-  O208  1  0.27489674  0.36322953  0.27194303  1
  O2-  O209  1  0.26879317  0.35924170  0.77857408  1
  O2-  O210  1  0.26849586  0.86817447  0.27945902  1
  O2-  O211  1  0.27412325  0.88745912  0.76104961  1
  O2-  O212  1  0.76580729  0.35895444  0.27897765  1
  O2-  O213  1  0.77332133  0.36053818  0.76045367  1
  O2-  O214  1  0.76520179  0.88553979  0.27581040  1
  O2-  O215  1  0.77436890  0.86612812  0.76644409  1
  O2-  O216  1  0.22514142  0.13194002  0.22540319  1
  O2-  O217  1  0.23866986  0.12166905  0.72025114  1
  O2-  O218  1  0.23310451  0.63648440  0.23629883  1
  O2-  O219  1  0.23322272  0.63474599  0.71738277  1
  O2-  O220  1  0.72305084  0.12145208  0.24582339  1
  O2-  O221  1  0.73620835  0.13474085  0.71543674  1
  O2-  O222  1  0.72334406  0.63830721  0.23537210  1
  O2-  O223  1  0.73455072  0.63328564  0.71985749  1
  O2-  O224  1  0.11503214  0.47662708  0.22498513  1
  O2-  O225  1  0.11967872  0.46837828  0.73161532  1
  O2-  O226  1  0.11187693  0.97838988  0.27131110  1
  O2-  O227  1  0.13321195  0.98959210  0.76730225  1
  O2-  O228  1  0.61456144  0.46235897  0.23096218  1
  O2-  O229  1  0.61261623  0.46091629  0.74258071  1
  O2-  O230  1  0.62507919  0.98875265  0.27095362  1
  O2-  O231  1  0.61449968  0.99254304  0.76834454  1
  O2-  O232  1  0.38651483  0.02612684  0.23170191  1
  O2-  O233  1  0.37561367  0.02528735  0.73611211  1
  O2-  O234  1  0.38791378  0.51101973  0.26829061  1
  O2-  O235  1  0.38922282  0.51117273  0.78099048  1
  O2-  O236  1  0.86555522  0.02496958  0.23955394  1
  O2-  O237  1  0.88973435  0.03074960  0.73226218  1
  O2-  O238  1  0.87847973  0.52437070  0.27174463  1
  O2-  O239  1  0.88684758  0.51157340  0.77412326  1
  O2-  O240  1  0.47778359  0.36092636  0.23653351  1
  O2-  O241  1  0.47756684  0.36605955  0.73708852  1
  O2-  O242  1  0.48164583  0.89006712  0.24232737  1
  O2-  O243  1  0.48346724  0.88717016  0.72683387  1
  O2-  O244  1  0.96501632  0.38248143  0.23900923  1
  O2-  O245  1  0.98400406  0.36612523  0.74451968  1
  O2-  O246  1  0.97234728  0.88937356  0.22949754  1
  O2-  O247  1  0.97770055  0.88735935  0.74665293  1
  O2-  O248  1  0.01964958  0.11588496  0.24890578  1
  O2-  O249  1  0.02393862  0.12889805  0.76021076  1
  O2-  O250  1  0.02029256  0.61925935  0.25772769  1
  O2-  O251  1  0.03597482  0.61547117  0.75638897  1
  O2-  O252  1  0.51739090  0.12592525  0.27450796  1
  O2-  O253  1  0.51249851  0.13105597  0.77019190  1
  O2-  O254  1  0.53308332  0.61248464  0.26230158  1
  O2-  O255  1  0.53509762  0.61496596  0.76374248  1
  O2-  O256  1  0.13317907  0.47583998  0.02610356  1
  O2-  O257  1  0.13771702  0.48413066  0.52436542  1
  O2-  O258  1  0.12022347  0.98279793  -0.01494124  1
  O2-  O259  1  0.13593821  0.97430720  0.48074561  1
  O2-  O260  1  0.61991498  0.48703686  0.01674555  1
  O2-  O261  1  0.63390465  0.49099461  0.53790609  1
  O2-  O262  1  0.63711418  0.97247046  -0.01597164  1
  O2-  O263  1  0.62076910  0.98762130  0.48860290  1
  O2-  O264  1  0.36468152  0.01761401  0.02071343  1
  O2-  O265  1  0.38022863  0.01477352  0.51609542  1
  O2-  O266  1  0.38082700  0.51343570  -0.01568207  1
  O2-  O267  1  0.36754948  0.53235202  0.48546907  1
  O2-  O268  1  0.87952732  0.02078475  0.00745006  1
  O2-  O269  1  0.86394613  0.01885260  0.51527466  1
  O2-  O270  1  0.86572404  0.51763524  -0.02208516  1
  O2-  O271  1  0.86194893  0.51822654  0.46970234  1
  O2-  O272  1  0.48402984  0.37499460  0.01407616  1
  O2-  O273  1  0.48982191  0.36184149  0.52283030  1
  O2-  O274  1  0.48327806  0.86851725  0.03402645  1
  O2-  O275  1  0.48847348  0.88377390  0.52097811  1
  O2-  O276  1  0.96948059  0.36429877  0.00509927  1
  O2-  O277  1  0.96405003  0.36286530  0.50975204  1
  O2-  O278  1  0.98005231  0.88360791  0.00637556  1
  O2-  O279  1  0.96947759  0.86569237  0.51443122  1
  O2-  O280  1  0.01969302  0.12196129  -0.01229972  1
  O2-  O281  1  0.01813217  0.13543545  0.50650114  1
  O2-  O282  1  0.03332753  0.63260704  -0.00194502  1
  O2-  O283  1  0.02005008  0.63573734  0.48427598  1
  O2-  O284  1  0.52440676  0.13500781  -0.02689467  1
  O2-  O285  1  0.51907598  0.12467558  0.49086656  1
  O2-  O286  1  0.51257067  0.61788886  -0.00814326  1
  O2-  O287  1  0.52361861  0.63636086  0.47975496  1
  O2-  O288  1  0.11485321  0.26867373  -0.02796112  1
  O2-  O289  1  0.11436964  0.28173085  0.48835873  1
  O2-  O290  1  0.11463497  0.77902362  0.02311387  1
  O2-  O291  1  0.12492783  0.77473962  0.51823918  1
  O2-  O292  1  0.61666133  0.27329873  -0.00336026  1
  O2-  O293  1  0.62483996  0.25711339  0.49874535  1
  O2-  O294  1  0.61682123  0.75711169  0.02484952  1
  O2-  O295  1  0.62136784  0.76738165  0.51969066  1
  O2-  O296  1  0.38780919  0.23118686  0.01065632  1
  O2-  O297  1  0.38706315  0.22649189  0.51270969  1
  O2-  O298  1  0.38362413  0.73562146  -0.02332847  1
  O2-  O299  1  0.37125978  0.73615560  0.48623615  1
  O2-  O300  1  0.88622001  0.21828014  0.00545382  1
  O2-  O301  1  0.86489747  0.22585114  0.50275234  1
  O2-  O302  1  0.88563926  0.73399084  -0.03172991  1
  O2-  O303  1  0.86623259  0.73412774  0.48179563  1
  O2-  O304  1  0.26886324  0.38276727  -0.02619646  1
  O2-  O305  1  0.27805232  0.38228658  0.47496079  1
  O2-  O306  1  0.26198926  0.88828085  -0.04035505  1
  O2-  O307  1  0.26955405  0.87326639  0.48705907  1
  O2-  O308  1  0.76154289  0.38285334  -0.02688379  1
  O2-  O309  1  0.75896023  0.36912682  0.48087177  1
  O2-  O310  1  0.78118394  0.88726023  -0.01188163  1
  O2-  O311  1  0.76117385  0.87399395  0.48082454  1
  O2-  O312  1  0.22390634  0.11136538  0.01484315  1
  O2-  O313  1  0.22861598  0.11346271  0.52350685  1
  O2-  O314  1  0.24036774  0.61631861  0.02303235  1
  O2-  O315  1  0.23568141  0.63483446  0.52472809  1
  O2-  O316  1  0.73777528  0.11120352  0.03161325  1
  O2-  O317  1  0.73056596  0.12007583  0.51470863  1
  O2-  O318  1  0.73648362  0.61722213  0.02579715  1
  O2-  O319  1  0.73092112  0.62867207  0.51155066  1
