# generated using pymatgen
data_Sr64Ca21Nb43O192
_symmetry_space_group_name_H-M   'P 1'
_cell_length_a   16.63858593
_cell_length_b   16.57508989
_cell_length_c   16.76187799
_cell_angle_alpha   90.03641378
_cell_angle_beta   90.03659502
_cell_angle_gamma   89.97686091
_symmetry_Int_Tables_number   1
_chemical_formula_structural   Sr64Ca21Nb43O192
_chemical_formula_sum   'Sr64 Ca21 Nb43 O192'
_cell_volume   4622.68999200
_cell_formula_units_Z   1
loop_
 _symmetry_equiv_pos_site_id
 _symmetry_equiv_pos_as_xyz
  1  'x, y, z'
loop_
 _atom_type_symbol
 _atom_type_oxidation_number
  Sr2+  2.0
  Ca2+  2.0
  Nb5+  5.0
  O2-  -2.0
loop_
 _atom_site_type_symbol
 _atom_site_label
 _atom_site_symmetry_multiplicity
 _atom_site_fract_x
 _atom_site_fract_y
 _atom_site_fract_z
 _atom_site_occupancy
  Sr2+  Sr0  1  0.12816610  0.13190049  0.13767914  1
  Sr2+  Sr1  1  0.13800746  0.13498555  0.62286434  1
  Sr2+  Sr2  1  0.12825394  0.63466306  0.12166448  1
  Sr2+  Sr3  1  0.12732547  0.63175908  0.62196105  1
  Sr2+  Sr4  1  0.62557362  0.14382471  0.12846373  1
  Sr2+  Sr5  1  0.62264932  0.12269625  0.61929026  1
  Sr2+  Sr6  1  0.62461463  0.60423103  0.12793597  1
  Sr2+  Sr7  1  0.62862332  0.63297784  0.62887087  1
  Sr2+  Sr8  1  0.38467518  0.37923748  0.12984075  1
  Sr2+  Sr9  1  0.37732099  0.36485767  0.63413005  1
  Sr2+  Sr10  1  0.37355584  0.88239162  0.11490810  1
  Sr2+  Sr11  1  0.38442916  0.89558809  0.62795209  1
  Sr2+  Sr12  1  0.87232094  0.38037401  0.11101947  1
  Sr2+  Sr13  1  0.87504772  0.37800101  0.62841347  1
  Sr2+  Sr14  1  0.87639350  0.89256851  0.12585083  1
  Sr2+  Sr15  1  0.87526519  0.88288802  0.62935723  1
  Sr2+  Sr16  1  0.12285078  0.38037184  0.37157970  1
  Sr2+  Sr17  1  0.12056084  0.37891342  0.87891469  1
  Sr2+  Sr18  1  0.11226716  0.86907733  0.36880370  1
  Sr2+  Sr19  1  0.12703346  0.86754559  0.86958419  1
  Sr2+  Sr20  1  0.62515697  0.36388063  0.36949615  1
  Sr2+  Sr21  1  0.60020394  0.36709374  0.88088636  1
  Sr2+  Sr22  1  0.62065959  0.86860671  0.37480935  1
  Sr2+  Sr23  1  0.61098319  0.86923777  0.87765282  1
  Sr2+  Sr24  1  0.35824533  0.11243310  0.36985307  1
  Sr2+  Sr25  1  0.37086467  0.11609627  0.87820128  1
  Sr2+  Sr26  1  0.38476354  0.62081656  0.36991861  1
  Sr2+  Sr27  1  0.38681743  0.62077374  0.87650573  1
  Sr2+  Sr28  1  0.87927531  0.11315552  0.38288592  1
  Sr2+  Sr29  1  0.87400085  0.12484435  0.87132354  1
  Sr2+  Sr30  1  0.87530202  0.62110883  0.37384678  1
  Sr2+  Sr31  1  0.87775960  0.61587641  0.87451332  1
  Sr2+  Sr32  1  0.12590480  0.14767800  0.37775986  1
  Sr2+  Sr33  1  0.11624293  0.11107650  0.87221981  1
  Sr2+  Sr34  1  0.11472056  0.61872604  0.36875780  1
  Sr2+  Sr35  1  0.12331103  0.62390722  0.87532651  1
  Sr2+  Sr36  1  0.62405111  0.11605089  0.36934040  1
  Sr2+  Sr37  1  0.61780194  0.11902632  0.89139834  1
  Sr2+  Sr38  1  0.62640181  0.61716091  0.36621140  1
  Sr2+  Sr39  1  0.62303492  0.62023980  0.89550957  1
  Sr2+  Sr40  1  0.36107459  0.36434605  0.36606642  1
  Sr2+  Sr41  1  0.36390445  0.36287254  0.87759925  1
  Sr2+  Sr42  1  0.37609290  0.87334949  0.38684329  1
  Sr2+  Sr43  1  0.36885947  0.86047481  0.87486815  1
  Sr2+  Sr44  1  0.87995566  0.35695134  0.38039787  1
  Sr2+  Sr45  1  0.88261517  0.36679418  0.87244052  1
  Sr2+  Sr46  1  0.87641768  0.86642757  0.37184848  1
  Sr2+  Sr47  1  0.87894492  0.88581763  0.87251452  1
  Sr2+  Sr48  1  0.13999783  0.38478150  0.12687459  1
  Sr2+  Sr49  1  0.13793538  0.38429639  0.62471033  1
  Sr2+  Sr50  1  0.13220775  0.88098435  0.12019544  1
  Sr2+  Sr51  1  0.14069622  0.88068975  0.63005402  1
  Sr2+  Sr52  1  0.61875839  0.37777089  0.12842743  1
  Sr2+  Sr53  1  0.63567248  0.37763056  0.62261015  1
  Sr2+  Sr54  1  0.63981379  0.88645800  0.12475164  1
  Sr2+  Sr55  1  0.61404121  0.87751891  0.62374224  1
  Sr2+  Sr56  1  0.38231634  0.13483823  0.12215739  1
  Sr2+  Sr57  1  0.37647857  0.12540567  0.61264444  1
  Sr2+  Sr58  1  0.39068823  0.63167609  0.12863147  1
  Sr2+  Sr59  1  0.38408687  0.61916386  0.63276342  1
  Sr2+  Sr60  1  0.86408154  0.12143922  0.13262051  1
  Sr2+  Sr61  1  0.86867569  0.13717444  0.62543018  1
  Sr2+  Sr62  1  0.86688929  0.62917498  0.11615277  1
  Sr2+  Sr63  1  0.86731665  0.62699982  0.62012487  1
  Ca2+  Ca64  1  0.49580032  0.49705437  0.50181501  1
  Ca2+  Ca65  1  0.00178101  0.00267603  -0.00006365  1
  Ca2+  Ca66  1  0.49879292  -0.00298659  0.00572546  1
  Ca2+  Ca67  1  0.49466460  0.49872207  -0.00037042  1
  Ca2+  Ca68  1  -0.00015973  -0.00274551  0.50281236  1
  Ca2+  Ca69  1  0.24957985  0.74816662  0.49992511  1
  Ca2+  Ca70  1  0.25248483  0.25444365  0.49923725  1
  Ca2+  Ca71  1  0.75530597  0.75309755  0.00135263  1
  Ca2+  Ca72  1  0.75144660  0.25140878  -0.00246428  1
  Ca2+  Ca73  1  0.24563286  0.25113589  -0.00129155  1
  Ca2+  Ca74  1  0.49882235  0.24728266  0.25545266  1
  Ca2+  Ca75  1  0.74670044  -0.00030857  0.74489235  1
  Ca2+  Ca76  1  0.25474561  -0.00008127  0.75205947  1
  Ca2+  Ca77  1  -0.00433867  0.25331488  0.24958558  1
  Ca2+  Ca78  1  0.24603491  -0.00271198  0.24682255  1
  Ca2+  Ca79  1  0.50473205  0.75473326  0.24876273  1
  Ca2+  Ca80  1  0.49931018  0.75036970  0.74826375  1
  Ca2+  Ca81  1  0.75298282  0.49877828  0.75227732  1
  Ca2+  Ca82  1  0.75420081  0.49768664  0.25177651  1
  Ca2+  Ca83  1  0.24945232  0.50639606  0.24859381  1
  Ca2+  Ca84  1  0.50113332  0.24400203  0.75095996  1
  Nb5+  Nb85  1  0.50117901  0.00343137  0.49490709  1
  Nb5+  Nb86  1  -0.00251686  0.49931002  0.49715059  1
  Nb5+  Nb87  1  0.00136377  0.50123138  -0.00355561  1
  Nb5+  Nb88  1  0.25219870  0.74491933  0.00031128  1
  Nb5+  Nb89  1  0.74583030  0.24471645  0.49968477  1
  Nb5+  Nb90  1  0.74982141  0.74449805  0.50188367  1
  Nb5+  Nb91  1  0.00449096  0.25380054  0.74861051  1
  Nb5+  Nb92  1  -0.00400668  0.74985486  0.23956130  1
  Nb5+  Nb93  1  0.25032535  0.50092887  0.75140938  1
  Nb5+  Nb94  1  -0.00276583  0.75222175  0.74548938  1
  Nb5+  Nb95  1  0.75045031  0.00087204  0.25386843  1
  Nb5+  Nb96  1  0.00267723  0.00177977  0.25419042  1
  Nb5+  Nb97  1  0.00349743  0.00753960  0.74341637  1
  Nb5+  Nb98  1  -0.00544550  0.50023722  0.24048819  1
  Nb5+  Nb99  1  0.00449656  0.50456800  0.74477826  1
  Nb5+  Nb100  1  0.49599029  -0.00228496  0.24760964  1
  Nb5+  Nb101  1  0.50287071  0.00300079  0.75711083  1
  Nb5+  Nb102  1  0.50002182  0.49977785  0.25470976  1
  Nb5+  Nb103  1  0.50573621  0.49597687  0.74856024  1
  Nb5+  Nb104  1  0.24769471  0.25000268  0.24663427  1
  Nb5+  Nb105  1  0.24933761  0.24467318  0.75324619  1
  Nb5+  Nb106  1  0.25187069  0.75198906  0.25330598  1
  Nb5+  Nb107  1  0.25189717  0.74257706  0.74862478  1
  Nb5+  Nb108  1  0.75667895  0.25280856  0.25043630  1
  Nb5+  Nb109  1  0.74518694  0.25080731  0.75112599  1
  Nb5+  Nb110  1  0.75147330  0.75250544  0.24765521  1
  Nb5+  Nb111  1  0.74848816  0.75082907  0.75318276  1
  Nb5+  Nb112  1  0.00217948  0.25249237  0.50464654  1
  Nb5+  Nb113  1  0.00291613  0.24705970  1.00544303  1
  Nb5+  Nb114  1  -0.00287807  0.75057518  0.49892150  1
  Nb5+  Nb115  1  0.00010540  0.74991961  0.99251607  1
  Nb5+  Nb116  1  0.49433392  0.24948458  0.49413918  1
  Nb5+  Nb117  1  0.49709099  0.24864481  1.00089313  1
  Nb5+  Nb118  1  0.49901494  0.74608379  0.49943616  1
  Nb5+  Nb119  1  0.50812968  0.75341518  1.00508604  1
  Nb5+  Nb120  1  0.24583212  0.00583237  -0.00325455  1
  Nb5+  Nb121  1  0.24281337  -0.00605372  0.49666865  1
  Nb5+  Nb122  1  0.25123023  0.50424700  0.00238583  1
  Nb5+  Nb123  1  0.25170511  0.50612882  0.49847592  1
  Nb5+  Nb124  1  0.75364301  0.00389913  -0.00680720  1
  Nb5+  Nb125  1  0.74943554  -0.00813018  0.49942453  1
  Nb5+  Nb126  1  0.74642141  0.49648144  -0.00228956  1
  Nb5+  Nb127  1  0.74875480  0.49219015  0.49753649  1
  O2-  O128  1  0.00087396  -0.00467150  0.13652413  1
  O2-  O129  1  0.02675668  -0.02113617  0.63293615  1
  O2-  O130  1  0.01024222  0.50011240  0.12470435  1
  O2-  O131  1  0.00802884  0.49823138  0.62846205  1
  O2-  O132  1  0.51505311  -0.03373178  0.13879339  1
  O2-  O133  1  0.51547180  -0.00909853  0.61517453  1
  O2-  O134  1  0.50599567  0.48162962  0.13355104  1
  O2-  O135  1  0.48062457  0.47206209  0.63488577  1
  O2-  O136  1  -0.02228658  -0.01428281  0.36890079  1
  O2-  O137  1  -0.02362017  0.00871576  0.86126211  1
  O2-  O138  1  -0.00928194  0.50382805  0.38034762  1
  O2-  O139  1  -0.00102036  0.50477892  0.87670639  1
  O2-  O140  1  0.48827866  0.02359429  0.37741692  1
  O2-  O141  1  0.49210847  0.02081298  0.86989633  1
  O2-  O142  1  0.49957832  0.52785448  0.37078817  1
  O2-  O143  1  0.50451155  0.52717006  0.86437428  1
  O2-  O144  1  0.25834970  0.22228092  0.13127700  1
  O2-  O145  1  0.26758205  0.23634933  0.63496827  1
  O2-  O146  1  0.25862883  0.72345077  0.11605990  1
  O2-  O147  1  0.25865981  0.71901466  0.63602491  1
  O2-  O148  1  0.78138814  0.25542919  0.13702952  1
  O2-  O149  1  0.76715753  0.27136390  0.61578852  1
  O2-  O150  1  0.78267211  0.76622559  0.13842152  1
  O2-  O151  1  0.77757948  0.76529834  0.61484736  1
  O2-  O152  1  0.22747622  0.27456083  0.36725972  1
  O2-  O153  1  0.22832948  0.28056879  0.86255630  1
  O2-  O154  1  0.23246463  0.77852222  0.36332033  1
  O2-  O155  1  0.22922821  0.75528940  0.87547369  1
  O2-  O156  1  0.72828091  0.24279614  0.38274957  1
  O2-  O157  1  0.73863522  0.22479874  0.86205482  1
  O2-  O158  1  0.74181757  0.74489528  0.38080471  1
  O2-  O159  1  0.72707684  0.73875541  0.86481418  1
  O2-  O160  1  -0.02839476  0.24526271  0.11438311  1
  O2-  O161  1  -0.02320989  0.25400819  0.62349682  1
  O2-  O162  1  -0.01916111  0.74186713  0.12603567  1
  O2-  O163  1  -0.02270789  0.74243381  0.63123654  1
  O2-  O164  1  0.47883218  0.26261908  0.12008198  1
  O2-  O165  1  0.48063215  0.24935274  0.61361742  1
  O2-  O166  1  0.46817410  0.76429762  0.11538976  1
  O2-  O167  1  0.48541191  0.78024437  0.61185317  1
  O2-  O168  1  0.27398567  -0.01750905  0.38267773  1
  O2-  O169  1  0.28461486  -0.01657157  0.88436131  1
  O2-  O170  1  0.25170739  0.48354931  0.38584341  1
  O2-  O171  1  0.24637334  0.48819829  0.87406739  1
  O2-  O172  1  0.76314989  0.01568073  0.37619654  1
  O2-  O173  1  0.76536363  0.01747314  0.87935040  1
  O2-  O174  1  0.75820632  0.52637964  0.38670391  1
  O2-  O175  1  0.75715811  0.52831649  0.88398023  1
  O2-  O176  1  0.01400236  0.26953787  0.38831225  1
  O2-  O177  1  0.02742186  0.24696873  0.86237403  1
  O2-  O178  1  0.01449612  0.74695698  0.38309454  1
  O2-  O179  1  0.02108936  0.74678028  0.87680612  1
  O2-  O180  1  0.53754045  0.23921303  0.38611818  1
  O2-  O181  1  0.52520175  0.23404126  0.88460047  1
  O2-  O182  1  0.53478461  0.73761757  0.38721602  1
  O2-  O183  1  0.51781888  0.73197230  0.88498044  1
  O2-  O184  1  0.21316332  0.01051913  0.11184711  1
  O2-  O185  1  0.23945578  0.01652335  0.61549202  1
  O2-  O186  1  0.22800041  0.51742108  0.11413055  1
  O2-  O187  1  0.23575327  0.51875786  0.63323781  1
  O2-  O188  1  0.74929839  -0.01007420  0.13479701  1
  O2-  O189  1  0.72394117  -0.01580301  0.61044249  1
  O2-  O190  1  0.74587344  0.47575919  0.11735195  1
  O2-  O191  1  0.75646626  0.48429853  0.61500313  1
  O2-  O192  1  0.12787149  0.27258254  0.22852195  1
  O2-  O193  1  0.12153764  0.26338759  0.71865782  1
  O2-  O194  1  0.11142543  0.77316133  0.23547149  1
  O2-  O195  1  0.11830382  0.76015567  0.73505138  1
  O2-  O196  1  0.63872879  0.26668213  0.23431145  1
  O2-  O197  1  0.63599360  0.27990784  0.73579005  1
  O2-  O198  1  0.64098456  0.78395554  0.23764207  1
  O2-  O199  1  0.63797833  0.76506046  0.72375378  1
  O2-  O200  1  0.36339063  0.22947399  0.27186406  1
  O2-  O201  1  0.36298060  0.23445435  0.77374540  1
  O2-  O202  1  0.36380020  0.72995924  0.26506271  1
  O2-  O203  1  0.36295099  0.72416483  0.77066467  1
  O2-  O204  1  0.86574012  0.22035396  0.28326851  1
  O2-  O205  1  0.88885724  0.22870821  0.76045485  1
  O2-  O206  1  0.87780407  0.73504509  0.27459865  1
  O2-  O207  1  0.88540506  0.72698172  0.77273754  1
  O2-  O208  1  0.26977878  0.36905001  0.22749007  1
  O2-  O209  1  0.26164290  0.38209279  0.73342553  1
  O2-  O210  1  0.25822360  0.86149764  0.21117456  1
  O2-  O211  1  0.25998583  0.85916650  0.73637404  1
  O2-  O212  1  0.77419322  0.36426652  0.27351359  1
  O2-  O213  1  0.78597942  0.36164453  0.75700192  1
  O2-  O214  1  0.77350222  0.88041762  0.26562870  1
  O2-  O215  1  0.78604714  0.86231021  0.75485188  1
  O2-  O216  1  0.22143086  0.13214780  0.26922397  1
  O2-  O217  1  0.22182951  0.13432625  0.76748902  1
  O2-  O218  1  0.21337394  0.64070165  0.25708543  1
  O2-  O219  1  0.22101060  0.62043576  0.76508897  1
  O2-  O220  1  0.73291626  0.12170468  0.24406592  1
  O2-  O221  1  0.74699881  0.13839441  0.71436414  1
  O2-  O222  1  0.72913132  0.63888435  0.24170771  1
  O2-  O223  1  0.75254428  0.63683987  0.72118942  1
  O2-  O224  1  0.10991727  0.48611092  0.26405150  1
  O2-  O225  1  0.12184706  0.47834447  0.75857699  1
  O2-  O226  1  0.11236367  0.96723134  0.26131082  1
  O2-  O227  1  0.11717398  0.98088097  0.77234572  1
  O2-  O228  1  0.61898482  0.47570342  0.26088441  1
  O2-  O229  1  0.61812934  0.47608290  0.74281464  1
  O2-  O230  1  0.63419710  0.98042463  0.26665126  1
  O2-  O231  1  0.61537855  0.95960958  0.75890687  1
  O2-  O232  1  0.38388016  0.02000924  0.23257905  1
  O2-  O233  1  0.38966373  0.03143066  0.72740468  1
  O2-  O234  1  0.38197632  0.53068844  0.24453596  1
  O2-  O235  1  0.36352511  0.52265463  0.75385681  1
  O2-  O236  1  0.87302868  0.01890198  0.24438128  1
  O2-  O237  1  0.88674646  0.01225106  0.71939516  1
  O2-  O238  1  0.88468846  0.54000336  0.24076767  1
  O2-  O239  1  0.89004046  0.51161243  0.75069864  1
  O2-  O240  1  0.47277959  0.38392550  0.27077132  1
  O2-  O241  1  0.47441207  0.38355988  0.77772475  1
  O2-  O242  1  0.48818045  0.88653384  0.28739571  1
  O2-  O243  1  0.46806569  0.88482440  0.76190221  1
  O2-  O244  1  0.96367060  0.38952054  0.24779199  1
  O2-  O245  1  0.99019084  0.37251903  0.75182204  1
  O2-  O246  1  0.97309129  0.86650654  0.25082066  1
  O2-  O247  1  0.98357216  0.86681442  0.75579083  1
  O2-  O248  1  0.02387996  0.11568129  0.26177268  1
  O2-  O249  1  0.02373775  0.12434845  0.73512346  1
  O2-  O250  1  0.01792734  0.63110332  0.25305479  1
  O2-  O251  1  0.02155883  0.62134669  0.75002168  1
  O2-  O252  1  0.52927589  0.11151782  0.24001330  1
  O2-  O253  1  0.54420677  0.11362184  0.74188553  1
  O2-  O254  1  0.52564977  0.62019841  0.23420840  1
  O2-  O255  1  0.50780330  0.61430730  0.71959064  1
  O2-  O256  1  0.12100811  0.48277226  -0.00728825  1
  O2-  O257  1  0.11450958  0.47471085  0.49664356  1
  O2-  O258  1  0.13376861  0.97253210  -0.02934999  1
  O2-  O259  1  0.13290889  0.96597113  0.48391751  1
  O2-  O260  1  0.63273005  0.47807720  -0.01123576  1
  O2-  O261  1  0.63380050  0.48068219  0.49827308  1
  O2-  O262  1  0.63732138  0.97222492  -0.01214881  1
  O2-  O263  1  0.62828157  0.99334405  0.47424886  1
  O2-  O264  1  0.36126413  0.01229850  0.03241815  1
  O2-  O265  1  0.38417669  0.01297267  0.50989707  1
  O2-  O266  1  0.36182103  0.53566166  0.00400203  1
  O2-  O267  1  0.36007989  0.54225033  0.50399950  1
  O2-  O268  1  0.86891568  0.03388455  0.01348815  1
  O2-  O269  1  0.86136236  0.01918637  0.51764797  1
  O2-  O270  1  0.88401099  0.52218575  0.00928641  1
  O2-  O271  1  0.87807989  0.51722829  0.50910600  1
  O2-  O272  1  0.47422204  0.36692007  -0.01981104  1
  O2-  O273  1  0.47237200  0.36288251  0.48178496  1
  O2-  O274  1  0.47443453  0.86447817  -0.02254070  1
  O2-  O275  1  0.49914493  0.88174869  0.48052019  1
  O2-  O276  1  0.97893648  0.38365017  -0.00382149  1
  O2-  O277  1  0.97399103  0.38008592  0.50693341  1
  O2-  O278  1  0.97930454  0.86309772  -0.00061552  1
  O2-  O279  1  0.96543202  0.86044952  0.50334805  1
  O2-  O280  1  0.03733920  0.13736908  0.00054164  1
  O2-  O281  1  0.01237558  0.13624065  0.49678449  1
  O2-  O282  1  0.02294228  0.62207688  0.00261486  1
  O2-  O283  1  0.01304123  0.62059364  0.50694135  1
  O2-  O284  1  0.51952139  0.13080090  0.02156127  1
  O2-  O285  1  0.52174474  0.12185300  0.50916336  1
  O2-  O286  1  0.51938715  0.63415530  0.02019256  1
  O2-  O287  1  0.51536913  0.63563612  0.52774111  1
  O2-  O288  1  0.11182636  0.29049540  0.01228838  1
  O2-  O289  1  0.11487642  0.26788176  0.52425458  1
  O2-  O290  1  0.11965019  0.76094249  0.01841023  1
  O2-  O291  1  0.10878298  0.76767292  0.52618938  1
  O2-  O292  1  0.61752365  0.27629164  0.01823200  1
  O2-  O293  1  0.63009382  0.26708686  0.52181870  1
  O2-  O294  1  0.61910269  0.77746663  0.02027733  1
  O2-  O295  1  0.63494761  0.76394562  0.52042866  1
  O2-  O296  1  0.38054148  0.22512202  -0.01991070  1
  O2-  O297  1  0.38466957  0.21965861  0.47284235  1
  O2-  O298  1  0.36505935  0.72910805  -0.01950801  1
  O2-  O299  1  0.38721270  0.73894568  0.47051275  1
  O2-  O300  1  0.89277742  0.24156130  -0.03665028  1
  O2-  O301  1  0.87039321  0.23707661  0.48632178  1
  O2-  O302  1  0.88840720  0.71879618  -0.01623692  1
  O2-  O303  1  0.87488823  0.72214635  0.48797235  1
  O2-  O304  1  0.27234701  0.38961983  0.01430620  1
  O2-  O305  1  0.26654079  0.39139624  0.52836214  1
  O2-  O306  1  0.26067833  0.86256183  0.01125177  1
  O2-  O307  1  0.27606593  0.88116251  0.52354044  1
  O2-  O308  1  0.78416623  0.38544052  -0.01797389  1
  O2-  O309  1  0.76576533  0.37719845  0.47976469  1
  O2-  O310  1  0.78532203  0.88772525  -0.00239479  1
  O2-  O311  1  0.76502609  0.87670917  0.48326438  1
  O2-  O312  1  0.22998721  0.11679280  -0.02800362  1
  O2-  O313  1  0.23172458  0.11498874  0.48290062  1
  O2-  O314  1  0.22080880  0.62591445  -0.01567732  1
  O2-  O315  1  0.20586583  0.61508753  0.49124146  1
  O2-  O316  1  0.72347351  0.11702385  0.01832614  1
  O2-  O317  1  0.73589197  0.12909647  0.51098778  1
  O2-  O318  1  0.73620713  0.61595973  0.02463607  1
  O2-  O319  1  0.73617591  0.62840242  0.51689273  1
