# generated using pymatgen
data_Sr64Ca21Nb43O192
_symmetry_space_group_name_H-M   'P 1'
_cell_length_a   16.62636454
_cell_length_b   16.58249179
_cell_length_c   16.76504147
_cell_angle_alpha   90.05191885
_cell_angle_beta   90.05942476
_cell_angle_gamma   90.04286844
_symmetry_Int_Tables_number   1
_chemical_formula_structural   Sr64Ca21Nb43O192
_chemical_formula_sum   'Sr64 Ca21 Nb43 O192'
_cell_volume   4622.22612260
_cell_formula_units_Z   1
loop_
 _symmetry_equiv_pos_site_id
 _symmetry_equiv_pos_as_xyz
  1  'x, y, z'
loop_
 _atom_type_symbol
 _atom_type_oxidation_number
  Sr2+  2.0
  Ca2+  2.0
  Nb5+  5.0
  O2-  -2.0
loop_
 _atom_site_type_symbol
 _atom_site_label
 _atom_site_symmetry_multiplicity
 _atom_site_fract_x
 _atom_site_fract_y
 _atom_site_fract_z
 _atom_site_occupancy
  Sr2+  Sr0  1  0.14374144  0.11368683  0.12141505  1
  Sr2+  Sr1  1  0.13047195  0.12103150  0.62846046  1
  Sr2+  Sr2  1  0.11852109  0.62034871  0.12385792  1
  Sr2+  Sr3  1  0.12698557  0.62735934  0.63201242  1
  Sr2+  Sr4  1  0.62653734  0.12746626  0.13068068  1
  Sr2+  Sr5  1  0.63090202  0.11674814  0.62547141  1
  Sr2+  Sr6  1  0.62713403  0.62867218  0.12267565  1
  Sr2+  Sr7  1  0.62296841  0.62916798  0.62546329  1
  Sr2+  Sr8  1  0.38216071  0.37313342  0.11920051  1
  Sr2+  Sr9  1  0.38663477  0.39021044  0.62506546  1
  Sr2+  Sr10  1  0.37411536  0.89065824  0.12563002  1
  Sr2+  Sr11  1  0.38048288  0.88280874  0.62012486  1
  Sr2+  Sr12  1  0.88230682  0.38851181  0.12618643  1
  Sr2+  Sr13  1  0.88588452  0.37892271  0.61651242  1
  Sr2+  Sr14  1  0.88507827  0.86413637  0.12628051  1
  Sr2+  Sr15  1  0.87058785  0.87427219  0.63531204  1
  Sr2+  Sr16  1  0.11015797  0.36316058  0.37845484  1
  Sr2+  Sr17  1  0.11762668  0.37213494  0.87888248  1
  Sr2+  Sr18  1  0.11165611  0.88132905  0.36632662  1
  Sr2+  Sr19  1  0.11368091  0.88078229  0.87631832  1
  Sr2+  Sr20  1  0.61954751  0.37354490  0.37167911  1
  Sr2+  Sr21  1  0.61749593  0.36666961  0.87124321  1
  Sr2+  Sr22  1  0.61024983  0.88052794  0.37446548  1
  Sr2+  Sr23  1  0.61553478  0.87489998  0.88451851  1
  Sr2+  Sr24  1  0.35844519  0.13201157  0.37451877  1
  Sr2+  Sr25  1  0.35187668  0.13144626  0.87759498  1
  Sr2+  Sr26  1  0.36334439  0.62344126  0.37566847  1
  Sr2+  Sr27  1  0.36083997  0.62282255  0.87770500  1
  Sr2+  Sr28  1  0.89756891  0.12619894  0.38063785  1
  Sr2+  Sr29  1  0.89159847  0.12447343  0.87150132  1
  Sr2+  Sr30  1  0.86616341  0.62403483  0.37167124  1
  Sr2+  Sr31  1  0.86835284  0.61921961  0.87875530  1
  Sr2+  Sr32  1  0.12133014  0.13171217  0.37990462  1
  Sr2+  Sr33  1  0.12066191  0.12533689  0.87499842  1
  Sr2+  Sr34  1  0.11340419  0.63294264  0.37825395  1
  Sr2+  Sr35  1  0.11483747  0.61626562  0.86606989  1
  Sr2+  Sr36  1  0.61382508  0.13215569  0.37518333  1
  Sr2+  Sr37  1  0.62074985  0.13291548  0.86867871  1
  Sr2+  Sr38  1  0.62061599  0.61767175  0.37292323  1
  Sr2+  Sr39  1  0.61830589  0.64072748  0.88359154  1
  Sr2+  Sr40  1  0.37093130  0.37133171  0.36672160  1
  Sr2+  Sr41  1  0.37199290  0.37158618  0.86544277  1
  Sr2+  Sr42  1  0.36632977  0.89008568  0.37493029  1
  Sr2+  Sr43  1  0.37348106  0.88573946  0.88807690  1
  Sr2+  Sr44  1  0.86458037  0.37454919  0.37508097  1
  Sr2+  Sr45  1  0.87203129  0.35946734  0.88220088  1
  Sr2+  Sr46  1  0.87228042  0.88781839  0.37266442  1
  Sr2+  Sr47  1  0.86623027  0.89195286  0.87765672  1
  Sr2+  Sr48  1  0.12959491  0.38489675  0.11856207  1
  Sr2+  Sr49  1  0.12883183  0.37323847  0.62352610  1
  Sr2+  Sr50  1  0.13915467  0.86434173  0.12418443  1
  Sr2+  Sr51  1  0.14484635  0.86168496  0.62948332  1
  Sr2+  Sr52  1  0.63946771  0.37099154  0.12780650  1
  Sr2+  Sr53  1  0.63221811  0.37381546  0.62698921  1
  Sr2+  Sr54  1  0.62895342  0.86633166  0.12652537  1
  Sr2+  Sr55  1  0.63427841  0.87149409  0.62993361  1
  Sr2+  Sr56  1  0.37545181  0.12918590  0.12755161  1
  Sr2+  Sr57  1  0.37982809  0.12883663  0.62846764  1
  Sr2+  Sr58  1  0.36075122  0.62016467  0.12591690  1
  Sr2+  Sr59  1  0.35331267  0.62680832  0.62457181  1
  Sr2+  Sr60  1  0.88529789  0.12822658  0.12445124  1
  Sr2+  Sr61  1  0.87907085  0.11935657  0.62973730  1
  Sr2+  Sr62  1  0.88487333  0.62374516  0.12734065  1
  Sr2+  Sr63  1  0.86121197  0.62649745  0.62837361  1
  Ca2+  Ca64  1  0.50141166  0.49667328  -0.00048775  1
  Ca2+  Ca65  1  -0.00193027  -0.00317705  0.00365737  1
  Ca2+  Ca66  1  0.00308791  -0.00287750  0.50421214  1
  Ca2+  Ca67  1  0.50233172  0.00472763  0.00095156  1
  Ca2+  Ca68  1  -0.00063107  0.50391754  0.49754655  1
  Ca2+  Ca69  1  0.74997578  0.24584525  0.49925236  1
  Ca2+  Ca70  1  0.24962777  0.25240945  0.00270317  1
  Ca2+  Ca71  1  0.74761634  0.24985260  -0.00028040  1
  Ca2+  Ca72  1  0.25195385  0.25223328  0.50416839  1
  Ca2+  Ca73  1  0.24652714  0.74713651  0.00105217  1
  Ca2+  Ca74  1  -0.00067365  0.25397550  0.24686983  1
  Ca2+  Ca75  1  0.50006506  0.74682556  0.25090391  1
  Ca2+  Ca76  1  0.75053596  -0.00051675  0.25267497  1
  Ca2+  Ca77  1  0.49787747  0.75047650  0.74881013  1
  Ca2+  Ca78  1  0.24913250  0.49897798  0.25274635  1
  Ca2+  Ca79  1  0.24843327  0.49629892  0.74899235  1
  Ca2+  Ca80  1  0.74911844  0.49762766  0.75138426  1
  Ca2+  Ca81  1  -0.00046474  0.25391838  0.75003263  1
  Ca2+  Ca82  1  0.25395648  -0.00227325  0.74961762  1
  Ca2+  Ca83  1  0.24651212  0.00057363  0.25315146  1
  Ca2+  Ca84  1  -0.00196916  0.75193914  0.74931110  1
  Nb5+  Nb85  1  0.50207310  0.00766786  0.49928524  1
  Nb5+  Nb86  1  -0.00320472  0.50100448  -0.00255332  1
  Nb5+  Nb87  1  0.50193997  0.50709561  0.49951130  1
  Nb5+  Nb88  1  0.24508111  0.75147090  0.49447587  1
  Nb5+  Nb89  1  0.75452676  0.75082017  0.00844016  1
  Nb5+  Nb90  1  0.74414643  0.75146327  0.50068857  1
  Nb5+  Nb91  1  0.75021354  0.49991180  0.24776946  1
  Nb5+  Nb92  1  0.74476371  0.00177324  0.75374671  1
  Nb5+  Nb93  1  -0.00060607  0.74969816  0.25205323  1
  Nb5+  Nb94  1  0.49836615  0.25050187  0.74228533  1
  Nb5+  Nb95  1  0.49921066  0.25076178  0.24570524  1
  Nb5+  Nb96  1  0.00049954  0.00722819  0.24583591  1
  Nb5+  Nb97  1  0.00520914  -0.00286697  0.74521466  1
  Nb5+  Nb98  1  0.00045796  0.50028241  0.25423739  1
  Nb5+  Nb99  1  -0.00267702  0.49859502  0.74432568  1
  Nb5+  Nb100  1  0.49740327  -0.00042164  0.25019513  1
  Nb5+  Nb101  1  0.50050878  0.00248106  0.75267530  1
  Nb5+  Nb102  1  0.50205295  0.49927268  0.24660400  1
  Nb5+  Nb103  1  0.50381238  0.50397270  0.75270499  1
  Nb5+  Nb104  1  0.24354968  0.25599717  0.24923443  1
  Nb5+  Nb105  1  0.24545005  0.25221921  0.74879377  1
  Nb5+  Nb106  1  0.25418225  0.74371488  0.25019430  1
  Nb5+  Nb107  1  0.25385633  0.75267542  0.76081092  1
  Nb5+  Nb108  1  0.74989612  0.24155016  0.25404335  1
  Nb5+  Nb109  1  0.75278073  0.25099718  0.74465102  1
  Nb5+  Nb110  1  0.75326806  0.75245367  0.25795255  1
  Nb5+  Nb111  1  0.75061908  0.75152613  0.76264278  1
  Nb5+  Nb112  1  0.00055749  0.25130768  0.50418640  1
  Nb5+  Nb113  1  0.00231763  0.24511489  1.00534709  1
  Nb5+  Nb114  1  -0.00759573  0.75263447  0.50180206  1
  Nb5+  Nb115  1  -0.00181352  0.74802093  0.99451821  1
  Nb5+  Nb116  1  0.49729603  0.25849506  0.49601117  1
  Nb5+  Nb117  1  0.49990029  0.24904600  0.99178052  1
  Nb5+  Nb118  1  0.49471187  0.75316331  0.49779858  1
  Nb5+  Nb119  1  0.49298793  0.74545711  1.00449066  1
  Nb5+  Nb120  1  0.24881366  -0.00330410  -0.00163699  1
  Nb5+  Nb121  1  0.24583856  -0.00038483  0.50276826  1
  Nb5+  Nb122  1  0.25352562  0.50179291  -0.00024607  1
  Nb5+  Nb123  1  0.24761498  0.49676753  0.49609601  1
  Nb5+  Nb124  1  0.74627691  0.00765878  0.00480363  1
  Nb5+  Nb125  1  0.74913950  -0.00024356  0.49687698  1
  Nb5+  Nb126  1  0.75101097  0.49726752  -0.00390612  1
  Nb5+  Nb127  1  0.74994042  0.50133656  0.50088221  1
  O2-  O128  1  -0.03876545  -0.00927696  0.13493085  1
  O2-  O129  1  -0.03568033  -0.01086110  0.63499556  1
  O2-  O130  1  0.00421870  0.49031652  0.12732144  1
  O2-  O131  1  0.01062643  0.47495839  0.63220567  1
  O2-  O132  1  0.47412042  0.00586651  0.13723397  1
  O2-  O133  1  0.48316218  -0.00034623  0.61719161  1
  O2-  O134  1  0.51636678  0.47103084  0.13620740  1
  O2-  O135  1  0.52323733  0.48176999  0.61306677  1
  O2-  O136  1  0.02467259  0.01606151  0.36617770  1
  O2-  O137  1  0.01326155  0.01740157  0.86559313  1
  O2-  O138  1  -0.01295270  0.52993158  0.36438407  1
  O2-  O139  1  -0.01269187  0.52518133  0.88478833  1
  O2-  O140  1  0.52538857  0.00910495  0.37922819  1
  O2-  O141  1  0.53188125  0.00611869  0.86271466  1
  O2-  O142  1  0.49709971  0.50428846  0.37795677  1
  O2-  O143  1  0.47953230  0.50744261  0.86326851  1
  O2-  O144  1  0.25536567  0.22347213  0.13640908  1
  O2-  O145  1  0.25199346  0.21635824  0.63553502  1
  O2-  O146  1  0.22898295  0.72421253  0.13842857  1
  O2-  O147  1  0.23565941  0.73064106  0.61178419  1
  O2-  O148  1  0.74026196  0.23768778  0.13679219  1
  O2-  O149  1  0.74083866  0.21977341  0.63258916  1
  O2-  O150  1  0.74002058  0.73525999  0.12341746  1
  O2-  O151  1  0.73362950  0.73470021  0.61529597  1
  O2-  O152  1  0.25260425  0.27271208  0.36835141  1
  O2-  O153  1  0.25872580  0.27011176  0.86675328  1
  O2-  O154  1  0.27645130  0.76593300  0.37901012  1
  O2-  O155  1  0.27320143  0.77310419  0.86988082  1
  O2-  O156  1  0.74174928  0.28017609  0.36541598  1
  O2-  O157  1  0.73667846  0.26993902  0.86160317  1
  O2-  O158  1  0.77360014  0.76153707  0.37311250  1
  O2-  O159  1  0.77288442  0.76354206  0.87547581  1
  O2-  O160  1  -0.02138810  0.27535365  0.11616290  1
  O2-  O161  1  -0.00223254  0.28003222  0.61864297  1
  O2-  O162  1  0.00777690  0.76151578  0.13037809  1
  O2-  O163  1  0.01321224  0.78065328  0.61065261  1
  O2-  O164  1  0.49483612  0.25925705  0.13103763  1
  O2-  O165  1  0.49177019  0.26167579  0.62488168  1
  O2-  O166  1  0.52600135  0.75584365  0.11803355  1
  O2-  O167  1  0.52752187  0.75649134  0.60991878  1
  O2-  O168  1  0.23554191  -0.03157680  0.38912763  1
  O2-  O169  1  0.23339613  -0.03046554  0.88176651  1
  O2-  O170  1  0.28566013  0.49152225  0.38589285  1
  O2-  O171  1  0.26361529  0.47488288  0.88421546  1
  O2-  O172  1  0.73195104  -0.03505063  0.38750393  1
  O2-  O173  1  0.72641939  -0.01972808  0.86653593  1
  O2-  O174  1  0.76283819  0.49390800  0.37134192  1
  O2-  O175  1  0.77815272  0.48389076  0.88562082  1
  O2-  O176  1  0.01076271  0.23416749  0.38153672  1
  O2-  O177  1  0.01158724  0.23801350  0.88513079  1
  O2-  O178  1  -0.01388562  0.72575948  0.36914141  1
  O2-  O179  1  -0.01358005  0.72149251  0.88453350  1
  O2-  O180  1  0.50507431  0.24406161  0.37917261  1
  O2-  O181  1  0.50778718  0.24158110  0.87347811  1
  O2-  O182  1  0.49956035  0.72241701  0.38600870  1
  O2-  O183  1  0.50285683  0.74649907  0.88581777  1
  O2-  O184  1  0.27035299  0.01984205  0.11805886  1
  O2-  O185  1  0.28575144  0.01118870  0.61303448  1
  O2-  O186  1  0.23482473  0.52910045  0.11829828  1
  O2-  O187  1  0.23692037  0.52580906  0.61127514  1
  O2-  O188  1  0.76495999  0.02607992  0.11564352  1
  O2-  O189  1  0.75876419  0.00762876  0.62112440  1
  O2-  O190  1  0.73477972  0.51762825  0.12955521  1
  O2-  O191  1  0.73209902  0.52473151  0.61280677  1
  O2-  O192  1  0.13286385  0.28683007  0.24269315  1
  O2-  O193  1  0.13398758  0.28114418  0.74677845  1
  O2-  O194  1  0.11775163  0.76204737  0.26805921  1
  O2-  O195  1  0.13483058  0.77561040  0.76185374  1
  O2-  O196  1  0.61966081  0.27108126  0.24973162  1
  O2-  O197  1  0.61906765  0.26625616  0.74528391  1
  O2-  O198  1  0.63919699  0.76996213  0.26315959  1
  O2-  O199  1  0.63631908  0.77591508  0.76124283  1
  O2-  O200  1  0.38341843  0.22981426  0.25779212  1
  O2-  O201  1  0.38338065  0.22625061  0.75545447  1
  O2-  O202  1  0.36647889  0.71975532  0.23914141  1
  O2-  O203  1  0.36734009  0.71751818  0.74090214  1
  O2-  O204  1  0.86346411  0.22094385  0.25738935  1
  O2-  O205  1  0.86348804  0.22096528  0.75530571  1
  O2-  O206  1  0.87539664  0.72768634  0.23838469  1
  O2-  O207  1  0.86103439  0.74387987  0.72243945  1
  O2-  O208  1  0.28530888  0.36658650  0.23235043  1
  O2-  O209  1  0.27966314  0.36352176  0.72339365  1
  O2-  O210  1  0.26426775  0.86148611  0.23562022  1
  O2-  O211  1  0.27298028  0.86193249  0.71822256  1
  O2-  O212  1  0.76776586  0.38271481  0.23306844  1
  O2-  O213  1  0.76940286  0.36281140  0.71721253  1
  O2-  O214  1  0.77485791  0.86294320  0.23007007  1
  O2-  O215  1  0.76020701  0.87913380  0.73564760  1
  O2-  O216  1  0.22961068  0.13653497  0.27509879  1
  O2-  O217  1  0.22928956  0.13261971  0.77414134  1
  O2-  O218  1  0.22978625  0.63331626  0.28563208  1
  O2-  O219  1  0.22774632  0.63413251  0.76390440  1
  O2-  O220  1  0.71837049  0.13303244  0.27039434  1
  O2-  O221  1  0.72374573  0.11911338  0.76127523  1
  O2-  O222  1  0.73498000  0.62681662  0.26345169  1
  O2-  O223  1  0.73238694  0.63685072  0.76776994  1
  O2-  O224  1  0.11315930  0.47877816  0.26060657  1
  O2-  O225  1  0.11331869  0.48122681  0.77218034  1
  O2-  O226  1  0.11141881  0.96883185  0.22773930  1
  O2-  O227  1  0.11638764  0.97759801  0.72521051  1
  O2-  O228  1  0.63152275  0.47980774  0.26504677  1
  O2-  O229  1  0.61542067  0.46344688  0.75489457  1
  O2-  O230  1  0.61416780  0.98116746  0.23183125  1
  O2-  O231  1  0.62408029  0.99008048  0.72135087  1
  O2-  O232  1  0.38341387  0.02014404  0.27936465  1
  O2-  O233  1  0.38906059  0.02807718  0.76770380  1
  O2-  O234  1  0.38949595  0.52076653  0.24048742  1
  O2-  O235  1  0.39101517  0.51156158  0.71867780  1
  O2-  O236  1  0.88466293  0.01434410  0.28046819  1
  O2-  O237  1  0.86048127  0.01811774  0.76454435  1
  O2-  O238  1  0.86843053  0.52136113  0.23911297  1
  O2-  O239  1  0.88156913  0.52944854  0.73978036  1
  O2-  O240  1  0.48625061  0.37135397  0.26783594  1
  O2-  O241  1  0.48065274  0.36801978  0.75661496  1
  O2-  O242  1  0.47986297  0.88430800  0.26627823  1
  O2-  O243  1  0.48123458  0.88826767  0.74788857  1
  O2-  O244  1  0.96783526  0.38889010  0.26653142  1
  O2-  O245  1  0.96937584  0.38766889  0.77675155  1
  O2-  O246  1  0.97832956  0.86546767  0.26422683  1
  O2-  O247  1  0.97376293  0.88546646  0.77274089  1
  O2-  O248  1  0.02293414  0.11851528  0.22632414  1
  O2-  O249  1  0.01273074  0.11715699  0.73193684  1
  O2-  O250  1  0.01191650  0.62527498  0.23142503  1
  O2-  O251  1  0.02203935  0.61749886  0.73620768  1
  O2-  O252  1  0.52190993  0.13066015  0.24772966  1
  O2-  O253  1  0.52174792  0.12844865  0.73287116  1
  O2-  O254  1  0.53360950  0.61015267  0.24109275  1
  O2-  O255  1  0.53518675  0.61440881  0.74397351  1
  O2-  O256  1  0.11530455  0.48593445  -0.00562578  1
  O2-  O257  1  0.13644002  0.48250035  0.47449872  1
  O2-  O258  1  0.13131779  0.97480517  0.02145055  1
  O2-  O259  1  0.13751410  0.98228818  0.53560576  1
  O2-  O260  1  0.63793951  0.48354647  -0.01862143  1
  O2-  O261  1  0.62846114  0.48729221  0.47905252  1
  O2-  O262  1  0.63741585  0.96287772  0.01300103  1
  O2-  O263  1  0.61771275  0.97234910  0.51613903  1
  O2-  O264  1  0.36758430  0.01326947  -0.02647857  1
  O2-  O265  1  0.38494441  0.00726208  0.47685633  1
  O2-  O266  1  0.36653194  0.52400301  0.01208550  1
  O2-  O267  1  0.38792013  0.52221776  0.51495266  1
  O2-  O268  1  0.85878584  0.01316039  -0.03018526  1
  O2-  O269  1  0.86295732  0.01411372  0.48263631  1
  O2-  O270  1  0.87619684  0.52088463  0.01793462  1
  O2-  O271  1  0.86385047  0.52908996  0.50701834  1
  O2-  O272  1  0.46314721  0.36392583  -0.01248804  1
  O2-  O273  1  0.47768268  0.37377426  0.48866539  1
  O2-  O274  1  0.47890699  0.86538929  0.00061830  1
  O2-  O275  1  0.48478003  0.86921687  0.48254190  1
  O2-  O276  1  0.97658683  0.38536971  -0.01347660  1
  O2-  O277  1  0.97196046  0.36926998  0.47721717  1
  O2-  O278  1  0.96931225  0.86101021  -0.01285015  1
  O2-  O279  1  0.99132348  0.86371355  0.46347230  1
  O2-  O280  1  0.02259288  0.13330328  0.02595595  1
  O2-  O281  1  0.02771448  0.13383298  0.51841238  1
  O2-  O282  1  0.01053458  0.62540100  0.02133107  1
  O2-  O283  1  0.03034098  0.64096544  0.51167221  1
  O2-  O284  1  0.53576282  0.13688400  0.01127042  1
  O2-  O285  1  0.52179035  0.12192562  0.50709154  1
  O2-  O286  1  0.53301389  0.63109647  0.00631821  1
  O2-  O287  1  0.52652993  0.62064374  0.50894392  1
  O2-  O288  1  0.11433475  0.28237456  0.00867378  1
  O2-  O289  1  0.11940804  0.28074175  0.50453976  1
  O2-  O290  1  0.11149663  0.77126556  -0.00900000  1
  O2-  O291  1  0.13269851  0.76835799  0.47621056  1
  O2-  O292  1  0.61250358  0.28762414  0.00529309  1
  O2-  O293  1  0.61318493  0.26856640  0.50809931  1
  O2-  O294  1  0.63974213  0.76536896  -0.01281682  1
  O2-  O295  1  0.63259352  0.76959479  0.47947027  1
  O2-  O296  1  0.38588914  0.21677946  0.00341036  1
  O2-  O297  1  0.38679811  0.22001306  0.50082960  1
  O2-  O298  1  0.38275404  0.71605420  0.01142664  1
  O2-  O299  1  0.38258428  0.73295331  0.51428869  1
  O2-  O300  1  0.88211700  0.22849069  -0.01364385  1
  O2-  O301  1  0.88325924  0.22034782  0.50281234  1
  O2-  O302  1  0.87346591  0.72609966  0.01558026  1
  O2-  O303  1  0.87770825  0.73318979  0.51184730  1
  O2-  O304  1  0.25795252  0.38724012  0.03220498  1
  O2-  O305  1  0.27533657  0.38804641  0.52251445  1
  O2-  O306  1  0.27225622  0.87895321  0.02422086  1
  O2-  O307  1  0.27103533  0.86750381  0.51761037  1
  O2-  O308  1  0.77151874  0.38687372  0.02525584  1
  O2-  O309  1  0.76762272  0.38762728  0.51511209  1
  O2-  O310  1  0.77558201  0.86708709  0.01441568  1
  O2-  O311  1  0.76965738  0.86715594  0.51750248  1
  O2-  O312  1  0.22461813  0.11474572  -0.01908587  1
  O2-  O313  1  0.23586086  0.11231696  0.47885002  1
  O2-  O314  1  0.22695155  0.61543350  -0.03145484  1
  O2-  O315  1  0.24551224  0.63011456  0.47726468  1
  O2-  O316  1  0.71696214  0.11531456  -0.01765073  1
  O2-  O317  1  0.71790519  0.10919713  0.48382988  1
  O2-  O318  1  0.74023627  0.62637847  -0.01644672  1
  O2-  O319  1  0.73496993  0.63274546  0.47761851  1
