# generated using pymatgen
data_Sr64Ca21Nb43O192
_symmetry_space_group_name_H-M   'P 1'
_cell_length_a   16.57893783
_cell_length_b   16.57506190
_cell_length_c   16.75059142
_cell_angle_alpha   89.99893368
_cell_angle_beta   90.02395326
_cell_angle_gamma   90.07205737
_symmetry_Int_Tables_number   1
_chemical_formula_structural   Sr64Ca21Nb43O192
_chemical_formula_sum   'Sr64 Ca21 Nb43 O192'
_cell_volume   4603.00690141
_cell_formula_units_Z   1
loop_
 _symmetry_equiv_pos_site_id
 _symmetry_equiv_pos_as_xyz
  1  'x, y, z'
loop_
 _atom_type_symbol
 _atom_type_oxidation_number
  Sr2+  2.0
  Ca2+  2.0
  Nb5+  5.0
  O2-  -2.0
loop_
 _atom_site_type_symbol
 _atom_site_label
 _atom_site_symmetry_multiplicity
 _atom_site_fract_x
 _atom_site_fract_y
 _atom_site_fract_z
 _atom_site_occupancy
  Sr2+  Sr0  1  0.12316929  0.11067519  0.12874246  1
  Sr2+  Sr1  1  0.11607597  0.11269982  0.62694932  1
  Sr2+  Sr2  1  0.11471955  0.62304434  0.13544676  1
  Sr2+  Sr3  1  0.11994246  0.61526726  0.62434284  1
  Sr2+  Sr4  1  0.62433803  0.11447376  0.12644238  1
  Sr2+  Sr5  1  0.62992473  0.12054572  0.61795898  1
  Sr2+  Sr6  1  0.63504468  0.62302490  0.13244242  1
  Sr2+  Sr7  1  0.61714458  0.61954304  0.62523633  1
  Sr2+  Sr8  1  0.37761851  0.37350737  0.13689333  1
  Sr2+  Sr9  1  0.37107030  0.38414572  0.61114550  1
  Sr2+  Sr10  1  0.38126046  0.86284517  0.12866192  1
  Sr2+  Sr11  1  0.36954045  0.86413950  0.62187951  1
  Sr2+  Sr12  1  0.86694210  0.39298328  0.12685186  1
  Sr2+  Sr13  1  0.86945922  0.39122019  0.62407864  1
  Sr2+  Sr14  1  0.87573374  0.85228383  0.12493166  1
  Sr2+  Sr15  1  0.86917400  0.86890108  0.62708716  1
  Sr2+  Sr16  1  0.12864326  0.38431414  0.37574875  1
  Sr2+  Sr17  1  0.13254073  0.37758312  0.87521737  1
  Sr2+  Sr18  1  0.14115223  0.87827274  0.37582282  1
  Sr2+  Sr19  1  0.13411592  0.87773309  0.87369412  1
  Sr2+  Sr20  1  0.60824067  0.37408438  0.37328729  1
  Sr2+  Sr21  1  0.62734250  0.38138393  0.87943360  1
  Sr2+  Sr22  1  0.63058779  0.88677026  0.37625395  1
  Sr2+  Sr23  1  0.60899530  0.88638266  0.87634358  1
  Sr2+  Sr24  1  0.39143641  0.13131643  0.37241322  1
  Sr2+  Sr25  1  0.38601772  0.13306844  0.87122513  1
  Sr2+  Sr26  1  0.37815744  0.62535767  0.36758280  1
  Sr2+  Sr27  1  0.38325295  0.62764887  0.87424864  1
  Sr2+  Sr28  1  0.87523654  0.12981899  0.37423132  1
  Sr2+  Sr29  1  0.87828690  0.13602255  0.86846619  1
  Sr2+  Sr30  1  0.87495863  0.62611835  0.34838004  1
  Sr2+  Sr31  1  0.88274675  0.63381554  0.87414250  1
  Sr2+  Sr32  1  0.12190834  0.13321371  0.38526891  1
  Sr2+  Sr33  1  0.12972498  0.13497857  0.87388740  1
  Sr2+  Sr34  1  0.13609573  0.63758731  0.36375674  1
  Sr2+  Sr35  1  0.13808368  0.63340403  0.87411313  1
  Sr2+  Sr36  1  0.62978114  0.13050274  0.37327733  1
  Sr2+  Sr37  1  0.62268329  0.12625387  0.87464976  1
  Sr2+  Sr38  1  0.62707188  0.65459703  0.37799757  1
  Sr2+  Sr39  1  0.63400554  0.62867382  0.87160552  1
  Sr2+  Sr40  1  0.38579442  0.37744972  0.37518393  1
  Sr2+  Sr41  1  0.38182429  0.38217969  0.87754373  1
  Sr2+  Sr42  1  0.37765757  0.85812711  0.38247155  1
  Sr2+  Sr43  1  0.37969068  0.87422847  0.87348708  1
  Sr2+  Sr44  1  0.87064287  0.37642606  0.36826927  1
  Sr2+  Sr45  1  0.87290331  0.38176454  0.88050671  1
  Sr2+  Sr46  1  0.87089611  0.88118038  0.37065513  1
  Sr2+  Sr47  1  0.88090852  0.87492515  0.88039324  1
  Sr2+  Sr48  1  0.12309721  0.37781124  0.12870059  1
  Sr2+  Sr49  1  0.11652290  0.38237630  0.62686100  1
  Sr2+  Sr50  1  0.11680698  0.86953027  0.12547523  1
  Sr2+  Sr51  1  0.11992584  0.87198375  0.61889539  1
  Sr2+  Sr52  1  0.62097459  0.37791075  0.13136409  1
  Sr2+  Sr53  1  0.63037990  0.37457557  0.60970029  1
  Sr2+  Sr54  1  0.63050744  0.86818226  0.12097902  1
  Sr2+  Sr55  1  0.62577025  0.86309092  0.61493006  1
  Sr2+  Sr56  1  0.37477777  0.12291931  0.13008713  1
  Sr2+  Sr57  1  0.35597997  0.11618518  0.62702296  1
  Sr2+  Sr58  1  0.35913572  0.62223376  0.12889207  1
  Sr2+  Sr59  1  0.36802425  0.61186982  0.62401467  1
  Sr2+  Sr60  1  0.87640977  0.12049235  0.12613753  1
  Sr2+  Sr61  1  0.87326641  0.12340976  0.62431800  1
  Sr2+  Sr62  1  0.87504159  0.61453362  0.12115887  1
  Sr2+  Sr63  1  0.85385909  0.62727932  0.63251889  1
  Ca2+  Ca64  1  0.49990507  0.49926118  0.00169168  1
  Ca2+  Ca65  1  0.50467180  0.50254250  0.49816954  1
  Ca2+  Ca66  1  0.00221714  0.49675394  -0.00337263  1
  Ca2+  Ca67  1  0.49811080  0.00055732  0.50098484  1
  Ca2+  Ca68  1  -0.00263228  0.50123468  0.49786940  1
  Ca2+  Ca69  1  0.74606715  0.75131875  -0.00246091  1
  Ca2+  Ca70  1  0.75686435  0.75173597  0.49850930  1
  Ca2+  Ca71  1  0.24892052  0.25057160  0.50252764  1
  Ca2+  Ca72  1  0.24911783  0.74644786  0.50454704  1
  Ca2+  Ca73  1  0.25133279  0.75362178  0.00249179  1
  Ca2+  Ca74  1  0.74958295  -0.00278066  0.75230739  1
  Ca2+  Ca75  1  0.25273018  0.49861220  0.24831444  1
  Ca2+  Ca76  1  0.49851195  0.25549173  0.74649672  1
  Ca2+  Ca77  1  0.49976941  0.74872133  0.74975282  1
  Ca2+  Ca78  1  0.25293250  0.00221740  0.24949557  1
  Ca2+  Ca79  1  -0.00072565  0.75159157  0.25140332  1
  Ca2+  Ca80  1  0.75117075  0.00194708  0.24579730  1
  Ca2+  Ca81  1  0.74653608  0.49728928  0.74941453  1
  Ca2+  Ca82  1  0.50321667  0.75308968  0.25066559  1
  Ca2+  Ca83  1  0.74645738  0.49903510  0.25751102  1
  Ca2+  Ca84  1  0.00022832  0.24840024  0.24600716  1
  Nb5+  Nb85  1  -0.00257662  -0.00203519  0.50642527  1
  Nb5+  Nb86  1  0.00238373  0.00118875  0.00037123  1
  Nb5+  Nb87  1  0.49774574  -0.00003654  0.00244847  1
  Nb5+  Nb88  1  0.75533588  0.24812932  -0.00407891  1
  Nb5+  Nb89  1  0.25485719  0.25033508  0.00051272  1
  Nb5+  Nb90  1  0.75481340  0.25101264  0.49353702  1
  Nb5+  Nb91  1  0.50297000  0.24868022  0.24860176  1
  Nb5+  Nb92  1  -0.00183778  0.25466770  0.74631046  1
  Nb5+  Nb93  1  0.25049494  0.49177180  0.75429363  1
  Nb5+  Nb94  1  0.24882028  -0.00591490  0.75143661  1
  Nb5+  Nb95  1  0.00393960  0.75483547  0.74836648  1
  Nb5+  Nb96  1  0.00424138  -0.00069812  0.26171292  1
  Nb5+  Nb97  1  0.00092345  0.00152338  0.75607454  1
  Nb5+  Nb98  1  0.00083027  0.49496409  0.24884618  1
  Nb5+  Nb99  1  0.00062662  0.50915739  0.75423426  1
  Nb5+  Nb100  1  0.49896156  -0.00151070  0.25336299  1
  Nb5+  Nb101  1  0.49821979  0.00283446  0.74294663  1
  Nb5+  Nb102  1  0.50476693  0.50726446  0.25035615  1
  Nb5+  Nb103  1  0.50323798  0.49239816  0.74992784  1
  Nb5+  Nb104  1  0.25043304  0.24691184  0.25690221  1
  Nb5+  Nb105  1  0.24829578  0.24526952  0.74869490  1
  Nb5+  Nb106  1  0.25253898  0.75496501  0.24962968  1
  Nb5+  Nb107  1  0.25029366  0.73978328  0.74809661  1
  Nb5+  Nb108  1  0.75090199  0.24639554  0.23937656  1
  Nb5+  Nb109  1  0.74681511  0.25375089  0.74537762  1
  Nb5+  Nb110  1  0.75155170  0.75205377  0.24978994  1
  Nb5+  Nb111  1  0.74388499  0.75570484  0.75379835  1
  Nb5+  Nb112  1  -0.00273000  0.25189731  0.49853442  1
  Nb5+  Nb113  1  0.00252989  0.24688979  0.99802169  1
  Nb5+  Nb114  1  -0.00046453  0.74647427  0.49425104  1
  Nb5+  Nb115  1  0.00501895  0.74577336  0.99597520  1
  Nb5+  Nb116  1  0.50180545  0.24424477  0.50722871  1
  Nb5+  Nb117  1  0.50446422  0.25229990  1.00013374  1
  Nb5+  Nb118  1  0.50106481  0.74804480  0.50403274  1
  Nb5+  Nb119  1  0.50345292  0.74460816  1.00119626  1
  Nb5+  Nb120  1  0.25496178  0.00419609  -0.00355445  1
  Nb5+  Nb121  1  0.25013399  0.00569636  0.49410919  1
  Nb5+  Nb122  1  0.24655382  0.50232325  0.00236691  1
  Nb5+  Nb123  1  0.24825822  0.50180754  0.49338977  1
  Nb5+  Nb124  1  0.75522059  0.00253221  -0.00442798  1
  Nb5+  Nb125  1  0.75124610  -0.00064874  0.50224032  1
  Nb5+  Nb126  1  0.74291319  0.50336687  0.00035900  1
  Nb5+  Nb127  1  0.75163306  0.50628576  0.50002935  1
  O2-  O128  1  -0.01325755  0.02092283  0.11115838  1
  O2-  O129  1  -0.01359046  0.01251777  0.62541139  1
  O2-  O130  1  0.00282248  0.52346868  0.12782720  1
  O2-  O131  1  0.01292006  0.50745850  0.63877138  1
  O2-  O132  1  0.47508619  0.00839679  0.11877325  1
  O2-  O133  1  0.46942699  0.01792326  0.63408371  1
  O2-  O134  1  0.50172881  0.48969457  0.13443492  1
  O2-  O135  1  0.49092790  0.51593528  0.63420803  1
  O2-  O136  1  0.01686534  -0.01834797  0.37660966  1
  O2-  O137  1  0.01534336  -0.02315331  0.86902595  1
  O2-  O138  1  -0.00456958  0.46456222  0.36500802  1
  O2-  O139  1  0.00142995  0.46562982  0.86251636  1
  O2-  O140  1  0.52507053  0.00358204  0.36524968  1
  O2-  O141  1  0.50494114  -0.00040326  0.88028371  1
  O2-  O142  1  0.48918146  0.48732961  0.36604723  1
  O2-  O143  1  0.50230848  0.47437772  0.86859924  1
  O2-  O144  1  0.24059892  0.27336887  0.11292687  1
  O2-  O145  1  0.23421535  0.27945993  0.63944455  1
  O2-  O146  1  0.24179060  0.78675178  0.13451904  1
  O2-  O147  1  0.23147957  0.77701383  0.63974584  1
  O2-  O148  1  0.73605515  0.24740678  0.12264871  1
  O2-  O149  1  0.73975039  0.25218395  0.62778362  1
  O2-  O150  1  0.72488285  0.74879656  0.13174976  1
  O2-  O151  1  0.74646727  0.76796766  0.63543555  1
  O2-  O152  1  0.26259591  0.21528585  0.36585265  1
  O2-  O153  1  0.25406159  0.23116671  0.87239581  1
  O2-  O154  1  0.26723809  0.72785850  0.37058092  1
  O2-  O155  1  0.26437590  0.73259801  0.86609443  1
  O2-  O156  1  0.76546023  0.24216330  0.37781079  1
  O2-  O157  1  0.76195781  0.25318892  0.87928572  1
  O2-  O158  1  0.78244705  0.74972449  0.36655864  1
  O2-  O159  1  0.76835010  0.72753207  0.86616942  1
  O2-  O160  1  0.00999425  0.21394034  0.10728658  1
  O2-  O161  1  0.01497969  0.22790676  0.63147136  1
  O2-  O162  1  0.02012710  0.74390492  0.11231786  1
  O2-  O163  1  0.03131403  0.73911278  0.63652612  1
  O2-  O164  1  0.51211070  0.24441584  0.12631098  1
  O2-  O165  1  0.53431364  0.24291676  0.61681718  1
  O2-  O166  1  0.51472273  0.77070083  0.11630411  1
  O2-  O167  1  0.53502335  0.74647361  0.62051309  1
  O2-  O168  1  0.21882383  0.01818216  0.38500913  1
  O2-  O169  1  0.22325585  0.01751576  0.86807549  1
  O2-  O170  1  0.24298104  0.52716692  0.38235479  1
  O2-  O171  1  0.23645759  0.51570058  0.87413659  1
  O2-  O172  1  0.73623664  0.00895706  0.38420272  1
  O2-  O173  1  0.71260743  0.00108279  0.88609571  1
  O2-  O174  1  0.78372702  0.50088343  0.38834549  1
  O2-  O175  1  0.73325997  0.49300954  0.88168853  1
  O2-  O176  1  -0.02677993  0.25743967  0.38588708  1
  O2-  O177  1  -0.01964641  0.25671973  0.87094410  1
  O2-  O178  1  -0.03181065  0.76256731  0.38651055  1
  O2-  O179  1  -0.01348898  0.76794380  0.87250797  1
  O2-  O180  1  0.49548335  0.24951620  0.37207334  1
  O2-  O181  1  0.48624751  0.25586025  0.88560361  1
  O2-  O182  1  0.47569702  0.74290107  0.38567600  1
  O2-  O183  1  0.47911999  0.75869820  0.88525564  1
  O2-  O184  1  0.26368916  -0.00963597  0.10848291  1
  O2-  O185  1  0.26295783  -0.01216200  0.63336622  1
  O2-  O186  1  0.26164617  0.47225609  0.11259548  1
  O2-  O187  1  0.25249462  0.47846225  0.63722453  1
  O2-  O188  1  0.75610739  0.02474074  0.10972821  1
  O2-  O189  1  0.78023618  0.00412932  0.61775559  1
  O2-  O190  1  0.75207775  0.50028249  0.11942884  1
  O2-  O191  1  0.73785866  0.48089899  0.61787234  1
  O2-  O192  1  0.13774134  0.27297858  0.26270894  1
  O2-  O193  1  0.11815643  0.26086249  0.76917412  1
  O2-  O194  1  0.13244118  0.76833257  0.27126228  1
  O2-  O195  1  0.12450617  0.76027415  0.77584819  1
  O2-  O196  1  0.62412257  0.27143855  0.25755241  1
  O2-  O197  1  0.63694394  0.27662313  0.76566268  1
  O2-  O198  1  0.63630746  0.78013227  0.27604468  1
  O2-  O199  1  0.63443594  0.78345861  0.77004825  1
  O2-  O200  1  0.38339048  0.22904276  0.23896637  1
  O2-  O201  1  0.36087720  0.22505830  0.73883691  1
  O2-  O202  1  0.36904004  0.73052898  0.23209692  1
  O2-  O203  1  0.36414267  0.73013686  0.73079738  1
  O2-  O204  1  0.86400722  0.21984736  0.23762431  1
  O2-  O205  1  0.88335204  0.22162548  0.74025886  1
  O2-  O206  1  0.86821935  0.72334317  0.22074416  1
  O2-  O207  1  0.89041677  0.72647059  0.74105653  1
  O2-  O208  1  0.28356827  0.36093981  0.26273367  1
  O2-  O209  1  0.26056939  0.37566543  0.77628587  1
  O2-  O210  1  0.26991361  0.87073290  0.28092892  1
  O2-  O211  1  0.26122206  0.87988284  0.77006949  1
  O2-  O212  1  0.77193941  0.36175868  0.25218462  1
  O2-  O213  1  0.79134437  0.36218494  0.75464780  1
  O2-  O214  1  0.78080588  0.87024506  0.24384554  1
  O2-  O215  1  0.78881924  0.86536479  0.76349649  1
  O2-  O216  1  0.24190089  0.13870923  0.21191214  1
  O2-  O217  1  0.22421064  0.12910428  0.73385483  1
  O2-  O218  1  0.22950241  0.63544486  0.22631408  1
  O2-  O219  1  0.22632595  0.62528383  0.73497652  1
  O2-  O220  1  0.71817868  0.13478387  0.25228558  1
  O2-  O221  1  0.73698996  0.13605364  0.75765400  1
  O2-  O222  1  0.72599361  0.63351399  0.25907304  1
  O2-  O223  1  0.72760360  0.63503294  0.73455649  1
  O2-  O224  1  0.12035667  0.47412144  0.24534514  1
  O2-  O225  1  0.12788722  0.48447356  0.75233833  1
  O2-  O226  1  0.11634052  0.98248296  0.22269132  1
  O2-  O227  1  0.12384851  0.98382266  0.73162729  1
  O2-  O228  1  0.61664243  0.46528038  0.25439506  1
  O2-  O229  1  0.61226699  0.45878733  0.74090364  1
  O2-  O230  1  0.61178831  0.98278280  0.21885429  1
  O2-  O231  1  0.61084598  0.98175214  0.72587255  1
  O2-  O232  1  0.38647438  0.03724830  0.25894574  1
  O2-  O233  1  0.36155638  0.02464603  0.76668404  1
  O2-  O234  1  0.38512825  0.52747507  0.24603058  1
  O2-  O235  1  0.36318098  0.52579587  0.76139010  1
  O2-  O236  1  0.88909380  0.02967561  0.26001674  1
  O2-  O237  1  0.88765749  0.01388563  0.76940544  1
  O2-  O238  1  0.88262851  0.51645169  0.24121601  1
  O2-  O239  1  0.88499677  0.52396563  0.75164735  1
  O2-  O240  1  0.48057780  0.36569925  0.24892422  1
  O2-  O241  1  0.45240030  0.38424375  0.73630365  1
  O2-  O242  1  0.46770226  0.88763288  0.25485216  1
  O2-  O243  1  0.46675251  0.88870481  0.75127984  1
  O2-  O244  1  0.98360874  0.37857835  0.21569163  1
  O2-  O245  1  0.98671369  0.36722945  0.72910483  1
  O2-  O246  1  0.97827773  0.88747001  0.23081980  1
  O2-  O247  1  0.99086973  0.87276426  0.73329637  1
  O2-  O248  1  0.03249567  0.11631504  0.26515824  1
  O2-  O249  1  0.02064068  0.11693776  0.76274305  1
  O2-  O250  1  0.01989813  0.61418662  0.27225263  1
  O2-  O251  1  0.02222584  0.62325347  0.77373847  1
  O2-  O252  1  0.52551420  0.12931164  0.25077495  1
  O2-  O253  1  0.51146335  0.11840674  0.76759257  1
  O2-  O254  1  0.53627648  0.61836848  0.25300747  1
  O2-  O255  1  0.52044724  0.61129335  0.77098688  1
  O2-  O256  1  0.13419864  0.46245455  0.00054374  1
  O2-  O257  1  0.13358346  0.47162423  0.50707232  1
  O2-  O258  1  0.11830833  0.98985788  0.00991741  1
  O2-  O259  1  0.11780094  0.98685719  0.51682083  1
  O2-  O260  1  0.63220333  0.46066271  0.00786407  1
  O2-  O261  1  0.64023717  0.46550478  0.48676042  1
  O2-  O262  1  0.61233774  0.98632834  0.01727072  1
  O2-  O263  1  0.63769019  0.98574923  0.52462062  1
  O2-  O264  1  0.36701597  0.02982907  -0.01986106  1
  O2-  O265  1  0.36243822  0.02996643  0.48204800  1
  O2-  O266  1  0.36294297  0.51793812  -0.01648534  1
  O2-  O267  1  0.36629415  0.51282494  0.50781152  1
  O2-  O268  1  0.86908838  0.02066741  -0.02686470  1
  O2-  O269  1  0.88287376  0.02006979  0.47913859  1
  O2-  O270  1  0.86369150  0.51337634  -0.00980593  1
  O2-  O271  1  0.86803351  0.51654037  0.53134204  1
  O2-  O272  1  0.46823858  0.36019636  0.01375416  1
  O2-  O273  1  0.48949723  0.36223694  0.50078058  1
  O2-  O274  1  0.46496923  0.88820786  0.00005772  1
  O2-  O275  1  0.47590111  0.86881950  0.50859456  1
  O2-  O276  1  0.97404921  0.35609502  0.01441902  1
  O2-  O277  1  0.98427863  0.36105032  0.52954977  1
  O2-  O278  1  0.97652223  0.88572127  0.00617279  1
  O2-  O279  1  0.97990325  0.88228317  0.51711937  1
  O2-  O280  1  0.00484736  0.11834512  -0.03418162  1
  O2-  O281  1  0.01480874  0.12188768  0.49411823  1
  O2-  O282  1  0.02197283  0.63412968  -0.02667012  1
  O2-  O283  1  0.02982943  0.63583478  0.48605356  1
  O2-  O284  1  0.50901531  0.12738619  -0.00216032  1
  O2-  O285  1  0.53479491  0.13272964  0.48987496  1
  O2-  O286  1  0.53604117  0.63445180  -0.00245225  1
  O2-  O287  1  0.53376201  0.63341695  0.49645315  1
  O2-  O288  1  0.11777140  0.26063678  -0.01852196  1
  O2-  O289  1  0.11262016  0.26108618  0.47831002  1
  O2-  O290  1  0.11662187  0.78242682  -0.01622574  1
  O2-  O291  1  0.11249172  0.78381528  0.48973098  1
  O2-  O292  1  0.62064038  0.26764304  -0.00900205  1
  O2-  O293  1  0.63763003  0.26820406  0.48647785  1
  O2-  O294  1  0.61370555  0.78994190  -0.01639047  1
  O2-  O295  1  0.62020036  0.78112667  0.47742941  1
  O2-  O296  1  0.36768927  0.22462059  0.00828969  1
  O2-  O297  1  0.38839259  0.22379867  0.51807595  1
  O2-  O298  1  0.38483567  0.72600808  0.01925056  1
  O2-  O299  1  0.38527691  0.73154041  0.53361889  1
  O2-  O300  1  0.86889761  0.22054176  0.00640440  1
  O2-  O301  1  0.87526478  0.22370033  0.51518563  1
  O2-  O302  1  0.88584050  0.73722361  0.00912606  1
  O2-  O303  1  0.89285859  0.73933389  0.54122748  1
  O2-  O304  1  0.26456173  0.36365176  -0.02783107  1
  O2-  O305  1  0.27127108  0.38193234  0.47681881  1
  O2-  O306  1  0.26086043  0.89203178  -0.03036215  1
  O2-  O307  1  0.26524441  0.88817707  0.49261050  1
  O2-  O308  1  0.77163844  0.36503070  0.00380180  1
  O2-  O309  1  0.78295788  0.36404592  0.49903760  1
  O2-  O310  1  0.76932227  0.88878022  0.00675216  1
  O2-  O311  1  0.77774256  0.88709336  0.49401216  1
  O2-  O312  1  0.22235497  0.12778264  0.00511825  1
  O2-  O313  1  0.22736193  0.11683681  0.53101243  1
  O2-  O314  1  0.22085266  0.61396981  0.02129814  1
  O2-  O315  1  0.23236944  0.61350641  0.53198920  1
  O2-  O316  1  0.72191329  0.13183492  -0.00762459  1
  O2-  O317  1  0.73899591  0.12839130  0.50804323  1
  O2-  O318  1  0.71855129  0.61567003  0.00150198  1
  O2-  O319  1  0.72482268  0.61810335  0.50932028  1
