# generated using pymatgen
data_Sr64Ca21Nb43O192
_symmetry_space_group_name_H-M   'P 1'
_cell_length_a   16.58313949
_cell_length_b   16.58379768
_cell_length_c   16.77047254
_cell_angle_alpha   90.01915624
_cell_angle_beta   90.05229501
_cell_angle_gamma   89.96555277
_symmetry_Int_Tables_number   1
_chemical_formula_structural   Sr64Ca21Nb43O192
_chemical_formula_sum   'Sr64 Ca21 Nb43 O192'
_cell_volume   4612.06862735
_cell_formula_units_Z   1
loop_
 _symmetry_equiv_pos_site_id
 _symmetry_equiv_pos_as_xyz
  1  'x, y, z'
loop_
 _atom_type_symbol
 _atom_type_oxidation_number
  Sr2+  2.0
  Ca2+  2.0
  Nb5+  5.0
  O2-  -2.0
loop_
 _atom_site_type_symbol
 _atom_site_label
 _atom_site_symmetry_multiplicity
 _atom_site_fract_x
 _atom_site_fract_y
 _atom_site_fract_z
 _atom_site_occupancy
  Sr2+  Sr0  1  0.12788170  0.11568220  0.12596250  1
  Sr2+  Sr1  1  0.12550639  0.10423187  0.62677866  1
  Sr2+  Sr2  1  0.12289038  0.62742277  0.12794749  1
  Sr2+  Sr3  1  0.12683277  0.63882840  0.62180839  1
  Sr2+  Sr4  1  0.62831225  0.12344458  0.12675307  1
  Sr2+  Sr5  1  0.63336347  0.12333412  0.62268808  1
  Sr2+  Sr6  1  0.63146493  0.62831729  0.12229847  1
  Sr2+  Sr7  1  0.62390588  0.61673887  0.63530395  1
  Sr2+  Sr8  1  0.36797687  0.36676404  0.12548077  1
  Sr2+  Sr9  1  0.37208935  0.36077020  0.63905302  1
  Sr2+  Sr10  1  0.37468459  0.87865777  0.11887479  1
  Sr2+  Sr11  1  0.37186469  0.86556085  0.62176860  1
  Sr2+  Sr12  1  0.89078812  0.36349492  0.12583883  1
  Sr2+  Sr13  1  0.87811775  0.35720942  0.61873315  1
  Sr2+  Sr14  1  0.87874602  0.86805201  0.12788127  1
  Sr2+  Sr15  1  0.88448475  0.86037956  0.63102589  1
  Sr2+  Sr16  1  0.13344403  0.39047611  0.38092144  1
  Sr2+  Sr17  1  0.10806001  0.37622562  0.86777295  1
  Sr2+  Sr18  1  0.11831446  0.87868340  0.38734540  1
  Sr2+  Sr19  1  0.11578960  0.89017187  0.86624734  1
  Sr2+  Sr20  1  0.61654866  0.37825417  0.37634193  1
  Sr2+  Sr21  1  0.61447632  0.38524488  0.87355044  1
  Sr2+  Sr22  1  0.61705289  0.88753758  0.37353601  1
  Sr2+  Sr23  1  0.61854269  0.87852252  0.87125934  1
  Sr2+  Sr24  1  0.38060753  0.12807422  0.37794527  1
  Sr2+  Sr25  1  0.36829730  0.12759306  0.87486373  1
  Sr2+  Sr26  1  0.36651445  0.62476713  0.36796579  1
  Sr2+  Sr27  1  0.38159289  0.63178379  0.87703025  1
  Sr2+  Sr28  1  0.86064068  0.13419775  0.37581379  1
  Sr2+  Sr29  1  0.88677852  0.13011693  0.87258473  1
  Sr2+  Sr30  1  0.87152969  0.62904401  0.37242048  1
  Sr2+  Sr31  1  0.85752588  0.62935147  0.87927711  1
  Sr2+  Sr32  1  0.11692893  0.12471133  0.37629440  1
  Sr2+  Sr33  1  0.12737777  0.12984513  0.85622438  1
  Sr2+  Sr34  1  0.12914567  0.63536981  0.38027365  1
  Sr2+  Sr35  1  0.11228051  0.62840232  0.87010293  1
  Sr2+  Sr36  1  0.61891737  0.14028874  0.37671616  1
  Sr2+  Sr37  1  0.61955792  0.13874678  0.87328486  1
  Sr2+  Sr38  1  0.61718851  0.63404004  0.36894126  1
  Sr2+  Sr39  1  0.61952740  0.63839403  0.87667584  1
  Sr2+  Sr40  1  0.37871978  0.36550996  0.36574510  1
  Sr2+  Sr41  1  0.37137037  0.39121440  0.87762090  1
  Sr2+  Sr42  1  0.37291162  0.87004258  0.38480798  1
  Sr2+  Sr43  1  0.37727672  0.89317312  0.87453908  1
  Sr2+  Sr44  1  0.86326230  0.38645915  0.37686999  1
  Sr2+  Sr45  1  0.87640690  0.37628805  0.88160949  1
  Sr2+  Sr46  1  0.87192155  0.89530139  0.37520332  1
  Sr2+  Sr47  1  0.86283539  0.88719711  0.87078471  1
  Sr2+  Sr48  1  0.12629673  0.37232076  0.11917043  1
  Sr2+  Sr49  1  0.12815726  0.37014972  0.62884832  1
  Sr2+  Sr50  1  0.12050047  0.86578173  0.12623304  1
  Sr2+  Sr51  1  0.12658431  0.86958255  0.62564566  1
  Sr2+  Sr52  1  0.62893284  0.37103712  0.12406936  1
  Sr2+  Sr53  1  0.64264455  0.37392231  0.63386978  1
  Sr2+  Sr54  1  0.63467787  0.87602605  0.12656876  1
  Sr2+  Sr55  1  0.62438398  0.86866987  0.61900197  1
  Sr2+  Sr56  1  0.36932961  0.11776226  0.12061075  1
  Sr2+  Sr57  1  0.35753701  0.12101093  0.62845672  1
  Sr2+  Sr58  1  0.36967999  0.61508812  0.12519637  1
  Sr2+  Sr59  1  0.37150415  0.62068940  0.62315200  1
  Sr2+  Sr60  1  0.88709683  0.11688513  0.12958238  1
  Sr2+  Sr61  1  0.89230192  0.11943745  0.62008811  1
  Sr2+  Sr62  1  0.88505653  0.61972315  0.12348706  1
  Sr2+  Sr63  1  0.89055440  0.61461509  0.62447371  1
  Ca2+  Ca64  1  -0.00153039  -0.00176278  -0.00152329  1
  Ca2+  Ca65  1  0.49743733  0.00247701  0.49938007  1
  Ca2+  Ca66  1  0.00080831  0.49602721  0.49753763  1
  Ca2+  Ca67  1  -0.00193284  -0.00147837  0.49967282  1
  Ca2+  Ca68  1  0.49780397  0.49791656  0.49982317  1
  Ca2+  Ca69  1  0.75291519  0.25118777  0.00387841  1
  Ca2+  Ca70  1  0.24953771  0.25137120  -0.00027156  1
  Ca2+  Ca71  1  0.25366015  0.25196854  0.49807786  1
  Ca2+  Ca72  1  0.25059768  0.75094072  -0.00142478  1
  Ca2+  Ca73  1  0.74803629  0.75139017  0.49902800  1
  Ca2+  Ca74  1  0.24885672  0.50108898  0.75092566  1
  Ca2+  Ca75  1  0.75535632  0.50035099  0.75283873  1
  Ca2+  Ca76  1  0.50240371  0.25034851  0.75139640  1
  Ca2+  Ca77  1  0.25108353  -0.00185301  0.25303755  1
  Ca2+  Ca78  1  -0.00250066  0.74880501  0.25303337  1
  Ca2+  Ca79  1  -0.00218395  0.25126834  0.74491476  1
  Ca2+  Ca80  1  -0.00132472  0.25014217  0.25522780  1
  Ca2+  Ca81  1  -0.00276792  0.74612088  0.75334074  1
  Ca2+  Ca82  1  0.74771626  0.00255626  0.74955556  1
  Ca2+  Ca83  1  0.25351903  -0.00545457  0.74782728  1
  Ca2+  Ca84  1  0.49680698  0.74989120  0.24582649  1
  Nb5+  Nb85  1  0.49848268  0.50742409  0.00162182  1
  Nb5+  Nb86  1  -0.00552868  0.50156403  0.00038557  1
  Nb5+  Nb87  1  0.50525775  0.00943415  -0.00004066  1
  Nb5+  Nb88  1  0.25011389  0.74839880  0.50041225  1
  Nb5+  Nb89  1  0.74807180  0.25075858  0.50062031  1
  Nb5+  Nb90  1  0.75088789  0.75457561  0.00194271  1
  Nb5+  Nb91  1  0.50023559  0.75148340  0.74986555  1
  Nb5+  Nb92  1  0.75006764  0.50811722  0.25041200  1
  Nb5+  Nb93  1  0.25272561  0.50044033  0.25071843  1
  Nb5+  Nb94  1  0.49950909  0.24738375  0.24414378  1
  Nb5+  Nb95  1  0.74723357  0.00894795  0.25085801  1
  Nb5+  Nb96  1  0.00465583  -0.00420021  0.24652674  1
  Nb5+  Nb97  1  -0.00332041  -0.00261028  0.75062969  1
  Nb5+  Nb98  1  0.00835493  0.49783575  0.25071516  1
  Nb5+  Nb99  1  -0.00174378  0.49660192  0.74415900  1
  Nb5+  Nb100  1  0.49770515  0.00199699  0.24999257  1
  Nb5+  Nb101  1  0.50291295  0.00287357  0.74385515  1
  Nb5+  Nb102  1  0.50522290  0.49989440  0.24442327  1
  Nb5+  Nb103  1  0.49646529  0.49919969  0.74790361  1
  Nb5+  Nb104  1  0.24052581  0.24964086  0.25440029  1
  Nb5+  Nb105  1  0.25110485  0.25109674  0.75088112  1
  Nb5+  Nb106  1  0.25197764  0.75486407  0.24869343  1
  Nb5+  Nb107  1  0.25055382  0.74690744  0.75528253  1
  Nb5+  Nb108  1  0.74795534  0.25953549  0.24765263  1
  Nb5+  Nb109  1  0.75357723  0.24999536  0.75734100  1
  Nb5+  Nb110  1  0.75188606  0.75946199  0.25327168  1
  Nb5+  Nb111  1  0.74869517  0.74705403  0.74401891  1
  Nb5+  Nb112  1  0.00759491  0.25093003  0.49403263  1
  Nb5+  Nb113  1  0.00626754  0.24507703  1.00317434  1
  Nb5+  Nb114  1  -0.00715288  0.74420393  0.49986274  1
  Nb5+  Nb115  1  -0.00039529  0.75275625  0.99447222  1
  Nb5+  Nb116  1  0.50347974  0.25420536  0.50766384  1
  Nb5+  Nb117  1  0.50032899  0.25840523  0.99853060  1
  Nb5+  Nb118  1  0.50065681  0.74671556  0.49600860  1
  Nb5+  Nb119  1  0.50070478  0.75883631  1.00187992  1
  Nb5+  Nb120  1  0.24483448  -0.00464518  0.00278161  1
  Nb5+  Nb121  1  0.24832469  0.00091528  0.49690843  1
  Nb5+  Nb122  1  0.24001771  0.50305177  0.00004309  1
  Nb5+  Nb123  1  0.25689984  0.49583662  0.50325214  1
  Nb5+  Nb124  1  0.74622419  0.00658361  -0.00167856  1
  Nb5+  Nb125  1  0.75198526  0.00043415  0.50581281  1
  Nb5+  Nb126  1  0.74613117  0.49907769  0.00454248  1
  Nb5+  Nb127  1  0.74503914  0.50726834  0.50106585  1
  O2-  O128  1  -0.02889264  -0.01499374  0.13041957  1
  O2-  O129  1  -0.02735994  -0.01951796  0.63435336  1
  O2-  O130  1  -0.01165979  0.48380111  0.12186563  1
  O2-  O131  1  -0.02566162  0.48044551  0.63331419  1
  O2-  O132  1  0.48674394  -0.00968984  0.12234948  1
  O2-  O133  1  0.47531908  -0.00946003  0.63471306  1
  O2-  O134  1  0.48243473  0.48121710  0.11863645  1
  O2-  O135  1  0.47013411  0.49117691  0.63760567  1
  O2-  O136  1  0.01824779  0.00870742  0.36287872  1
  O2-  O137  1  0.02487050  0.01731028  0.86821390  1
  O2-  O138  1  0.02350641  0.51574414  0.36241922  1
  O2-  O139  1  0.02009423  0.50979182  0.88687158  1
  O2-  O140  1  0.52334510  0.01810087  0.36139268  1
  O2-  O141  1  0.52772711  0.00922018  0.88408922  1
  O2-  O142  1  0.51795306  0.51362102  0.35772364  1
  O2-  O143  1  0.52512681  0.51166252  0.88738080  1
  O2-  O144  1  0.23805746  0.27067902  0.13924446  1
  O2-  O145  1  0.24425568  0.27464224  0.63055489  1
  O2-  O146  1  0.22987274  0.76256905  0.13543006  1
  O2-  O147  1  0.24119497  0.76416559  0.61885591  1
  O2-  O148  1  0.72052818  0.24184291  0.13691311  1
  O2-  O149  1  0.72267069  0.24314568  0.61311974  1
  O2-  O150  1  0.72517678  0.74588154  0.12262318  1
  O2-  O151  1  0.71475869  0.73911470  0.63470786  1
  O2-  O152  1  0.28640397  0.24168787  0.36199555  1
  O2-  O153  1  0.26192076  0.22886550  0.86772813  1
  O2-  O154  1  0.26640103  0.73676385  0.37885760  1
  O2-  O155  1  0.26338298  0.72188048  0.86589541  1
  O2-  O156  1  0.76249357  0.26228424  0.36966169  1
  O2-  O157  1  0.78331024  0.25432500  0.86778508  1
  O2-  O158  1  0.78073216  0.76447793  0.36421514  1
  O2-  O159  1  0.76691952  0.76395689  0.88468878  1
  O2-  O160  1  0.01815441  0.27109529  0.12044157  1
  O2-  O161  1  0.00713045  0.27961280  0.61112301  1
  O2-  O162  1  0.01397322  0.75960768  0.11306494  1
  O2-  O163  1  0.01438005  0.76957701  0.61693413  1
  O2-  O164  1  0.52474651  0.26201173  0.12423496  1
  O2-  O165  1  0.52099220  0.28257365  0.61606774  1
  O2-  O166  1  0.52539973  0.76932617  0.11397720  1
  O2-  O167  1  0.51437922  0.76393576  0.63485478  1
  O2-  O168  1  0.21375342  0.00074261  0.38276581  1
  O2-  O169  1  0.23615847  0.00752692  0.88512356  1
  O2-  O170  1  0.23149434  0.51538691  0.36734891  1
  O2-  O171  1  0.23080807  0.52114502  0.88851437  1
  O2-  O172  1  0.73400728  -0.01844276  0.36541854  1
  O2-  O173  1  0.73075619  -0.01965616  0.88807141  1
  O2-  O174  1  0.72752978  0.48413731  0.36351471  1
  O2-  O175  1  0.74188018  0.47808830  0.89165657  1
  O2-  O176  1  -0.01620846  0.21261940  0.38452406  1
  O2-  O177  1  -0.01466474  0.24205760  0.88560857  1
  O2-  O178  1  -0.00595293  0.71474376  0.38488016  1
  O2-  O179  1  -0.02066379  0.71317099  0.88628365  1
  O2-  O180  1  0.48718273  0.23439340  0.36098164  1
  O2-  O181  1  0.48629092  0.22625743  0.88866534  1
  O2-  O182  1  0.48215294  0.72665142  0.38442257  1
  O2-  O183  1  0.49332079  0.73554781  0.88014111  1
  O2-  O184  1  0.27634617  -0.01046180  0.11920012  1
  O2-  O185  1  0.27977665  -0.01385131  0.61262784  1
  O2-  O186  1  0.26285197  0.48741901  0.13219661  1
  O2-  O187  1  0.27856945  0.48334940  0.61457568  1
  O2-  O188  1  0.75847852  0.01284901  0.12820578  1
  O2-  O189  1  0.76103885  0.03243962  0.61417373  1
  O2-  O190  1  0.75713813  0.52660939  0.13036392  1
  O2-  O191  1  0.76185741  0.52698896  0.61302994  1
  O2-  O192  1  0.13266092  0.27311553  0.28243377  1
  O2-  O193  1  0.13312218  0.26951687  0.76297716  1
  O2-  O194  1  0.13564631  0.76581835  0.27446957  1
  O2-  O195  1  0.13715936  0.76947401  0.76339926  1
  O2-  O196  1  0.62332729  0.26658144  0.26820850  1
  O2-  O197  1  0.63632357  0.27985114  0.77065865  1
  O2-  O198  1  0.63388408  0.76052271  0.27315901  1
  O2-  O199  1  0.62154057  0.76372949  0.77170989  1
  O2-  O200  1  0.38341081  0.24154750  0.22471559  1
  O2-  O201  1  0.37134148  0.22536707  0.73202084  1
  O2-  O202  1  0.36385115  0.71549372  0.23702947  1
  O2-  O203  1  0.38495079  0.72570586  0.73975717  1
  O2-  O204  1  0.85989060  0.23306635  0.23218658  1
  O2-  O205  1  0.86278339  0.22413198  0.71916853  1
  O2-  O206  1  0.86037292  0.72825465  0.22272347  1
  O2-  O207  1  0.86211650  0.72556244  0.72429185  1
  O2-  O208  1  0.26229857  0.38118175  0.26552453  1
  O2-  O209  1  0.28051882  0.36745398  0.76530792  1
  O2-  O210  1  0.28585089  0.86425384  0.26000237  1
  O2-  O211  1  0.28552256  0.85932683  0.75453543  1
  O2-  O212  1  0.75906856  0.37732267  0.23450172  1
  O2-  O213  1  0.77112841  0.36612787  0.72583738  1
  O2-  O214  1  0.76083032  0.87549926  0.23328792  1
  O2-  O215  1  0.76987295  0.86335741  0.74438841  1
  O2-  O216  1  0.22345156  0.13522161  0.24298872  1
  O2-  O217  1  0.23238325  0.12993837  0.73031541  1
  O2-  O218  1  0.22853822  0.61892977  0.24072338  1
  O2-  O219  1  0.24461657  0.63458731  0.71810647  1
  O2-  O220  1  0.72785258  0.12432481  0.26337597  1
  O2-  O221  1  0.71681632  0.13659483  0.75688013  1
  O2-  O222  1  0.72963311  0.62364857  0.26534123  1
  O2-  O223  1  0.73097446  0.63521254  0.77995859  1
  O2-  O224  1  0.12340972  0.47959052  0.23253814  1
  O2-  O225  1  0.11616290  0.46777634  0.74269061  1
  O2-  O226  1  0.11595721  0.97482420  0.22385925  1
  O2-  O227  1  0.11769379  0.97365030  0.73276938  1
  O2-  O228  1  0.62251967  0.48608698  0.22622688  1
  O2-  O229  1  0.61601670  0.48844799  0.73507469  1
  O2-  O230  1  0.62521228  0.98825571  0.23001258  1
  O2-  O231  1  0.61418410  0.96295312  0.73676751  1
  O2-  O232  1  0.38707932  0.03512268  0.25754620  1
  O2-  O233  1  0.39108033  0.01336552  0.78096497  1
  O2-  O234  1  0.37334277  0.51171765  0.25832436  1
  O2-  O235  1  0.38593450  0.52113124  0.78409614  1
  O2-  O236  1  0.86379285  0.02016127  0.26419563  1
  O2-  O237  1  0.88042665  0.01852907  0.77607298  1
  O2-  O238  1  0.86518034  0.51668827  0.26444885  1
  O2-  O239  1  0.88762051  0.53224798  0.77148325  1
  O2-  O240  1  0.48964886  0.37503571  0.25250582  1
  O2-  O241  1  0.48505413  0.38636705  0.77612467  1
  O2-  O242  1  0.48243623  0.88754597  0.26368170  1
  O2-  O243  1  0.48357917  0.86753119  0.76910353  1
  O2-  O244  1  0.96891181  0.38744493  0.26035539  1
  O2-  O245  1  0.97595068  0.38428362  0.77700932  1
  O2-  O246  1  0.96742754  0.88196169  0.26099440  1
  O2-  O247  1  0.97969682  0.87926501  0.77699967  1
  O2-  O248  1  0.01150255  0.11403789  0.22685913  1
  O2-  O249  1  0.01836250  0.11567116  0.73253842  1
  O2-  O250  1  0.00338676  0.61219489  0.22432420  1
  O2-  O251  1  0.03398189  0.61255826  0.73862668  1
  O2-  O252  1  0.52092524  0.13061830  0.23018366  1
  O2-  O253  1  0.53162075  0.11406354  0.74009646  1
  O2-  O254  1  0.51131106  0.61310545  0.22038353  1
  O2-  O255  1  0.52023809  0.62655992  0.74803931  1
  O2-  O256  1  0.12547807  0.48751763  0.01895144  1
  O2-  O257  1  0.13803999  0.47925712  0.51246749  1
  O2-  O258  1  0.13399504  0.96810975  0.01914938  1
  O2-  O259  1  0.13290859  0.97581388  0.52395487  1
  O2-  O260  1  0.62785338  0.48755884  0.02113818  1
  O2-  O261  1  0.63338881  0.47120949  0.51304790  1
  O2-  O262  1  0.62255054  0.97804658  0.02133215  1
  O2-  O263  1  0.63485120  0.97744284  0.50676643  1
  O2-  O264  1  0.38851866  0.01850721  -0.01509791  1
  O2-  O265  1  0.36411633  0.00519283  0.46210802  1
  O2-  O266  1  0.38335909  0.52090114  -0.01406505  1
  O2-  O267  1  0.36737998  0.52984139  0.47751208  1
  O2-  O268  1  0.86031047  0.02463734  -0.01347634  1
  O2-  O269  1  0.86319887  0.02076663  0.47071534  1
  O2-  O270  1  0.87567866  0.52092401  -0.00759018  1
  O2-  O271  1  0.86012745  0.51277159  0.46979350  1
  O2-  O272  1  0.48661383  0.37643565  -0.01449378  1
  O2-  O273  1  0.48839527  0.36400192  0.46620678  1
  O2-  O274  1  0.48798597  0.87397603  -0.01442998  1
  O2-  O275  1  0.47526852  0.86358407  0.49955293  1
  O2-  O276  1  0.97930038  0.38310515  -0.00910654  1
  O2-  O277  1  0.97361989  0.36288945  0.47032255  1
  O2-  O278  1  0.96796147  0.86259311  -0.01955799  1
  O2-  O279  1  0.98505707  0.86085161  0.47370086  1
  O2-  O280  1  0.02875306  0.13255151  0.01456485  1
  O2-  O281  1  0.01647625  0.13372060  0.52668798  1
  O2-  O282  1  0.01405960  0.62002406  0.02001448  1
  O2-  O283  1  0.01652772  0.62818956  0.52579806  1
  O2-  O284  1  0.52229017  0.12346078  0.01613207  1
  O2-  O285  1  0.52952849  0.13778026  0.50694209  1
  O2-  O286  1  0.51981354  0.62220671  0.01580536  1
  O2-  O287  1  0.51993668  0.63495371  0.52790744  1
  O2-  O288  1  0.11768373  0.28344705  -0.01342087  1
  O2-  O289  1  0.11928933  0.26937647  0.47434952  1
  O2-  O290  1  0.11302672  0.76782193  -0.02599009  1
  O2-  O291  1  0.13021958  0.75827073  0.48734822  1
  O2-  O292  1  0.61810741  0.27354742  -0.01774344  1
  O2-  O293  1  0.62764019  0.26631917  0.47357225  1
  O2-  O294  1  0.62765504  0.75960927  -0.01853658  1
  O2-  O295  1  0.61344205  0.77484424  0.47963005  1
  O2-  O296  1  0.38802097  0.23917498  0.02832627  1
  O2-  O297  1  0.39015179  0.22909672  0.51739753  1
  O2-  O298  1  0.39012491  0.73100636  0.01866852  1
  O2-  O299  1  0.37267991  0.73249379  0.51705379  1
  O2-  O300  1  0.88686661  0.23459161  0.02555769  1
  O2-  O301  1  0.86403188  0.23017319  0.51190775  1
  O2-  O302  1  0.86648784  0.73125122  0.02021832  1
  O2-  O303  1  0.87994131  0.72513737  0.51921970  1
  O2-  O304  1  0.27716444  0.39155353  -0.00211775  1
  O2-  O305  1  0.27267799  0.38620019  0.47055623  1
  O2-  O306  1  0.28613909  0.88248532  -0.00712651  1
  O2-  O307  1  0.26381750  0.86675151  0.48678319  1
  O2-  O308  1  0.77024688  0.38931584  0.03217894  1
  O2-  O309  1  0.76643957  0.37117353  0.50667625  1
  O2-  O310  1  0.76223908  0.87274062  0.01855175  1
  O2-  O311  1  0.77588609  0.88678988  0.52176341  1
  O2-  O312  1  0.24194541  0.11390493  0.02023028  1
  O2-  O313  1  0.23657364  0.11583247  0.51171138  1
  O2-  O314  1  0.24554625  0.61569179  0.03212113  1
  O2-  O315  1  0.23348679  0.62622083  0.50838589  1
  O2-  O316  1  0.71519661  0.11658895  -0.00662286  1
  O2-  O317  1  0.72986013  0.12938529  0.47860479  1
  O2-  O318  1  0.73469928  0.62511284  -0.00838801  1
  O2-  O319  1  0.72059799  0.61663276  0.47363662  1
