# generated using pymatgen
data_Sr64Ca21Nb43O192
_symmetry_space_group_name_H-M   'P 1'
_cell_length_a   16.59669163
_cell_length_b   16.57124196
_cell_length_c   16.71091559
_cell_angle_alpha   89.94365311
_cell_angle_beta   89.99705730
_cell_angle_gamma   90.01969316
_symmetry_Int_Tables_number   1
_chemical_formula_structural   Sr64Ca21Nb43O192
_chemical_formula_sum   'Sr64 Ca21 Nb43 O192'
_cell_volume   4595.96373004
_cell_formula_units_Z   1
loop_
 _symmetry_equiv_pos_site_id
 _symmetry_equiv_pos_as_xyz
  1  'x, y, z'
loop_
 _atom_type_symbol
 _atom_type_oxidation_number
  Sr2+  2.0
  Ca2+  2.0
  Nb5+  5.0
  O2-  -2.0
loop_
 _atom_site_type_symbol
 _atom_site_label
 _atom_site_symmetry_multiplicity
 _atom_site_fract_x
 _atom_site_fract_y
 _atom_site_fract_z
 _atom_site_occupancy
  Sr2+  Sr0  1  0.12367517  0.13431545  0.13316834  1
  Sr2+  Sr1  1  0.11241600  0.12562453  0.63369146  1
  Sr2+  Sr2  1  0.11525732  0.62894923  0.12270783  1
  Sr2+  Sr3  1  0.12483945  0.61334058  0.62148236  1
  Sr2+  Sr4  1  0.62176736  0.11153020  0.12209072  1
  Sr2+  Sr5  1  0.62341564  0.11732808  0.61453983  1
  Sr2+  Sr6  1  0.61563322  0.62703378  0.13501487  1
  Sr2+  Sr7  1  0.61488450  0.63048100  0.63568221  1
  Sr2+  Sr8  1  0.36042677  0.36308974  0.11926932  1
  Sr2+  Sr9  1  0.36142083  0.36941478  0.62081330  1
  Sr2+  Sr10  1  0.37047038  0.87778390  0.12347533  1
  Sr2+  Sr11  1  0.36963612  0.86613004  0.63039974  1
  Sr2+  Sr12  1  0.87551084  0.37026339  0.12958808  1
  Sr2+  Sr13  1  0.87507456  0.36647773  0.63041085  1
  Sr2+  Sr14  1  0.85864648  0.88223854  0.13354562  1
  Sr2+  Sr15  1  0.86199004  0.87950349  0.62631009  1
  Sr2+  Sr16  1  0.13339959  0.38305045  0.37481085  1
  Sr2+  Sr17  1  0.14380388  0.38035678  0.87482434  1
  Sr2+  Sr18  1  0.13166089  0.87112701  0.37668430  1
  Sr2+  Sr19  1  0.11712384  0.87732114  0.87054987  1
  Sr2+  Sr20  1  0.62244538  0.37962626  0.38100221  1
  Sr2+  Sr21  1  0.62376032  0.37968034  0.88004626  1
  Sr2+  Sr22  1  0.63387759  0.87136213  0.37232137  1
  Sr2+  Sr23  1  0.63670104  0.87408470  0.87113329  1
  Sr2+  Sr24  1  0.37731071  0.11952140  0.37307342  1
  Sr2+  Sr25  1  0.38211447  0.12493434  0.87680870  1
  Sr2+  Sr26  1  0.38734207  0.63547298  0.37392216  1
  Sr2+  Sr27  1  0.38600710  0.63042412  0.87135406  1
  Sr2+  Sr28  1  0.87950240  0.12565789  0.38339725  1
  Sr2+  Sr29  1  0.88768024  0.12508922  0.87648105  1
  Sr2+  Sr30  1  0.87777509  0.61560603  0.37742365  1
  Sr2+  Sr31  1  0.88061533  0.61696517  0.88023242  1
  Sr2+  Sr32  1  0.12938218  0.11497343  0.37052495  1
  Sr2+  Sr33  1  0.13265760  0.12434634  0.86409575  1
  Sr2+  Sr34  1  0.13192369  0.63672775  0.38111447  1
  Sr2+  Sr35  1  0.12956878  0.62982626  0.89100715  1
  Sr2+  Sr36  1  0.63271161  0.13360189  0.38453858  1
  Sr2+  Sr37  1  0.62643852  0.13424397  0.88856616  1
  Sr2+  Sr38  1  0.62672567  0.61554782  0.36626192  1
  Sr2+  Sr39  1  0.63139429  0.61284073  0.86350168  1
  Sr2+  Sr40  1  0.38959255  0.38921233  0.37798590  1
  Sr2+  Sr41  1  0.38198931  0.38335438  0.87333101  1
  Sr2+  Sr42  1  0.37623854  0.87627709  0.37773858  1
  Sr2+  Sr43  1  0.38461672  0.88309599  0.87475472  1
  Sr2+  Sr44  1  0.88060988  0.38131283  0.38004180  1
  Sr2+  Sr45  1  0.88093751  0.38183599  0.87981981  1
  Sr2+  Sr46  1  0.88735352  0.86868871  0.37010119  1
  Sr2+  Sr47  1  0.88381075  0.86657620  0.87110345  1
  Sr2+  Sr48  1  0.12321817  0.37241870  0.12540915  1
  Sr2+  Sr49  1  0.12206100  0.37034863  0.62591715  1
  Sr2+  Sr50  1  0.12382338  0.87997921  0.12944514  1
  Sr2+  Sr51  1  0.12505802  0.87037326  0.61956707  1
  Sr2+  Sr52  1  0.62081657  0.37062208  0.12530526  1
  Sr2+  Sr53  1  0.61293284  0.36833730  0.62658544  1
  Sr2+  Sr54  1  0.62206711  0.87805199  0.12446693  1
  Sr2+  Sr55  1  0.63265934  0.87858407  0.63114641  1
  Sr2+  Sr56  1  0.36055230  0.11121048  0.12437666  1
  Sr2+  Sr57  1  0.36268010  0.11435791  0.62439856  1
  Sr2+  Sr58  1  0.37118182  0.63067925  0.12990777  1
  Sr2+  Sr59  1  0.36657511  0.62526679  0.63089575  1
  Sr2+  Sr60  1  0.86083650  0.13078695  0.12414056  1
  Sr2+  Sr61  1  0.86487711  0.11960634  0.62785943  1
  Sr2+  Sr62  1  0.86459091  0.62089325  0.12302641  1
  Sr2+  Sr63  1  0.86649659  0.61387245  0.62621625  1
  Ca2+  Ca64  1  0.50072114  0.50566248  0.50253660  1
  Ca2+  Ca65  1  0.00157673  0.00082032  0.00260352  1
  Ca2+  Ca66  1  0.50013778  0.50332190  0.00243283  1
  Ca2+  Ca67  1  0.49821243  -0.00192884  0.49828685  1
  Ca2+  Ca68  1  -0.00062117  -0.00142970  0.50102642  1
  Ca2+  Ca69  1  0.74624018  0.74742924  0.50042537  1
  Ca2+  Ca70  1  0.24836547  0.24624547  -0.00144567  1
  Ca2+  Ca71  1  0.25096058  0.75205274  0.00148730  1
  Ca2+  Ca72  1  0.74578936  0.74966653  -0.00067702  1
  Ca2+  Ca73  1  0.24599318  0.24760283  0.49776247  1
  Ca2+  Ca74  1  0.24967419  0.50023343  0.24922225  1
  Ca2+  Ca75  1  0.74859207  0.00448317  0.25152560  1
  Ca2+  Ca76  1  0.00359481  0.74357394  0.74885347  1
  Ca2+  Ca77  1  0.75359094  0.49599790  0.74763537  1
  Ca2+  Ca78  1  -0.00076135  0.74712090  0.24889193  1
  Ca2+  Ca79  1  0.50180654  0.24912544  0.24917729  1
  Ca2+  Ca80  1  0.75155180  0.49659659  0.24753662  1
  Ca2+  Ca81  1  0.50308145  0.24863696  0.74959968  1
  Ca2+  Ca82  1  0.74814860  0.00558153  0.75371638  1
  Ca2+  Ca83  1  0.24868772  0.50170852  0.75034979  1
  Ca2+  Ca84  1  0.25014330  -0.00421143  0.74922361  1
  Nb5+  Nb85  1  0.00172889  0.49667371  0.00686711  1
  Nb5+  Nb86  1  0.49816118  -0.00032159  0.00005593  1
  Nb5+  Nb87  1  0.00017123  0.49917438  0.50543328  1
  Nb5+  Nb88  1  0.74914177  0.25570804  0.50635092  1
  Nb5+  Nb89  1  0.75019569  0.25382502  0.00345252  1
  Nb5+  Nb90  1  0.25111118  0.74960089  0.50073220  1
  Nb5+  Nb91  1  0.24842348  -0.00337650  0.25190064  1
  Nb5+  Nb92  1  0.49981162  0.75427938  0.75563144  1
  Nb5+  Nb93  1  -0.00037474  0.25222532  0.75784293  1
  Nb5+  Nb94  1  -0.00100740  0.25045591  0.25834948  1
  Nb5+  Nb95  1  0.50083953  0.75703749  0.25387533  1
  Nb5+  Nb96  1  -0.00423759  -0.00023354  0.24542332  1
  Nb5+  Nb97  1  -0.00546319  -0.00707838  0.74755484  1
  Nb5+  Nb98  1  0.00622612  0.50052804  0.25640277  1
  Nb5+  Nb99  1  0.00685589  0.49952512  0.75933729  1
  Nb5+  Nb100  1  0.50107643  -0.00015200  0.25245687  1
  Nb5+  Nb101  1  0.50309165  0.00585123  0.74963540  1
  Nb5+  Nb102  1  0.49521588  0.49644892  0.24407144  1
  Nb5+  Nb103  1  0.49587226  0.49630037  0.74585065  1
  Nb5+  Nb104  1  0.25532087  0.24876311  0.25446913  1
  Nb5+  Nb105  1  0.25657784  0.24580358  0.74807151  1
  Nb5+  Nb106  1  0.24858363  0.75131158  0.24734229  1
  Nb5+  Nb107  1  0.24721823  0.75001970  0.75467953  1
  Nb5+  Nb108  1  0.75115956  0.25240896  0.25883649  1
  Nb5+  Nb109  1  0.75146755  0.24995580  0.75937040  1
  Nb5+  Nb110  1  0.75210152  0.74909160  0.25383796  1
  Nb5+  Nb111  1  0.75540550  0.74690003  0.75143615  1
  Nb5+  Nb112  1  0.00170138  0.25100170  0.50366831  1
  Nb5+  Nb113  1  0.00245634  0.25104582  1.00275439  1
  Nb5+  Nb114  1  -0.00551059  0.74712077  0.50310640  1
  Nb5+  Nb115  1  -0.00762662  0.75520484  1.00668767  1
  Nb5+  Nb116  1  0.49304454  0.24863013  0.50161879  1
  Nb5+  Nb117  1  0.49526611  0.25073162  1.00711234  1
  Nb5+  Nb118  1  0.50103762  0.75466660  0.50789002  1
  Nb5+  Nb119  1  0.50505725  0.74888477  1.00299449  1
  Nb5+  Nb120  1  0.24496564  -0.00413726  -0.00416426  1
  Nb5+  Nb121  1  0.24649165  0.00042167  0.50281644  1
  Nb5+  Nb122  1  0.25512852  0.50183725  0.00050437  1
  Nb5+  Nb123  1  0.25415348  0.49975754  0.49372594  1
  Nb5+  Nb124  1  0.75399574  0.00112564  -0.00339522  1
  Nb5+  Nb125  1  0.75431753  -0.00388587  0.49451869  1
  Nb5+  Nb126  1  0.74684566  0.50047709  0.00303684  1
  Nb5+  Nb127  1  0.74543355  0.49931181  0.50369371  1
  O2-  O128  1  0.02918428  0.01866683  0.13431200  1
  O2-  O129  1  -0.00327459  0.02702115  0.63397905  1
  O2-  O130  1  -0.00084766  0.50704257  0.12329708  1
  O2-  O131  1  -0.00379251  0.51284992  0.62075290  1
  O2-  O132  1  0.49024416  0.01757380  0.12465762  1
  O2-  O133  1  0.49443389  0.02361751  0.63576909  1
  O2-  O134  1  0.49036008  0.53819990  0.13323263  1
  O2-  O135  1  0.49355595  0.53658743  0.63394687  1
  O2-  O136  1  -0.00595564  -0.01210681  0.36349142  1
  O2-  O137  1  -0.00174614  -0.02231364  0.86826352  1
  O2-  O138  1  0.00369821  0.47809600  0.37212396  1
  O2-  O139  1  0.00545030  0.47744200  0.87420302  1
  O2-  O140  1  0.49492132  -0.02878904  0.36335684  1
  O2-  O141  1  0.50495119  -0.01846878  0.88298487  1
  O2-  O142  1  0.51360983  0.48744169  0.36388813  1
  O2-  O143  1  0.50505714  0.48237722  0.86613063  1
  O2-  O144  1  0.23184008  0.26360745  0.13826655  1
  O2-  O145  1  0.23881482  0.27451636  0.63268250  1
  O2-  O146  1  0.25833595  0.77650061  0.13515411  1
  O2-  O147  1  0.25091177  0.76967835  0.61734818  1
  O2-  O148  1  0.74825984  0.27681217  0.11641903  1
  O2-  O149  1  0.74440823  0.27951507  0.61838084  1
  O2-  O150  1  0.75293489  0.77533243  0.13655915  1
  O2-  O151  1  0.75272445  0.77793994  0.63449903  1
  O2-  O152  1  0.24820891  0.21185494  0.36599847  1
  O2-  O153  1  0.25214815  0.21857266  0.86546932  1
  O2-  O154  1  0.25420158  0.73506367  0.37373647  1
  O2-  O155  1  0.24849445  0.72395659  0.86630016  1
  O2-  O156  1  0.76310806  0.22939976  0.37134593  1
  O2-  O157  1  0.76478819  0.22293940  0.87122998  1
  O2-  O158  1  0.71688192  0.73632112  0.36722517  1
  O2-  O159  1  0.72264099  0.73036637  0.86396521  1
  O2-  O160  1  0.00624217  0.24037163  0.12050625  1
  O2-  O161  1  0.00865393  0.24450978  0.62126690  1
  O2-  O162  1  -0.01416409  0.71194173  0.11821562  1
  O2-  O163  1  0.01173252  0.71434707  0.61469067  1
  O2-  O164  1  0.53893441  0.23561927  0.11597317  1
  O2-  O165  1  0.53213527  0.23714976  0.61422490  1
  O2-  O166  1  0.49971347  0.73708075  0.12038325  1
  O2-  O167  1  0.49267195  0.73384300  0.62191630  1
  O2-  O168  1  0.24970046  0.01293735  0.37329972  1
  O2-  O169  1  0.24253434  0.01809721  0.88404557  1
  O2-  O170  1  0.21944213  0.51567679  0.38228472  1
  O2-  O171  1  0.22554731  0.51433714  0.88507285  1
  O2-  O172  1  0.74859657  0.03485930  0.38205144  1
  O2-  O173  1  0.73252952  0.03196079  0.88620858  1
  O2-  O174  1  0.74913172  0.51757946  0.38481847  1
  O2-  O175  1  0.75340459  0.51923250  0.88459467  1
  O2-  O176  1  -0.01647480  0.26351993  0.37298699  1
  O2-  O177  1  -0.01597893  0.26629529  0.87271780  1
  O2-  O178  1  0.00590071  0.76641930  0.38579124  1
  O2-  O179  1  0.00839307  0.76780411  0.88703560  1
  O2-  O180  1  0.49313235  0.27715876  0.38476891  1
  O2-  O181  1  0.48772389  0.26731587  0.88849715  1
  O2-  O182  1  0.49721579  0.77596977  0.36852650  1
  O2-  O183  1  0.50008176  0.77450124  0.87082957  1
  O2-  O184  1  0.25246121  -0.02179010  0.13258785  1
  O2-  O185  1  0.25754564  -0.02915761  0.61440740  1
  O2-  O186  1  0.25335198  0.47008598  0.11543558  1
  O2-  O187  1  0.25466543  0.48675600  0.61155178  1
  O2-  O188  1  0.74441383  -0.01665377  0.11412323  1
  O2-  O189  1  0.75372484  -0.01381688  0.61536974  1
  O2-  O190  1  0.76730946  0.46892732  0.11341795  1
  O2-  O191  1  0.77823531  0.47799612  0.61354332  1
  O2-  O192  1  0.11877296  0.26308741  0.25975712  1
  O2-  O193  1  0.11795959  0.26804141  0.75709873  1
  O2-  O194  1  0.13471529  0.77556123  0.25178204  1
  O2-  O195  1  0.13626865  0.78264040  0.74784355  1
  O2-  O196  1  0.63918307  0.28090487  0.26350003  1
  O2-  O197  1  0.63911662  0.27837349  0.76626225  1
  O2-  O198  1  0.61672768  0.77639994  0.24052709  1
  O2-  O199  1  0.61550825  0.76698786  0.73514951  1
  O2-  O200  1  0.36586635  0.22035200  0.23606547  1
  O2-  O201  1  0.36909020  0.22150433  0.73446627  1
  O2-  O202  1  0.37777507  0.73754992  0.24859140  1
  O2-  O203  1  0.37986043  0.72975355  0.74542171  1
  O2-  O204  1  0.88193252  0.22634626  0.23943593  1
  O2-  O205  1  0.88163087  0.22964014  0.73633135  1
  O2-  O206  1  0.86478669  0.72689765  0.27067413  1
  O2-  O207  1  0.86819443  0.72418168  0.76302026  1
  O2-  O208  1  0.27376465  0.36010400  0.27813288  1
  O2-  O209  1  0.27085545  0.36258717  0.77322753  1
  O2-  O210  1  0.26907643  0.87725378  0.27094239  1
  O2-  O211  1  0.28372919  0.86223323  0.76259987  1
  O2-  O212  1  0.78870166  0.36313482  0.26008673  1
  O2-  O213  1  0.78611002  0.36249182  0.76230557  1
  O2-  O214  1  0.77050460  0.86934323  0.27471040  1
  O2-  O215  1  0.76752917  0.86669485  0.77420478  1
  O2-  O216  1  0.23080097  0.11510182  0.23421034  1
  O2-  O217  1  0.22559492  0.13037156  0.72525723  1
  O2-  O218  1  0.23344689  0.63749298  0.22859233  1
  O2-  O219  1  0.23704077  0.63765513  0.71839730  1
  O2-  O220  1  0.73579496  0.14200893  0.21910133  1
  O2-  O221  1  0.73535517  0.14210498  0.71523247  1
  O2-  O222  1  0.72807516  0.63382744  0.23046942  1
  O2-  O223  1  0.73174229  0.63220401  0.72390172  1
  O2-  O224  1  0.11652134  0.46309370  0.24122891  1
  O2-  O225  1  0.11691841  0.46656264  0.73598327  1
  O2-  O226  1  0.13016847  0.97887046  0.25977900  1
  O2-  O227  1  0.11407038  0.97937214  0.74743198  1
  O2-  O228  1  0.61538576  0.48534189  0.23321368  1
  O2-  O229  1  0.61654593  0.48569517  0.74204059  1
  O2-  O230  1  0.61410266  0.97784195  0.24095109  1
  O2-  O231  1  0.61506027  0.96908863  0.74976551  1
  O2-  O232  1  0.37185614  0.01569836  0.25203341  1
  O2-  O233  1  0.38584589  0.01610872  0.76891514  1
  O2-  O234  1  0.38251694  0.52912686  0.26614611  1
  O2-  O235  1  0.38165329  0.52641024  0.76190414  1
  O2-  O236  1  0.88432853  0.02442452  0.23172299  1
  O2-  O237  1  0.88183510  0.03024015  0.75784874  1
  O2-  O238  1  0.88941399  0.52077089  0.24960496  1
  O2-  O239  1  0.89152588  0.52347586  0.75153922  1
  O2-  O240  1  0.47068971  0.38539075  0.22434121  1
  O2-  O241  1  0.47493152  0.38434540  0.72292181  1
  O2-  O242  1  0.47939520  0.87434617  0.22539501  1
  O2-  O243  1  0.47916655  0.87235522  0.73432916  1
  O2-  O244  1  0.98196404  0.36728391  0.23713461  1
  O2-  O245  1  0.98054192  0.37156803  0.73735473  1
  O2-  O246  1  0.97909664  0.88430860  0.22956534  1
  O2-  O247  1  0.97009846  0.88060056  0.72955306  1
  O2-  O248  1  0.02054407  0.12925928  0.26432838  1
  O2-  O249  1  0.01920073  0.13342745  0.76699835  1
  O2-  O250  1  0.03543296  0.61149375  0.26463837  1
  O2-  O251  1  0.03892911  0.61062974  0.76932713  1
  O2-  O252  1  0.51772649  0.11356882  0.27236929  1
  O2-  O253  1  0.52688060  0.11565864  0.77671338  1
  O2-  O254  1  0.51800152  0.63915461  0.26452982  1
  O2-  O255  1  0.51687507  0.63470641  0.77057929  1
  O2-  O256  1  0.11691600  0.47181203  0.00599186  1
  O2-  O257  1  0.11822641  0.47811826  0.50836205  1
  O2-  O258  1  0.13486570  0.96056094  -0.00013806  1
  O2-  O259  1  0.13203079  0.96789826  0.49265245  1
  O2-  O260  1  0.63463056  0.47159644  0.00400148  1
  O2-  O261  1  0.63453835  0.46772286  0.51132927  1
  O2-  O262  1  0.61831250  0.99562099  0.00993126  1
  O2-  O263  1  0.63469713  0.98735479  0.49992456  1
  O2-  O264  1  0.37785935  0.02466104  -0.00490326  1
  O2-  O265  1  0.36263506  0.02384174  0.49163311  1
  O2-  O266  1  0.36626830  0.53130205  -0.00981346  1
  O2-  O267  1  0.36535939  0.52654091  0.48058518  1
  O2-  O268  1  0.86594215  0.03035458  0.00249973  1
  O2-  O269  1  0.86793723  0.03145130  0.50074791  1
  O2-  O270  1  0.87929361  0.51019683  -0.00591247  1
  O2-  O271  1  0.88080030  0.51590672  0.48993368  1
  O2-  O272  1  0.48475595  0.36680011  0.02606247  1
  O2-  O273  1  0.47741251  0.36877671  0.52171073  1
  O2-  O274  1  0.47792298  0.88336086  0.01669455  1
  O2-  O275  1  0.46033449  0.86468734  0.50947738  1
  O2-  O276  1  0.97458268  0.37359751  0.00957500  1
  O2-  O277  1  0.97599773  0.37799895  0.50910346  1
  O2-  O278  1  0.96739917  0.86508551  0.02828974  1
  O2-  O279  1  0.97784600  0.85960957  0.52713213  1
  O2-  O280  1  0.01814368  0.13859927  -0.02357099  1
  O2-  O281  1  0.01944404  0.13916003  0.48195420  1
  O2-  O282  1  0.01533716  0.61109900  -0.01691018  1
  O2-  O283  1  0.01833794  0.61443569  0.47674318  1
  O2-  O284  1  0.51190000  0.12538716  -0.01486549  1
  O2-  O285  1  0.52026708  0.13448627  0.47727916  1
  O2-  O286  1  0.53541342  0.64043881  -0.02064134  1
  O2-  O287  1  0.51685678  0.64332491  0.47098972  1
  O2-  O288  1  0.11354037  0.27888734  -0.00933619  1
  O2-  O289  1  0.11182823  0.28256737  0.48893730  1
  O2-  O290  1  0.11217513  0.76114540  0.01761983  1
  O2-  O291  1  0.12857863  0.76211796  0.49602000  1
  O2-  O292  1  0.63307890  0.26408893  -0.02035593  1
  O2-  O293  1  0.63418508  0.26904541  0.48283030  1
  O2-  O294  1  0.61419876  0.79294669  0.00052285  1
  O2-  O295  1  0.61154416  0.78616992  0.50867435  1
  O2-  O296  1  0.38385907  0.23003498  0.02881028  1
  O2-  O297  1  0.38145877  0.22308824  0.51805814  1
  O2-  O298  1  0.38849696  0.73168532  -0.00679735  1
  O2-  O299  1  0.36911668  0.72633967  0.50104349  1
  O2-  O300  1  0.87361964  0.23607732  0.00432421  1
  O2-  O301  1  0.87543394  0.23874622  0.50614533  1
  O2-  O302  1  0.87931546  0.72025653  -0.01332513  1
  O2-  O303  1  0.88253231  0.71664044  0.49641784  1
  O2-  O304  1  0.27495313  0.38167430  -0.02236400  1
  O2-  O305  1  0.27257379  0.38444760  0.47675424  1
  O2-  O306  1  0.28630413  0.88568347  -0.01023341  1
  O2-  O307  1  0.26476118  0.86744500  0.47871632  1
  O2-  O308  1  0.76423217  0.36826729  -0.02992246  1
  O2-  O309  1  0.76847582  0.37161785  0.47410055  1
  O2-  O310  1  0.76884941  0.88906018  -0.02842690  1
  O2-  O311  1  0.77764564  0.88450569  0.47401447  1
  O2-  O312  1  0.23130130  0.10987276  0.02912796  1
  O2-  O313  1  0.21824612  0.11146710  0.52209697  1
  O2-  O314  1  0.22260107  0.61461670  0.02394683  1
  O2-  O315  1  0.22856405  0.62810597  0.51140817  1
  O2-  O316  1  0.73355957  0.13469431  0.02069457  1
  O2-  O317  1  0.73477115  0.13770508  0.51608485  1
  O2-  O318  1  0.73266064  0.61244381  0.03009189  1
  O2-  O319  1  0.72599902  0.61238189  0.52545778  1
