# generated using pymatgen
data_Sr64Ca21Nb43O192
_symmetry_space_group_name_H-M   'P 1'
_cell_length_a   16.53395540
_cell_length_b   16.55059015
_cell_length_c   16.69157379
_cell_angle_alpha   90.00046961
_cell_angle_beta   90.00811495
_cell_angle_gamma   89.98336129
_symmetry_Int_Tables_number   1
_chemical_formula_structural   Sr64Ca21Nb43O192
_chemical_formula_sum   'Sr64 Ca21 Nb43 O192'
_cell_volume   4567.59417147
_cell_formula_units_Z   1
loop_
 _symmetry_equiv_pos_site_id
 _symmetry_equiv_pos_as_xyz
  1  'x, y, z'
loop_
 _atom_type_symbol
 _atom_type_oxidation_number
  Sr2+  2.0
  Ca2+  2.0
  Nb5+  5.0
  O2-  -2.0
loop_
 _atom_site_type_symbol
 _atom_site_label
 _atom_site_symmetry_multiplicity
 _atom_site_fract_x
 _atom_site_fract_y
 _atom_site_fract_z
 _atom_site_occupancy
  Sr2+  Sr0  1  0.12483901  0.15328221  0.12283131  1
  Sr2+  Sr1  1  0.12705773  0.12609967  0.63384960  1
  Sr2+  Sr2  1  0.13664960  0.61139097  0.12474982  1
  Sr2+  Sr3  1  0.13605280  0.61767484  0.62686856  1
  Sr2+  Sr4  1  0.62984550  0.12288314  0.12245067  1
  Sr2+  Sr5  1  0.63108695  0.12730902  0.62615011  1
  Sr2+  Sr6  1  0.62900689  0.60689727  0.12123727  1
  Sr2+  Sr7  1  0.62559685  0.61650000  0.62623013  1
  Sr2+  Sr8  1  0.37126246  0.36818846  0.12714784  1
  Sr2+  Sr9  1  0.38434848  0.36907973  0.62593875  1
  Sr2+  Sr10  1  0.37673267  0.87988948  0.12350576  1
  Sr2+  Sr11  1  0.38055547  0.88697439  0.62514244  1
  Sr2+  Sr12  1  0.88052068  0.38525925  0.12123039  1
  Sr2+  Sr13  1  0.88172232  0.37260443  0.62378269  1
  Sr2+  Sr14  1  0.88011549  0.87423809  0.12965116  1
  Sr2+  Sr15  1  0.87889538  0.87687824  0.63372269  1
  Sr2+  Sr16  1  0.12549325  0.38759338  0.36960325  1
  Sr2+  Sr17  1  0.11535597  0.37225544  0.86090720  1
  Sr2+  Sr18  1  0.11230789  0.86990782  0.37577381  1
  Sr2+  Sr19  1  0.12107460  0.87382327  0.87639708  1
  Sr2+  Sr20  1  0.61071332  0.37657258  0.38037691  1
  Sr2+  Sr21  1  0.62987775  0.37291694  0.88359110  1
  Sr2+  Sr22  1  0.61497913  0.88060729  0.37207070  1
  Sr2+  Sr23  1  0.64293169  0.87231206  0.87550836  1
  Sr2+  Sr24  1  0.36251598  0.13194148  0.38002271  1
  Sr2+  Sr25  1  0.38094717  0.12426777  0.86983908  1
  Sr2+  Sr26  1  0.36721574  0.63117018  0.37720580  1
  Sr2+  Sr27  1  0.36184267  0.63438650  0.87396642  1
  Sr2+  Sr28  1  0.86366638  0.12658019  0.38264323  1
  Sr2+  Sr29  1  0.89137287  0.12390809  0.86844880  1
  Sr2+  Sr30  1  0.86376191  0.64116457  0.37419102  1
  Sr2+  Sr31  1  0.86329292  0.62439601  0.87545591  1
  Sr2+  Sr32  1  0.10643216  0.13121450  0.37546357  1
  Sr2+  Sr33  1  0.12361288  0.12443394  0.87535206  1
  Sr2+  Sr34  1  0.12863937  0.63268967  0.37640363  1
  Sr2+  Sr35  1  0.12460094  0.62317507  0.87139187  1
  Sr2+  Sr36  1  0.62686780  0.14031049  0.37685739  1
  Sr2+  Sr37  1  0.61838488  0.13251683  0.87863120  1
  Sr2+  Sr38  1  0.60875900  0.63144615  0.37794446  1
  Sr2+  Sr39  1  0.62282470  0.63137552  0.87366069  1
  Sr2+  Sr40  1  0.37369713  0.38024698  0.37656979  1
  Sr2+  Sr41  1  0.36732589  0.35202139  0.86693175  1
  Sr2+  Sr42  1  0.37142905  0.87585638  0.37713183  1
  Sr2+  Sr43  1  0.37269707  0.88003016  0.87301563  1
  Sr2+  Sr44  1  0.86351852  0.37184898  0.38364498  1
  Sr2+  Sr45  1  0.86200608  0.39001334  0.86965139  1
  Sr2+  Sr46  1  0.87057008  0.88389126  0.36973199  1
  Sr2+  Sr47  1  0.87508950  0.87359806  0.88285541  1
  Sr2+  Sr48  1  0.12685990  0.37579087  0.12992460  1
  Sr2+  Sr49  1  0.10956348  0.37447406  0.62731263  1
  Sr2+  Sr50  1  0.12535721  0.87483179  0.12641500  1
  Sr2+  Sr51  1  0.13402441  0.88296589  0.62132028  1
  Sr2+  Sr52  1  0.63420157  0.36236519  0.12245439  1
  Sr2+  Sr53  1  0.63763876  0.36984612  0.62131547  1
  Sr2+  Sr54  1  0.63432615  0.87725674  0.12522455  1
  Sr2+  Sr55  1  0.63288073  0.87357853  0.64191776  1
  Sr2+  Sr56  1  0.39328419  0.12851770  0.11989025  1
  Sr2+  Sr57  1  0.35943364  0.12311930  0.63393509  1
  Sr2+  Sr58  1  0.37415130  0.62236404  0.12116327  1
  Sr2+  Sr59  1  0.38230057  0.62582547  0.63110047  1
  Sr2+  Sr60  1  0.89213086  0.12576443  0.12555119  1
  Sr2+  Sr61  1  0.88597733  0.12910757  0.62362195  1
  Sr2+  Sr62  1  0.86971899  0.62055456  0.12419551  1
  Sr2+  Sr63  1  0.88577747  0.60874764  0.62820589  1
  Ca2+  Ca64  1  -0.00052302  0.00010386  0.49731928  1
  Ca2+  Ca65  1  0.00175827  0.50306524  0.49520458  1
  Ca2+  Ca66  1  0.49775823  0.50003268  -0.00332188  1
  Ca2+  Ca67  1  0.00311662  0.50326126  0.00032334  1
  Ca2+  Ca68  1  0.50029632  0.00165777  0.49926971  1
  Ca2+  Ca69  1  0.74826924  0.75226195  0.50053826  1
  Ca2+  Ca70  1  0.24848326  0.25085617  -0.00050598  1
  Ca2+  Ca71  1  0.75596123  0.24462676  0.00209169  1
  Ca2+  Ca72  1  0.74833400  0.74758766  0.00305474  1
  Ca2+  Ca73  1  0.24767823  0.25553278  0.50136169  1
  Ca2+  Ca74  1  0.24671459  -0.00210518  0.75326797  1
  Ca2+  Ca75  1  0.74528036  0.49811246  0.74565262  1
  Ca2+  Ca76  1  0.49890345  0.24936115  0.25150302  1
  Ca2+  Ca77  1  0.00159540  0.75046014  0.74768310  1
  Ca2+  Ca78  1  0.74877012  0.49832317  0.25658018  1
  Ca2+  Ca79  1  0.74983736  0.00542459  0.75405670  1
  Ca2+  Ca80  1  -0.00766585  0.25468880  0.25421450  1
  Ca2+  Ca81  1  0.24870126  0.00149446  0.24932502  1
  Ca2+  Ca82  1  -0.00363373  0.24932015  0.75203748  1
  Ca2+  Ca83  1  0.50416059  0.25103481  0.74710776  1
  Ca2+  Ca84  1  0.25496104  0.49689942  0.74777253  1
  Nb5+  Nb85  1  0.50708038  -0.00555590  -0.00163880  1
  Nb5+  Nb86  1  0.00758008  -0.00361148  0.00299534  1
  Nb5+  Nb87  1  0.49698889  0.50085666  0.50183240  1
  Nb5+  Nb88  1  0.25200503  0.75150670  0.50381390  1
  Nb5+  Nb89  1  0.24896452  0.75330414  0.00211498  1
  Nb5+  Nb90  1  0.75024904  0.24936157  0.50320134  1
  Nb5+  Nb91  1  0.49873105  0.75086239  0.75770998  1
  Nb5+  Nb92  1  -0.00427058  0.74607775  0.24744844  1
  Nb5+  Nb93  1  0.49288618  0.74785977  0.25052448  1
  Nb5+  Nb94  1  0.25553626  0.50068742  0.24985797  1
  Nb5+  Nb95  1  0.74794365  0.00050119  0.24962958  1
  Nb5+  Nb96  1  0.00239659  0.00029741  0.24804134  1
  Nb5+  Nb97  1  -0.00016923  -0.00624768  0.74535431  1
  Nb5+  Nb98  1  -0.00415247  0.50385547  0.25478459  1
  Nb5+  Nb99  1  0.00053361  0.50214338  0.75219166  1
  Nb5+  Nb100  1  0.49992685  0.00157510  0.24810660  1
  Nb5+  Nb101  1  0.50428175  0.00065810  0.74668090  1
  Nb5+  Nb102  1  0.49805417  0.49793538  0.24721531  1
  Nb5+  Nb103  1  0.50106940  0.49780455  0.75539638  1
  Nb5+  Nb104  1  0.24825990  0.24661145  0.25380313  1
  Nb5+  Nb105  1  0.24610776  0.24959853  0.74846108  1
  Nb5+  Nb106  1  0.24793351  0.75267211  0.25040491  1
  Nb5+  Nb107  1  0.24882236  0.75355225  0.75093833  1
  Nb5+  Nb108  1  0.75323158  0.25166324  0.24998350  1
  Nb5+  Nb109  1  0.74960574  0.25160773  0.75647682  1
  Nb5+  Nb110  1  0.73880383  0.74872954  0.25309412  1
  Nb5+  Nb111  1  0.75451500  0.74595221  0.74371961  1
  Nb5+  Nb112  1  0.00290065  0.25359924  0.49826677  1
  Nb5+  Nb113  1  -0.00612162  0.25862042  0.99820874  1
  Nb5+  Nb114  1  -0.00199495  0.75027932  0.50499043  1
  Nb5+  Nb115  1  0.00129981  0.74640537  1.00256818  1
  Nb5+  Nb116  1  0.49843289  0.24470183  0.50187107  1
  Nb5+  Nb117  1  0.49665189  0.25412960  0.99785741  1
  Nb5+  Nb118  1  0.49845673  0.75294493  0.50671369  1
  Nb5+  Nb119  1  0.49997046  0.75047351  1.00449875  1
  Nb5+  Nb120  1  0.25429119  0.00148653  0.00411086  1
  Nb5+  Nb121  1  0.24656019  0.00900747  0.49477678  1
  Nb5+  Nb122  1  0.25477144  0.49627358  -0.00543576  1
  Nb5+  Nb123  1  0.25439494  0.50048281  0.50242022  1
  Nb5+  Nb124  1  0.75938934  -0.00020213  0.00223507  1
  Nb5+  Nb125  1  0.74860673  -0.00193494  0.50579006  1
  Nb5+  Nb126  1  0.74811394  0.49840832  0.00267504  1
  Nb5+  Nb127  1  0.75147021  0.50581106  0.49234251  1
  O2-  O128  1  -0.00437454  -0.02381442  0.12512994  1
  O2-  O129  1  0.00323795  -0.02201616  0.63114872  1
  O2-  O130  1  -0.00430028  0.48549428  0.13751368  1
  O2-  O131  1  -0.01700509  0.48592154  0.63048428  1
  O2-  O132  1  0.50919378  -0.01617201  0.12190340  1
  O2-  O133  1  0.51254406  -0.01922910  0.63371703  1
  O2-  O134  1  0.47970214  0.51177708  0.13402750  1
  O2-  O135  1  0.47153628  0.49889956  0.61588635  1
  O2-  O136  1  -0.01345907  0.01896048  0.36107527  1
  O2-  O137  1  -0.00364246  0.00638354  0.88598885  1
  O2-  O138  1  0.03727322  0.51807982  0.36332148  1
  O2-  O139  1  0.01748868  0.52207887  0.86879249  1
  O2-  O140  1  0.49062266  -0.01013496  0.36213727  1
  O2-  O141  1  0.48981016  0.00390060  0.88096950  1
  O2-  O142  1  0.51183657  0.51087965  0.37228881  1
  O2-  O143  1  0.53717365  0.50488932  0.86361085  1
  O2-  O144  1  0.24612233  0.26564176  0.13596475  1
  O2-  O145  1  0.24485378  0.22445574  0.63084929  1
  O2-  O146  1  0.24579561  0.74654136  0.12535948  1
  O2-  O147  1  0.24580208  0.73914390  0.62213943  1
  O2-  O148  1  0.73154340  0.23534047  0.13707639  1
  O2-  O149  1  0.73684987  0.23462820  0.62014085  1
  O2-  O150  1  0.74200032  0.72552035  0.13864037  1
  O2-  O151  1  0.71525364  0.73863891  0.63119535  1
  O2-  O152  1  0.26857748  0.26780790  0.36747367  1
  O2-  O153  1  0.23849894  0.26848265  0.86826661  1
  O2-  O154  1  0.26087324  0.75415463  0.37189209  1
  O2-  O155  1  0.25606655  0.75869372  0.87500598  1
  O2-  O156  1  0.76178581  0.25229267  0.37911971  1
  O2-  O157  1  0.75592907  0.26982166  0.86954155  1
  O2-  O158  1  0.77490318  0.76927810  0.36430105  1
  O2-  O159  1  0.76497654  0.76454954  0.86476932  1
  O2-  O160  1  -0.01450256  0.26344783  0.11925309  1
  O2-  O161  1  -0.00640976  0.26537648  0.61708035  1
  O2-  O162  1  0.01018403  0.77014332  0.12756705  1
  O2-  O163  1  0.01060479  0.78407954  0.61274624  1
  O2-  O164  1  0.50242152  0.25000221  0.11678911  1
  O2-  O165  1  0.51109617  0.27763803  0.61363844  1
  O2-  O166  1  0.50071521  0.75580882  0.12370361  1
  O2-  O167  1  0.50583545  0.75800025  0.62299124  1
  O2-  O168  1  0.27439700  -0.01108788  0.38108342  1
  O2-  O169  1  0.24719402  -0.01929635  0.88906322  1
  O2-  O170  1  0.24323856  0.49943693  0.37245432  1
  O2-  O171  1  0.23215685  0.49829261  0.88296304  1
  O2-  O172  1  0.75945426  -0.01164015  0.36701397  1
  O2-  O173  1  0.76126197  -0.02388432  0.88864703  1
  O2-  O174  1  0.73328004  0.45893030  0.38556224  1
  O2-  O175  1  0.73758550  0.48025991  0.88324937  1
  O2-  O176  1  -0.01535128  0.22338629  0.38474275  1
  O2-  O177  1  0.01283589  0.22649385  0.88606156  1
  O2-  O178  1  0.00158296  0.72885875  0.36489077  1
  O2-  O179  1  0.00749665  0.74382333  0.88656024  1
  O2-  O180  1  0.48735214  0.25391753  0.38508197  1
  O2-  O181  1  0.49901595  0.22927932  0.88156955  1
  O2-  O182  1  0.48485077  0.74201487  0.36887833  1
  O2-  O183  1  0.48515964  0.74497947  0.87573003  1
  O2-  O184  1  0.24090258  -0.02167895  0.11696479  1
  O2-  O185  1  0.23294608  0.01280896  0.61571814  1
  O2-  O186  1  0.27117610  0.50940514  0.13090431  1
  O2-  O187  1  0.26768033  0.52703214  0.61334434  1
  O2-  O188  1  0.73762372  0.01250374  0.12755350  1
  O2-  O189  1  0.72828346  0.01132282  0.61763085  1
  O2-  O190  1  0.76276395  0.51632529  0.12337440  1
  O2-  O191  1  0.76218338  0.51421432  0.60880158  1
  O2-  O192  1  0.13044749  0.28218657  0.25791387  1
  O2-  O193  1  0.12999737  0.27922403  0.74156364  1
  O2-  O194  1  0.13135347  0.76998746  0.25470447  1
  O2-  O195  1  0.13711467  0.78061385  0.75020589  1
  O2-  O196  1  0.63558116  0.26945047  0.27179147  1
  O2-  O197  1  0.63416525  0.29065163  0.75411451  1
  O2-  O198  1  0.62318210  0.77082568  0.26091731  1
  O2-  O199  1  0.61556998  0.77171825  0.76585015  1
  O2-  O200  1  0.36464635  0.21505242  0.24290508  1
  O2-  O201  1  0.36793689  0.22300319  0.75582051  1
  O2-  O202  1  0.37781296  0.72627327  0.23950474  1
  O2-  O203  1  0.37779574  0.72713396  0.74470778  1
  O2-  O204  1  0.86174125  0.20600121  0.25054475  1
  O2-  O205  1  0.86346745  0.21425697  0.74628512  1
  O2-  O206  1  0.88109931  0.73008312  0.23723150  1
  O2-  O207  1  0.86608004  0.72466195  0.72337330  1
  O2-  O208  1  0.27762032  0.38548289  0.24893289  1
  O2-  O209  1  0.28286358  0.36517005  0.73459864  1
  O2-  O210  1  0.28145692  0.86274838  0.24623074  1
  O2-  O211  1  0.28461723  0.86496882  0.73840250  1
  O2-  O212  1  0.78571959  0.36197635  0.23902750  1
  O2-  O213  1  0.78107373  0.36542904  0.72966916  1
  O2-  O214  1  0.76283840  0.87223840  0.23197526  1
  O2-  O215  1  0.76047545  0.86622280  0.72829172  1
  O2-  O216  1  0.21271146  0.13578947  0.26013208  1
  O2-  O217  1  0.22480405  0.13073626  0.76802937  1
  O2-  O218  1  0.23701942  0.62951663  0.25414882  1
  O2-  O219  1  0.23262958  0.63634830  0.75959133  1
  O2-  O220  1  0.72341332  0.11466787  0.26230519  1
  O2-  O221  1  0.70947677  0.13750465  0.76004503  1
  O2-  O222  1  0.72926919  0.63464622  0.28005189  1
  O2-  O223  1  0.72249249  0.63332028  0.76419118  1
  O2-  O224  1  0.13704372  0.48819700  0.23499001  1
  O2-  O225  1  0.11926577  0.47404559  0.73702774  1
  O2-  O226  1  0.11312823  0.96805763  0.25607401  1
  O2-  O227  1  0.11464418  0.96300093  0.75718142  1
  O2-  O228  1  0.61235980  0.47606728  0.23510032  1
  O2-  O229  1  0.60932259  0.48957921  0.70855797  1
  O2-  O230  1  0.62718962  0.97033418  0.24965478  1
  O2-  O231  1  0.61506556  0.96779332  0.76887345  1
  O2-  O232  1  0.38705087  0.01811632  0.22893644  1
  O2-  O233  1  0.38509912  0.01699987  0.74939880  1
  O2-  O234  1  0.37494493  0.53053785  0.26507650  1
  O2-  O235  1  0.38973241  0.53650145  0.76244505  1
  O2-  O236  1  0.86999569  0.00485245  0.23656263  1
  O2-  O237  1  0.88295797  0.02739154  0.74438076  1
  O2-  O238  1  0.88678019  0.53859666  0.26491732  1
  O2-  O239  1  0.88150879  0.52877426  0.76287264  1
  O2-  O240  1  0.46692706  0.38656724  0.25251750  1
  O2-  O241  1  0.47062563  0.38703729  0.75857206  1
  O2-  O242  1  0.48439375  0.86717028  0.24906483  1
  O2-  O243  1  0.47493472  0.86838451  0.75327415  1
  O2-  O244  1  0.97601502  0.39075946  0.27473476  1
  O2-  O245  1  0.97859151  0.38440568  0.77328749  1
  O2-  O246  1  0.98162424  0.86801352  0.26230869  1
  O2-  O247  1  0.96290525  0.88180699  0.76876487  1
  O2-  O248  1  0.02019292  0.11246066  0.22477173  1
  O2-  O249  1  0.02811501  0.11074622  0.74977492  1
  O2-  O250  1  0.02652824  0.63171267  0.22853509  1
  O2-  O251  1  0.02876135  0.61941797  0.72813068  1
  O2-  O252  1  0.53100103  0.11229175  0.24394819  1
  O2-  O253  1  0.52694520  0.11370498  0.74205184  1
  O2-  O254  1  0.52587369  0.63214130  0.24429114  1
  O2-  O255  1  0.52187180  0.63384822  0.74029055  1
  O2-  O256  1  0.14125043  0.48700506  0.02754067  1
  O2-  O257  1  0.14054121  0.47883364  0.51031564  1
  O2-  O258  1  0.12061471  0.96870805  0.00037639  1
  O2-  O259  1  0.13552292  0.96640364  0.48682874  1
  O2-  O260  1  0.63047373  0.47238650  0.02467851  1
  O2-  O261  1  0.61679454  0.48732462  0.51145726  1
  O2-  O262  1  0.62019783  0.97082730  -0.00528625  1
  O2-  O263  1  0.63508030  0.97909095  0.47899522  1
  O2-  O264  1  0.37119664  0.01887285  0.00865445  1
  O2-  O265  1  0.36528432  0.02356861  0.51678360  1
  O2-  O266  1  0.36500260  0.53988390  -0.00901864  1
  O2-  O267  1  0.37900169  0.52368451  0.47720299  1
  O2-  O268  1  0.87454998  0.01793089  0.00973395  1
  O2-  O269  1  0.86417631  0.03052645  0.50366921  1
  O2-  O270  1  0.86671516  0.52917865  -0.00871154  1
  O2-  O271  1  0.86517373  0.52154754  0.47184105  1
  O2-  O272  1  0.46841035  0.36554400  -0.01060499  1
  O2-  O273  1  0.48255087  0.38391277  0.48754854  1
  O2-  O274  1  0.46871593  0.87691331  -0.00362948  1
  O2-  O275  1  0.47084802  0.86419288  0.49348929  1
  O2-  O276  1  0.96671707  0.36820592  -0.01925655  1
  O2-  O277  1  0.97001653  0.36830046  0.48510410  1
  O2-  O278  1  0.97758525  0.87399985  -0.00429231  1
  O2-  O279  1  0.98610549  0.86124770  0.46406465  1
  O2-  O280  1  0.02294104  0.11075957  0.02173844  1
  O2-  O281  1  0.02698594  0.13446067  0.51893112  1
  O2-  O282  1  0.03645808  0.63818715  0.01699600  1
  O2-  O283  1  0.03692495  0.63860549  0.51105933  1
  O2-  O284  1  0.51885250  0.11192705  0.01112284  1
  O2-  O285  1  0.53289705  0.13505043  0.50538570  1
  O2-  O286  1  0.52374427  0.63796728  0.00203625  1
  O2-  O287  1  0.51530318  0.62634615  0.50704674  1
  O2-  O288  1  0.11225590  0.26945623  0.01483910  1
  O2-  O289  1  0.11475079  0.28448011  0.48579163  1
  O2-  O290  1  0.13236870  0.78076928  0.00066725  1
  O2-  O291  1  0.13599404  0.77045882  0.49062902  1
  O2-  O292  1  0.61612622  0.26687764  -0.00587115  1
  O2-  O293  1  0.62824569  0.27154545  0.48744466  1
  O2-  O294  1  0.61110758  0.78253512  -0.00622223  1
  O2-  O295  1  0.60994624  0.76520987  0.47566898  1
  O2-  O296  1  0.38147791  0.21576643  -0.00171447  1
  O2-  O297  1  0.38478503  0.22169256  0.51320900  1
  O2-  O298  1  0.37390779  0.73199652  0.00644638  1
  O2-  O299  1  0.37554243  0.72467811  0.50355851  1
  O2-  O300  1  0.88627151  0.20659014  -0.00305928  1
  O2-  O301  1  0.86795646  0.22868303  0.50758771  1
  O2-  O302  1  0.88736166  0.72573292  0.01027359  1
  O2-  O303  1  0.88664566  0.71920383  0.51118661  1
  O2-  O304  1  0.28572654  0.38639455  0.00256973  1
  O2-  O305  1  0.28730985  0.38932878  0.50772332  1
  O2-  O306  1  0.27837969  0.86845478  0.00359490  1
  O2-  O307  1  0.27772423  0.86653995  0.50902616  1
  O2-  O308  1  0.77503174  0.38069867  0.01748571  1
  O2-  O309  1  0.76720864  0.36839791  0.51803842  1
  O2-  O310  1  0.76429271  0.88279113  0.02849348  1
  O2-  O311  1  0.78043295  0.88555482  0.51300209  1
  O2-  O312  1  0.22012269  0.11187097  0.00508950  1
  O2-  O313  1  0.22195763  0.11961379  0.47356939  1
  O2-  O314  1  0.22952740  0.63518568  -0.00603958  1
  O2-  O315  1  0.23782970  0.62957131  0.48492513  1
  O2-  O316  1  0.71772548  0.10893067  -0.00811503  1
  O2-  O317  1  0.72725621  0.12744761  0.48765201  1
  O2-  O318  1  0.71772674  0.61639189  -0.01139907  1
  O2-  O319  1  0.72543279  0.61599155  0.47153293  1
