# generated using pymatgen
data_Sr64Ca21Nb43O192
_symmetry_space_group_name_H-M   'P 1'
_cell_length_a   16.58316666
_cell_length_b   16.55941669
_cell_length_c   16.75718892
_cell_angle_alpha   90.01910035
_cell_angle_beta   90.00177353
_cell_angle_gamma   90.00057035
_symmetry_Int_Tables_number   1
_chemical_formula_structural   Sr64Ca21Nb43O192
_chemical_formula_sum   'Sr64 Ca21 Nb43 O192'
_cell_volume   4601.65061658
_cell_formula_units_Z   1
loop_
 _symmetry_equiv_pos_site_id
 _symmetry_equiv_pos_as_xyz
  1  'x, y, z'
loop_
 _atom_type_symbol
 _atom_type_oxidation_number
  Sr2+  2.0
  Ca2+  2.0
  Nb5+  5.0
  O2-  -2.0
loop_
 _atom_site_type_symbol
 _atom_site_label
 _atom_site_symmetry_multiplicity
 _atom_site_fract_x
 _atom_site_fract_y
 _atom_site_fract_z
 _atom_site_occupancy
  Sr2+  Sr0  1  0.13104381  0.12279171  0.11685307  1
  Sr2+  Sr1  1  0.13012333  0.11371858  0.62279839  1
  Sr2+  Sr2  1  0.12967080  0.63136307  0.12504794  1
  Sr2+  Sr3  1  0.13670015  0.63632049  0.62701676  1
  Sr2+  Sr4  1  0.63787752  0.11713926  0.12425664  1
  Sr2+  Sr5  1  0.63469049  0.11582424  0.62613177  1
  Sr2+  Sr6  1  0.62447806  0.61903468  0.12533228  1
  Sr2+  Sr7  1  0.63016953  0.61312323  0.62301101  1
  Sr2+  Sr8  1  0.37477501  0.38687045  0.12518421  1
  Sr2+  Sr9  1  0.38466159  0.38282174  0.62768487  1
  Sr2+  Sr10  1  0.38237004  0.88174754  0.12511412  1
  Sr2+  Sr11  1  0.37279411  0.87857025  0.63745876  1
  Sr2+  Sr12  1  0.86678960  0.38250486  0.11987337  1
  Sr2+  Sr13  1  0.86668938  0.36375634  0.62567927  1
  Sr2+  Sr14  1  0.86969389  0.88739522  0.12501582  1
  Sr2+  Sr15  1  0.87311803  0.88250676  0.62605719  1
  Sr2+  Sr16  1  0.14112118  0.37827998  0.37033848  1
  Sr2+  Sr17  1  0.10878490  0.37765459  0.87976083  1
  Sr2+  Sr18  1  0.12643292  0.88173947  0.37104209  1
  Sr2+  Sr19  1  0.12555549  0.87952623  0.85637106  1
  Sr2+  Sr20  1  0.60592554  0.37319714  0.37649110  1
  Sr2+  Sr21  1  0.60007263  0.37455442  0.87586923  1
  Sr2+  Sr22  1  0.61770921  0.87024209  0.37580313  1
  Sr2+  Sr23  1  0.61050484  0.88080690  0.86614172  1
  Sr2+  Sr24  1  0.38316232  0.12754491  0.37199247  1
  Sr2+  Sr25  1  0.36827604  0.13230422  0.87479395  1
  Sr2+  Sr26  1  0.35982652  0.61250008  0.37737497  1
  Sr2+  Sr27  1  0.36833924  0.61285005  0.87880169  1
  Sr2+  Sr28  1  0.87617921  0.12632225  0.37491120  1
  Sr2+  Sr29  1  0.88128778  0.11717440  0.87082164  1
  Sr2+  Sr30  1  0.87849043  0.62137160  0.38626198  1
  Sr2+  Sr31  1  0.88674200  0.61749304  0.87231430  1
  Sr2+  Sr32  1  0.12063503  0.14519445  0.37260094  1
  Sr2+  Sr33  1  0.13292512  0.14337872  0.87757238  1
  Sr2+  Sr34  1  0.12422204  0.64701559  0.37588211  1
  Sr2+  Sr35  1  0.12237812  0.63177459  0.87124866  1
  Sr2+  Sr36  1  0.62193979  0.12784628  0.37854448  1
  Sr2+  Sr37  1  0.62346333  0.13291824  0.86380762  1
  Sr2+  Sr38  1  0.62452666  0.62146608  0.37874557  1
  Sr2+  Sr39  1  0.62261063  0.61128917  0.87398158  1
  Sr2+  Sr40  1  0.36908982  0.37146398  0.38502222  1
  Sr2+  Sr41  1  0.37082004  0.36487494  0.87329059  1
  Sr2+  Sr42  1  0.36976399  0.86771305  0.37513104  1
  Sr2+  Sr43  1  0.36784482  0.89542049  0.87481243  1
  Sr2+  Sr44  1  0.87514456  0.36850069  0.37464686  1
  Sr2+  Sr45  1  0.86907736  0.38359391  0.87137129  1
  Sr2+  Sr46  1  0.87781019  0.87400531  0.37485901  1
  Sr2+  Sr47  1  0.87846902  0.86341660  0.87041050  1
  Sr2+  Sr48  1  0.12586153  0.37894953  0.12730323  1
  Sr2+  Sr49  1  0.13989592  0.38357301  0.62131555  1
  Sr2+  Sr50  1  0.13729805  0.87351829  0.12363841  1
  Sr2+  Sr51  1  0.14912399  0.87832745  0.62279969  1
  Sr2+  Sr52  1  0.62014095  0.37641586  0.13040265  1
  Sr2+  Sr53  1  0.63000784  0.36742989  0.64230253  1
  Sr2+  Sr54  1  0.63175975  0.87813072  0.12757387  1
  Sr2+  Sr55  1  0.60841981  0.87729313  0.62042973  1
  Sr2+  Sr56  1  0.37267792  0.12340732  0.11437910  1
  Sr2+  Sr57  1  0.39292859  0.11615211  0.63089006  1
  Sr2+  Sr58  1  0.38673578  0.63268697  0.12334519  1
  Sr2+  Sr59  1  0.36535242  0.62637134  0.62654223  1
  Sr2+  Sr60  1  0.87155509  0.12323118  0.13005774  1
  Sr2+  Sr61  1  0.87666948  0.11923155  0.61617345  1
  Sr2+  Sr62  1  0.86506659  0.62819794  0.11673824  1
  Sr2+  Sr63  1  0.86601922  0.62978481  0.62971135  1
  Ca2+  Ca64  1  0.00104132  0.49946084  0.50142537  1
  Ca2+  Ca65  1  0.50662013  0.00126846  0.00038301  1
  Ca2+  Ca66  1  0.50234209  0.50239588  0.49972316  1
  Ca2+  Ca67  1  0.49984863  -0.00062227  0.49731040  1
  Ca2+  Ca68  1  -0.00210016  0.00142881  0.00136734  1
  Ca2+  Ca69  1  0.25107718  0.75246152  0.49935932  1
  Ca2+  Ca70  1  0.74839554  0.75122273  0.00205278  1
  Ca2+  Ca71  1  0.25366198  0.74844227  -0.00010394  1
  Ca2+  Ca72  1  0.24953983  0.24620551  0.50169984  1
  Ca2+  Ca73  1  0.74980530  0.24729331  -0.00109251  1
  Ca2+  Ca74  1  0.50114539  0.74868193  0.75264065  1
  Ca2+  Ca75  1  0.49755842  0.24965007  0.24755855  1
  Ca2+  Ca76  1  0.00260800  0.25031063  0.74484431  1
  Ca2+  Ca77  1  0.24782806  0.00183512  0.24918882  1
  Ca2+  Ca78  1  0.75059368  -0.00441802  0.74474438  1
  Ca2+  Ca79  1  0.75273982  0.49734503  0.25157154  1
  Ca2+  Ca80  1  0.24736602  0.50071608  0.24791883  1
  Ca2+  Ca81  1  0.24983954  0.49926034  0.75546652  1
  Ca2+  Ca82  1  0.75190204  0.50089689  0.75008425  1
  Ca2+  Ca83  1  0.24800544  0.00694464  0.75078531  1
  Ca2+  Ca84  1  0.49739066  0.24984591  0.74975296  1
  Nb5+  Nb85  1  -0.00194170  0.50201859  0.00554885  1
  Nb5+  Nb86  1  0.00191433  -0.00086271  0.49728987  1
  Nb5+  Nb87  1  0.49258071  0.50191487  0.00155812  1
  Nb5+  Nb88  1  0.74705551  0.24389862  0.49884516  1
  Nb5+  Nb89  1  0.74838269  0.74935901  0.50130201  1
  Nb5+  Nb90  1  0.24938847  0.25342823  0.00145243  1
  Nb5+  Nb91  1  -0.00283245  0.75129250  0.73876365  1
  Nb5+  Nb92  1  0.50687503  0.75164628  0.25053016  1
  Nb5+  Nb93  1  -0.00315550  0.25576004  0.24750749  1
  Nb5+  Nb94  1  -0.00359999  0.75409478  0.24489442  1
  Nb5+  Nb95  1  0.74801905  -0.00077399  0.25378623  1
  Nb5+  Nb96  1  -0.00096269  0.00364763  0.25113702  1
  Nb5+  Nb97  1  -0.00067698  0.00196598  0.75420370  1
  Nb5+  Nb98  1  -0.00280131  0.50753073  0.25166453  1
  Nb5+  Nb99  1  0.00590512  0.50112216  0.73989127  1
  Nb5+  Nb100  1  0.50058325  0.00560924  0.24792218  1
  Nb5+  Nb101  1  0.50177801  0.00131817  0.75231759  1
  Nb5+  Nb102  1  0.49566445  0.50117953  0.25505001  1
  Nb5+  Nb103  1  0.50298451  0.50292352  0.74707626  1
  Nb5+  Nb104  1  0.25290535  0.24436293  0.24726238  1
  Nb5+  Nb105  1  0.24383838  0.25107879  0.74095071  1
  Nb5+  Nb106  1  0.25966757  0.74698706  0.24999051  1
  Nb5+  Nb107  1  0.25550999  0.74889878  0.75728452  1
  Nb5+  Nb108  1  0.74905624  0.25125725  0.25102142  1
  Nb5+  Nb109  1  0.75761350  0.24640567  0.75682611  1
  Nb5+  Nb110  1  0.75474672  0.74873530  0.25433918  1
  Nb5+  Nb111  1  0.74553207  0.75179013  0.75365122  1
  Nb5+  Nb112  1  -0.00064017  0.25174246  0.49885022  1
  Nb5+  Nb113  1  -0.00334638  0.25258425  1.00109043  1
  Nb5+  Nb114  1  -0.00216047  0.75500199  0.49558471  1
  Nb5+  Nb115  1  -0.00007886  0.75354187  0.99576858  1
  Nb5+  Nb116  1  0.49710323  0.24729047  0.50248154  1
  Nb5+  Nb117  1  0.50183394  0.24988561  1.00733062  1
  Nb5+  Nb118  1  0.49502395  0.74751276  0.49875243  1
  Nb5+  Nb119  1  0.50388874  0.75112171  0.99596314  1
  Nb5+  Nb120  1  0.24955923  -0.00160300  0.00166420  1
  Nb5+  Nb121  1  0.25825751  0.00417530  0.49612384  1
  Nb5+  Nb122  1  0.24184205  0.50084676  -0.00232351  1
  Nb5+  Nb123  1  0.24864918  0.49949692  0.50251531  1
  Nb5+  Nb124  1  0.75186883  -0.00067372  -0.01208242  1
  Nb5+  Nb125  1  0.75114967  -0.00719716  0.49556888  1
  Nb5+  Nb126  1  0.74183231  0.49650299  -0.00037345  1
  Nb5+  Nb127  1  0.75394873  0.48846465  0.49795774  1
  O2-  O128  1  -0.01803375  0.01046652  0.13791238  1
  O2-  O129  1  -0.00137128  0.01435369  0.61350873  1
  O2-  O130  1  0.02883169  0.51309916  0.12174761  1
  O2-  O131  1  0.03464160  0.52306589  0.63316110  1
  O2-  O132  1  0.50831639  -0.03029805  0.13509703  1
  O2-  O133  1  0.48369837  -0.01961008  0.63184295  1
  O2-  O134  1  0.51568342  0.48601287  0.11975340  1
  O2-  O135  1  0.52018586  0.48184669  0.63437440  1
  O2-  O136  1  -0.00516986  -0.02181824  0.37271746  1
  O2-  O137  1  -0.01001510  -0.02464182  0.86577392  1
  O2-  O138  1  -0.02705490  0.48977121  0.36245533  1
  O2-  O139  1  -0.01651282  0.48348358  0.88791828  1
  O2-  O140  1  0.50843670  0.02185728  0.36431610  1
  O2-  O141  1  0.52520244  0.01939076  0.86811992  1
  O2-  O142  1  0.48545493  0.52928362  0.36500963  1
  O2-  O143  1  0.48967572  0.52171683  0.88360985  1
  O2-  O144  1  0.23469543  0.23649580  0.12219325  1
  O2-  O145  1  0.21316646  0.24519078  0.63090648  1
  O2-  O146  1  0.25949905  0.72091396  0.13528514  1
  O2-  O147  1  0.26082890  0.74117649  0.63571056  1
  O2-  O148  1  0.74085221  0.23835639  0.13637170  1
  O2-  O149  1  0.73698696  0.25389778  0.61538201  1
  O2-  O150  1  0.77214382  0.76566600  0.14156188  1
  O2-  O151  1  0.77172746  0.76255198  0.61402094  1
  O2-  O152  1  0.26038761  0.25943730  0.36401821  1
  O2-  O153  1  0.26218840  0.25558491  0.88276110  1
  O2-  O154  1  0.23116523  0.77196725  0.36448942  1
  O2-  O155  1  0.21984566  0.76464446  0.86843799  1
  O2-  O156  1  0.76295455  0.23950884  0.37476903  1
  O2-  O157  1  0.78518272  0.23567191  0.86703949  1
  O2-  O158  1  0.73037762  0.75168006  0.37500443  1
  O2-  O159  1  0.73208990  0.73637344  0.86559846  1
  O2-  O160  1  0.01758587  0.23214611  0.13407630  1
  O2-  O161  1  0.01249587  0.21998070  0.60820038  1
  O2-  O162  1  -0.02288917  0.73276188  0.13453054  1
  O2-  O163  1  -0.02250098  0.74124664  0.62397785  1
  O2-  O164  1  0.49239709  0.28823077  0.11794138  1
  O2-  O165  1  0.50780481  0.27873591  0.61600814  1
  O2-  O166  1  0.47519519  0.76232603  0.13602829  1
  O2-  O167  1  0.48226302  0.76867619  0.61248660  1
  O2-  O168  1  0.25010768  -0.02518022  0.38172860  1
  O2-  O169  1  0.23117099  -0.00644574  0.88482657  1
  O2-  O170  1  0.26745755  0.48164140  0.38256338  1
  O2-  O171  1  0.28006378  0.48058056  0.88802124  1
  O2-  O172  1  0.74987464  0.01066078  0.37545800  1
  O2-  O173  1  0.76324118  0.00388597  0.87633936  1
  O2-  O174  1  0.78636186  0.50368580  0.38391645  1
  O2-  O175  1  0.77096241  0.51963494  0.88667404  1
  O2-  O176  1  -0.01990767  0.25097259  0.37147576  1
  O2-  O177  1  -0.01836291  0.27485560  0.88893743  1
  O2-  O178  1  0.01124443  0.76789984  0.37691339  1
  O2-  O179  1  0.01589833  0.76482294  0.88067323  1
  O2-  O180  1  0.49795442  0.22593860  0.38160838  1
  O2-  O181  1  0.48820189  0.23540709  0.88911534  1
  O2-  O182  1  0.52022950  0.73436682  0.36856853  1
  O2-  O183  1  0.53805917  0.73881958  0.88793598  1
  O2-  O184  1  0.26089314  0.02348032  0.11731440  1
  O2-  O185  1  0.24863794  0.01206235  0.61545956  1
  O2-  O186  1  0.23311528  0.51142174  0.11338926  1
  O2-  O187  1  0.23304704  0.51541734  0.62035530  1
  O2-  O188  1  0.75042668  -0.00152796  0.13425787  1
  O2-  O189  1  0.75876418  0.00133509  0.60999277  1
  O2-  O190  1  0.73482220  0.47529745  0.11705158  1
  O2-  O191  1  0.72117928  0.48796239  0.61273504  1
  O2-  O192  1  0.11322481  0.26825989  0.26696331  1
  O2-  O193  1  0.13268639  0.27843653  0.77665669  1
  O2-  O194  1  0.11174404  0.76277355  0.23658753  1
  O2-  O195  1  0.11440801  0.77183394  0.73211739  1
  O2-  O196  1  0.63536729  0.27369138  0.26188296  1
  O2-  O197  1  0.63832085  0.27243234  0.76781356  1
  O2-  O198  1  0.62336045  0.76987165  0.23869724  1
  O2-  O199  1  0.63650397  0.77989201  0.73069823  1
  O2-  O200  1  0.36342387  0.21359704  0.23882866  1
  O2-  O201  1  0.36100160  0.22062298  0.74036764  1
  O2-  O202  1  0.37382246  0.73360186  0.27185597  1
  O2-  O203  1  0.36664457  0.72671180  0.77535091  1
  O2-  O204  1  0.87807674  0.22182271  0.24446389  1
  O2-  O205  1  0.86919924  0.22847611  0.71869317  1
  O2-  O206  1  0.87198023  0.73393006  0.27786610  1
  O2-  O207  1  0.88137147  0.72992165  0.76925244  1
  O2-  O208  1  0.25787669  0.36169725  0.22880948  1
  O2-  O209  1  0.27647196  0.36682956  0.73389361  1
  O2-  O210  1  0.26111229  0.86317036  0.22312062  1
  O2-  O211  1  0.26486613  0.86898558  0.74475118  1
  O2-  O212  1  0.78283505  0.36108281  0.25305758  1
  O2-  O213  1  0.77805632  0.36609115  0.74700063  1
  O2-  O214  1  0.76395211  0.87753822  0.26433983  1
  O2-  O215  1  0.78579903  0.86225546  0.75210026  1
  O2-  O216  1  0.20862618  0.13436569  0.25284242  1
  O2-  O217  1  0.21560413  0.13576258  0.75757345  1
  O2-  O218  1  0.22518747  0.63404725  0.27108171  1
  O2-  O219  1  0.22170252  0.63518840  0.75843114  1
  O2-  O220  1  0.73197638  0.12010316  0.25378163  1
  O2-  O221  1  0.72628038  0.13235323  0.74404463  1
  O2-  O222  1  0.73153415  0.63574794  0.24600622  1
  O2-  O223  1  0.74279678  0.63775086  0.72082134  1
  O2-  O224  1  0.10941777  0.47226483  0.25700441  1
  O2-  O225  1  0.11359072  0.49366252  0.78549890  1
  O2-  O226  1  0.10938811  0.96971492  0.24432137  1
  O2-  O227  1  0.11127908  0.97329248  0.73240703  1
  O2-  O228  1  0.61423267  0.48434465  0.25752308  1
  O2-  O229  1  0.61926375  0.48286264  0.77791881  1
  O2-  O230  1  0.63011145  0.97719857  0.25526657  1
  O2-  O231  1  0.61830487  0.97082092  0.73690442  1
  O2-  O232  1  0.38570831  0.01858493  0.24819796  1
  O2-  O233  1  0.38295784  0.02373063  0.76653948  1
  O2-  O234  1  0.38300791  0.52058383  0.22364438  1
  O2-  O235  1  0.38701785  0.53061969  0.73938743  1
  O2-  O236  1  0.87053699  0.01048246  0.25857617  1
  O2-  O237  1  0.88602491  0.01886692  0.73193169  1
  O2-  O238  1  0.88756837  0.51119171  0.21131072  1
  O2-  O239  1  0.89088950  0.52677044  0.74490859  1
  O2-  O240  1  0.47529345  0.38658552  0.27156311  1
  O2-  O241  1  0.47940111  0.38610932  0.77143012  1
  O2-  O242  1  0.48363527  0.86963623  0.27066844  1
  O2-  O243  1  0.47726381  0.88255791  0.77470668  1
  O2-  O244  1  0.97504817  0.36822693  0.23584105  1
  O2-  O245  1  0.98830863  0.38719619  0.72328554  1
  O2-  O246  1  0.97187224  0.86821982  0.24209033  1
  O2-  O247  1  0.97550219  0.86927091  0.74158650  1
  O2-  O248  1  0.01107983  0.11773870  0.26763560  1
  O2-  O249  1  0.01835132  0.11464025  0.77585566  1
  O2-  O250  1  0.00981199  0.62538956  0.26654160  1
  O2-  O251  1  0.01763987  0.63476473  0.76291448  1
  O2-  O252  1  0.52714883  0.11562899  0.22545405  1
  O2-  O253  1  0.52417399  0.11762014  0.72729775  1
  O2-  O254  1  0.51530990  0.63095570  0.23202136  1
  O2-  O255  1  0.53443981  0.61840425  0.74133879  1
  O2-  O256  1  0.12761812  0.48186629  -0.01535190  1
  O2-  O257  1  0.13328550  0.46421111  0.49104233  1
  O2-  O258  1  0.13150063  0.98596110  0.02134218  1
  O2-  O259  1  0.11546771  0.97038615  0.49773652  1
  O2-  O260  1  0.62603748  0.48532785  -0.01773577  1
  O2-  O261  1  0.63981674  0.49318523  0.46465610  1
  O2-  O262  1  0.64002650  0.95744659  -0.00059533  1
  O2-  O263  1  0.63563725  0.97791791  0.49842739  1
  O2-  O264  1  0.36862456  0.02326976  -0.01552885  1
  O2-  O265  1  0.36775274  0.03713416  0.49168135  1
  O2-  O266  1  0.37826788  0.51630858  0.02028313  1
  O2-  O267  1  0.36812748  0.52847226  0.51467867  1
  O2-  O268  1  0.86373142  0.04200854  0.00534647  1
  O2-  O269  1  0.87521571  0.01602913  0.49062525  1
  O2-  O270  1  0.88381889  0.51077105  0.02228771  1
  O2-  O271  1  0.86524051  0.51815211  0.53096417  1
  O2-  O272  1  0.48052988  0.38361345  -0.01846261  1
  O2-  O273  1  0.48794903  0.36623157  0.47441318  1
  O2-  O274  1  0.47662655  0.86356011  -0.01511653  1
  O2-  O275  1  0.49111951  0.86323721  0.46957646  1
  O2-  O276  1  0.99909526  0.37701186  0.02737608  1
  O2-  O277  1  0.97115479  0.36208879  0.51235363  1
  O2-  O278  1  0.97925732  0.86358609  0.01839354  1
  O2-  O279  1  0.97107080  0.87622591  0.50737437  1
  O2-  O280  1  0.02188522  0.13965716  -0.01399670  1
  O2-  O281  1  0.00961743  0.11600363  0.47525521  1
  O2-  O282  1  0.02000923  0.61825282  -0.01053610  1
  O2-  O283  1  0.00477792  0.63872471  0.48299162  1
  O2-  O284  1  0.51322034  0.13810867  0.03382718  1
  O2-  O285  1  0.53288554  0.13491105  0.52024686  1
  O2-  O286  1  0.52076130  0.61868216  0.01662372  1
  O2-  O287  1  0.53709848  0.63813823  0.50819552  1
  O2-  O288  1  0.12735690  0.27089693  -0.00634517  1
  O2-  O289  1  0.11102435  0.26746619  0.47433325  1
  O2-  O290  1  0.11272688  0.75290924  0.03148166  1
  O2-  O291  1  0.11064003  0.76965590  0.51774580  1
  O2-  O292  1  0.61398029  0.27830695  -0.00220904  1
  O2-  O293  1  0.63312793  0.26906584  0.48316219  1
  O2-  O294  1  0.61340533  0.75692084  0.04105735  1
  O2-  O295  1  0.63337826  0.77584686  0.50896365  1
  O2-  O296  1  0.36995338  0.23865824  0.01152136  1
  O2-  O297  1  0.38439788  0.22139172  0.50890307  1
  O2-  O298  1  0.39031975  0.71585669  -0.00908512  1
  O2-  O299  1  0.38492029  0.72279210  0.47811135  1
  O2-  O300  1  0.88684075  0.24170831  0.03120622  1
  O2-  O301  1  0.87090671  0.22774258  0.50374121  1
  O2-  O302  1  0.88746970  0.71887542  -0.01132545  1
  O2-  O303  1  0.87107791  0.74234032  0.47884074  1
  O2-  O304  1  0.26413537  0.37312063  0.01785798  1
  O2-  O305  1  0.27864301  0.38091186  0.52038336  1
  O2-  O306  1  0.27309870  0.88375171  0.01615338  1
  O2-  O307  1  0.27650276  0.88483687  0.51795564  1
  O2-  O308  1  0.77671437  0.38290739  -0.01255926  1
  O2-  O309  1  0.77297343  0.37134590  0.49386756  1
  O2-  O310  1  0.79121277  0.88499678  -0.00198181  1
  O2-  O311  1  0.77241361  0.87778838  0.48690044  1
  O2-  O312  1  0.23251825  0.13230875  -0.00785733  1
  O2-  O313  1  0.21062720  0.11236009  0.48668595  1
  O2-  O314  1  0.23584918  0.61399114  -0.02454064  1
  O2-  O315  1  0.22171161  0.61730833  0.48461465  1
  O2-  O316  1  0.70742915  0.11298433  -0.00511352  1
  O2-  O317  1  0.73254479  0.12591019  0.49894003  1
  O2-  O318  1  0.74103048  0.61353156  0.02612461  1
  O2-  O319  1  0.73833133  0.63252011  0.50258282  1
