# generated using pymatgen
data_Sr64Ca21Nb43O192
_symmetry_space_group_name_H-M   'P 1'
_cell_length_a   16.58746822
_cell_length_b   16.56933484
_cell_length_c   16.74055914
_cell_angle_alpha   89.96728132
_cell_angle_beta   89.94235142
_cell_angle_gamma   89.94833216
_symmetry_Int_Tables_number   1
_chemical_formula_structural   Sr64Ca21Nb43O192
_chemical_formula_sum   'Sr64 Ca21 Nb43 O192'
_cell_volume   4601.02582366
_cell_formula_units_Z   1
loop_
 _symmetry_equiv_pos_site_id
 _symmetry_equiv_pos_as_xyz
  1  'x, y, z'
loop_
 _atom_type_symbol
 _atom_type_oxidation_number
  Sr2+  2.0
  Ca2+  2.0
  Nb5+  5.0
  O2-  -2.0
loop_
 _atom_site_type_symbol
 _atom_site_label
 _atom_site_symmetry_multiplicity
 _atom_site_fract_x
 _atom_site_fract_y
 _atom_site_fract_z
 _atom_site_occupancy
  Sr2+  Sr0  1  0.11326998  0.11598713  0.13880302  1
  Sr2+  Sr1  1  0.12024111  0.11316885  0.62020826  1
  Sr2+  Sr2  1  0.12563565  0.61991082  0.11344158  1
  Sr2+  Sr3  1  0.11954486  0.61838031  0.62598189  1
  Sr2+  Sr4  1  0.61935082  0.11051870  0.12259686  1
  Sr2+  Sr5  1  0.61688374  0.11243177  0.62448816  1
  Sr2+  Sr6  1  0.61527411  0.60910743  0.12145456  1
  Sr2+  Sr7  1  0.62928035  0.62102257  0.62131972  1
  Sr2+  Sr8  1  0.37074604  0.36171208  0.13043055  1
  Sr2+  Sr9  1  0.36784457  0.36375206  0.62315031  1
  Sr2+  Sr10  1  0.36735448  0.86066868  0.13342344  1
  Sr2+  Sr11  1  0.36590809  0.87200236  0.61885300  1
  Sr2+  Sr12  1  0.86679226  0.36014013  0.13203869  1
  Sr2+  Sr13  1  0.86960274  0.37049042  0.62249034  1
  Sr2+  Sr14  1  0.87007683  0.87462780  0.11821672  1
  Sr2+  Sr15  1  0.86733162  0.86514537  0.62647232  1
  Sr2+  Sr16  1  0.13210292  0.38068042  0.36632472  1
  Sr2+  Sr17  1  0.13479519  0.37563945  0.87204469  1
  Sr2+  Sr18  1  0.13936918  0.88147960  0.37128072  1
  Sr2+  Sr19  1  0.13290457  0.87739301  0.87923357  1
  Sr2+  Sr20  1  0.62019665  0.37857979  0.36081818  1
  Sr2+  Sr21  1  0.63099073  0.37740218  0.87735295  1
  Sr2+  Sr22  1  0.63630739  0.87823981  0.37760579  1
  Sr2+  Sr23  1  0.63143224  0.88792889  0.87641772  1
  Sr2+  Sr24  1  0.38996130  0.13178902  0.37359213  1
  Sr2+  Sr25  1  0.38744288  0.12746611  0.86950988  1
  Sr2+  Sr26  1  0.39370853  0.62831107  0.37385664  1
  Sr2+  Sr27  1  0.37667748  0.63216941  0.87999144  1
  Sr2+  Sr28  1  0.89158886  0.12461302  0.37085159  1
  Sr2+  Sr29  1  0.88353471  0.13649157  0.87789209  1
  Sr2+  Sr30  1  0.88268136  0.63178884  0.37183530  1
  Sr2+  Sr31  1  0.88979281  0.63071184  0.86973066  1
  Sr2+  Sr32  1  0.13702808  0.13839147  0.36698295  1
  Sr2+  Sr33  1  0.12987610  0.12830655  0.87490439  1
  Sr2+  Sr34  1  0.12654453  0.63353149  0.37893367  1
  Sr2+  Sr35  1  0.13202013  0.63761204  0.87467796  1
  Sr2+  Sr36  1  0.63537714  0.11849712  0.36649817  1
  Sr2+  Sr37  1  0.63055816  0.13710924  0.87485194  1
  Sr2+  Sr38  1  0.62944386  0.64223976  0.37177689  1
  Sr2+  Sr39  1  0.62919623  0.63100901  0.87774815  1
  Sr2+  Sr40  1  0.37986401  0.38239869  0.37221082  1
  Sr2+  Sr41  1  0.38196773  0.37920735  0.87115656  1
  Sr2+  Sr42  1  0.38789445  0.88701835  0.37000136  1
  Sr2+  Sr43  1  0.37781940  0.88459493  0.87093867  1
  Sr2+  Sr44  1  0.88106423  0.39407851  0.36696467  1
  Sr2+  Sr45  1  0.87691855  0.37393590  0.87875680  1
  Sr2+  Sr46  1  0.87458001  0.89139736  0.37599342  1
  Sr2+  Sr47  1  0.88941522  0.88906631  0.87615244  1
  Sr2+  Sr48  1  0.11755362  0.36613048  0.13549300  1
  Sr2+  Sr49  1  0.11815544  0.36782719  0.62307454  1
  Sr2+  Sr50  1  0.11269324  0.86885818  0.12857090  1
  Sr2+  Sr51  1  0.11544236  0.87585448  0.62805525  1
  Sr2+  Sr52  1  0.61958241  0.36376739  0.12161395  1
  Sr2+  Sr53  1  0.62092283  0.36953677  0.61933918  1
  Sr2+  Sr54  1  0.60665219  0.87707699  0.12779014  1
  Sr2+  Sr55  1  0.61983338  0.86037118  0.62230982  1
  Sr2+  Sr56  1  0.36321427  0.11850188  0.13408783  1
  Sr2+  Sr57  1  0.36466033  0.11492067  0.62123873  1
  Sr2+  Sr58  1  0.36540432  0.62305957  0.12157464  1
  Sr2+  Sr59  1  0.36414451  0.61425000  0.62660511  1
  Sr2+  Sr60  1  0.86460755  0.11772081  0.12266428  1
  Sr2+  Sr61  1  0.87286173  0.12242972  0.62360846  1
  Sr2+  Sr62  1  0.85552370  0.62017383  0.12844660  1
  Sr2+  Sr63  1  0.86997169  0.61932858  0.62586460  1
  Ca2+  Ca64  1  0.50425229  -0.00095944  0.50077912  1
  Ca2+  Ca65  1  0.00383313  -0.00248654  0.49592212  1
  Ca2+  Ca66  1  0.49407058  -0.00024782  0.00043189  1
  Ca2+  Ca67  1  -0.00301741  0.49850031  -0.00149855  1
  Ca2+  Ca68  1  0.00228274  0.00314692  -0.00037305  1
  Ca2+  Ca69  1  0.75178795  0.25545707  0.49792309  1
  Ca2+  Ca70  1  0.25420166  0.25129577  0.50060922  1
  Ca2+  Ca71  1  0.24605368  0.24993173  0.00275187  1
  Ca2+  Ca72  1  0.25114839  0.75071101  0.50037070  1
  Ca2+  Ca73  1  0.74759069  0.74892869  -0.00317413  1
  Ca2+  Ca74  1  0.50100226  0.74756920  0.24835652  1
  Ca2+  Ca75  1  0.74619802  0.49989409  0.24895003  1
  Ca2+  Ca76  1  -0.00280866  0.25012047  0.25278480  1
  Ca2+  Ca77  1  0.25080200  -0.00166790  0.24868090  1
  Ca2+  Ca78  1  0.49700369  0.74928657  0.75223407  1
  Ca2+  Ca79  1  0.50247128  0.24850629  0.24985062  1
  Ca2+  Ca80  1  -0.00281157  0.75056198  0.25166434  1
  Ca2+  Ca81  1  0.75083504  -0.00274172  0.24728893  1
  Ca2+  Ca82  1  0.50163785  0.24929636  0.74768215  1
  Ca2+  Ca83  1  0.75186631  -0.00009777  0.74893197  1
  Ca2+  Ca84  1  0.24985292  0.50339091  0.24923972  1
  Nb5+  Nb85  1  0.49778717  0.49568872  -0.00842976  1
  Nb5+  Nb86  1  0.49747415  0.50170220  0.49835023  1
  Nb5+  Nb87  1  -0.00314142  0.50042579  0.50086117  1
  Nb5+  Nb88  1  0.24896962  0.75411815  0.00071124  1
  Nb5+  Nb89  1  0.74841611  0.24814986  -0.00048982  1
  Nb5+  Nb90  1  0.75516313  0.74883123  0.49957619  1
  Nb5+  Nb91  1  0.75480657  0.49953376  0.75151789  1
  Nb5+  Nb92  1  0.00069177  0.25646441  0.74699851  1
  Nb5+  Nb93  1  0.25344427  0.49657341  0.75330476  1
  Nb5+  Nb94  1  -0.00164845  0.75565572  0.74856742  1
  Nb5+  Nb95  1  0.24896472  -0.00557913  0.75028850  1
  Nb5+  Nb96  1  -0.00071899  -0.00514558  0.24957863  1
  Nb5+  Nb97  1  0.00107660  0.01156901  0.75140342  1
  Nb5+  Nb98  1  -0.00200985  0.50886107  0.24038228  1
  Nb5+  Nb99  1  0.00529186  0.50094420  0.75021837  1
  Nb5+  Nb100  1  0.49985344  0.00132429  0.25126834  1
  Nb5+  Nb101  1  0.50414211  -0.00558838  0.74831863  1
  Nb5+  Nb102  1  0.49489142  0.50132359  0.23752979  1
  Nb5+  Nb103  1  0.50607078  0.50090271  0.74480563  1
  Nb5+  Nb104  1  0.25301856  0.25184180  0.25084228  1
  Nb5+  Nb105  1  0.24820783  0.24008989  0.74844295  1
  Nb5+  Nb106  1  0.25102441  0.74334371  0.25830932  1
  Nb5+  Nb107  1  0.24847174  0.74542631  0.74681652  1
  Nb5+  Nb108  1  0.75226541  0.24542308  0.25701139  1
  Nb5+  Nb109  1  0.74792765  0.25103597  0.74743134  1
  Nb5+  Nb110  1  0.74665819  0.75395512  0.23901095  1
  Nb5+  Nb111  1  0.74995693  0.75037015  0.75527057  1
  Nb5+  Nb112  1  0.00187701  0.25182314  0.49606154  1
  Nb5+  Nb113  1  0.00200761  0.25362973  1.00281626  1
  Nb5+  Nb114  1  -0.00108254  0.75323135  0.50015326  1
  Nb5+  Nb115  1  -0.00354717  0.74475434  1.00431441  1
  Nb5+  Nb116  1  0.51020301  0.24739237  0.50029227  1
  Nb5+  Nb117  1  0.49620267  0.24417046  0.99882807  1
  Nb5+  Nb118  1  0.49673881  0.74772823  0.50846513  1
  Nb5+  Nb119  1  0.49930694  0.75302141  0.99883073  1
  Nb5+  Nb120  1  0.24762123  0.00202259  0.00299028  1
  Nb5+  Nb121  1  0.25040726  0.00310866  0.49346180  1
  Nb5+  Nb122  1  0.25015232  0.49591022  0.00056606  1
  Nb5+  Nb123  1  0.24243129  0.50145074  0.50136707  1
  Nb5+  Nb124  1  0.75046621  -0.00485872  -0.00612174  1
  Nb5+  Nb125  1  0.75165578  0.00789180  0.50486707  1
  Nb5+  Nb126  1  0.75136636  0.49861027  -0.00210162  1
  Nb5+  Nb127  1  0.74460768  0.50227734  0.49785029  1
  O2-  O128  1  -0.01371687  0.02943591  0.13147142  1
  O2-  O129  1  -0.00806434  0.02165099  0.63443461  1
  O2-  O130  1  -0.01459932  0.54124393  0.13191124  1
  O2-  O131  1  -0.01091001  0.51861359  0.63024561  1
  O2-  O132  1  0.48383668  0.03120189  0.13433370  1
  O2-  O133  1  0.48513303  0.02768185  0.63557108  1
  O2-  O134  1  0.48207769  0.51817490  0.12270878  1
  O2-  O135  1  0.49397399  0.52868047  0.63286770  1
  O2-  O136  1  0.01361173  -0.04131884  0.36446052  1
  O2-  O137  1  0.02236804  -0.02137401  0.86167838  1
  O2-  O138  1  0.01565040  0.47925285  0.38999149  1
  O2-  O139  1  0.00748504  0.47099117  0.86126487  1
  O2-  O140  1  0.51815590  -0.02984891  0.36862502  1
  O2-  O141  1  0.50531538  -0.03160465  0.86582651  1
  O2-  O142  1  0.50895496  0.48084075  0.38679560  1
  O2-  O143  1  0.50872145  0.47381813  0.87774076  1
  O2-  O144  1  0.23852527  0.28268746  0.13298363  1
  O2-  O145  1  0.23671222  0.27644422  0.63821304  1
  O2-  O146  1  0.23155912  0.77092317  0.11320790  1
  O2-  O147  1  0.22581695  0.77198306  0.63630454  1
  O2-  O148  1  0.74119944  0.27284912  0.11153147  1
  O2-  O149  1  0.74507544  0.28122982  0.63605771  1
  O2-  O150  1  0.73358734  0.78502092  0.12988119  1
  O2-  O151  1  0.73930349  0.75654856  0.63145473  1
  O2-  O152  1  0.26837724  0.22558269  0.36805645  1
  O2-  O153  1  0.24804904  0.23308553  0.86571853  1
  O2-  O154  1  0.26620596  0.71173270  0.36727600  1
  O2-  O155  1  0.25652916  0.73729315  0.86849056  1
  O2-  O156  1  0.76596627  0.21709685  0.36669413  1
  O2-  O157  1  0.76999516  0.24093787  0.87010067  1
  O2-  O158  1  0.76518433  0.72488952  0.38805607  1
  O2-  O159  1  0.76970476  0.71804706  0.86425030  1
  O2-  O160  1  0.01603283  0.23634351  0.11482600  1
  O2-  O161  1  0.02342148  0.23599429  0.63037976  1
  O2-  O162  1  0.02787566  0.73356925  0.11321859  1
  O2-  O163  1  0.01804437  0.72964257  0.63202077  1
  O2-  O164  1  0.52881994  0.24206328  0.11116316  1
  O2-  O165  1  0.53954787  0.24171127  0.61819110  1
  O2-  O166  1  0.51539845  0.72114242  0.11132086  1
  O2-  O167  1  0.53297239  0.73106279  0.62102016  1
  O2-  O168  1  0.22465928  0.01635961  0.38321617  1
  O2-  O169  1  0.22297640  0.00779342  0.86751961  1
  O2-  O170  1  0.22624815  0.51565285  0.38957511  1
  O2-  O171  1  0.22864284  0.51736207  0.86847058  1
  O2-  O172  1  0.72745818  0.00033899  0.38807731  1
  O2-  O173  1  0.71921314  0.01777060  0.88002347  1
  O2-  O174  1  0.72926551  0.52037867  0.38691211  1
  O2-  O175  1  0.72390602  0.50819424  0.86813245  1
  O2-  O176  1  -0.02536494  0.27612357  0.38748746  1
  O2-  O177  1  -0.01435943  0.26794981  0.86471172  1
  O2-  O178  1  -0.03439132  0.76302366  0.39165246  1
  O2-  O179  1  -0.02107287  0.76118864  0.86594559  1
  O2-  O180  1  0.48230653  0.27526922  0.38849285  1
  O2-  O181  1  0.48832975  0.27534257  0.88473663  1
  O2-  O182  1  0.48378837  0.75408944  0.39068379  1
  O2-  O183  1  0.46321973  0.75670644  0.88631141  1
  O2-  O184  1  0.27838966  -0.01616246  0.11168370  1
  O2-  O185  1  0.26806005  -0.01323127  0.63302912  1
  O2-  O186  1  0.27806909  0.48779594  0.11087285  1
  O2-  O187  1  0.26349013  0.48735143  0.63533184  1
  O2-  O188  1  0.77556594  -0.00701066  0.11033926  1
  O2-  O189  1  0.78718624  -0.01042939  0.61750078  1
  O2-  O190  1  0.76973411  0.48244358  0.11037459  1
  O2-  O191  1  0.76150946  0.48881516  0.63173325  1
  O2-  O192  1  0.13153041  0.26922506  0.26752269  1
  O2-  O193  1  0.12116069  0.26896836  0.76245005  1
  O2-  O194  1  0.13374528  0.76817745  0.27019032  1
  O2-  O195  1  0.11791113  0.75883693  0.76801841  1
  O2-  O196  1  0.63663412  0.27432656  0.25609584  1
  O2-  O197  1  0.63715646  0.27103295  0.77073003  1
  O2-  O198  1  0.63443245  0.76526857  0.27828222  1
  O2-  O199  1  0.63628694  0.76551488  0.77275514  1
  O2-  O200  1  0.36920025  0.23342309  0.22705123  1
  O2-  O201  1  0.36357808  0.23003255  0.73984488  1
  O2-  O202  1  0.36569333  0.73139059  0.22401832  1
  O2-  O203  1  0.36060925  0.72977979  0.72983159  1
  O2-  O204  1  0.86564447  0.23154666  0.22139107  1
  O2-  O205  1  0.88160784  0.23618207  0.73417584  1
  O2-  O206  1  0.86228444  0.72234529  0.23643817  1
  O2-  O207  1  0.88138162  0.72678794  0.73268296  1
  O2-  O208  1  0.26825794  0.37013626  0.27573494  1
  O2-  O209  1  0.26164676  0.38091287  0.77074708  1
  O2-  O210  1  0.27230611  0.86183937  0.26859550  1
  O2-  O211  1  0.25811380  0.87548554  0.76490332  1
  O2-  O212  1  0.77320352  0.36534031  0.26772449  1
  O2-  O213  1  0.77019733  0.38102376  0.76634100  1
  O2-  O214  1  0.77018308  0.86282313  0.27698964  1
  O2-  O215  1  0.77965712  0.86154955  0.76570838  1
  O2-  O216  1  0.23021974  0.13426794  0.22684944  1
  O2-  O217  1  0.22611133  0.12546798  0.73363658  1
  O2-  O218  1  0.22867137  0.63470518  0.21495499  1
  O2-  O219  1  0.22810242  0.62639917  0.73637541  1
  O2-  O220  1  0.72709791  0.13373294  0.22413308  1
  O2-  O221  1  0.73603795  0.13751250  0.72829010  1
  O2-  O222  1  0.72412129  0.63397423  0.22361269  1
  O2-  O223  1  0.73474216  0.61829273  0.73589929  1
  O2-  O224  1  0.11437816  0.48236907  0.23568425  1
  O2-  O225  1  0.12237297  0.48603732  0.73453522  1
  O2-  O226  1  0.11803546  0.98054417  0.22781559  1
  O2-  O227  1  0.12644095  0.98952094  0.72911842  1
  O2-  O228  1  0.61227503  0.47461927  0.22927026  1
  O2-  O229  1  0.62165686  0.48050946  0.73699764  1
  O2-  O230  1  0.61749865  0.98600880  0.22777406  1
  O2-  O231  1  0.61624026  0.96903924  0.73165614  1
  O2-  O232  1  0.38223088  0.01798276  0.27514847  1
  O2-  O233  1  0.36284005  0.02070117  0.76690070  1
  O2-  O234  1  0.38267937  0.52480812  0.27004663  1
  O2-  O235  1  0.36753989  0.52072311  0.76490084  1
  O2-  O236  1  0.88290283  0.01529811  0.27166630  1
  O2-  O237  1  0.88741110  0.01745765  0.77156897  1
  O2-  O238  1  0.88211713  0.51838358  0.27385955  1
  O2-  O239  1  0.87290872  0.51515834  0.76194660  1
  O2-  O240  1  0.47238116  0.38559560  0.24356619  1
  O2-  O241  1  0.47031230  0.38913044  0.73714635  1
  O2-  O242  1  0.48082215  0.88207285  0.22694270  1
  O2-  O243  1  0.46400560  0.88303210  0.72917993  1
  O2-  O244  1  0.97918364  0.38913703  0.23223332  1
  O2-  O245  1  0.98676934  0.37432245  0.72629254  1
  O2-  O246  1  0.97956059  0.88050629  0.21416229  1
  O2-  O247  1  0.98666155  0.87070677  0.73103521  1
  O2-  O248  1  0.02012055  0.11469503  0.27840254  1
  O2-  O249  1  0.01859850  0.12771679  0.76673980  1
  O2-  O250  1  0.01607678  0.61643990  0.28714402  1
  O2-  O251  1  0.01411918  0.61772863  0.76759736  1
  O2-  O252  1  0.51748243  0.11797171  0.28107819  1
  O2-  O253  1  0.51547032  0.11254493  0.77686309  1
  O2-  O254  1  0.52231192  0.61157883  0.27221813  1
  O2-  O255  1  0.50973026  0.61123646  0.78320941  1
  O2-  O256  1  0.13507577  0.48638698  0.01913899  1
  O2-  O257  1  0.12691156  0.48772144  0.52470766  1
  O2-  O258  1  0.13602100  0.96282987  0.01011518  1
  O2-  O259  1  0.13710918  0.97601509  0.52236983  1
  O2-  O260  1  0.61674136  0.47903965  0.01154862  1
  O2-  O261  1  0.62966051  0.48999538  0.52132907  1
  O2-  O262  1  0.63254619  0.98155175  0.02027310  1
  O2-  O263  1  0.63945808  0.97540496  0.53087803  1
  O2-  O264  1  0.35909495  0.01492002  -0.03479391  1
  O2-  O265  1  0.36893287  0.02689835  0.48769893  1
  O2-  O266  1  0.37649992  0.51511453  -0.02307485  1
  O2-  O267  1  0.38175137  0.52528300  0.49363523  1
  O2-  O268  1  0.86604408  0.02212626  -0.02793295  1
  O2-  O269  1  0.86931852  0.01788750  0.47497000  1
  O2-  O270  1  0.86033405  0.52013144  -0.02933012  1
  O2-  O271  1  0.88089755  0.52153312  0.49070886  1
  O2-  O272  1  0.47844440  0.37964084  0.01982693  1
  O2-  O273  1  0.48765133  0.39112071  0.53332240  1
  O2-  O274  1  0.48036645  0.86311979  0.02668399  1
  O2-  O275  1  0.49047700  0.86244256  0.52488412  1
  O2-  O276  1  0.96181485  0.36620276  0.01151038  1
  O2-  O277  1  0.98694344  0.38524913  0.52870461  1
  O2-  O278  1  0.98002580  0.86245375  0.00452830  1
  O2-  O279  1  0.98709652  0.86219638  0.53460672  1
  O2-  O280  1  0.01249983  0.14019238  -0.03040929  1
  O2-  O281  1  0.02343902  0.13877757  0.47964099  1
  O2-  O282  1  0.01598295  0.63289471  -0.03214152  1
  O2-  O283  1  0.01841750  0.62192926  0.49499787  1
  O2-  O284  1  0.51812313  0.13371746  -0.02608358  1
  O2-  O285  1  0.53424434  0.13663702  0.48060390  1
  O2-  O286  1  0.51236310  0.61500629  -0.01871074  1
  O2-  O287  1  0.52595521  0.62074706  0.49016513  1
  O2-  O288  1  0.11156715  0.28494845  -0.01353214  1
  O2-  O289  1  0.11639117  0.28555690  0.48908909  1
  O2-  O290  1  0.12834133  0.75954439  -0.02161698  1
  O2-  O291  1  0.11346774  0.76043697  0.47613761  1
  O2-  O292  1  0.63084481  0.26644387  -0.02241669  1
  O2-  O293  1  0.62017181  0.29420033  0.48342313  1
  O2-  O294  1  0.61138309  0.76451951  -0.03023136  1
  O2-  O295  1  0.63593610  0.75940530  0.48964484  1
  O2-  O296  1  0.38303397  0.22809253  0.01718465  1
  O2-  O297  1  0.39376588  0.23941671  0.53102552  1
  O2-  O298  1  0.36667480  0.73069352  0.01599395  1
  O2-  O299  1  0.38602692  0.72705515  0.53050548  1
  O2-  O300  1  0.86904408  0.23104633  0.00535793  1
  O2-  O301  1  0.88898138  0.24151114  0.53082308  1
  O2-  O302  1  0.88282870  0.72499424  0.02196435  1
  O2-  O303  1  0.87555465  0.73011237  0.52688422  1
  O2-  O304  1  0.26596513  0.38626554  -0.03115316  1
  O2-  O305  1  0.27976682  0.39079806  0.49511995  1
  O2-  O306  1  0.26849322  0.86750115  -0.02372454  1
  O2-  O307  1  0.27899853  0.88448785  0.48301455  1
  O2-  O308  1  0.75765965  0.37677305  -0.02399823  1
  O2-  O309  1  0.77968223  0.39262414  0.48885865  1
  O2-  O310  1  0.76953293  0.88241385  -0.02834439  1
  O2-  O311  1  0.77419303  0.86401906  0.49483911  1
  O2-  O312  1  0.21692184  0.11327383  0.01511587  1
  O2-  O313  1  0.23354428  0.11769981  0.52676915  1
  O2-  O314  1  0.23840958  0.62536213  0.00301924  1
  O2-  O315  1  0.24144981  0.61544325  0.53186104  1
  O2-  O316  1  0.72924913  0.13239942  0.00855626  1
  O2-  O317  1  0.73069090  0.12015870  0.52019685  1
  O2-  O318  1  0.71992937  0.61159844  0.01148294  1
  O2-  O319  1  0.74673041  0.62196730  0.52540649  1
