# generated using pymatgen
data_Sr64Ca21Nb43O192
_symmetry_space_group_name_H-M   'P 1'
_cell_length_a   16.57201093
_cell_length_b   16.56065815
_cell_length_c   16.70948656
_cell_angle_alpha   90.01907559
_cell_angle_beta   90.04694504
_cell_angle_gamma   89.98699003
_symmetry_Int_Tables_number   1
_chemical_formula_structural   Sr64Ca21Nb43O192
_chemical_formula_sum   'Sr64 Ca21 Nb43 O192'
_cell_volume   4585.80652574
_cell_formula_units_Z   1
loop_
 _symmetry_equiv_pos_site_id
 _symmetry_equiv_pos_as_xyz
  1  'x, y, z'
loop_
 _atom_type_symbol
 _atom_type_oxidation_number
  Sr2+  2.0
  Ca2+  2.0
  Nb5+  5.0
  O2-  -2.0
loop_
 _atom_site_type_symbol
 _atom_site_label
 _atom_site_symmetry_multiplicity
 _atom_site_fract_x
 _atom_site_fract_y
 _atom_site_fract_z
 _atom_site_occupancy
  Sr2+  Sr0  1  0.12392110  0.12390712  0.12698464  1
  Sr2+  Sr1  1  0.13183253  0.11883292  0.62255101  1
  Sr2+  Sr2  1  0.13392288  0.64241720  0.12552967  1
  Sr2+  Sr3  1  0.12729048  0.65061722  0.62270353  1
  Sr2+  Sr4  1  0.62189848  0.11413682  0.13477627  1
  Sr2+  Sr5  1  0.63014723  0.11499366  0.61786138  1
  Sr2+  Sr6  1  0.64005902  0.61381609  0.12585728  1
  Sr2+  Sr7  1  0.62274790  0.63245055  0.64024371  1
  Sr2+  Sr8  1  0.36932857  0.38901446  0.12620730  1
  Sr2+  Sr9  1  0.37418687  0.38407422  0.61895362  1
  Sr2+  Sr10  1  0.37119705  0.87598857  0.12312222  1
  Sr2+  Sr11  1  0.36911696  0.88226076  0.62418051  1
  Sr2+  Sr12  1  0.88016777  0.36295620  0.12612211  1
  Sr2+  Sr13  1  0.88389762  0.36204425  0.62790397  1
  Sr2+  Sr14  1  0.88336294  0.88599867  0.12198021  1
  Sr2+  Sr15  1  0.87736420  0.87355687  0.62458298  1
  Sr2+  Sr16  1  0.11678853  0.38075776  0.37367981  1
  Sr2+  Sr17  1  0.11812988  0.38056537  0.87481015  1
  Sr2+  Sr18  1  0.11361025  0.86816713  0.37604037  1
  Sr2+  Sr19  1  0.11520531  0.88030758  0.87383006  1
  Sr2+  Sr20  1  0.62138867  0.38432389  0.37933132  1
  Sr2+  Sr21  1  0.62611500  0.37651086  0.87478405  1
  Sr2+  Sr22  1  0.62663329  0.86950640  0.38453484  1
  Sr2+  Sr23  1  0.62058420  0.87019816  0.86567383  1
  Sr2+  Sr24  1  0.38920330  0.13815962  0.37408250  1
  Sr2+  Sr25  1  0.38226047  0.13394289  0.87424668  1
  Sr2+  Sr26  1  0.40372367  0.62115918  0.37554353  1
  Sr2+  Sr27  1  0.39069425  0.62373988  0.87464010  1
  Sr2+  Sr28  1  0.86503583  0.13180780  0.37462209  1
  Sr2+  Sr29  1  0.85825012  0.13502522  0.87083161  1
  Sr2+  Sr30  1  0.86848976  0.62661122  0.37531895  1
  Sr2+  Sr31  1  0.84471712  0.62732697  0.87848972  1
  Sr2+  Sr32  1  0.12355702  0.13778494  0.37347948  1
  Sr2+  Sr33  1  0.12408849  0.13297045  0.87268790  1
  Sr2+  Sr34  1  0.12264379  0.62314431  0.38019540  1
  Sr2+  Sr35  1  0.13067144  0.63614193  0.86657106  1
  Sr2+  Sr36  1  0.62478551  0.10349236  0.37894501  1
  Sr2+  Sr37  1  0.62156408  0.14394902  0.87292461  1
  Sr2+  Sr38  1  0.62818164  0.64936412  0.36996238  1
  Sr2+  Sr39  1  0.62400170  0.64167609  0.87751108  1
  Sr2+  Sr40  1  0.37852083  0.38587700  0.36756067  1
  Sr2+  Sr41  1  0.38075099  0.38371364  0.86806109  1
  Sr2+  Sr42  1  0.39202125  0.87254985  0.37859534  1
  Sr2+  Sr43  1  0.37981997  0.88730840  0.87579173  1
  Sr2+  Sr44  1  0.87729028  0.38491993  0.37919928  1
  Sr2+  Sr45  1  0.86677440  0.37944022  0.86674064  1
  Sr2+  Sr46  1  0.85953451  0.87955637  0.37654211  1
  Sr2+  Sr47  1  0.86097326  0.87199847  0.87909582  1
  Sr2+  Sr48  1  0.12359577  0.37120067  0.12791414  1
  Sr2+  Sr49  1  0.12802951  0.37885068  0.61740193  1
  Sr2+  Sr50  1  0.11172315  0.87754003  0.11906975  1
  Sr2+  Sr51  1  0.11437632  0.87356980  0.63130849  1
  Sr2+  Sr52  1  0.64521410  0.36748676  0.12445231  1
  Sr2+  Sr53  1  0.62082448  0.35607237  0.62767703  1
  Sr2+  Sr54  1  0.60034763  0.87343000  0.12823337  1
  Sr2+  Sr55  1  0.64982258  0.87007248  0.62129677  1
  Sr2+  Sr56  1  0.38189821  0.12330878  0.12968019  1
  Sr2+  Sr57  1  0.37413860  0.12848362  0.61487521  1
  Sr2+  Sr58  1  0.37442576  0.63114463  0.12232185  1
  Sr2+  Sr59  1  0.37015921  0.63362412  0.62233642  1
  Sr2+  Sr60  1  0.88150641  0.12001036  0.12990696  1
  Sr2+  Sr61  1  0.86125727  0.12142864  0.62455324  1
  Sr2+  Sr62  1  0.87550578  0.61863534  0.12589838  1
  Sr2+  Sr63  1  0.88646363  0.63345585  0.62916375  1
  Ca2+  Ca64  1  0.00062723  0.50098368  0.00125276  1
  Ca2+  Ca65  1  0.50478899  0.50193158  0.50583880  1
  Ca2+  Ca66  1  0.50228086  0.49872516  0.00244304  1
  Ca2+  Ca67  1  0.00251107  0.00458247  0.50152336  1
  Ca2+  Ca68  1  0.49658897  -0.00178689  0.50372727  1
  Ca2+  Ca69  1  0.74744553  0.75515102  0.00637600  1
  Ca2+  Ca70  1  0.75275713  0.25348386  0.49634888  1
  Ca2+  Ca71  1  0.75273992  0.74204322  0.49924395  1
  Ca2+  Ca72  1  0.25327747  0.75193049  0.49575987  1
  Ca2+  Ca73  1  0.75161346  0.24530397  0.00191984  1
  Ca2+  Ca74  1  0.49524203  0.24741993  0.74737181  1
  Ca2+  Ca75  1  0.75076333  -0.00098061  0.24497403  1
  Ca2+  Ca76  1  -0.00276688  0.74900051  0.75639417  1
  Ca2+  Ca77  1  0.24993861  0.00111192  0.25089614  1
  Ca2+  Ca78  1  0.50190276  0.25351840  0.24938782  1
  Ca2+  Ca79  1  0.49653551  0.74801533  0.24729219  1
  Ca2+  Ca80  1  0.49378548  0.75338268  0.74865154  1
  Ca2+  Ca81  1  0.00245865  0.24557384  0.74911900  1
  Ca2+  Ca82  1  0.74776227  -0.00170591  0.75456021  1
  Ca2+  Ca83  1  -0.00143530  0.74915321  0.24743401  1
  Ca2+  Ca84  1  0.74988107  0.49988396  0.74378731  1
  Nb5+  Nb85  1  -0.00428096  0.00481216  -0.00590594  1
  Nb5+  Nb86  1  0.00066605  0.50083966  0.50398855  1
  Nb5+  Nb87  1  0.49408560  0.00294072  -0.00296036  1
  Nb5+  Nb88  1  0.24995354  0.25270931  0.49199259  1
  Nb5+  Nb89  1  0.25335766  0.25646314  -0.00506949  1
  Nb5+  Nb90  1  0.25072232  0.75872406  -0.00158129  1
  Nb5+  Nb91  1  0.75800687  0.49694237  0.25259933  1
  Nb5+  Nb92  1  0.25048250  0.00724251  0.75190969  1
  Nb5+  Nb93  1  -0.00072027  0.25032027  0.25119971  1
  Nb5+  Nb94  1  0.24958071  0.50435302  0.24760684  1
  Nb5+  Nb95  1  0.24701372  0.50447194  0.74358029  1
  Nb5+  Nb96  1  0.00482754  0.00165280  0.25715450  1
  Nb5+  Nb97  1  -0.00366049  0.00214769  0.75280897  1
  Nb5+  Nb98  1  0.00535229  0.49947908  0.24768310  1
  Nb5+  Nb99  1  0.00086730  0.50240056  0.75817829  1
  Nb5+  Nb100  1  0.49918046  -0.00047819  0.25481674  1
  Nb5+  Nb101  1  0.49909655  -0.00038936  0.74754512  1
  Nb5+  Nb102  1  0.51108827  0.49732714  0.24707488  1
  Nb5+  Nb103  1  0.50322313  0.49664668  0.74699546  1
  Nb5+  Nb104  1  0.24836146  0.25112933  0.24360625  1
  Nb5+  Nb105  1  0.24885621  0.25577103  0.74429946  1
  Nb5+  Nb106  1  0.25014109  0.75477525  0.25455284  1
  Nb5+  Nb107  1  0.25356586  0.76069605  0.75079250  1
  Nb5+  Nb108  1  0.74521480  0.25011085  0.25498853  1
  Nb5+  Nb109  1  0.74827638  0.25060635  0.74669211  1
  Nb5+  Nb110  1  0.75562258  0.75383801  0.24308770  1
  Nb5+  Nb111  1  0.74973168  0.74760040  0.74983895  1
  Nb5+  Nb112  1  0.00353168  0.25000711  0.50329539  1
  Nb5+  Nb113  1  -0.00124612  0.24698280  0.99625048  1
  Nb5+  Nb114  1  -0.00169240  0.75638247  0.49673538  1
  Nb5+  Nb115  1  -0.00201698  0.74597950  1.00100377  1
  Nb5+  Nb116  1  0.50636345  0.25267110  0.49719028  1
  Nb5+  Nb117  1  0.49907148  0.25484418  1.00383080  1
  Nb5+  Nb118  1  0.50026402  0.74818528  0.50323152  1
  Nb5+  Nb119  1  0.49855265  0.75167579  0.99848558  1
  Nb5+  Nb120  1  0.24638400  0.00777398  -0.00033606  1
  Nb5+  Nb121  1  0.24689591  -0.00076941  0.49083759  1
  Nb5+  Nb122  1  0.24398802  0.50718749  -0.00799029  1
  Nb5+  Nb123  1  0.24782066  0.50140703  0.49316786  1
  Nb5+  Nb124  1  0.73802686  -0.00130580  -0.00093471  1
  Nb5+  Nb125  1  0.75276701  -0.00126410  0.49879967  1
  Nb5+  Nb126  1  0.75010831  0.49568185  -0.00131806  1
  Nb5+  Nb127  1  0.75130338  0.49948173  0.50655778  1
  O2-  O128  1  -0.01384443  -0.00367826  0.11520631  1
  O2-  O129  1  -0.01148192  -0.02057464  0.63842009  1
  O2-  O130  1  -0.01493359  0.47296443  0.13662038  1
  O2-  O131  1  -0.01053386  0.47817122  0.61802234  1
  O2-  O132  1  0.48793039  0.01626747  0.11713800  1
  O2-  O133  1  0.47743494  0.02277165  0.63724531  1
  O2-  O134  1  0.48139352  0.52343268  0.13668465  1
  O2-  O135  1  0.46669151  0.52244751  0.63771326  1
  O2-  O136  1  0.03063654  0.01610274  0.36676598  1
  O2-  O137  1  0.02847441  0.01560372  0.87898789  1
  O2-  O138  1  0.01484646  0.50683798  0.37119309  1
  O2-  O139  1  0.03272198  0.51762519  0.86689123  1
  O2-  O140  1  0.51415681  -0.02373206  0.36719904  1
  O2-  O141  1  0.51161391  -0.02244130  0.88193668  1
  O2-  O142  1  0.50158143  0.47807456  0.36634732  1
  O2-  O143  1  0.50649353  0.47158328  0.86675987  1
  O2-  O144  1  0.23222359  0.25708785  0.12661345  1
  O2-  O145  1  0.22791587  0.25187387  0.62925214  1
  O2-  O146  1  0.26512808  0.74482617  0.11802646  1
  O2-  O147  1  0.26207897  0.75880159  0.63428987  1
  O2-  O148  1  0.73446427  0.23159793  0.13748509  1
  O2-  O149  1  0.72649308  0.23277289  0.62943449  1
  O2-  O150  1  0.75553322  0.71305623  0.13250772  1
  O2-  O151  1  0.74881696  0.72558447  0.63216007  1
  O2-  O152  1  0.26230584  0.25329537  0.37631670  1
  O2-  O153  1  0.26841845  0.24768310  0.88071199  1
  O2-  O154  1  0.21907748  0.75097696  0.36435637  1
  O2-  O155  1  0.23561610  0.75017623  0.87819260  1
  O2-  O156  1  0.78669163  0.26768758  0.36372397  1
  O2-  O157  1  0.76995799  0.26649523  0.86662819  1
  O2-  O158  1  0.74768871  0.76371017  0.36298807  1
  O2-  O159  1  0.74314297  0.76346229  0.87017969  1
  O2-  O160  1  0.01875038  0.26157070  0.12791680  1
  O2-  O161  1  0.02251117  0.27239209  0.61481945  1
  O2-  O162  1  -0.00817264  0.78248643  0.11363446  1
  O2-  O163  1  -0.00950843  0.76680851  0.61838431  1
  O2-  O164  1  0.51036162  0.21877631  0.11497544  1
  O2-  O165  1  0.51446080  0.22158078  0.61356767  1
  O2-  O166  1  0.47465551  0.74688675  0.11335143  1
  O2-  O167  1  0.49562425  0.72199718  0.61845681  1
  O2-  O168  1  0.21202428  0.00142748  0.38354737  1
  O2-  O169  1  0.23587216  -0.00287555  0.87955417  1
  O2-  O170  1  0.23112521  0.49414676  0.37603475  1
  O2-  O171  1  0.22897361  0.49715659  0.87681468  1
  O2-  O172  1  0.73777541  -0.02355237  0.37975289  1
  O2-  O173  1  0.73823606  -0.03587611  0.88491670  1
  O2-  O174  1  0.74581003  0.46843607  0.36695776  1
  O2-  O175  1  0.74182383  0.47527025  0.88385131  1
  O2-  O176  1  -0.00835237  0.23509210  0.37074019  1
  O2-  O177  1  -0.00979390  0.22163651  0.88523158  1
  O2-  O178  1  0.01848217  0.73094327  0.38217873  1
  O2-  O179  1  0.02934507  0.74270110  0.88884710  1
  O2-  O180  1  0.47133619  0.27111049  0.38444579  1
  O2-  O181  1  0.47187689  0.25905518  0.88789707  1
  O2-  O182  1  0.50268808  0.76968380  0.38022634  1
  O2-  O183  1  0.49142436  0.77552662  0.88369021  1
  O2-  O184  1  0.27356675  0.00024380  0.11248640  1
  O2-  O185  1  0.27316242  0.00433925  0.63689888  1
  O2-  O186  1  0.25842456  0.50533118  0.12956896  1
  O2-  O187  1  0.26021633  0.49639247  0.62688279  1
  O2-  O188  1  0.76303197  0.03099033  0.11096770  1
  O2-  O189  1  0.76070011  0.01256597  0.61860702  1
  O2-  O190  1  0.76180832  0.51612023  0.13245639  1
  O2-  O191  1  0.77196405  0.53371787  0.61274446  1
  O2-  O192  1  0.12379650  0.27184207  0.26430918  1
  O2-  O193  1  0.13776110  0.26218622  0.78095822  1
  O2-  O194  1  0.13636486  0.76635882  0.22067057  1
  O2-  O195  1  0.13546885  0.76037154  0.74237299  1
  O2-  O196  1  0.63580963  0.28225967  0.26940247  1
  O2-  O197  1  0.62956543  0.27539923  0.76658030  1
  O2-  O198  1  0.63503729  0.76324221  0.23852300  1
  O2-  O199  1  0.62918686  0.77287420  0.74416022  1
  O2-  O200  1  0.36212594  0.23364335  0.23829744  1
  O2-  O201  1  0.35897815  0.21782612  0.74022047  1
  O2-  O202  1  0.35846068  0.70943000  0.25696005  1
  O2-  O203  1  0.35985416  0.71461642  0.76079065  1
  O2-  O204  1  0.88337005  0.23590011  0.23035978  1
  O2-  O205  1  0.86821218  0.22705567  0.72943600  1
  O2-  O206  1  0.86834142  0.71358486  0.25305008  1
  O2-  O207  1  0.86674653  0.71774327  0.75857832  1
  O2-  O208  1  0.26078891  0.37760021  0.24971432  1
  O2-  O209  1  0.27117754  0.37014173  0.74946339  1
  O2-  O210  1  0.28264154  0.86493858  0.25509850  1
  O2-  O211  1  0.27354126  0.87416633  0.75976498  1
  O2-  O212  1  0.76941732  0.37565928  0.22610099  1
  O2-  O213  1  0.77329215  0.36775085  0.72755971  1
  O2-  O214  1  0.78372226  0.86460612  0.22881839  1
  O2-  O215  1  0.77725179  0.86426656  0.73252340  1
  O2-  O216  1  0.22235913  0.13855165  0.25117697  1
  O2-  O217  1  0.22559311  0.12114280  0.75328500  1
  O2-  O218  1  0.21653148  0.61647895  0.25270115  1
  O2-  O219  1  0.22429239  0.61751770  0.74463825  1
  O2-  O220  1  0.73472612  0.13566989  0.27597072  1
  O2-  O221  1  0.72795993  0.13236123  0.76663272  1
  O2-  O222  1  0.73118396  0.61044676  0.26693616  1
  O2-  O223  1  0.72032010  0.62952421  0.76962831  1
  O2-  O224  1  0.12227905  0.47396026  0.24226172  1
  O2-  O225  1  0.13227264  0.46805995  0.74098170  1
  O2-  O226  1  0.11589651  0.99069637  0.21737906  1
  O2-  O227  1  0.13618024  0.97121928  0.74471315  1
  O2-  O228  1  0.62619106  0.47639785  0.23568657  1
  O2-  O229  1  0.61358751  0.47953038  0.72004071  1
  O2-  O230  1  0.61614567  0.98537260  0.22523589  1
  O2-  O231  1  0.61091372  0.97397523  0.73480063  1
  O2-  O232  1  0.38381803  0.03029773  0.26286524  1
  O2-  O233  1  0.36626069  0.01655028  0.77929944  1
  O2-  O234  1  0.36234734  0.51568285  0.26618721  1
  O2-  O235  1  0.35977904  0.51098915  0.77432344  1
  O2-  O236  1  0.88908768  0.02876861  0.25691471  1
  O2-  O237  1  0.88606175  0.02879393  0.76799013  1
  O2-  O238  1  0.87673582  0.51092269  0.26433221  1
  O2-  O239  1  0.88778722  0.52047504  0.77284574  1
  O2-  O240  1  0.47117515  0.38587848  0.23287957  1
  O2-  O241  1  0.46871330  0.38140769  0.73340316  1
  O2-  O242  1  0.47561223  0.88484652  0.22927573  1
  O2-  O243  1  0.46034818  0.88705188  0.74451307  1
  O2-  O244  1  0.98573957  0.37013597  0.26646806  1
  O2-  O245  1  0.98521626  0.38334833  0.76490370  1
  O2-  O246  1  0.98553555  0.88693711  0.26887681  1
  O2-  O247  1  0.98817401  0.88562403  0.77966978  1
  O2-  O248  1  0.02213554  0.13206670  0.23905193  1
  O2-  O249  1  0.03755623  0.11192528  0.73908009  1
  O2-  O250  1  0.01970926  0.61161477  0.22963086  1
  O2-  O251  1  0.02460613  0.61118003  0.72042560  1
  O2-  O252  1  0.52424389  0.11813275  0.26424298  1
  O2-  O253  1  0.50816611  0.11222606  0.78129877  1
  O2-  O254  1  0.51789274  0.61371443  0.27082871  1
  O2-  O255  1  0.51246484  0.61316694  0.77668871  1
  O2-  O256  1  0.13613214  0.46990679  0.01739549  1
  O2-  O257  1  0.12337445  0.47577979  0.50326550  1
  O2-  O258  1  0.13210336  0.98551568  0.01316810  1
  O2-  O259  1  0.13909891  0.98967057  0.53827211  1
  O2-  O260  1  0.63390003  0.47833729  0.02616354  1
  O2-  O261  1  0.64043267  0.47015137  0.51680188  1
  O2-  O262  1  0.62210918  0.98667876  0.01703773  1
  O2-  O263  1  0.63196659  0.98120489  0.51400391  1
  O2-  O264  1  0.37492696  0.01525914  -0.01929215  1
  O2-  O265  1  0.35933185  0.03436291  0.48595263  1
  O2-  O266  1  0.36101799  0.51318826  -0.00794581  1
  O2-  O267  1  0.36233374  0.51006831  0.48388973  1
  O2-  O268  1  0.88401459  0.02109355  -0.02277812  1
  O2-  O269  1  0.87019240  0.02537123  0.48342372  1
  O2-  O270  1  0.86660739  0.52450828  -0.00654909  1
  O2-  O271  1  0.88730481  0.51577884  0.48038553  1
  O2-  O272  1  0.47414557  0.36431497  0.02493428  1
  O2-  O273  1  0.48759333  0.36658855  0.52825467  1
  O2-  O274  1  0.47651772  0.88179796  0.01544355  1
  O2-  O275  1  0.46555070  0.86488680  0.51476495  1
  O2-  O276  1  0.98797497  0.36172105  -0.02176098  1
  O2-  O277  1  0.99137687  0.37375146  0.48005875  1
  O2-  O278  1  0.99391422  0.88507278  -0.01644361  1
  O2-  O279  1  0.97912253  0.86843959  0.47478755  1
  O2-  O280  1  0.02768832  0.12311064  0.01280995  1
  O2-  O281  1  0.03504839  0.13845698  0.50625023  1
  O2-  O282  1  0.01644488  0.63585934  0.03031181  1
  O2-  O283  1  0.02525973  0.61531260  0.51402005  1
  O2-  O284  1  0.50891594  0.12001721  -0.01975062  1
  O2-  O285  1  0.50885103  0.13365814  0.47276503  1
  O2-  O286  1  0.51079670  0.63663293  -0.01802303  1
  O2-  O287  1  0.52816649  0.63192269  0.47773240  1
  O2-  O288  1  0.13145519  0.26214198  -0.01087460  1
  O2-  O289  1  0.12960124  0.27377980  0.48119341  1
  O2-  O290  1  0.13249382  0.76524867  0.01593503  1
  O2-  O291  1  0.11716756  0.76950633  0.51482796  1
  O2-  O292  1  0.61333793  0.26816667  -0.01611754  1
  O2-  O293  1  0.61842331  0.27305047  0.48021061  1
  O2-  O294  1  0.61138060  0.77620122  0.00610709  1
  O2-  O295  1  0.61825389  0.77648090  0.50534840  1
  O2-  O296  1  0.36533240  0.22713825  0.02046091  1
  O2-  O297  1  0.36496518  0.24141930  0.51635705  1
  O2-  O298  1  0.36527338  0.72841415  -0.01265785  1
  O2-  O299  1  0.38219262  0.71547539  0.49081870  1
  O2-  O300  1  0.88864008  0.22764244  0.02326488  1
  O2-  O301  1  0.89042537  0.23036253  0.51744939  1
  O2-  O302  1  0.88498024  0.73795130  -0.01815335  1
  O2-  O303  1  0.88771630  0.71611144  0.49723622  1
  O2-  O304  1  0.27046915  0.37156585  -0.00108438  1
  O2-  O305  1  0.25982350  0.37523055  0.50765372  1
  O2-  O306  1  0.26801523  0.87417361  -0.00324827  1
  O2-  O307  1  0.27637005  0.88781230  0.49296711  1
  O2-  O308  1  0.77163287  0.38022067  0.02446978  1
  O2-  O309  1  0.78991362  0.38711344  0.51241412  1
  O2-  O310  1  0.77914561  0.88862556  0.02144671  1
  O2-  O311  1  0.77816319  0.87944050  0.51327855  1
  O2-  O312  1  0.23271789  0.12433294  0.00018336  1
  O2-  O313  1  0.22873886  0.13582710  0.50214662  1
  O2-  O314  1  0.22387580  0.62209985  -0.00277500  1
  O2-  O315  1  0.22326164  0.61315921  0.50682667  1
  O2-  O316  1  0.73843026  0.11242769  -0.03540218  1
  O2-  O317  1  0.73116892  0.11763191  0.48375035  1
  O2-  O318  1  0.72423810  0.61485157  -0.01266521  1
  O2-  O319  1  0.74155919  0.60709263  0.46054287  1
