# generated using pymatgen
data_Sr64Ca21Nb43O192
_symmetry_space_group_name_H-M   'P 1'
_cell_length_a   16.56020783
_cell_length_b   16.55909414
_cell_length_c   16.71756639
_cell_angle_alpha   89.96497458
_cell_angle_beta   89.92987182
_cell_angle_gamma   90.05557276
_symmetry_Int_Tables_number   1
_chemical_formula_structural   Sr64Ca21Nb43O192
_chemical_formula_sum   'Sr64 Ca21 Nb43 O192'
_cell_volume   4584.31871569
_cell_formula_units_Z   1
loop_
 _symmetry_equiv_pos_site_id
 _symmetry_equiv_pos_as_xyz
  1  'x, y, z'
loop_
 _atom_type_symbol
 _atom_type_oxidation_number
  Sr2+  2.0
  Ca2+  2.0
  Nb5+  5.0
  O2-  -2.0
loop_
 _atom_site_type_symbol
 _atom_site_label
 _atom_site_symmetry_multiplicity
 _atom_site_fract_x
 _atom_site_fract_y
 _atom_site_fract_z
 _atom_site_occupancy
  Sr2+  Sr0  1  0.12278872  0.12936868  0.12710150  1
  Sr2+  Sr1  1  0.11974419  0.13599747  0.62267369  1
  Sr2+  Sr2  1  0.12452262  0.61895784  0.13118977  1
  Sr2+  Sr3  1  0.12221053  0.63191998  0.61816315  1
  Sr2+  Sr4  1  0.61883242  0.13743387  0.12278437  1
  Sr2+  Sr5  1  0.61747572  0.13318104  0.63142830  1
  Sr2+  Sr6  1  0.61749776  0.63848472  0.12043397  1
  Sr2+  Sr7  1  0.62075277  0.61238172  0.63666884  1
  Sr2+  Sr8  1  0.36920895  0.38054640  0.12253367  1
  Sr2+  Sr9  1  0.37165628  0.37845540  0.62463441  1
  Sr2+  Sr10  1  0.36786474  0.89643114  0.12766248  1
  Sr2+  Sr11  1  0.36381606  0.88637415  0.62885377  1
  Sr2+  Sr12  1  0.87134738  0.36812684  0.11977225  1
  Sr2+  Sr13  1  0.87095232  0.38246928  0.62285979  1
  Sr2+  Sr14  1  0.86465724  0.89064363  0.13096200  1
  Sr2+  Sr15  1  0.86457945  0.88254814  0.62560249  1
  Sr2+  Sr16  1  0.13131113  0.37427978  0.37519632  1
  Sr2+  Sr17  1  0.12038681  0.37856328  0.87877727  1
  Sr2+  Sr18  1  0.10358946  0.87538188  0.38134118  1
  Sr2+  Sr19  1  0.11772653  0.87011972  0.86936938  1
  Sr2+  Sr20  1  0.63534400  0.37459865  0.37794402  1
  Sr2+  Sr21  1  0.63972821  0.37033412  0.86982144  1
  Sr2+  Sr22  1  0.65018759  0.87266621  0.37361310  1
  Sr2+  Sr23  1  0.62738556  0.86664918  0.88139137  1
  Sr2+  Sr24  1  0.38169995  0.12872650  0.37308050  1
  Sr2+  Sr25  1  0.38421125  0.11048934  0.87454798  1
  Sr2+  Sr26  1  0.37963494  0.62639866  0.37543585  1
  Sr2+  Sr27  1  0.38178198  0.62736352  0.88032064  1
  Sr2+  Sr28  1  0.88778009  0.10758070  0.37413213  1
  Sr2+  Sr29  1  0.88675120  0.12147450  0.88210643  1
  Sr2+  Sr30  1  0.86908429  0.62909311  0.37540441  1
  Sr2+  Sr31  1  0.87676445  0.62671609  0.86995852  1
  Sr2+  Sr32  1  0.13063257  0.13273185  0.37438783  1
  Sr2+  Sr33  1  0.13437334  0.10619280  0.87867188  1
  Sr2+  Sr34  1  0.13909691  0.63467301  0.37513418  1
  Sr2+  Sr35  1  0.12783856  0.63536759  0.87316013  1
  Sr2+  Sr36  1  0.63283181  0.10766641  0.38052339  1
  Sr2+  Sr37  1  0.63623464  0.11150819  0.87245431  1
  Sr2+  Sr38  1  0.63103300  0.63699367  0.37398812  1
  Sr2+  Sr39  1  0.63648336  0.62801064  0.87884256  1
  Sr2+  Sr40  1  0.37903266  0.37287329  0.37779921  1
  Sr2+  Sr41  1  0.38252060  0.36664566  0.87830797  1
  Sr2+  Sr42  1  0.38025417  0.87887523  0.37860927  1
  Sr2+  Sr43  1  0.36815098  0.87837171  0.86364310  1
  Sr2+  Sr44  1  0.88259465  0.35923382  0.37116967  1
  Sr2+  Sr45  1  0.88089620  0.37127607  0.87674092  1
  Sr2+  Sr46  1  0.87422880  0.87980397  0.36925017  1
  Sr2+  Sr47  1  0.88439706  0.86266867  0.87363730  1
  Sr2+  Sr48  1  0.10944704  0.38481195  0.12742965  1
  Sr2+  Sr49  1  0.11097577  0.38021603  0.62100373  1
  Sr2+  Sr50  1  0.11168018  0.87895835  0.13386938  1
  Sr2+  Sr51  1  0.11688030  0.87857246  0.62670808  1
  Sr2+  Sr52  1  0.62834659  0.37753268  0.12572134  1
  Sr2+  Sr53  1  0.62204910  0.38241895  0.62820528  1
  Sr2+  Sr54  1  0.61784026  0.88357701  0.13172482  1
  Sr2+  Sr55  1  0.61496198  0.88414631  0.62157333  1
  Sr2+  Sr56  1  0.36958117  0.13550440  0.12245657  1
  Sr2+  Sr57  1  0.36939211  0.12750000  0.63680981  1
  Sr2+  Sr58  1  0.36860532  0.62424296  0.12887639  1
  Sr2+  Sr59  1  0.37243893  0.62318112  0.62333434  1
  Sr2+  Sr60  1  0.85799279  0.12920141  0.12665199  1
  Sr2+  Sr61  1  0.85987877  0.13042112  0.62495536  1
  Sr2+  Sr62  1  0.86850088  0.61472226  0.11779413  1
  Sr2+  Sr63  1  0.85867634  0.62836893  0.63255216  1
  Ca2+  Ca64  1  0.50049980  0.00193658  0.00067814  1
  Ca2+  Ca65  1  0.00100242  0.50188149  0.49609751  1
  Ca2+  Ca66  1  0.49847100  0.00196566  0.50090084  1
  Ca2+  Ca67  1  0.00155312  0.00093693  0.50529495  1
  Ca2+  Ca68  1  0.00042536  -0.00205935  0.00067837  1
  Ca2+  Ca69  1  0.25173143  0.75187412  0.00319480  1
  Ca2+  Ca70  1  0.24824383  0.25046381  -0.00209394  1
  Ca2+  Ca71  1  0.75404090  0.74849216  0.00280877  1
  Ca2+  Ca72  1  0.74694855  0.25018177  0.49791847  1
  Ca2+  Ca73  1  0.74680651  0.74906098  0.50182571  1
  Ca2+  Ca74  1  0.74699494  0.00296514  0.24840363  1
  Ca2+  Ca75  1  0.00069195  0.74596209  0.24994527  1
  Ca2+  Ca76  1  0.24844480  0.00047321  0.25461422  1
  Ca2+  Ca77  1  0.49901642  0.74928600  0.74720423  1
  Ca2+  Ca78  1  -0.00103275  0.24991986  0.74984800  1
  Ca2+  Ca79  1  0.75193650  0.49894703  0.75147250  1
  Ca2+  Ca80  1  0.74804549  0.50142632  0.24990773  1
  Ca2+  Ca81  1  0.49850424  0.25148653  0.75274939  1
  Ca2+  Ca82  1  0.00024947  0.24907731  0.24857716  1
  Ca2+  Ca83  1  0.75279574  -0.00111487  0.75275189  1
  Ca2+  Ca84  1  0.25124219  0.50100126  0.75233247  1
  Nb5+  Nb85  1  0.50007390  0.50025224  0.50123365  1
  Nb5+  Nb86  1  -0.00428445  0.50170271  -0.00159934  1
  Nb5+  Nb87  1  0.49771237  0.50201497  0.00762576  1
  Nb5+  Nb88  1  0.25285982  0.25682725  0.50111168  1
  Nb5+  Nb89  1  0.74726973  0.24857251  -0.00148785  1
  Nb5+  Nb90  1  0.25321473  0.75787756  0.49807241  1
  Nb5+  Nb91  1  0.49416355  0.75736982  0.25099466  1
  Nb5+  Nb92  1  0.24957514  0.49718313  0.25012081  1
  Nb5+  Nb93  1  0.49923949  0.26028816  0.24876256  1
  Nb5+  Nb94  1  -0.00030853  0.74814247  0.74657110  1
  Nb5+  Nb95  1  0.24650601  0.00104836  0.74858061  1
  Nb5+  Nb96  1  0.00389726  -0.00015057  0.24756534  1
  Nb5+  Nb97  1  -0.00045810  0.00556715  0.74926109  1
  Nb5+  Nb98  1  -0.00556917  0.50090786  0.25406597  1
  Nb5+  Nb99  1  0.00279516  0.50137796  0.74481494  1
  Nb5+  Nb100  1  0.49938896  0.01413740  0.25120105  1
  Nb5+  Nb101  1  0.50587592  -0.00441839  0.75337657  1
  Nb5+  Nb102  1  0.50073058  0.50287394  0.25499732  1
  Nb5+  Nb103  1  0.49777959  0.49968097  0.76470292  1
  Nb5+  Nb104  1  0.25004629  0.25361952  0.24705728  1
  Nb5+  Nb105  1  0.24577129  0.25225155  0.75624105  1
  Nb5+  Nb106  1  0.25308570  0.75632507  0.25221477  1
  Nb5+  Nb107  1  0.24983734  0.74567565  0.74758886  1
  Nb5+  Nb108  1  0.74865248  0.24760655  0.25590954  1
  Nb5+  Nb109  1  0.75196765  0.25060706  0.74654765  1
  Nb5+  Nb110  1  0.75575620  0.74596857  0.24407209  1
  Nb5+  Nb111  1  0.74446616  0.75628564  0.74872673  1
  Nb5+  Nb112  1  -0.00563583  0.24657576  0.49819690  1
  Nb5+  Nb113  1  0.00380465  0.24873366  1.00072346  1
  Nb5+  Nb114  1  -0.00811573  0.74491806  0.49968055  1
  Nb5+  Nb115  1  0.00326347  0.74790847  1.00520556  1
  Nb5+  Nb116  1  0.49959998  0.25209463  0.50058549  1
  Nb5+  Nb117  1  0.50322149  0.25175656  0.99582475  1
  Nb5+  Nb118  1  0.49744379  0.74901891  0.50051881  1
  Nb5+  Nb119  1  0.49386380  0.75705381  1.00139386  1
  Nb5+  Nb120  1  0.24816033  -0.00313911  0.00551330  1
  Nb5+  Nb121  1  0.25085675  0.00963462  0.50086609  1
  Nb5+  Nb122  1  0.24553875  0.50223859  -0.00155639  1
  Nb5+  Nb123  1  0.25087593  0.50331939  0.50060301  1
  Nb5+  Nb124  1  0.75330628  -0.00652177  -0.00380435  1
  Nb5+  Nb125  1  0.74936420  -0.00003334  0.50372358  1
  Nb5+  Nb126  1  0.74325659  0.49830252  0.00112264  1
  Nb5+  Nb127  1  0.75412121  0.50438981  0.49733439  1
  O2-  O128  1  0.03188804  0.01236917  0.13121085  1
  O2-  O129  1  0.03596257  0.00892270  0.63784340  1
  O2-  O130  1  0.00617595  0.51922587  0.12054894  1
  O2-  O131  1  0.01384613  0.52086284  0.63238026  1
  O2-  O132  1  0.52676952  0.01342089  0.13531737  1
  O2-  O133  1  0.52507260  0.01507767  0.63540612  1
  O2-  O134  1  0.50623468  0.52000863  0.12403252  1
  O2-  O135  1  0.49832233  0.51563414  0.61605839  1
  O2-  O136  1  -0.01650447  -0.01816178  0.36825390  1
  O2-  O137  1  -0.01561013  -0.02615231  0.86348922  1
  O2-  O138  1  -0.00492629  0.46910570  0.36423614  1
  O2-  O139  1  0.00002055  0.48309377  0.88112085  1
  O2-  O140  1  0.46726405  -0.00205105  0.36533085  1
  O2-  O141  1  0.47124571  -0.01684144  0.86780289  1
  O2-  O142  1  0.48987278  0.48044664  0.36856175  1
  O2-  O143  1  0.49174696  0.48074836  0.87991711  1
  O2-  O144  1  0.27519238  0.26166422  0.13441948  1
  O2-  O145  1  0.27849919  0.25521450  0.61604524  1
  O2-  O146  1  0.23407454  0.76280385  0.13965481  1
  O2-  O147  1  0.24188862  0.76122355  0.61609495  1
  O2-  O148  1  0.75745320  0.26892537  0.12176461  1
  O2-  O149  1  0.77595566  0.26630384  0.63361874  1
  O2-  O150  1  0.73325325  0.77830375  0.13329883  1
  O2-  O151  1  0.75883191  0.77102906  0.63299577  1
  O2-  O152  1  0.24017000  0.24393180  0.37694823  1
  O2-  O153  1  0.21030398  0.24242127  0.86425655  1
  O2-  O154  1  0.26696382  0.73129889  0.37965644  1
  O2-  O155  1  0.26040262  0.73386029  0.86225549  1
  O2-  O156  1  0.71323291  0.23525925  0.36418741  1
  O2-  O157  1  0.72249738  0.23806439  0.88359080  1
  O2-  O158  1  0.75509089  0.72989625  0.36429050  1
  O2-  O159  1  0.75162805  0.73039749  0.86713273  1
  O2-  O160  1  -0.02811003  0.23308068  0.11367163  1
  O2-  O161  1  -0.01413743  0.22012320  0.61484628  1
  O2-  O162  1  0.02398961  0.72866981  0.11594554  1
  O2-  O163  1  0.00966860  0.72825171  0.62752413  1
  O2-  O164  1  0.48822251  0.23590446  0.12614883  1
  O2-  O165  1  0.48204121  0.23493675  0.61279413  1
  O2-  O166  1  0.49937955  0.72957076  0.13444907  1
  O2-  O167  1  0.51118044  0.71663483  0.60971532  1
  O2-  O168  1  0.27493655  0.01634331  0.38858691  1
  O2-  O169  1  0.26639916  0.01194749  0.86717289  1
  O2-  O170  1  0.25617562  0.50914108  0.37182156  1
  O2-  O171  1  0.25212666  0.53269974  0.88817982  1
  O2-  O172  1  0.76321994  0.02358158  0.38301477  1
  O2-  O173  1  0.76881615  0.03308158  0.88498312  1
  O2-  O174  1  0.74157846  0.53186310  0.38250664  1
  O2-  O175  1  0.75075390  0.52313098  0.88649238  1
  O2-  O176  1  0.02148824  0.27387602  0.38349542  1
  O2-  O177  1  0.00520004  0.28291228  0.88690476  1
  O2-  O178  1  -0.01858546  0.76707781  0.38515262  1
  O2-  O179  1  -0.00344457  0.75844974  0.86775179  1
  O2-  O180  1  0.50749757  0.27802782  0.36625249  1
  O2-  O181  1  0.51399236  0.28563103  0.88628591  1
  O2-  O182  1  0.47434944  0.75474546  0.37104201  1
  O2-  O183  1  0.48604843  0.77301302  0.88669930  1
  O2-  O184  1  0.23023753  -0.02145533  0.11787477  1
  O2-  O185  1  0.23240653  -0.01427281  0.62853415  1
  O2-  O186  1  0.24856028  0.47829684  0.13091208  1
  O2-  O187  1  0.25896787  0.48506369  0.61429663  1
  O2-  O188  1  0.73313266  -0.01942730  0.11369251  1
  O2-  O189  1  0.73451587  -0.02727688  0.61923591  1
  O2-  O190  1  0.76277623  0.47474948  0.11534806  1
  O2-  O191  1  0.74628140  0.47305502  0.61472855  1
  O2-  O192  1  0.13752090  0.27817764  0.23662829  1
  O2-  O193  1  0.13710193  0.26399616  0.71125456  1
  O2-  O194  1  0.13959243  0.76206121  0.27922819  1
  O2-  O195  1  0.12569219  0.76866401  0.75044024  1
  O2-  O196  1  0.61653827  0.26931095  0.23117148  1
  O2-  O197  1  0.63234661  0.27491481  0.73358550  1
  O2-  O198  1  0.61031742  0.76568536  0.26309068  1
  O2-  O199  1  0.63245643  0.78379522  0.75079645  1
  O2-  O200  1  0.37939391  0.23428428  0.26308245  1
  O2-  O201  1  0.35976093  0.21901257  0.76678098  1
  O2-  O202  1  0.37281660  0.71930793  0.24608835  1
  O2-  O203  1  0.36437362  0.73471303  0.72892562  1
  O2-  O204  1  0.86275098  0.22812158  0.27282163  1
  O2-  O205  1  0.86420745  0.22249083  0.77509252  1
  O2-  O206  1  0.86663208  0.71879345  0.23164482  1
  O2-  O207  1  0.88393554  0.72669728  0.74709539  1
  O2-  O208  1  0.27514782  0.37592081  0.26691744  1
  O2-  O209  1  0.27571147  0.36426563  0.76378252  1
  O2-  O210  1  0.28547873  0.86513152  0.26381350  1
  O2-  O211  1  0.26123659  0.87390239  0.75392325  1
  O2-  O212  1  0.76597644  0.36530295  0.26567606  1
  O2-  O213  1  0.76905223  0.36538061  0.77841227  1
  O2-  O214  1  0.76555732  0.86547490  0.26732172  1
  O2-  O215  1  0.78574551  0.86612584  0.76800786  1
  O2-  O216  1  0.23200080  0.13754330  0.24242033  1
  O2-  O217  1  0.22831166  0.11956357  0.73514883  1
  O2-  O218  1  0.23863882  0.61620945  0.24028155  1
  O2-  O219  1  0.22412139  0.63416270  0.72801515  1
  O2-  O220  1  0.72753601  0.13595945  0.22203942  1
  O2-  O221  1  0.72300197  0.13416865  0.73638121  1
  O2-  O222  1  0.71544323  0.63498628  0.22878875  1
  O2-  O223  1  0.73488648  0.63598658  0.73026366  1
  O2-  O224  1  0.13349878  0.47490538  0.25277607  1
  O2-  O225  1  0.11794321  0.47364496  0.76203262  1
  O2-  O226  1  0.11939663  0.96561493  0.26702548  1
  O2-  O227  1  0.12937034  0.98129257  0.77002621  1
  O2-  O228  1  0.61140962  0.47121615  0.24978918  1
  O2-  O229  1  0.61392910  0.47776731  0.74661004  1
  O2-  O230  1  0.61074363  0.97912993  0.27421026  1
  O2-  O231  1  0.61730811  0.97611591  0.77827638  1
  O2-  O232  1  0.38334128  0.01977284  0.22027357  1
  O2-  O233  1  0.36697661  0.01166110  0.73331838  1
  O2-  O234  1  0.37696653  0.51008880  0.23949201  1
  O2-  O235  1  0.38576591  0.53604824  0.75025402  1
  O2-  O236  1  0.88484500  0.02073816  0.23147185  1
  O2-  O237  1  0.88791143  0.01676618  0.72213911  1
  O2-  O238  1  0.88436968  0.53315299  0.25024985  1
  O2-  O239  1  0.88697473  0.52740941  0.75350154  1
  O2-  O240  1  0.47772372  0.37427514  0.22855893  1
  O2-  O241  1  0.47001021  0.38757584  0.73493503  1
  O2-  O242  1  0.47553969  0.87035137  0.23733704  1
  O2-  O243  1  0.47796832  0.88274892  0.72579206  1
  O2-  O244  1  0.98354539  0.38627028  0.22068942  1
  O2-  O245  1  0.97718244  0.38623390  0.72992452  1
  O2-  O246  1  0.98000728  0.87931163  0.22595050  1
  O2-  O247  1  0.98921439  0.86691849  0.73135322  1
  O2-  O248  1  0.02905171  0.11661419  0.26673998  1
  O2-  O249  1  0.02075215  0.11544024  0.77689535  1
  O2-  O250  1  0.03719475  0.61040485  0.26526831  1
  O2-  O251  1  0.02592953  0.62656516  0.76542924  1
  O2-  O252  1  0.51643519  0.13025947  0.26592560  1
  O2-  O253  1  0.51069737  0.11562772  0.76997865  1
  O2-  O254  1  0.51352998  0.61794047  0.26709819  1
  O2-  O255  1  0.52960178  0.61668400  0.77275896  1
  O2-  O256  1  0.12967831  0.47820995  0.00043520  1
  O2-  O257  1  0.13822005  0.47566445  0.49248441  1
  O2-  O258  1  0.13565571  0.97684783  -0.02784873  1
  O2-  O259  1  0.14052136  0.97331148  0.48963612  1
  O2-  O260  1  0.62518829  0.47987225  -0.00052180  1
  O2-  O261  1  0.61408918  0.47562879  0.49442517  1
  O2-  O262  1  0.63488016  0.98437514  -0.02488510  1
  O2-  O263  1  0.63087550  0.97512251  0.48128951  1
  O2-  O264  1  0.36520549  0.03067288  0.01547740  1
  O2-  O265  1  0.36447056  0.01193692  0.53480846  1
  O2-  O266  1  0.38063495  0.51732572  0.00754145  1
  O2-  O267  1  0.37437343  0.51445033  0.49294429  1
  O2-  O268  1  0.86734448  0.02400757  0.02270480  1
  O2-  O269  1  0.86761832  0.02514283  0.52011787  1
  O2-  O270  1  0.87939340  0.51504861  -0.00220678  1
  O2-  O271  1  0.86671726  0.53029778  0.50292094  1
  O2-  O272  1  0.48698712  0.38152774  0.02334008  1
  O2-  O273  1  0.47154701  0.37935936  0.50769918  1
  O2-  O274  1  0.48278256  0.86604675  0.03351026  1
  O2-  O275  1  0.47500101  0.86046008  0.51740114  1
  O2-  O276  1  0.98695671  0.38196773  0.01999631  1
  O2-  O277  1  0.98763994  0.36439094  0.52685839  1
  O2-  O278  1  0.97773505  0.86012473  0.01787904  1
  O2-  O279  1  0.99412996  0.86043800  0.52578003  1
  O2-  O280  1  0.01562873  0.13653966  -0.02559971  1
  O2-  O281  1  0.03108006  0.13407147  0.48106809  1
  O2-  O282  1  0.02680233  0.61564248  -0.01588476  1
  O2-  O283  1  0.03497125  0.63535195  0.48407899  1
  O2-  O284  1  0.52699099  0.13979164  -0.01747054  1
  O2-  O285  1  0.51533219  0.14072553  0.47279059  1
  O2-  O286  1  0.52152270  0.61551078  -0.01821461  1
  O2-  O287  1  0.50877937  0.61545843  0.47124596  1
  O2-  O288  1  0.11411830  0.27007530  0.02688318  1
  O2-  O289  1  0.13669351  0.26929086  0.51459547  1
  O2-  O290  1  0.11796345  0.75893931  -0.02420063  1
  O2-  O291  1  0.13635163  0.76391872  0.48583304  1
  O2-  O292  1  0.62499655  0.27407619  0.01833164  1
  O2-  O293  1  0.61115053  0.28230919  0.51086161  1
  O2-  O294  1  0.61284343  0.75522867  -0.00048058  1
  O2-  O295  1  0.60958531  0.76242247  0.47411072  1
  O2-  O296  1  0.38678895  0.23773860  -0.01628272  1
  O2-  O297  1  0.37496764  0.23928084  0.47624181  1
  O2-  O298  1  0.38546456  0.71285428  0.00848888  1
  O2-  O299  1  0.37272183  0.72131433  0.50572994  1
  O2-  O300  1  0.86659876  0.24269353  -0.01526961  1
  O2-  O301  1  0.88284387  0.23094748  0.47194419  1
  O2-  O302  1  0.88997306  0.71219715  -0.00168701  1
  O2-  O303  1  0.88234978  0.71586804  0.51003537  1
  O2-  O304  1  0.27626863  0.38793993  -0.01504505  1
  O2-  O305  1  0.27155874  0.37308495  0.48714760  1
  O2-  O306  1  0.28552166  0.88393550  -0.01206539  1
  O2-  O307  1  0.27719652  0.87078986  0.49038621  1
  O2-  O308  1  0.76244063  0.37608376  -0.02023970  1
  O2-  O309  1  0.76765273  0.38694958  0.46876245  1
  O2-  O310  1  0.77580316  0.88223039  -0.02413084  1
  O2-  O311  1  0.77609747  0.88232683  0.48007959  1
  O2-  O312  1  0.22205728  0.11666105  0.01127648  1
  O2-  O313  1  0.23338215  0.12660052  0.51085379  1
  O2-  O314  1  0.24013178  0.61333328  0.03528550  1
  O2-  O315  1  0.23548917  0.61982090  0.50886177  1
  O2-  O316  1  0.73140587  0.13433178  0.01984866  1
  O2-  O317  1  0.72026728  0.11766112  0.52369107  1
  O2-  O318  1  0.73455593  0.61274896  0.02750331  1
  O2-  O319  1  0.71639953  0.61459848  0.52494181  1
