# generated using pymatgen
data_Sr64Ca21Nb43O192
_symmetry_space_group_name_H-M   'P 1'
_cell_length_a   16.55729176
_cell_length_b   16.57078190
_cell_length_c   16.73018667
_cell_angle_alpha   90.00108969
_cell_angle_beta   89.99492732
_cell_angle_gamma   90.02764176
_symmetry_Int_Tables_number   1
_chemical_formula_structural   Sr64Ca21Nb43O192
_chemical_formula_sum   'Sr64 Ca21 Nb43 O192'
_cell_volume   4590.21510173
_cell_formula_units_Z   1
loop_
 _symmetry_equiv_pos_site_id
 _symmetry_equiv_pos_as_xyz
  1  'x, y, z'
loop_
 _atom_type_symbol
 _atom_type_oxidation_number
  Sr2+  2.0
  Ca2+  2.0
  Nb5+  5.0
  O2-  -2.0
loop_
 _atom_site_type_symbol
 _atom_site_label
 _atom_site_symmetry_multiplicity
 _atom_site_fract_x
 _atom_site_fract_y
 _atom_site_fract_z
 _atom_site_occupancy
  Sr2+  Sr0  1  0.12134473  0.13197227  0.11847607  1
  Sr2+  Sr1  1  0.11432751  0.13307739  0.63185473  1
  Sr2+  Sr2  1  0.11988608  0.63737926  0.12616948  1
  Sr2+  Sr3  1  0.12721171  0.62411442  0.63238103  1
  Sr2+  Sr4  1  0.63112984  0.11752201  0.12956386  1
  Sr2+  Sr5  1  0.62660840  0.12386235  0.62918613  1
  Sr2+  Sr6  1  0.62580286  0.62653860  0.12303742  1
  Sr2+  Sr7  1  0.62660554  0.62583737  0.62432043  1
  Sr2+  Sr8  1  0.37466299  0.37333719  0.12476342  1
  Sr2+  Sr9  1  0.37723310  0.37675012  0.62323559  1
  Sr2+  Sr10  1  0.37549053  0.87398766  0.12951288  1
  Sr2+  Sr11  1  0.37458955  0.87707031  0.62424684  1
  Sr2+  Sr12  1  0.87727612  0.36962754  0.12853979  1
  Sr2+  Sr13  1  0.87899430  0.36403776  0.62215856  1
  Sr2+  Sr14  1  0.88283540  0.86917547  0.12622002  1
  Sr2+  Sr15  1  0.86657606  0.86242849  0.62807798  1
  Sr2+  Sr16  1  0.12885605  0.38184584  0.38069737  1
  Sr2+  Sr17  1  0.13327400  0.37649178  0.88205056  1
  Sr2+  Sr18  1  0.12294442  0.88245140  0.36835114  1
  Sr2+  Sr19  1  0.12229846  0.88406805  0.87602631  1
  Sr2+  Sr20  1  0.63706785  0.36543932  0.37203909  1
  Sr2+  Sr21  1  0.62614479  0.37507026  0.89150009  1
  Sr2+  Sr22  1  0.61501900  0.88007635  0.38367381  1
  Sr2+  Sr23  1  0.62322465  0.88411937  0.87658273  1
  Sr2+  Sr24  1  0.39149118  0.12272820  0.36682330  1
  Sr2+  Sr25  1  0.37530002  0.12929398  0.87724453  1
  Sr2+  Sr26  1  0.37711468  0.62927357  0.37140603  1
  Sr2+  Sr27  1  0.37437766  0.62376120  0.89022040  1
  Sr2+  Sr28  1  0.85726508  0.12517366  0.38274877  1
  Sr2+  Sr29  1  0.85345982  0.11978824  0.86893521  1
  Sr2+  Sr30  1  0.87336066  0.63028831  0.37975721  1
  Sr2+  Sr31  1  0.88393326  0.63784580  0.87565616  1
  Sr2+  Sr32  1  0.12341039  0.11916221  0.36992504  1
  Sr2+  Sr33  1  0.12928715  0.14248977  0.87470943  1
  Sr2+  Sr34  1  0.13322903  0.63914781  0.37549263  1
  Sr2+  Sr35  1  0.13073583  0.65198645  0.87639356  1
  Sr2+  Sr36  1  0.62211469  0.12939423  0.37011542  1
  Sr2+  Sr37  1  0.62023024  0.12194645  0.87253245  1
  Sr2+  Sr38  1  0.62644953  0.63879259  0.37794349  1
  Sr2+  Sr39  1  0.61983090  0.63266207  0.88467562  1
  Sr2+  Sr40  1  0.37099106  0.38794517  0.37317875  1
  Sr2+  Sr41  1  0.37492367  0.36554570  0.87931404  1
  Sr2+  Sr42  1  0.37552288  0.89052062  0.37389582  1
  Sr2+  Sr43  1  0.37892964  0.87155237  0.86958924  1
  Sr2+  Sr44  1  0.88739557  0.36221313  0.36960214  1
  Sr2+  Sr45  1  0.87894252  0.37730953  0.88963782  1
  Sr2+  Sr46  1  0.87449897  0.86872865  0.37598827  1
  Sr2+  Sr47  1  0.87774305  0.87784359  0.87908028  1
  Sr2+  Sr48  1  0.10307691  0.37602906  0.12326694  1
  Sr2+  Sr49  1  0.12021704  0.37973201  0.63278953  1
  Sr2+  Sr50  1  0.11191514  0.87388388  0.12085048  1
  Sr2+  Sr51  1  0.11259799  0.87076283  0.63003718  1
  Sr2+  Sr52  1  0.65392182  0.38015472  0.12852987  1
  Sr2+  Sr53  1  0.62063012  0.37484759  0.62200728  1
  Sr2+  Sr54  1  0.62479778  0.86673970  0.12258994  1
  Sr2+  Sr55  1  0.61811450  0.86638124  0.63201896  1
  Sr2+  Sr56  1  0.37922658  0.12667873  0.12504997  1
  Sr2+  Sr57  1  0.36619538  0.12310811  0.61581570  1
  Sr2+  Sr58  1  0.38353992  0.61648455  0.13190305  1
  Sr2+  Sr59  1  0.39039113  0.61696028  0.63032468  1
  Sr2+  Sr60  1  0.88069431  0.11756032  0.13177622  1
  Sr2+  Sr61  1  0.86972137  0.12379725  0.62662360  1
  Sr2+  Sr62  1  0.87145423  0.61811659  0.12465015  1
  Sr2+  Sr63  1  0.88983316  0.62431532  0.62305330  1
  Ca2+  Ca64  1  0.49993461  -0.00024200  0.00208281  1
  Ca2+  Ca65  1  0.49834812  0.00452019  0.50387475  1
  Ca2+  Ca66  1  0.00083151  0.00102142  0.50251144  1
  Ca2+  Ca67  1  0.00397838  0.50425134  -0.00142967  1
  Ca2+  Ca68  1  -0.00093783  0.00404857  -0.00270048  1
  Ca2+  Ca69  1  0.25035675  0.75365834  0.50259925  1
  Ca2+  Ca70  1  0.74952717  0.24503249  0.00012366  1
  Ca2+  Ca71  1  0.75096639  0.75171191  -0.00138651  1
  Ca2+  Ca72  1  0.25295137  0.75282813  0.00276964  1
  Ca2+  Ca73  1  0.24685689  0.24798277  0.49744811  1
  Ca2+  Ca74  1  0.75065126  0.50436189  0.25614956  1
  Ca2+  Ca75  1  -0.00258056  0.74483539  0.25392679  1
  Ca2+  Ca76  1  0.00473963  0.24560224  0.24986802  1
  Ca2+  Ca77  1  0.74960139  -0.00625615  0.25554686  1
  Ca2+  Ca78  1  0.74835971  0.49875869  0.75137321  1
  Ca2+  Ca79  1  0.50252461  0.25183561  0.74710222  1
  Ca2+  Ca80  1  0.50147335  0.74847955  0.24960982  1
  Ca2+  Ca81  1  0.00065606  0.75179854  0.74825109  1
  Ca2+  Ca82  1  0.49900372  0.74606147  0.74952953  1
  Ca2+  Ca83  1  -0.00238511  0.25053459  0.75222365  1
  Ca2+  Ca84  1  0.50112716  0.25467061  0.24496137  1
  Nb5+  Nb85  1  0.50125271  0.49525589  0.00899177  1
  Nb5+  Nb86  1  0.50589709  0.49616517  0.50022640  1
  Nb5+  Nb87  1  0.00741128  0.49978865  0.49947368  1
  Nb5+  Nb88  1  0.74940035  0.24764333  0.50031179  1
  Nb5+  Nb89  1  0.25287014  0.25159066  0.00248078  1
  Nb5+  Nb90  1  0.74778232  0.74499670  0.50276378  1
  Nb5+  Nb91  1  0.24630488  0.00453139  0.74610052  1
  Nb5+  Nb92  1  0.24522561  0.50596421  0.25272770  1
  Nb5+  Nb93  1  0.25168677  0.50649559  0.75815306  1
  Nb5+  Nb94  1  0.24867021  0.00495982  0.24227880  1
  Nb5+  Nb95  1  0.74302178  -0.00419149  0.74795808  1
  Nb5+  Nb96  1  -0.00488878  0.00086031  0.25429768  1
  Nb5+  Nb97  1  -0.00848319  0.00366890  0.74933146  1
  Nb5+  Nb98  1  -0.00252474  0.50256597  0.25169987  1
  Nb5+  Nb99  1  -0.00089889  0.50057993  0.75478832  1
  Nb5+  Nb100  1  0.50291614  -0.00406796  0.24666010  1
  Nb5+  Nb101  1  0.48926111  0.00216607  0.75040719  1
  Nb5+  Nb102  1  0.50224622  0.49484218  0.25566846  1
  Nb5+  Nb103  1  0.50244928  0.49274182  0.75981256  1
  Nb5+  Nb104  1  0.24785288  0.25572490  0.25055841  1
  Nb5+  Nb105  1  0.25579892  0.25805780  0.74562810  1
  Nb5+  Nb106  1  0.25086492  0.75939779  0.25129557  1
  Nb5+  Nb107  1  0.25285572  0.75927064  0.74759616  1
  Nb5+  Nb108  1  0.75522038  0.24623025  0.24746880  1
  Nb5+  Nb109  1  0.75124065  0.25453688  0.75167218  1
  Nb5+  Nb110  1  0.74752098  0.74970228  0.24719344  1
  Nb5+  Nb111  1  0.74761201  0.74594549  0.75370980  1
  Nb5+  Nb112  1  0.00438889  0.25010272  0.49850602  1
  Nb5+  Nb113  1  -0.00671100  0.24860081  0.99472268  1
  Nb5+  Nb114  1  0.00070535  0.75289599  0.49772992  1
  Nb5+  Nb115  1  -0.00057494  0.75152170  0.99934513  1
  Nb5+  Nb116  1  0.49742600  0.25020690  0.49557805  1
  Nb5+  Nb117  1  0.50621803  0.24965923  1.00252758  1
  Nb5+  Nb118  1  0.49525320  0.74828618  0.50117556  1
  Nb5+  Nb119  1  0.49632328  0.75242832  0.99985171  1
  Nb5+  Nb120  1  0.25500468  -0.00112662  -0.00622563  1
  Nb5+  Nb121  1  0.24605528  0.00048035  0.49385481  1
  Nb5+  Nb122  1  0.25044431  0.49883043  0.00813990  1
  Nb5+  Nb123  1  0.25473806  0.50389606  0.50595260  1
  Nb5+  Nb124  1  0.75197343  0.00040686  0.00794115  1
  Nb5+  Nb125  1  0.74723284  -0.00758049  0.50393718  1
  Nb5+  Nb126  1  0.75516579  0.50396368  -0.00326550  1
  Nb5+  Nb127  1  0.75685685  0.49550593  0.49981034  1
  O2-  O128  1  -0.01496578  -0.00317733  0.13481462  1
  O2-  O129  1  -0.00209103  0.03390207  0.63367278  1
  O2-  O130  1  -0.00895566  0.51606382  0.13513704  1
  O2-  O131  1  0.00549818  0.51973342  0.61791355  1
  O2-  O132  1  0.46832197  -0.00237831  0.13466752  1
  O2-  O133  1  0.46814963  0.00295282  0.63419223  1
  O2-  O134  1  0.48626405  0.48964514  0.12394543  1
  O2-  O135  1  0.49296129  0.48676854  0.61695752  1
  O2-  O136  1  0.02658328  -0.00300435  0.36905689  1
  O2-  O137  1  0.00381270  -0.02714660  0.86305722  1
  O2-  O138  1  0.00982690  0.48175465  0.37877740  1
  O2-  O139  1  0.00342707  0.47179351  0.86457639  1
  O2-  O140  1  0.51067524  0.00158880  0.36801676  1
  O2-  O141  1  0.51666821  -0.00088541  0.86705575  1
  O2-  O142  1  0.49723028  0.50857903  0.37317372  1
  O2-  O143  1  0.50413383  0.50380651  0.87517769  1
  O2-  O144  1  0.27693640  0.24859394  0.11636506  1
  O2-  O145  1  0.27804735  0.25350121  0.63137482  1
  O2-  O146  1  0.22157483  0.76102515  0.13593200  1
  O2-  O147  1  0.21294285  0.75497792  0.63541554  1
  O2-  O148  1  0.77896409  0.24289728  0.13349228  1
  O2-  O149  1  0.77141964  0.25498414  0.61656002  1
  O2-  O150  1  0.72757776  0.75515901  0.13366414  1
  O2-  O151  1  0.72759991  0.75997796  0.62203123  1
  O2-  O152  1  0.21725850  0.24973634  0.36078770  1
  O2-  O153  1  0.23722041  0.25707803  0.87251279  1
  O2-  O154  1  0.27129255  0.73577323  0.36727972  1
  O2-  O155  1  0.28111511  0.74266773  0.86252079  1
  O2-  O156  1  0.73388404  0.24429679  0.37984826  1
  O2-  O157  1  0.72417373  0.24853864  0.86312445  1
  O2-  O158  1  0.76738964  0.74500436  0.38539893  1
  O2-  O159  1  0.77615757  0.74698973  0.86452197  1
  O2-  O160  1  -0.02111623  0.23501637  0.11325824  1
  O2-  O161  1  -0.02402142  0.24049977  0.61338052  1
  O2-  O162  1  0.01933468  0.74961778  0.11944086  1
  O2-  O163  1  0.01425391  0.72458952  0.61181401  1
  O2-  O164  1  0.46743930  0.25491686  0.11293901  1
  O2-  O165  1  0.49251801  0.27508111  0.60995139  1
  O2-  O166  1  0.52900919  0.74919464  0.11455437  1
  O2-  O167  1  0.52797304  0.74408507  0.61396802  1
  O2-  O168  1  0.23128328  0.00174179  0.37713286  1
  O2-  O169  1  0.23846274  0.00257429  0.87646660  1
  O2-  O170  1  0.24120415  0.50493126  0.37194668  1
  O2-  O171  1  0.25261806  0.49608604  0.87349029  1
  O2-  O172  1  0.72118496  0.00170347  0.39073544  1
  O2-  O173  1  0.73963899  -0.00151361  0.86714600  1
  O2-  O174  1  0.73118409  0.51643348  0.39010738  1
  O2-  O175  1  0.72435829  0.49332747  0.88403062  1
  O2-  O176  1  0.01645118  0.27853065  0.38376254  1
  O2-  O177  1  0.02724817  0.27370553  0.88286009  1
  O2-  O178  1  -0.03628157  0.74889514  0.38674315  1
  O2-  O179  1  -0.02509196  0.75674679  0.87986647  1
  O2-  O180  1  0.52659077  0.25614925  0.38125889  1
  O2-  O181  1  0.52048561  0.25264154  0.88316586  1
  O2-  O182  1  0.49348040  0.72641212  0.38510033  1
  O2-  O183  1  0.47694011  0.73181029  0.88229166  1
  O2-  O184  1  0.26964953  -0.00113670  0.12846089  1
  O2-  O185  1  0.27055553  -0.00063969  0.63352955  1
  O2-  O186  1  0.26215399  0.49704961  0.12537142  1
  O2-  O187  1  0.25727088  0.49849332  0.62384444  1
  O2-  O188  1  0.76485708  0.00794224  0.12125642  1
  O2-  O189  1  0.76990113  -0.00150403  0.62902922  1
  O2-  O190  1  0.76088765  0.50208588  0.11854884  1
  O2-  O191  1  0.73112624  0.49662602  0.61345996  1
  O2-  O192  1  0.13922191  0.25820108  0.20670608  1
  O2-  O193  1  0.13765140  0.25791486  0.72823578  1
  O2-  O194  1  0.13426974  0.76210101  0.27890685  1
  O2-  O195  1  0.13584982  0.77166259  0.77817308  1
  O2-  O196  1  0.63732444  0.27299808  0.23388031  1
  O2-  O197  1  0.63981063  0.25881266  0.71458582  1
  O2-  O198  1  0.63551440  0.78219766  0.27806640  1
  O2-  O199  1  0.63466329  0.78087263  0.76568087  1
  O2-  O200  1  0.36023698  0.22249937  0.25908937  1
  O2-  O201  1  0.36710163  0.22539495  0.76637779  1
  O2-  O202  1  0.36345636  0.72688832  0.22823074  1
  O2-  O203  1  0.36412494  0.74061121  0.70981914  1
  O2-  O204  1  0.87018985  0.22789395  0.27648242  1
  O2-  O205  1  0.86362051  0.21565488  0.75359735  1
  O2-  O206  1  0.86165476  0.71050135  0.24074700  1
  O2-  O207  1  0.86297779  0.73373857  0.72167488  1
  O2-  O208  1  0.26972089  0.37153992  0.25073164  1
  O2-  O209  1  0.26932580  0.37608928  0.74969662  1
  O2-  O210  1  0.27298945  0.87454402  0.25844635  1
  O2-  O211  1  0.27265895  0.87794204  0.75389217  1
  O2-  O212  1  0.77404502  0.36661368  0.25820150  1
  O2-  O213  1  0.78592954  0.36502338  0.75336038  1
  O2-  O214  1  0.78760028  0.86331357  0.25464364  1
  O2-  O215  1  0.77215791  0.87887170  0.74969812  1
  O2-  O216  1  0.22801534  0.11897310  0.24418731  1
  O2-  O217  1  0.23415276  0.12122033  0.74830509  1
  O2-  O218  1  0.22634371  0.61846686  0.24132878  1
  O2-  O219  1  0.23239564  0.62204460  0.75020390  1
  O2-  O220  1  0.72445204  0.13051083  0.25526819  1
  O2-  O221  1  0.73231302  0.11722766  0.74606291  1
  O2-  O222  1  0.70965861  0.63471646  0.25318491  1
  O2-  O223  1  0.71655041  0.63405784  0.74925600  1
  O2-  O224  1  0.13258536  0.46866005  0.24482230  1
  O2-  O225  1  0.13525817  0.47964341  0.74614583  1
  O2-  O226  1  0.13588622  0.96931763  0.23820187  1
  O2-  O227  1  0.13331569  0.97957088  0.73990080  1
  O2-  O228  1  0.61302220  0.46727884  0.24809226  1
  O2-  O229  1  0.61132830  0.45799900  0.74985825  1
  O2-  O230  1  0.61512121  0.97699252  0.22560297  1
  O2-  O231  1  0.62813267  0.98040353  0.73319113  1
  O2-  O232  1  0.36488658  0.01277275  0.27210406  1
  O2-  O233  1  0.37290857  0.01519986  0.77422396  1
  O2-  O234  1  0.36533666  0.51803616  0.26057109  1
  O2-  O235  1  0.37014771  0.52336297  0.75227598  1
  O2-  O236  1  0.88418816  0.02881858  0.27129454  1
  O2-  O237  1  0.87520110  0.01777392  0.75804307  1
  O2-  O238  1  0.88628410  0.52490439  0.27093807  1
  O2-  O239  1  0.88648632  0.53044550  0.75208685  1
  O2-  O240  1  0.46042681  0.38535121  0.25266749  1
  O2-  O241  1  0.45827549  0.38474774  0.75100576  1
  O2-  O242  1  0.47130571  0.88064152  0.25582697  1
  O2-  O243  1  0.48387276  0.88258660  0.74751833  1
  O2-  O244  1  0.98573685  0.38329969  0.23617888  1
  O2-  O245  1  0.99229121  0.38767823  0.71838166  1
  O2-  O246  1  0.98242115  0.88134885  0.25591261  1
  O2-  O247  1  0.98847863  0.88659860  0.71731576  1
  O2-  O248  1  0.03739840  0.11275903  0.24624905  1
  O2-  O249  1  0.02640016  0.11511555  0.77134318  1
  O2-  O250  1  0.03982868  0.61155098  0.26227318  1
  O2-  O251  1  0.03383305  0.61388982  0.76070568  1
  O2-  O252  1  0.51346362  0.11672646  0.24803368  1
  O2-  O253  1  0.52471099  0.11554791  0.74537962  1
  O2-  O254  1  0.50862811  0.60984780  0.23249691  1
  O2-  O255  1  0.51598435  0.60725123  0.73339461  1
  O2-  O256  1  0.13862288  0.46976915  0.00532162  1
  O2-  O257  1  0.12311651  0.47912940  0.50593133  1
  O2-  O258  1  0.14015372  0.98633000  0.01831205  1
  O2-  O259  1  0.13656708  0.96132361  0.51636984  1
  O2-  O260  1  0.61731882  0.47434283  0.01351160  1
  O2-  O261  1  0.61755406  0.47093156  0.49678394  1
  O2-  O262  1  0.63441309  0.96630398  0.01234674  1
  O2-  O263  1  0.63324307  0.98723415  0.53574979  1
  O2-  O264  1  0.36576763  0.03832209  -0.00556292  1
  O2-  O265  1  0.36284820  0.03715713  0.48805133  1
  O2-  O266  1  0.37581174  0.51343727  -0.00313916  1
  O2-  O267  1  0.37071648  0.52383821  0.49345009  1
  O2-  O268  1  0.86490898  0.03768318  -0.01063433  1
  O2-  O269  1  0.86196568  0.02075714  0.49172671  1
  O2-  O270  1  0.86721324  0.52570650  -0.02256487  1
  O2-  O271  1  0.87086220  0.52029456  0.50117780  1
  O2-  O272  1  0.47890363  0.37908431  -0.01102825  1
  O2-  O273  1  0.47132997  0.38203360  0.48481485  1
  O2-  O274  1  0.46911643  0.86451981  -0.00274175  1
  O2-  O275  1  0.48430473  0.86392015  0.49369421  1
  O2-  O276  1  0.98138594  0.36802321  0.01758941  1
  O2-  O277  1  0.97554921  0.38516805  0.51067793  1
  O2-  O278  1  0.97660691  0.86857579  0.00771605  1
  O2-  O279  1  0.97498890  0.86427239  0.51489719  1
  O2-  O280  1  0.03389155  0.13767321  -0.00972289  1
  O2-  O281  1  0.01800961  0.13811493  0.48117978  1
  O2-  O282  1  0.03331503  0.63424370  -0.01112743  1
  O2-  O283  1  0.00626210  0.61809328  0.47968899  1
  O2-  O284  1  0.52384160  0.13531397  0.00658203  1
  O2-  O285  1  0.53010894  0.13966011  0.50646808  1
  O2-  O286  1  0.51889488  0.61316625  0.00322340  1
  O2-  O287  1  0.52196764  0.61417200  0.50653952  1
  O2-  O288  1  0.13660432  0.27378062  0.01377816  1
  O2-  O289  1  0.11425508  0.27730056  0.52376534  1
  O2-  O290  1  0.11942992  0.77660180  -0.02217438  1
  O2-  O291  1  0.11217152  0.76609876  0.47246784  1
  O2-  O292  1  0.61592305  0.28067048  0.02415059  1
  O2-  O293  1  0.63465727  0.27838935  0.50911518  1
  O2-  O294  1  0.61403835  0.76471394  -0.02900365  1
  O2-  O295  1  0.62874598  0.76392110  0.48198784  1
  O2-  O296  1  0.37360876  0.24051066  -0.02485591  1
  O2-  O297  1  0.38506237  0.22878469  0.47920639  1
  O2-  O298  1  0.38469131  0.71690053  0.02385938  1
  O2-  O299  1  0.38508423  0.72120564  0.51955182  1
  O2-  O300  1  0.88316612  0.23514728  -0.03753353  1
  O2-  O301  1  0.87167160  0.24442123  0.47881943  1
  O2-  O302  1  0.88411070  0.71835453  0.01796328  1
  O2-  O303  1  0.86589530  0.73452444  0.52315020  1
  O2-  O304  1  0.27530060  0.37532415  -0.00408465  1
  O2-  O305  1  0.26466696  0.38703505  0.48789942  1
  O2-  O306  1  0.28484949  0.88765533  -0.00524789  1
  O2-  O307  1  0.28847075  0.88715412  0.49996406  1
  O2-  O308  1  0.77012461  0.38257590  0.00334681  1
  O2-  O309  1  0.77103660  0.37933084  0.48948675  1
  O2-  O310  1  0.78340120  0.88564624  -0.00270111  1
  O2-  O311  1  0.76491197  0.87572847  0.49995948  1
  O2-  O312  1  0.23285040  0.13368552  -0.00347193  1
  O2-  O313  1  0.21371750  0.11389932  0.51523989  1
  O2-  O314  1  0.23329519  0.61260922  -0.00396871  1
  O2-  O315  1  0.21918198  0.61493299  0.50202933  1
  O2-  O316  1  0.71289319  0.11447312  -0.00617139  1
  O2-  O317  1  0.73519359  0.13072057  0.50737945  1
  O2-  O318  1  0.71740070  0.61637362  0.00118654  1
  O2-  O319  1  0.73094159  0.62820062  0.50884250  1
