# generated using pymatgen
data_Sr64Ca21Nb43O192
_symmetry_space_group_name_H-M   'P 1'
_cell_length_a   16.59779551
_cell_length_b   16.57235473
_cell_length_c   16.75246579
_cell_angle_alpha   89.97929663
_cell_angle_beta   90.05749904
_cell_angle_gamma   89.95855699
_symmetry_Int_Tables_number   1
_chemical_formula_structural   Sr64Ca21Nb43O192
_chemical_formula_sum   'Sr64 Ca21 Nb43 O192'
_cell_volume   4608.00571981
_cell_formula_units_Z   1
loop_
 _symmetry_equiv_pos_site_id
 _symmetry_equiv_pos_as_xyz
  1  'x, y, z'
loop_
 _atom_type_symbol
 _atom_type_oxidation_number
  Sr2+  2.0
  Ca2+  2.0
  Nb5+  5.0
  O2-  -2.0
loop_
 _atom_site_type_symbol
 _atom_site_label
 _atom_site_symmetry_multiplicity
 _atom_site_fract_x
 _atom_site_fract_y
 _atom_site_fract_z
 _atom_site_occupancy
  Sr2+  Sr0  1  0.11860443  0.14572347  0.12110219  1
  Sr2+  Sr1  1  0.11362365  0.13418798  0.62949087  1
  Sr2+  Sr2  1  0.12204243  0.60897545  0.12577202  1
  Sr2+  Sr3  1  0.11070390  0.61310045  0.62340278  1
  Sr2+  Sr4  1  0.61299708  0.13503340  0.12250800  1
  Sr2+  Sr5  1  0.61689485  0.13903260  0.62628946  1
  Sr2+  Sr6  1  0.61687597  0.61144342  0.12857522  1
  Sr2+  Sr7  1  0.61752972  0.61243476  0.62312763  1
  Sr2+  Sr8  1  0.37412853  0.37731904  0.13163163  1
  Sr2+  Sr9  1  0.37983853  0.37487582  0.62595166  1
  Sr2+  Sr10  1  0.36953498  0.86432887  0.12961476  1
  Sr2+  Sr11  1  0.36562496  0.87004702  0.62449044  1
  Sr2+  Sr12  1  0.87751393  0.37494318  0.12227105  1
  Sr2+  Sr13  1  0.87010662  0.37934344  0.62267087  1
  Sr2+  Sr14  1  0.86361843  0.86863794  0.12937077  1
  Sr2+  Sr15  1  0.86946458  0.87266611  0.62687995  1
  Sr2+  Sr16  1  0.13690913  0.37730108  0.36914351  1
  Sr2+  Sr17  1  0.13169494  0.37322420  0.89214938  1
  Sr2+  Sr18  1  0.14554079  0.88206824  0.37597448  1
  Sr2+  Sr19  1  0.13619805  0.87691706  0.86853555  1
  Sr2+  Sr20  1  0.63388916  0.37371731  0.37125409  1
  Sr2+  Sr21  1  0.62639646  0.37948688  0.87054282  1
  Sr2+  Sr22  1  0.60661255  0.87531177  0.37529834  1
  Sr2+  Sr23  1  0.60595952  0.87962818  0.87746470  1
  Sr2+  Sr24  1  0.36064701  0.12215189  0.36961685  1
  Sr2+  Sr25  1  0.36143830  0.11873749  0.87710517  1
  Sr2+  Sr26  1  0.38616304  0.64218708  0.37189941  1
  Sr2+  Sr27  1  0.37268264  0.63241006  0.87639968  1
  Sr2+  Sr28  1  0.88538693  0.12218958  0.37706803  1
  Sr2+  Sr29  1  0.88421945  0.11770390  0.87846904  1
  Sr2+  Sr30  1  0.88468683  0.62264330  0.38036488  1
  Sr2+  Sr31  1  0.88377226  0.63180433  0.87930173  1
  Sr2+  Sr32  1  0.12220124  0.12862692  0.37815869  1
  Sr2+  Sr33  1  0.12462256  0.12360013  0.87650472  1
  Sr2+  Sr34  1  0.13066135  0.64173625  0.37405240  1
  Sr2+  Sr35  1  0.12740505  0.63992527  0.87456988  1
  Sr2+  Sr36  1  0.63000906  0.12996836  0.37510920  1
  Sr2+  Sr37  1  0.62438362  0.12664830  0.88267571  1
  Sr2+  Sr38  1  0.62968973  0.62116999  0.37701351  1
  Sr2+  Sr39  1  0.62802250  0.63694695  0.87986943  1
  Sr2+  Sr40  1  0.38089142  0.36214170  0.37063000  1
  Sr2+  Sr41  1  0.38286419  0.39493970  0.87531156  1
  Sr2+  Sr42  1  0.37792540  0.87203408  0.37838504  1
  Sr2+  Sr43  1  0.38361986  0.87656399  0.86729211  1
  Sr2+  Sr44  1  0.88293526  0.37172654  0.37528051  1
  Sr2+  Sr45  1  0.89006402  0.35829453  0.87847601  1
  Sr2+  Sr46  1  0.88135906  0.87943035  0.37468641  1
  Sr2+  Sr47  1  0.87140310  0.87431076  0.88538094  1
  Sr2+  Sr48  1  0.15050221  0.37556200  0.12335879  1
  Sr2+  Sr49  1  0.14987146  0.37608728  0.62560878  1
  Sr2+  Sr50  1  0.12030828  0.87031618  0.13666292  1
  Sr2+  Sr51  1  0.11473024  0.87365913  0.62367047  1
  Sr2+  Sr52  1  0.60206896  0.37718731  0.13119117  1
  Sr2+  Sr53  1  0.60495246  0.37310748  0.62294933  1
  Sr2+  Sr54  1  0.61543608  0.88027561  0.13246922  1
  Sr2+  Sr55  1  0.61230245  0.87610808  0.62755888  1
  Sr2+  Sr56  1  0.36229422  0.13968655  0.12140362  1
  Sr2+  Sr57  1  0.36027980  0.13515257  0.63213247  1
  Sr2+  Sr58  1  0.35775960  0.61542960  0.12609561  1
  Sr2+  Sr59  1  0.36269591  0.60759187  0.62855140  1
  Sr2+  Sr60  1  0.87419615  0.12171533  0.11569990  1
  Sr2+  Sr61  1  0.86505912  0.12475145  0.62824061  1
  Sr2+  Sr62  1  0.86340070  0.61950285  0.12298969  1
  Sr2+  Sr63  1  0.87197480  0.62280270  0.63015910  1
  Ca2+  Ca64  1  -0.00221074  0.50111485  -0.00091070  1
  Ca2+  Ca65  1  0.49959845  0.00402881  0.50085966  1
  Ca2+  Ca66  1  0.00014747  -0.00526061  0.00018485  1
  Ca2+  Ca67  1  0.50015405  0.50354368  0.00173048  1
  Ca2+  Ca68  1  0.49906950  0.49838235  0.49616385  1
  Ca2+  Ca69  1  0.24861133  0.75484004  0.00146869  1
  Ca2+  Ca70  1  0.24810805  0.24907343  0.50100475  1
  Ca2+  Ca71  1  0.25487858  0.25147148  -0.00398677  1
  Ca2+  Ca72  1  0.24844625  0.74791295  0.50398845  1
  Ca2+  Ca73  1  0.74874864  0.25120019  0.00079829  1
  Ca2+  Ca74  1  0.49850204  0.24785870  0.75457052  1
  Ca2+  Ca75  1  0.24604445  0.50403230  0.75204973  1
  Ca2+  Ca76  1  0.50196361  0.24740408  0.25342374  1
  Ca2+  Ca77  1  0.75115793  0.50200188  0.75135825  1
  Ca2+  Ca78  1  0.00064526  0.24749214  0.74761346  1
  Ca2+  Ca79  1  -0.00236239  0.25266729  0.25147957  1
  Ca2+  Ca80  1  -0.00275268  0.74920704  0.25204729  1
  Ca2+  Ca81  1  0.50341650  0.75025257  0.24600199  1
  Ca2+  Ca82  1  0.24921640  0.50375349  0.25625586  1
  Ca2+  Ca83  1  0.24921927  0.00172861  0.24723713  1
  Ca2+  Ca84  1  0.50296880  0.74560925  0.74666092  1
  Nb5+  Nb85  1  0.49556554  0.00304829  0.00271500  1
  Nb5+  Nb86  1  0.00189049  0.00063327  0.49972159  1
  Nb5+  Nb87  1  0.00150557  0.49952861  0.49892535  1
  Nb5+  Nb88  1  0.75310254  0.25619367  0.50071541  1
  Nb5+  Nb89  1  0.74477301  0.75066694  0.00876027  1
  Nb5+  Nb90  1  0.75117062  0.75600889  0.50326993  1
  Nb5+  Nb91  1  0.24204078  -0.00186653  0.74685026  1
  Nb5+  Nb92  1  -0.00081065  0.75068319  0.74969714  1
  Nb5+  Nb93  1  0.75370969  0.49238424  0.24907158  1
  Nb5+  Nb94  1  0.74460737  -0.00287361  0.75441893  1
  Nb5+  Nb95  1  0.75169454  -0.00377259  0.25771365  1
  Nb5+  Nb96  1  0.00214421  0.00090189  0.24552993  1
  Nb5+  Nb97  1  -0.00574993  -0.00509387  0.74880715  1
  Nb5+  Nb98  1  -0.00085532  0.50015815  0.24808934  1
  Nb5+  Nb99  1  -0.00360500  0.49167954  0.75150762  1
  Nb5+  Nb100  1  0.49461421  0.00589208  0.24912786  1
  Nb5+  Nb101  1  0.49307358  0.00474561  0.74718983  1
  Nb5+  Nb102  1  0.49482893  0.50469642  0.25662988  1
  Nb5+  Nb103  1  0.50322337  0.50122770  0.75241838  1
  Nb5+  Nb104  1  0.24851834  0.24977520  0.25124960  1
  Nb5+  Nb105  1  0.25144733  0.25493967  0.75467485  1
  Nb5+  Nb106  1  0.25002964  0.75221702  0.24953844  1
  Nb5+  Nb107  1  0.25096178  0.74821957  0.74218418  1
  Nb5+  Nb108  1  0.75465052  0.24291801  0.24745570  1
  Nb5+  Nb109  1  0.75318965  0.25261200  0.75211218  1
  Nb5+  Nb110  1  0.75065890  0.74437257  0.25748384  1
  Nb5+  Nb111  1  0.75029002  0.75291203  0.75424540  1
  Nb5+  Nb112  1  -0.00049935  0.25752965  0.50480989  1
  Nb5+  Nb113  1  -0.00064080  0.24897117  0.99957540  1
  Nb5+  Nb114  1  -0.00393426  0.75364954  0.49974983  1
  Nb5+  Nb115  1  0.00207352  0.75106504  1.00470274  1
  Nb5+  Nb116  1  0.49595394  0.24364660  0.49783587  1
  Nb5+  Nb117  1  0.49839070  0.25493368  1.00093579  1
  Nb5+  Nb118  1  0.49788347  0.74633223  0.50583412  1
  Nb5+  Nb119  1  0.49858013  0.74759727  1.00351381  1
  Nb5+  Nb120  1  0.24404551  -0.00921643  0.00673795  1
  Nb5+  Nb121  1  0.25311635  0.00457036  0.50284930  1
  Nb5+  Nb122  1  0.24868832  0.50599637  -0.00308392  1
  Nb5+  Nb123  1  0.25420710  0.50348255  0.49329120  1
  Nb5+  Nb124  1  0.74509010  -0.00147215  0.00854420  1
  Nb5+  Nb125  1  0.75089075  0.00080636  0.50421378  1
  Nb5+  Nb126  1  0.75000152  0.49770259  -0.00457311  1
  Nb5+  Nb127  1  0.75196604  0.50453598  0.50038796  1
  O2-  O128  1  0.00556289  0.02414287  0.13405350  1
  O2-  O129  1  -0.00138384  0.00820332  0.62143360  1
  O2-  O130  1  -0.01768191  0.52457841  0.13677152  1
  O2-  O131  1  -0.02530103  0.51159958  0.61593551  1
  O2-  O132  1  0.51853751  0.00867286  0.11993263  1
  O2-  O133  1  0.51345400  0.01326240  0.63554793  1
  O2-  O134  1  0.48893211  0.51695016  0.13723903  1
  O2-  O135  1  0.48758983  0.51573842  0.63220975  1
  O2-  O136  1  -0.00480901  -0.02028719  0.38316151  1
  O2-  O137  1  -0.00202754  -0.03057230  0.86094725  1
  O2-  O138  1  0.00568577  0.47478935  0.38276560  1
  O2-  O139  1  0.01472601  0.47708584  0.86298628  1
  O2-  O140  1  0.48605258  -0.01176800  0.36385270  1
  O2-  O141  1  0.49218002  -0.00875681  0.87856870  1
  O2-  O142  1  0.52932315  0.48264603  0.36629258  1
  O2-  O143  1  0.51486080  0.48025950  0.86986843  1
  O2-  O144  1  0.27127520  0.26972525  0.13156419  1
  O2-  O145  1  0.27616997  0.26615113  0.63466966  1
  O2-  O146  1  0.23712141  0.78246511  0.13407918  1
  O2-  O147  1  0.23415720  0.78877077  0.63366299  1
  O2-  O148  1  0.78405284  0.25286982  0.13753927  1
  O2-  O149  1  0.77888487  0.25177455  0.61874829  1
  O2-  O150  1  0.73205555  0.77126880  0.12020387  1
  O2-  O151  1  0.73830917  0.77281904  0.61640146  1
  O2-  O152  1  0.22960222  0.22824692  0.36788740  1
  O2-  O153  1  0.22966032  0.22263994  0.86550911  1
  O2-  O154  1  0.26514519  0.73057910  0.36973472  1
  O2-  O155  1  0.25364388  0.73448468  0.86083238  1
  O2-  O156  1  0.73075295  0.24096441  0.38410342  1
  O2-  O157  1  0.72571740  0.23905971  0.86282575  1
  O2-  O158  1  0.77331606  0.73600034  0.37034265  1
  O2-  O159  1  0.76947275  0.73702033  0.86699960  1
  O2-  O160  1  -0.01937243  0.22665587  0.11684738  1
  O2-  O161  1  -0.02303044  0.22052916  0.61401470  1
  O2-  O162  1  0.02067735  0.73037297  0.11488339  1
  O2-  O163  1  0.00909596  0.73353807  0.62048659  1
  O2-  O164  1  0.48448514  0.23062261  0.11912758  1
  O2-  O165  1  0.48675156  0.22706671  0.61689628  1
  O2-  O166  1  0.53843464  0.75265564  0.11282238  1
  O2-  O167  1  0.54263935  0.74232818  0.61477212  1
  O2-  O168  1  0.24090111  0.02181968  0.38667988  1
  O2-  O169  1  0.24245570  0.01660554  0.86598392  1
  O2-  O170  1  0.20957386  0.51634675  0.38600222  1
  O2-  O171  1  0.22642803  0.53006515  0.88220140  1
  O2-  O172  1  0.75905915  0.01318399  0.37390241  1
  O2-  O173  1  0.75293594  0.00828967  0.86892194  1
  O2-  O174  1  0.73740451  0.50806694  0.37289705  1
  O2-  O175  1  0.72480123  0.52004829  0.88562321  1
  O2-  O176  1  0.01960946  0.25815187  0.38988587  1
  O2-  O177  1  0.01864814  0.26867505  0.88026874  1
  O2-  O178  1  -0.03196972  0.75486970  0.38731990  1
  O2-  O179  1  -0.02140283  0.76863253  0.86254760  1
  O2-  O180  1  0.52884822  0.26639169  0.38644667  1
  O2-  O181  1  0.53090681  0.26059011  0.88728203  1
  O2-  O182  1  0.48599605  0.76602558  0.38576689  1
  O2-  O183  1  0.48192392  0.76006941  0.88427645  1
  O2-  O184  1  0.25008377  -0.03462456  0.11645078  1
  O2-  O185  1  0.25380969  -0.02281136  0.62760220  1
  O2-  O186  1  0.26955123  0.48528536  0.11852617  1
  O2-  O187  1  0.26893296  0.47924817  0.61395889  1
  O2-  O188  1  0.74631739  -0.01652606  0.12475251  1
  O2-  O189  1  0.75388197  -0.01847305  0.61997301  1
  O2-  O190  1  0.77384745  0.49298401  0.13170109  1
  O2-  O191  1  0.77327758  0.49670140  0.61362391  1
  O2-  O192  1  0.13090978  0.27239408  0.23289355  1
  O2-  O193  1  0.13575650  0.25569781  0.72421374  1
  O2-  O194  1  0.13090746  0.77756694  0.26974332  1
  O2-  O195  1  0.11806799  0.77151815  0.75888110  1
  O2-  O196  1  0.64211573  0.27697532  0.24094129  1
  O2-  O197  1  0.64033668  0.25929401  0.71845511  1
  O2-  O198  1  0.64082918  0.78193911  0.26296928  1
  O2-  O199  1  0.63980828  0.78028119  0.76483881  1
  O2-  O200  1  0.36808894  0.23133973  0.27151048  1
  O2-  O201  1  0.36465504  0.21709159  0.76528302  1
  O2-  O202  1  0.36866116  0.72895712  0.23052990  1
  O2-  O203  1  0.36586994  0.73497307  0.72742858  1
  O2-  O204  1  0.86378573  0.23937920  0.28780211  1
  O2-  O205  1  0.86447385  0.21155780  0.76274187  1
  O2-  O206  1  0.86112526  0.74210654  0.21738137  1
  O2-  O207  1  0.87764675  0.74230058  0.72856535  1
  O2-  O208  1  0.26742516  0.36898477  0.27262889  1
  O2-  O209  1  0.26032331  0.36789015  0.77721982  1
  O2-  O210  1  0.27742615  0.87042688  0.27388120  1
  O2-  O211  1  0.26969713  0.88007956  0.76795141  1
  O2-  O212  1  0.77167023  0.37905300  0.26388868  1
  O2-  O213  1  0.78103007  0.36396783  0.75975376  1
  O2-  O214  1  0.77575798  0.88186298  0.26198531  1
  O2-  O215  1  0.77981155  0.87733169  0.75284716  1
  O2-  O216  1  0.23024525  0.13353713  0.22275784  1
  O2-  O217  1  0.23364806  0.11347477  0.72648326  1
  O2-  O218  1  0.22253952  0.63648103  0.23058240  1
  O2-  O219  1  0.22632215  0.63825969  0.71905625  1
  O2-  O220  1  0.73174934  0.12655534  0.24183345  1
  O2-  O221  1  0.73495567  0.11033257  0.72905179  1
  O2-  O222  1  0.72932849  0.63155325  0.23878052  1
  O2-  O223  1  0.73595020  0.64214123  0.72437138  1
  O2-  O224  1  0.11113670  0.47618490  0.23472851  1
  O2-  O225  1  0.10923620  0.49259507  0.71835984  1
  O2-  O226  1  0.11380452  0.97263749  0.25425745  1
  O2-  O227  1  0.12659311  0.97487219  0.74253504  1
  O2-  O228  1  0.63658563  0.48622797  0.23296385  1
  O2-  O229  1  0.61976464  0.46734028  0.73628299  1
  O2-  O230  1  0.63501647  0.97891756  0.25742466  1
  O2-  O231  1  0.63225373  0.97229641  0.75333604  1
  O2-  O232  1  0.38551851  0.03602793  0.23472327  1
  O2-  O233  1  0.37656874  0.01956239  0.74705616  1
  O2-  O234  1  0.38374156  0.52738835  0.27584750  1
  O2-  O235  1  0.38374236  0.53058511  0.76842170  1
  O2-  O236  1  0.86770842  0.02615479  0.24199375  1
  O2-  O237  1  0.87804805  0.01135144  0.74508181  1
  O2-  O238  1  0.86694175  0.52980165  0.26481346  1
  O2-  O239  1  0.88634102  0.53460651  0.76043120  1
  O2-  O240  1  0.48275311  0.38483429  0.23825283  1
  O2-  O241  1  0.47223345  0.38179273  0.74018486  1
  O2-  O242  1  0.48744731  0.88825059  0.23056046  1
  O2-  O243  1  0.48735411  0.88507002  0.74333673  1
  O2-  O244  1  0.96101517  0.38802618  0.24595722  1
  O2-  O245  1  0.96915593  0.38182785  0.73355446  1
  O2-  O246  1  0.96701920  0.88742050  0.23932817  1
  O2-  O247  1  0.98999700  0.87318746  0.71955163  1
  O2-  O248  1  0.00916262  0.11348287  0.28077161  1
  O2-  O249  1  0.02240554  0.10672645  0.76217466  1
  O2-  O250  1  0.01273906  0.61359088  0.28265869  1
  O2-  O251  1  0.01756522  0.63468178  0.76011182  1
  O2-  O252  1  0.53993307  0.11425567  0.25597081  1
  O2-  O253  1  0.53196290  0.11246521  0.76776528  1
  O2-  O254  1  0.53139132  0.61888668  0.26522617  1
  O2-  O255  1  0.53953368  0.61593116  0.76168785  1
  O2-  O256  1  0.13057121  0.48246175  0.01876735  1
  O2-  O257  1  0.11265551  0.47813936  0.52043660  1
  O2-  O258  1  0.13322775  0.96478888  -0.00446356  1
  O2-  O259  1  0.11732227  0.97296288  0.50371982  1
  O2-  O260  1  0.63791545  0.48396203  0.03010873  1
  O2-  O261  1  0.63925475  0.48013144  0.51254755  1
  O2-  O262  1  0.62781540  0.97914630  -0.01136546  1
  O2-  O263  1  0.64036343  0.97246032  0.49100376  1
  O2-  O264  1  0.38120545  0.02105841  0.00867005  1
  O2-  O265  1  0.36464683  0.03238564  0.50684298  1
  O2-  O266  1  0.36667879  0.52849091  -0.01836780  1
  O2-  O267  1  0.36435944  0.52804900  0.47370004  1
  O2-  O268  1  0.86162381  0.01472748  -0.00330296  1
  O2-  O269  1  0.87593004  0.00695556  0.49987170  1
  O2-  O270  1  0.86178361  0.53524189  -0.00575264  1
  O2-  O271  1  0.87314856  0.50772317  0.47914275  1
  O2-  O272  1  0.47229565  0.36728492  0.01376836  1
  O2-  O273  1  0.48711859  0.36260010  0.51926337  1
  O2-  O274  1  0.49061230  0.87959903  0.00645107  1
  O2-  O275  1  0.48893783  0.86724303  0.51774384  1
  O2-  O276  1  0.97160524  0.36652071  0.00982272  1
  O2-  O277  1  0.97437157  0.37152239  0.51437208  1
  O2-  O278  1  0.96511874  0.86238274  0.01481331  1
  O2-  O279  1  0.97725480  0.86885307  0.51635009  1
  O2-  O280  1  0.01853768  0.12843687  -0.02058570  1
  O2-  O281  1  0.01322911  0.11539028  0.48640198  1
  O2-  O282  1  0.00704003  0.63876031  -0.03265546  1
  O2-  O283  1  0.01138179  0.61857695  0.48688693  1
  O2-  O284  1  0.52608107  0.11685353  -0.00756503  1
  O2-  O285  1  0.53801248  0.13259592  0.48921114  1
  O2-  O286  1  0.52790749  0.63652823  -0.00913264  1
  O2-  O287  1  0.52749144  0.63340410  0.48489256  1
  O2-  O288  1  0.11777888  0.26772827  0.01928145  1
  O2-  O289  1  0.11239780  0.26411853  0.52904580  1
  O2-  O290  1  0.11113962  0.77521165  -0.02310768  1
  O2-  O291  1  0.10978508  0.76546920  0.48203981  1
  O2-  O292  1  0.61671471  0.26422010  0.03012619  1
  O2-  O293  1  0.63871752  0.26247006  0.52407767  1
  O2-  O294  1  0.63416089  0.76698124  -0.03064398  1
  O2-  O295  1  0.63950088  0.76296468  0.47236857  1
  O2-  O296  1  0.38745498  0.21798548  -0.01775378  1
  O2-  O297  1  0.38437676  0.22712970  0.47381156  1
  O2-  O298  1  0.38717239  0.73403427  0.02832186  1
  O2-  O299  1  0.38668723  0.72654133  0.52871675  1
  O2-  O300  1  0.88110586  0.22749199  -0.02565542  1
  O2-  O301  1  0.87370657  0.23283012  0.48035507  1
  O2-  O302  1  0.86497882  0.73272965  0.00740823  1
  O2-  O303  1  0.87040885  0.72678276  0.51663125  1
  O2-  O304  1  0.26510290  0.38703204  -0.02703469  1
  O2-  O305  1  0.25902587  0.38395296  0.47597012  1
  O2-  O306  1  0.28394686  0.88621870  -0.02936659  1
  O2-  O307  1  0.26950936  0.88621132  0.48448604  1
  O2-  O308  1  0.77592457  0.38643660  -0.01848926  1
  O2-  O309  1  0.77030828  0.37214432  0.48955882  1
  O2-  O310  1  0.76410412  0.87411504  -0.00999992  1
  O2-  O311  1  0.77648831  0.87011703  0.48479464  1
  O2-  O312  1  0.23480174  0.10894758  0.01547650  1
  O2-  O313  1  0.21678237  0.11396087  0.52669983  1
  O2-  O314  1  0.22878949  0.62306024  0.02501660  1
  O2-  O315  1  0.22240282  0.61489675  0.52469181  1
  O2-  O316  1  0.72678140  0.11323413  0.01382575  1
  O2-  O317  1  0.74096490  0.11717525  0.51154480  1
  O2-  O318  1  0.72630570  0.63363702  0.01824011  1
  O2-  O319  1  0.73780364  0.62405165  0.50494305  1
