# generated using pymatgen
data_Sr64Ca21Nb43O192
_symmetry_space_group_name_H-M   'P 1'
_cell_length_a   16.60087104
_cell_length_b   16.59860354
_cell_length_c   16.72314297
_cell_angle_alpha   89.95245679
_cell_angle_beta   89.98431383
_cell_angle_gamma   90.07535000
_symmetry_Int_Tables_number   1
_chemical_formula_structural   Sr64Ca21Nb43O192
_chemical_formula_sum   'Sr64 Ca21 Nb43 O192'
_cell_volume   4608.07765489
_cell_formula_units_Z   1
loop_
 _symmetry_equiv_pos_site_id
 _symmetry_equiv_pos_as_xyz
  1  'x, y, z'
loop_
 _atom_type_symbol
 _atom_type_oxidation_number
  Sr2+  2.0
  Ca2+  2.0
  Nb5+  5.0
  O2-  -2.0
loop_
 _atom_site_type_symbol
 _atom_site_label
 _atom_site_symmetry_multiplicity
 _atom_site_fract_x
 _atom_site_fract_y
 _atom_site_fract_z
 _atom_site_occupancy
  Sr2+  Sr0  1  0.11431229  0.14093983  0.12501589  1
  Sr2+  Sr1  1  0.12091710  0.13214317  0.62514133  1
  Sr2+  Sr2  1  0.11729276  0.63008051  0.12273756  1
  Sr2+  Sr3  1  0.11503369  0.63103854  0.63173663  1
  Sr2+  Sr4  1  0.61734550  0.14057912  0.13066753  1
  Sr2+  Sr5  1  0.61942460  0.13872784  0.63146045  1
  Sr2+  Sr6  1  0.62509649  0.62440044  0.11385858  1
  Sr2+  Sr7  1  0.62245403  0.61881225  0.62318304  1
  Sr2+  Sr8  1  0.36835077  0.38116332  0.12268204  1
  Sr2+  Sr9  1  0.37379252  0.37210886  0.61964617  1
  Sr2+  Sr10  1  0.36882813  0.86480846  0.12963170  1
  Sr2+  Sr11  1  0.36219791  0.86796721  0.63041398  1
  Sr2+  Sr12  1  0.86175781  0.37414627  0.12980696  1
  Sr2+  Sr13  1  0.86780035  0.39090223  0.62646804  1
  Sr2+  Sr14  1  0.86944906  0.86941271  0.12425090  1
  Sr2+  Sr15  1  0.87289245  0.87295793  0.61666730  1
  Sr2+  Sr16  1  0.14185973  0.36598571  0.37019080  1
  Sr2+  Sr17  1  0.13745401  0.36624949  0.88249854  1
  Sr2+  Sr18  1  0.14014751  0.88157616  0.37503892  1
  Sr2+  Sr19  1  0.13612953  0.87931571  0.87679872  1
  Sr2+  Sr20  1  0.62068283  0.37868311  0.38101258  1
  Sr2+  Sr21  1  0.63013201  0.37533008  0.87965747  1
  Sr2+  Sr22  1  0.61538782  0.87557730  0.37547441  1
  Sr2+  Sr23  1  0.60442940  0.87486623  0.87406604  1
  Sr2+  Sr24  1  0.36952009  0.12378218  0.37836723  1
  Sr2+  Sr25  1  0.39123979  0.12061353  0.87653894  1
  Sr2+  Sr26  1  0.38493559  0.61786769  0.37435910  1
  Sr2+  Sr27  1  0.37459773  0.62154570  0.88489141  1
  Sr2+  Sr28  1  0.87565630  0.11745947  0.37280864  1
  Sr2+  Sr29  1  0.88001281  0.11958908  0.87781646  1
  Sr2+  Sr30  1  0.88399697  0.62616448  0.36531622  1
  Sr2+  Sr31  1  0.88531399  0.61727921  0.86596166  1
  Sr2+  Sr32  1  0.12765663  0.12959076  0.37707041  1
  Sr2+  Sr33  1  0.12497066  0.12225181  0.87941935  1
  Sr2+  Sr34  1  0.13338302  0.62034079  0.36119787  1
  Sr2+  Sr35  1  0.13569073  0.62823119  0.87850052  1
  Sr2+  Sr36  1  0.63273899  0.11079149  0.36796265  1
  Sr2+  Sr37  1  0.63002397  0.12948338  0.87312455  1
  Sr2+  Sr38  1  0.62748179  0.62960584  0.38008988  1
  Sr2+  Sr39  1  0.63653281  0.62736709  0.87568653  1
  Sr2+  Sr40  1  0.37983679  0.37504686  0.37369626  1
  Sr2+  Sr41  1  0.38753208  0.36525157  0.88665784  1
  Sr2+  Sr42  1  0.38426552  0.87546440  0.37433335  1
  Sr2+  Sr43  1  0.37519029  0.87093907  0.86935309  1
  Sr2+  Sr44  1  0.88621025  0.35937358  0.37331494  1
  Sr2+  Sr45  1  0.88679238  0.35996581  0.86729131  1
  Sr2+  Sr46  1  0.87536791  0.87559678  0.37539605  1
  Sr2+  Sr47  1  0.87365584  0.88184846  0.88254505  1
  Sr2+  Sr48  1  0.11667229  0.38802187  0.12141714  1
  Sr2+  Sr49  1  0.12605841  0.37470291  0.62130801  1
  Sr2+  Sr50  1  0.11578790  0.87269365  0.12475041  1
  Sr2+  Sr51  1  0.11990684  0.87793120  0.62556493  1
  Sr2+  Sr52  1  0.60464482  0.37596098  0.13258804  1
  Sr2+  Sr53  1  0.61165872  0.38465419  0.62793042  1
  Sr2+  Sr54  1  0.60724657  0.87526841  0.12269373  1
  Sr2+  Sr55  1  0.61124144  0.87323465  0.62141376  1
  Sr2+  Sr56  1  0.38072350  0.13512340  0.12581150  1
  Sr2+  Sr57  1  0.36351385  0.13295264  0.62549750  1
  Sr2+  Sr58  1  0.34874025  0.61474660  0.12547125  1
  Sr2+  Sr59  1  0.36918130  0.61815689  0.62718144  1
  Sr2+  Sr60  1  0.86288782  0.12816930  0.13128615  1
  Sr2+  Sr61  1  0.86806717  0.12597091  0.63073837  1
  Sr2+  Sr62  1  0.88781806  0.62945848  0.12367804  1
  Sr2+  Sr63  1  0.87723801  0.62743063  0.62274268  1
  Ca2+  Ca64  1  0.00016917  0.49982547  0.49746818  1
  Ca2+  Ca65  1  0.50081241  0.00208331  0.50180077  1
  Ca2+  Ca66  1  0.50148170  0.50329601  -0.00052416  1
  Ca2+  Ca67  1  0.49914480  0.00194851  0.00114001  1
  Ca2+  Ca68  1  -0.00405159  0.50051112  -0.00313238  1
  Ca2+  Ca69  1  0.25037482  0.24567954  -0.00069487  1
  Ca2+  Ca70  1  0.75065731  0.25041574  -0.00033928  1
  Ca2+  Ca71  1  0.24730864  0.75345401  0.00101460  1
  Ca2+  Ca72  1  0.24740293  0.74818975  0.49960377  1
  Ca2+  Ca73  1  0.75043368  0.24947561  0.50009893  1
  Ca2+  Ca74  1  0.24800949  0.49774560  0.25254139  1
  Ca2+  Ca75  1  0.00265708  0.24818538  0.74650378  1
  Ca2+  Ca76  1  0.74765290  0.50249304  0.25313206  1
  Ca2+  Ca77  1  0.25337040  0.49524392  0.75218303  1
  Ca2+  Ca78  1  0.24532490  0.00191947  0.24893250  1
  Ca2+  Ca79  1  0.49973263  0.25139517  0.74908591  1
  Ca2+  Ca80  1  0.50326489  0.74689886  0.24853905  1
  Ca2+  Ca81  1  0.00037406  0.75103456  0.75178394  1
  Ca2+  Ca82  1  0.00191134  0.24840637  0.24883878  1
  Ca2+  Ca83  1  0.50261750  0.74508748  0.74997751  1
  Ca2+  Ca84  1  0.49707730  0.25096022  0.25575345  1
  Nb5+  Nb85  1  0.49757421  0.50121490  0.50159590  1
  Nb5+  Nb86  1  0.00004386  0.00080868  0.50494351  1
  Nb5+  Nb87  1  -0.00034729  0.00098408  0.00837248  1
  Nb5+  Nb88  1  0.75154174  0.74964879  0.49291864  1
  Nb5+  Nb89  1  0.25118493  0.24967401  0.50014088  1
  Nb5+  Nb90  1  0.75130171  0.75206866  -0.00589636  1
  Nb5+  Nb91  1  0.74605087  -0.00230872  0.74651689  1
  Nb5+  Nb92  1  0.24489593  0.00205718  0.75007591  1
  Nb5+  Nb93  1  0.74876322  0.50847692  0.74805617  1
  Nb5+  Nb94  1  0.00098365  0.75392073  0.25266070  1
  Nb5+  Nb95  1  0.74859058  -0.00647229  0.24150671  1
  Nb5+  Nb96  1  -0.00070635  -0.00281423  0.25680712  1
  Nb5+  Nb97  1  -0.00339095  -0.00285011  0.75525780  1
  Nb5+  Nb98  1  -0.00785528  0.49478259  0.25107966  1
  Nb5+  Nb99  1  0.00748468  0.49377449  0.75033624  1
  Nb5+  Nb100  1  0.49333704  0.00401513  0.24804585  1
  Nb5+  Nb101  1  0.49164518  0.00180934  0.74435169  1
  Nb5+  Nb102  1  0.50052866  0.50421121  0.24757615  1
  Nb5+  Nb103  1  0.49870594  0.50085055  0.75499627  1
  Nb5+  Nb104  1  0.25156315  0.24852095  0.24335509  1
  Nb5+  Nb105  1  0.25245199  0.24998173  0.75288071  1
  Nb5+  Nb106  1  0.25486182  0.74882804  0.25079722  1
  Nb5+  Nb107  1  0.24895631  0.74460982  0.74723033  1
  Nb5+  Nb108  1  0.75111505  0.25391779  0.25587533  1
  Nb5+  Nb109  1  0.75415575  0.26065046  0.74807798  1
  Nb5+  Nb110  1  0.74734386  0.75069516  0.24105546  1
  Nb5+  Nb111  1  0.75378257  0.75782728  0.74437174  1
  Nb5+  Nb112  1  -0.00289385  0.25095379  0.50044182  1
  Nb5+  Nb113  1  -0.00438653  0.25592937  1.00336610  1
  Nb5+  Nb114  1  0.00312507  0.75018842  0.49543372  1
  Nb5+  Nb115  1  -0.00319118  0.75516540  0.99493557  1
  Nb5+  Nb116  1  0.50475818  0.24675631  0.49881348  1
  Nb5+  Nb117  1  0.50399237  0.25184534  1.00022766  1
  Nb5+  Nb118  1  0.49411528  0.74944851  0.50527559  1
  Nb5+  Nb119  1  0.49323298  0.74836408  1.00398201  1
  Nb5+  Nb120  1  0.25181688  0.00125461  0.00689259  1
  Nb5+  Nb121  1  0.25364039  0.00121187  0.50151747  1
  Nb5+  Nb122  1  0.24668689  0.49916803  -0.00321238  1
  Nb5+  Nb123  1  0.24445969  0.50176614  0.50312352  1
  Nb5+  Nb124  1  0.74652740  -0.00382529  -0.00411957  1
  Nb5+  Nb125  1  0.74915039  -0.00264879  0.49878876  1
  Nb5+  Nb126  1  0.75529228  0.49485501  0.00056273  1
  Nb5+  Nb127  1  0.75193735  0.50115446  0.49723597  1
  O2-  O128  1  0.00040565  0.01377291  0.12310721  1
  O2-  O129  1  0.00197085  0.01799673  0.61933422  1
  O2-  O130  1  0.01642847  0.51879584  0.13540027  1
  O2-  O131  1  0.01179802  0.52237337  0.63362757  1
  O2-  O132  1  0.51964184  0.01885772  0.13416854  1
  O2-  O133  1  0.52040580  0.02459980  0.63287389  1
  O2-  O134  1  0.51890342  0.52020695  0.13479903  1
  O2-  O135  1  0.50965008  0.51928706  0.62180930  1
  O2-  O136  1  -0.00971842  -0.01957810  0.37210843  1
  O2-  O137  1  -0.00269851  -0.02302507  0.86981898  1
  O2-  O138  1  -0.03577131  0.48998266  0.36765153  1
  O2-  O139  1  -0.03043919  0.48514024  0.86247883  1
  O2-  O140  1  0.50006035  -0.02100916  0.36632761  1
  O2-  O141  1  0.48688623  -0.02010244  0.86340438  1
  O2-  O142  1  0.48765524  0.48519431  0.38445136  1
  O2-  O143  1  0.49538917  0.47485605  0.86588249  1
  O2-  O144  1  0.28083231  0.25491540  0.13223130  1
  O2-  O145  1  0.27111159  0.25939474  0.62046632  1
  O2-  O146  1  0.23194705  0.77873656  0.13624062  1
  O2-  O147  1  0.23037613  0.77763459  0.63328479  1
  O2-  O148  1  0.77291422  0.25133658  0.13650281  1
  O2-  O149  1  0.78412670  0.25459768  0.63229556  1
  O2-  O150  1  0.74019751  0.77309845  0.12781280  1
  O2-  O151  1  0.74228326  0.77199732  0.63041187  1
  O2-  O152  1  0.23341332  0.23393894  0.38306428  1
  O2-  O153  1  0.22339220  0.23258461  0.86304213  1
  O2-  O154  1  0.25573842  0.71870194  0.36667418  1
  O2-  O155  1  0.27264033  0.73561653  0.86473994  1
  O2-  O156  1  0.72989579  0.22283527  0.36773457  1
  O2-  O157  1  0.72492454  0.24429000  0.86232054  1
  O2-  O158  1  0.76344695  0.73568724  0.37923721  1
  O2-  O159  1  0.77287799  0.74000670  0.88131757  1
  O2-  O160  1  -0.01765777  0.21628086  0.11511782  1
  O2-  O161  1  -0.00896118  0.21089667  0.61044397  1
  O2-  O162  1  0.00791484  0.74398149  0.13176926  1
  O2-  O163  1  0.00673228  0.73693863  0.61182179  1
  O2-  O164  1  0.49166079  0.22979706  0.11891059  1
  O2-  O165  1  0.47817611  0.23356731  0.61285761  1
  O2-  O166  1  0.53481165  0.73957799  0.11536746  1
  O2-  O167  1  0.53355182  0.73742564  0.61535107  1
  O2-  O168  1  0.23914090  0.02138500  0.38682197  1
  O2-  O169  1  0.25110794  0.02447150  0.86444356  1
  O2-  O170  1  0.26609813  0.51656985  0.38927957  1
  O2-  O171  1  0.25151352  0.53091502  0.88127813  1
  O2-  O172  1  0.75562708  0.00626431  0.38021796  1
  O2-  O173  1  0.75638085  0.00559018  0.87491662  1
  O2-  O174  1  0.75399684  0.54106638  0.38918896  1
  O2-  O175  1  0.76146353  0.52213037  0.86384785  1
  O2-  O176  1  0.02719751  0.26557537  0.38539329  1
  O2-  O177  1  0.02093480  0.26620685  0.88510779  1
  O2-  O178  1  -0.02183378  0.76715090  0.37267696  1
  O2-  O179  1  -0.02577521  0.77086378  0.88475664  1
  O2-  O180  1  0.50238593  0.28592037  0.38816306  1
  O2-  O181  1  0.51682588  0.27611614  0.88121648  1
  O2-  O182  1  0.49276748  0.76697899  0.38746764  1
  O2-  O183  1  0.48777893  0.77273119  0.88588882  1
  O2-  O184  1  0.24687392  -0.03056770  0.11554591  1
  O2-  O185  1  0.24089392  -0.01796324  0.62239439  1
  O2-  O186  1  0.24483133  0.47810159  0.11757962  1
  O2-  O187  1  0.25514951  0.46894178  0.61701215  1
  O2-  O188  1  0.75352615  -0.01873520  0.12512449  1
  O2-  O189  1  0.75662844  -0.02111485  0.63042681  1
  O2-  O190  1  0.73858203  0.47449452  0.11315170  1
  O2-  O191  1  0.73156077  0.48756716  0.62256523  1
  O2-  O192  1  0.13422714  0.27940774  0.22779307  1
  O2-  O193  1  0.13825144  0.26139175  0.71956923  1
  O2-  O194  1  0.11483748  0.77334691  0.26688521  1
  O2-  O195  1  0.13462025  0.77037430  0.77304315  1
  O2-  O196  1  0.63492103  0.26599678  0.23339350  1
  O2-  O197  1  0.63857647  0.26026896  0.71890238  1
  O2-  O198  1  0.63862422  0.77775832  0.26856656  1
  O2-  O199  1  0.64248682  0.76416295  0.77677720  1
  O2-  O200  1  0.36425863  0.21842095  0.26965726  1
  O2-  O201  1  0.36523934  0.21327770  0.76036943  1
  O2-  O202  1  0.36650412  0.73216048  0.22878642  1
  O2-  O203  1  0.36751519  0.74141641  0.72305665  1
  O2-  O204  1  0.86819203  0.22276482  0.26995631  1
  O2-  O205  1  0.86625682  0.22399312  0.77177989  1
  O2-  O206  1  0.87037288  0.73468005  0.24318668  1
  O2-  O207  1  0.86489052  0.71980621  0.74348889  1
  O2-  O208  1  0.26928915  0.36318038  0.27415880  1
  O2-  O209  1  0.28113497  0.36069239  0.76811701  1
  O2-  O210  1  0.26666326  0.86532085  0.28084526  1
  O2-  O211  1  0.27101932  0.88535364  0.76157552  1
  O2-  O212  1  0.77519909  0.36599171  0.27193031  1
  O2-  O213  1  0.77266208  0.37562916  0.75820395  1
  O2-  O214  1  0.77637099  0.87669909  0.26219518  1
  O2-  O215  1  0.78047156  0.87257774  0.76194872  1
  O2-  O216  1  0.21296933  0.13467573  0.24171780  1
  O2-  O217  1  0.23469018  0.11765127  0.72335643  1
  O2-  O218  1  0.21967429  0.63526471  0.22909621  1
  O2-  O219  1  0.22910930  0.63230654  0.72833001  1
  O2-  O220  1  0.73406920  0.11093578  0.23775768  1
  O2-  O221  1  0.73472348  0.11250326  0.73737600  1
  O2-  O222  1  0.72446530  0.63837867  0.23181416  1
  O2-  O223  1  0.72933004  0.62386049  0.73400070  1
  O2-  O224  1  0.10928645  0.48798433  0.27778562  1
  O2-  O225  1  0.11762482  0.46294087  0.76156032  1
  O2-  O226  1  0.11023333  0.96621049  0.24772208  1
  O2-  O227  1  0.12749270  0.98025962  0.75188027  1
  O2-  O228  1  0.61513408  0.47236793  0.26810456  1
  O2-  O229  1  0.63333285  0.47302037  0.75696926  1
  O2-  O230  1  0.63533040  0.97333612  0.25648025  1
  O2-  O231  1  0.63478625  0.97293798  0.75494604  1
  O2-  O232  1  0.38110209  0.02902216  0.24535903  1
  O2-  O233  1  0.37529830  0.01721778  0.73434737  1
  O2-  O234  1  0.38239682  0.52938582  0.24755173  1
  O2-  O235  1  0.38766448  0.53341830  0.74999073  1
  O2-  O236  1  0.87477002  0.01425740  0.24656763  1
  O2-  O237  1  0.87877361  0.01501826  0.75077534  1
  O2-  O238  1  0.87965901  0.53304776  0.23450137  1
  O2-  O239  1  0.86503468  0.51700417  0.72688202  1
  O2-  O240  1  0.47206881  0.38682272  0.23504150  1
  O2-  O241  1  0.48692904  0.38723211  0.72031833  1
  O2-  O242  1  0.47936283  0.88429114  0.23069434  1
  O2-  O243  1  0.49146852  0.88446386  0.72487144  1
  O2-  O244  1  0.97016977  0.38273183  0.23272303  1
  O2-  O245  1  0.97220653  0.38114161  0.72801509  1
  O2-  O246  1  0.97258729  0.87308980  0.23670797  1
  O2-  O247  1  0.99014848  0.88587678  0.71763347  1
  O2-  O248  1  0.01868075  0.11021511  0.26598295  1
  O2-  O249  1  0.02305763  0.11063683  0.76188984  1
  O2-  O250  1  0.01198479  0.63642421  0.26692437  1
  O2-  O251  1  0.02313429  0.61414116  0.77158150  1
  O2-  O252  1  0.53026292  0.11586357  0.26697661  1
  O2-  O253  1  0.52568184  0.11385896  0.77083613  1
  O2-  O254  1  0.52051995  0.61682128  0.28200948  1
  O2-  O255  1  0.53877072  0.61209805  0.76175802  1
  O2-  O256  1  0.12859455  0.47442889  -0.01287378  1
  O2-  O257  1  0.13448798  0.46974208  0.48935657  1
  O2-  O258  1  0.11500402  0.97533593  -0.00451889  1
  O2-  O259  1  0.11786240  0.98181912  0.49998408  1
  O2-  O260  1  0.64062005  0.49873374  -0.02422086  1
  O2-  O261  1  0.62349365  0.49289190  0.49295671  1
  O2-  O262  1  0.63601244  0.96834922  -0.00701002  1
  O2-  O263  1  0.63736355  0.96700434  0.49918356  1
  O2-  O264  1  0.36258338  0.03262253  0.00603824  1
  O2-  O265  1  0.36563931  0.02655182  0.50631728  1
  O2-  O266  1  0.36644790  0.52507461  0.00496038  1
  O2-  O267  1  0.37903813  0.51775313  0.51129157  1
  O2-  O268  1  0.87793434  0.01214801  -0.00495762  1
  O2-  O269  1  0.87404858  0.01262064  0.50545660  1
  O2-  O270  1  0.86322692  0.53964078  0.00476822  1
  O2-  O271  1  0.86368389  0.51580244  0.52312068  1
  O2-  O272  1  0.47695190  0.36965719  0.02155902  1
  O2-  O273  1  0.48789033  0.38352728  0.52091793  1
  O2-  O274  1  0.48152793  0.86767025  0.02409093  1
  O2-  O275  1  0.47998807  0.86548873  0.52213893  1
  O2-  O276  1  0.97132818  0.36636744  0.02512208  1
  O2-  O277  1  0.98357344  0.36216017  0.52580569  1
  O2-  O278  1  0.97775266  0.87941955  0.01792688  1
  O2-  O279  1  0.97752836  0.88075540  0.50816608  1
  O2-  O280  1  0.01399397  0.11407077  -0.02055149  1
  O2-  O281  1  0.01011728  0.11400099  0.47262563  1
  O2-  O282  1  0.01471416  0.64042113  -0.01136072  1
  O2-  O283  1  0.01980099  0.63802493  0.47351693  1
  O2-  O284  1  0.52932275  0.13461402  -0.01922157  1
  O2-  O285  1  0.52186027  0.13646772  0.47216087  1
  O2-  O286  1  0.52664012  0.63799657  -0.02235892  1
  O2-  O287  1  0.51627316  0.62460291  0.48527864  1
  O2-  O288  1  0.11447155  0.26668199  0.02430373  1
  O2-  O289  1  0.12934368  0.25937148  0.51865077  1
  O2-  O290  1  0.11088214  0.77909416  -0.00800151  1
  O2-  O291  1  0.11309415  0.78314016  0.48621793  1
  O2-  O292  1  0.62044535  0.27968739  0.01843270  1
  O2-  O293  1  0.61597106  0.27089094  0.52142418  1
  O2-  O294  1  0.63806599  0.77671694  -0.01424773  1
  O2-  O295  1  0.63469492  0.76718291  0.48567035  1
  O2-  O296  1  0.38525185  0.22844589  -0.02080673  1
  O2-  O297  1  0.37062509  0.23062694  0.48626323  1
  O2-  O298  1  0.38235328  0.72635035  0.02423631  1
  O2-  O299  1  0.38296290  0.72463951  0.51919469  1
  O2-  O300  1  0.88335051  0.22754619  -0.02455311  1
  O2-  O301  1  0.88588476  0.23336662  0.47201733  1
  O2-  O302  1  0.87484997  0.74485637  0.02454166  1
  O2-  O303  1  0.87480646  0.73879030  0.50941821  1
  O2-  O304  1  0.26936784  0.38214534  -0.02439677  1
  O2-  O305  1  0.26756211  0.36692028  0.48445952  1
  O2-  O306  1  0.26197371  0.89034472  -0.03425563  1
  O2-  O307  1  0.27136772  0.88653804  0.48229409  1
  O2-  O308  1  0.78101623  0.38692489  -0.02560700  1
  O2-  O309  1  0.76259033  0.38894731  0.47176759  1
  O2-  O310  1  0.77816062  0.87578806  -0.00484186  1
  O2-  O311  1  0.77506974  0.87065004  0.49445915  1
  O2-  O312  1  0.21002042  0.11054490  0.01094128  1
  O2-  O313  1  0.23175095  0.12538557  0.51914596  1
  O2-  O314  1  0.22209409  0.61934043  0.01969747  1
  O2-  O315  1  0.22599720  0.61265845  0.52927340  1
  O2-  O316  1  0.73379677  0.10958718  0.01373974  1
  O2-  O317  1  0.73111148  0.10896042  0.52120698  1
  O2-  O318  1  0.73420649  0.63802858  0.01429413  1
  O2-  O319  1  0.73870383  0.63642996  0.52580543  1
