# generated using pymatgen
data_Sr64Ca21Nb43O192
_symmetry_space_group_name_H-M   'P 1'
_cell_length_a   16.60526238
_cell_length_b   16.56767855
_cell_length_c   16.77513433
_cell_angle_alpha   90.02943906
_cell_angle_beta   90.04233654
_cell_angle_gamma   90.00180351
_symmetry_Int_Tables_number   1
_chemical_formula_structural   Sr64Ca21Nb43O192
_chemical_formula_sum   'Sr64 Ca21 Nb43 O192'
_cell_volume   4615.01622833
_cell_formula_units_Z   1
loop_
 _symmetry_equiv_pos_site_id
 _symmetry_equiv_pos_as_xyz
  1  'x, y, z'
loop_
 _atom_type_symbol
 _atom_type_oxidation_number
  Sr2+  2.0
  Ca2+  2.0
  Nb5+  5.0
  O2-  -2.0
loop_
 _atom_site_type_symbol
 _atom_site_label
 _atom_site_symmetry_multiplicity
 _atom_site_fract_x
 _atom_site_fract_y
 _atom_site_fract_z
 _atom_site_occupancy
  Sr2+  Sr0  1  0.12587483  0.13369581  0.12099204  1
  Sr2+  Sr1  1  0.12099527  0.12107942  0.62604256  1
  Sr2+  Sr2  1  0.11869700  0.63302996  0.12769176  1
  Sr2+  Sr3  1  0.12441484  0.61885317  0.62129976  1
  Sr2+  Sr4  1  0.63101569  0.11882665  0.12512394  1
  Sr2+  Sr5  1  0.62007087  0.11512530  0.63180362  1
  Sr2+  Sr6  1  0.62689040  0.63153290  0.10471396  1
  Sr2+  Sr7  1  0.62927797  0.62941435  0.63313023  1
  Sr2+  Sr8  1  0.36299453  0.39051513  0.12064709  1
  Sr2+  Sr9  1  0.36754597  0.36536525  0.62921270  1
  Sr2+  Sr10  1  0.37782481  0.87159204  0.11343273  1
  Sr2+  Sr11  1  0.37631511  0.86840033  0.63135704  1
  Sr2+  Sr12  1  0.88555705  0.36074514  0.11950894  1
  Sr2+  Sr13  1  0.89007493  0.36929724  0.63809340  1
  Sr2+  Sr14  1  0.88069894  0.86731772  0.12698959  1
  Sr2+  Sr15  1  0.88366222  0.87347953  0.62371882  1
  Sr2+  Sr16  1  0.10498708  0.37497590  0.37810804  1
  Sr2+  Sr17  1  0.09925916  0.37172992  0.87807427  1
  Sr2+  Sr18  1  0.12447447  0.87426018  0.37405001  1
  Sr2+  Sr19  1  0.12371837  0.87426492  0.85138871  1
  Sr2+  Sr20  1  0.62066189  0.37564281  0.37845939  1
  Sr2+  Sr21  1  0.63971215  0.38017647  0.86966612  1
  Sr2+  Sr22  1  0.62859882  0.87413813  0.37989238  1
  Sr2+  Sr23  1  0.61764100  0.87766911  0.89794001  1
  Sr2+  Sr24  1  0.38039355  0.13336073  0.37144976  1
  Sr2+  Sr25  1  0.38793314  0.12534560  0.88347954  1
  Sr2+  Sr26  1  0.38723185  0.61205736  0.37629981  1
  Sr2+  Sr27  1  0.39051664  0.62553161  0.87149153  1
  Sr2+  Sr28  1  0.86871098  0.13595837  0.36776866  1
  Sr2+  Sr29  1  0.86415457  0.13532084  0.87568264  1
  Sr2+  Sr30  1  0.88480910  0.62613326  0.37234890  1
  Sr2+  Sr31  1  0.86274338  0.61030979  0.87416825  1
  Sr2+  Sr32  1  0.12051912  0.13187315  0.37784381  1
  Sr2+  Sr33  1  0.10846900  0.12734616  0.87659966  1
  Sr2+  Sr34  1  0.11829258  0.61712856  0.37491277  1
  Sr2+  Sr35  1  0.11452937  0.60903521  0.87279404  1
  Sr2+  Sr36  1  0.62017196  0.13350393  0.36860431  1
  Sr2+  Sr37  1  0.62278415  0.14264719  0.87539919  1
  Sr2+  Sr38  1  0.62359263  0.59637231  0.37827974  1
  Sr2+  Sr39  1  0.62652528  0.64742839  0.87340394  1
  Sr2+  Sr40  1  0.37783487  0.37690115  0.37371018  1
  Sr2+  Sr41  1  0.37627006  0.37160192  0.87404407  1
  Sr2+  Sr42  1  0.38279532  0.87512940  0.37417273  1
  Sr2+  Sr43  1  0.37997601  0.86193305  0.87678308  1
  Sr2+  Sr44  1  0.87442753  0.37488669  0.37551474  1
  Sr2+  Sr45  1  0.87685396  0.37508447  0.88570114  1
  Sr2+  Sr46  1  0.87759383  0.87332749  0.37166060  1
  Sr2+  Sr47  1  0.87539616  0.88453143  0.86376200  1
  Sr2+  Sr48  1  0.12414861  0.37828798  0.09963209  1
  Sr2+  Sr49  1  0.12935693  0.37384813  0.64474935  1
  Sr2+  Sr50  1  0.14314112  0.87484948  0.13177548  1
  Sr2+  Sr51  1  0.14742940  0.87582433  0.62053952  1
  Sr2+  Sr52  1  0.64507375  0.37998519  0.12403536  1
  Sr2+  Sr53  1  0.62481571  0.36019155  0.63159922  1
  Sr2+  Sr54  1  0.64331616  0.87419975  0.12758825  1
  Sr2+  Sr55  1  0.64982193  0.87792434  0.62292334  1
  Sr2+  Sr56  1  0.36869198  0.11757856  0.12801312  1
  Sr2+  Sr57  1  0.36840029  0.12234683  0.62620536  1
  Sr2+  Sr58  1  0.36257485  0.62736820  0.12322892  1
  Sr2+  Sr59  1  0.36864943  0.62178624  0.63071495  1
  Sr2+  Sr60  1  0.88550016  0.11553042  0.12154642  1
  Sr2+  Sr61  1  0.87023537  0.11241029  0.63600362  1
  Sr2+  Sr62  1  0.87644645  0.63021221  0.11718245  1
  Sr2+  Sr63  1  0.87185486  0.63091323  0.62840778  1
  Ca2+  Ca64  1  0.00219057  -0.01052997  0.00024177  1
  Ca2+  Ca65  1  -0.00015244  0.00247095  0.49956705  1
  Ca2+  Ca66  1  -0.00007457  0.50530056  0.00360526  1
  Ca2+  Ca67  1  -0.00059385  0.49844179  0.50281124  1
  Ca2+  Ca68  1  0.50254776  0.49540112  -0.00171454  1
  Ca2+  Ca69  1  0.24230116  0.74919348  -0.00152574  1
  Ca2+  Ca70  1  0.25478995  0.24727121  -0.00093854  1
  Ca2+  Ca71  1  0.74628594  0.25053678  0.00263098  1
  Ca2+  Ca72  1  0.74866839  0.24809226  0.50400479  1
  Ca2+  Ca73  1  0.75799695  0.75121754  -0.00035883  1
  Ca2+  Ca74  1  0.25277877  0.00282505  0.75024359  1
  Ca2+  Ca75  1  0.49890575  0.74834805  0.25090443  1
  Ca2+  Ca76  1  0.49867249  0.25498465  0.24756798  1
  Ca2+  Ca77  1  0.75056431  0.50310878  0.24940312  1
  Ca2+  Ca78  1  0.74993831  0.50033486  0.74498170  1
  Ca2+  Ca79  1  0.00085500  0.24721196  0.75001903  1
  Ca2+  Ca80  1  0.00072466  0.74651080  0.74534416  1
  Ca2+  Ca81  1  0.74713134  0.00027783  0.75392714  1
  Ca2+  Ca82  1  0.50132504  0.75317032  0.74476742  1
  Ca2+  Ca83  1  0.00112021  0.24866387  0.24970026  1
  Ca2+  Ca84  1  0.25060987  0.49889114  0.75146098  1
  Nb5+  Nb85  1  0.49915817  0.49308878  0.50844814  1
  Nb5+  Nb86  1  0.49563297  -0.00482919  0.50427020  1
  Nb5+  Nb87  1  0.50044284  0.00249757  0.00928001  1
  Nb5+  Nb88  1  0.75684275  0.74890100  0.49496964  1
  Nb5+  Nb89  1  0.24904301  0.24807928  0.49816927  1
  Nb5+  Nb90  1  0.25489619  0.74485670  0.49361744  1
  Nb5+  Nb91  1  0.24650323  0.50574248  0.25155378  1
  Nb5+  Nb92  1  0.49846269  0.25006616  0.74987210  1
  Nb5+  Nb93  1  0.25371933  0.00517058  0.25336697  1
  Nb5+  Nb94  1  0.75826356  0.00133577  0.25221535  1
  Nb5+  Nb95  1  0.00045933  0.75046762  0.24991602  1
  Nb5+  Nb96  1  0.01077705  -0.00064993  0.24830550  1
  Nb5+  Nb97  1  0.00156827  -0.00121281  0.74893301  1
  Nb5+  Nb98  1  -0.00486881  0.49994046  0.24856809  1
  Nb5+  Nb99  1  -0.00078417  0.50028495  0.75049381  1
  Nb5+  Nb100  1  0.50550290  -0.00410866  0.25510996  1
  Nb5+  Nb101  1  0.49837099  -0.00000527  0.75920201  1
  Nb5+  Nb102  1  0.50061866  0.50108482  0.24275204  1
  Nb5+  Nb103  1  0.50274724  0.49955194  0.75162234  1
  Nb5+  Nb104  1  0.25033365  0.26196896  0.25071645  1
  Nb5+  Nb105  1  0.25282745  0.24590274  0.75532795  1
  Nb5+  Nb106  1  0.25093106  0.75326930  0.25801549  1
  Nb5+  Nb107  1  0.24565574  0.74413137  0.75591580  1
  Nb5+  Nb108  1  0.75139394  0.25462792  0.24956349  1
  Nb5+  Nb109  1  0.75306563  0.24921721  0.74561887  1
  Nb5+  Nb110  1  0.74830259  0.74723931  0.25514193  1
  Nb5+  Nb111  1  0.74909911  0.75436660  0.75452775  1
  Nb5+  Nb112  1  -0.00784159  0.24533522  0.50373049  1
  Nb5+  Nb113  1  0.00000671  0.24305072  1.00176549  1
  Nb5+  Nb114  1  0.00727762  0.75249772  0.49986343  1
  Nb5+  Nb115  1  0.00321815  0.75048548  0.98829230  1
  Nb5+  Nb116  1  0.49931181  0.24332772  0.50216578  1
  Nb5+  Nb117  1  0.50121455  0.25383393  1.00879236  1
  Nb5+  Nb118  1  0.50559215  0.74672728  0.49677686  1
  Nb5+  Nb119  1  0.49804256  0.74642935  0.99889816  1
  Nb5+  Nb120  1  0.24624400  0.00081996  -0.00274537  1
  Nb5+  Nb121  1  0.25290997  -0.00364398  0.49537288  1
  Nb5+  Nb122  1  0.25350466  0.50553500  -0.00840285  1
  Nb5+  Nb123  1  0.25198296  0.49241667  0.49650813  1
  Nb5+  Nb124  1  0.75279767  0.00033747  -0.00202703  1
  Nb5+  Nb125  1  0.75157442  0.00491060  0.49446158  1
  Nb5+  Nb126  1  0.74912026  0.49952996  0.00336101  1
  Nb5+  Nb127  1  0.75586821  0.49638381  0.50500813  1
  O2-  O128  1  -0.02537618  -0.01606786  0.13766370  1
  O2-  O129  1  -0.02949152  0.00071091  0.63177508  1
  O2-  O130  1  0.03402180  0.50060667  0.13885972  1
  O2-  O131  1  0.01808249  0.47679568  0.63319224  1
  O2-  O132  1  0.48838360  0.01123953  0.12501605  1
  O2-  O133  1  0.48178231  0.01504426  0.61574571  1
  O2-  O134  1  0.51219349  0.52469755  0.13378626  1
  O2-  O135  1  0.50234631  0.53093412  0.61896827  1
  O2-  O136  1  0.01510320  0.00233999  0.36424759  1
  O2-  O137  1  0.03100280  -0.00639710  0.86707280  1
  O2-  O138  1  -0.00621281  0.50901863  0.36567628  1
  O2-  O139  1  -0.01503277  0.51762293  0.86909307  1
  O2-  O140  1  0.51069407  -0.01423914  0.37158319  1
  O2-  O141  1  0.51271718  -0.00366611  0.87419195  1
  O2-  O142  1  0.49257698  0.48498035  0.38840971  1
  O2-  O143  1  0.49518223  0.46994993  0.86204793  1
  O2-  O144  1  0.22973207  0.27018148  0.13844826  1
  O2-  O145  1  0.24110687  0.26962925  0.61339571  1
  O2-  O146  1  0.26395661  0.76365299  0.14288794  1
  O2-  O147  1  0.26531780  0.76795027  0.60644157  1
  O2-  O148  1  0.71867560  0.23751492  0.13756343  1
  O2-  O149  1  0.71852093  0.22533702  0.63463982  1
  O2-  O150  1  0.76178074  0.73125655  0.14029049  1
  O2-  O151  1  0.76366459  0.74071055  0.61105483  1
  O2-  O152  1  0.27876198  0.24496506  0.38124724  1
  O2-  O153  1  0.27704146  0.22558638  0.86397685  1
  O2-  O154  1  0.21561696  0.74136793  0.37734265  1
  O2-  O155  1  0.21883044  0.73006732  0.86478180  1
  O2-  O156  1  0.77760262  0.26042837  0.36949688  1
  O2-  O157  1  0.76430410  0.27068016  0.86466319  1
  O2-  O158  1  0.74783149  0.78259433  0.37608585  1
  O2-  O159  1  0.73064036  0.77671371  0.86577298  1
  O2-  O160  1  0.02478667  0.26131365  0.11853341  1
  O2-  O161  1  0.02575787  0.26744149  0.61510396  1
  O2-  O162  1  -0.01917472  0.74781238  0.13525671  1
  O2-  O163  1  -0.02487503  0.75067340  0.61009283  1
  O2-  O164  1  0.53315247  0.24456107  0.11643068  1
  O2-  O165  1  0.51654706  0.23278728  0.62246831  1
  O2-  O166  1  0.47348807  0.73797105  0.11475836  1
  O2-  O167  1  0.46940813  0.74300033  0.60758775  1
  O2-  O168  1  0.23015890  0.01335526  0.37318580  1
  O2-  O169  1  0.23020365  0.02210822  0.88704934  1
  O2-  O170  1  0.27269891  0.51090034  0.37437166  1
  O2-  O171  1  0.26988650  0.53345703  0.88324474  1
  O2-  O172  1  0.73609310  -0.01967572  0.37109569  1
  O2-  O173  1  0.73620131  -0.02663831  0.88812855  1
  O2-  O174  1  0.73992630  0.48041562  0.38789095  1
  O2-  O175  1  0.76504585  0.47977051  0.88350026  1
  O2-  O176  1  -0.01800247  0.23580280  0.38332422  1
  O2-  O177  1  -0.01918676  0.23305153  0.88384817  1
  O2-  O178  1  0.00877834  0.74519122  0.37440409  1
  O2-  O179  1  0.03014878  0.75112945  0.87855532  1
  O2-  O180  1  0.47965074  0.26178180  0.38749600  1
  O2-  O181  1  0.47461231  0.25357655  0.86408513  1
  O2-  O182  1  0.50446660  0.78005471  0.38561108  1
  O2-  O183  1  0.51749839  0.76782684  0.88029510  1
  O2-  O184  1  0.27038037  -0.02340736  0.14137710  1
  O2-  O185  1  0.27900199  -0.01412251  0.60780201  1
  O2-  O186  1  0.23816678  0.48078571  0.13935325  1
  O2-  O187  1  0.24080016  0.48856507  0.61077723  1
  O2-  O188  1  0.75588448  0.01999005  0.13479424  1
  O2-  O189  1  0.75253862  0.01416903  0.61092260  1
  O2-  O190  1  0.72727530  0.52541173  0.12014526  1
  O2-  O191  1  0.74318974  0.53986506  0.61094619  1
  O2-  O192  1  0.13883311  0.25459194  0.28546891  1
  O2-  O193  1  0.13929648  0.26773449  0.76692428  1
  O2-  O194  1  0.12085751  0.76484731  0.23985375  1
  O2-  O195  1  0.13575827  0.77228035  0.72117162  1
  O2-  O196  1  0.63454928  0.26114974  0.28183514  1
  O2-  O197  1  0.61697907  0.26840094  0.76416291  1
  O2-  O198  1  0.63503352  0.77254387  0.24514434  1
  O2-  O199  1  0.63396364  0.76470112  0.71701353  1
  O2-  O200  1  0.36121061  0.22390973  0.23872419  1
  O2-  O201  1  0.38067169  0.23317201  0.72474152  1
  O2-  O202  1  0.36022925  0.73312975  0.28092359  1
  O2-  O203  1  0.36581888  0.72703909  0.76242632  1
  O2-  O204  1  0.86426114  0.21815066  0.23073501  1
  O2-  O205  1  0.86613755  0.23123619  0.72610895  1
  O2-  O206  1  0.87677701  0.74430411  0.26759851  1
  O2-  O207  1  0.86338441  0.72387893  0.75931471  1
  O2-  O208  1  0.26924399  0.37638905  0.26629620  1
  O2-  O209  1  0.27950734  0.36222266  0.75254293  1
  O2-  O210  1  0.25385862  0.87180065  0.27594925  1
  O2-  O211  1  0.27105160  0.86458137  0.76127238  1
  O2-  O212  1  0.77349652  0.36712675  0.23195613  1
  O2-  O213  1  0.75850327  0.36536214  0.72003606  1
  O2-  O214  1  0.76578125  0.88075050  0.23514898  1
  O2-  O215  1  0.77357787  0.86803498  0.72549077  1
  O2-  O216  1  0.23163902  0.11768252  0.23794111  1
  O2-  O217  1  0.24040342  0.13594367  0.71496251  1
  O2-  O218  1  0.22906837  0.62496595  0.24447297  1
  O2-  O219  1  0.23674806  0.63319023  0.71622868  1
  O2-  O220  1  0.73104112  0.11616753  0.26992137  1
  O2-  O221  1  0.73247839  0.13299927  0.77465896  1
  O2-  O222  1  0.74023394  0.63776576  0.28681303  1
  O2-  O223  1  0.72438320  0.63562654  0.76162421  1
  O2-  O224  1  0.13235033  0.48860344  0.27690486  1
  O2-  O225  1  0.11952444  0.47311728  0.77091216  1
  O2-  O226  1  0.12651987  0.97954340  0.23832207  1
  O2-  O227  1  0.11946643  0.97588398  0.72349594  1
  O2-  O228  1  0.61206986  0.47206962  0.26041145  1
  O2-  O229  1  0.61510177  0.47313174  0.73229644  1
  O2-  O230  1  0.62028551  0.98151404  0.23999074  1
  O2-  O231  1  0.61029064  0.98783587  0.72405985  1
  O2-  O232  1  0.36853830  0.01562136  0.27155490  1
  O2-  O233  1  0.38652300  0.03492917  0.75816180  1
  O2-  O234  1  0.36893595  0.52522374  0.24005494  1
  O2-  O235  1  0.38644070  0.51144422  0.73475998  1
  O2-  O236  1  0.87223717  0.01368133  0.26813998  1
  O2-  O237  1  0.88389531  0.02436546  0.77699188  1
  O2-  O238  1  0.88529664  0.53008223  0.23377362  1
  O2-  O239  1  0.88379166  0.52334112  0.73079278  1
  O2-  O240  1  0.46263229  0.38876913  0.24159911  1
  O2-  O241  1  0.48518381  0.36725255  0.72448948  1
  O2-  O242  1  0.46797018  0.88635753  0.23658962  1
  O2-  O243  1  0.46999078  0.88831246  0.74655451  1
  O2-  O244  1  0.97609613  0.38482185  0.25590443  1
  O2-  O245  1  0.97461899  0.38042694  0.76892556  1
  O2-  O246  1  0.98914288  0.87136558  0.26071514  1
  O2-  O247  1  0.97476658  0.88069476  0.75298836  1
  O2-  O248  1  0.02096142  0.11345879  0.23531136  1
  O2-  O249  1  0.02942542  0.11633895  0.74505544  1
  O2-  O250  1  0.01824233  0.63054184  0.25341244  1
  O2-  O251  1  0.03272899  0.61470364  0.73706019  1
  O2-  O252  1  0.50637186  0.11406800  0.25847170  1
  O2-  O253  1  0.52197376  0.12864076  0.75607183  1
  O2-  O254  1  0.50905137  0.61329772  0.28181106  1
  O2-  O255  1  0.51971290  0.61385994  0.77032873  1
  O2-  O256  1  0.13752081  0.47889219  -0.01719913  1
  O2-  O257  1  0.13887068  0.49077535  0.47579638  1
  O2-  O258  1  0.13794484  0.98516613  0.03040034  1
  O2-  O259  1  0.13917948  0.98954272  0.51464806  1
  O2-  O260  1  0.63272887  0.46426528  -0.00391437  1
  O2-  O261  1  0.61881494  0.48846845  0.50190026  1
  O2-  O262  1  0.61873082  0.97858056  0.01818810  1
  O2-  O263  1  0.61256531  0.98110208  0.50505381  1
  O2-  O264  1  0.38175719  0.01666614  -0.00679023  1
  O2-  O265  1  0.37760247  0.01561974  0.47096351  1
  O2-  O266  1  0.36866347  0.51739222  0.02498211  1
  O2-  O267  1  0.37657966  0.52101976  0.50712740  1
  O2-  O268  1  0.86425047  0.02542542  -0.01220467  1
  O2-  O269  1  0.86247794  0.02278299  0.47849260  1
  O2-  O270  1  0.86645765  0.52105048  0.01700811  1
  O2-  O271  1  0.86470155  0.53165410  0.49466542  1
  O2-  O272  1  0.46636630  0.36278072  0.01020019  1
  O2-  O273  1  0.48359490  0.37949446  0.52502431  1
  O2-  O274  1  0.48307741  0.88117232  0.00152874  1
  O2-  O275  1  0.47307895  0.88095655  0.50983489  1
  O2-  O276  1  0.98687059  0.36669805  -0.00600611  1
  O2-  O277  1  0.98268419  0.36418048  0.48173904  1
  O2-  O278  1  0.95558647  0.86080409  -0.00737886  1
  O2-  O279  1  0.97779521  0.86704209  0.48669529  1
  O2-  O280  1  0.01880900  0.12552754  0.01416285  1
  O2-  O281  1  0.03563786  0.13505724  0.50430566  1
  O2-  O282  1  0.03586849  0.63614640  0.00647606  1
  O2-  O283  1  0.02167991  0.63447803  0.49852568  1
  O2-  O284  1  0.52233171  0.11788991  -0.00929734  1
  O2-  O285  1  0.50978205  0.12595914  0.48566074  1
  O2-  O286  1  0.51755641  0.63267960  -0.01931261  1
  O2-  O287  1  0.51240012  0.63165344  0.48053176  1
  O2-  O288  1  0.12056057  0.25638635  -0.02241890  1
  O2-  O289  1  0.13757103  0.26564843  0.47686315  1
  O2-  O290  1  0.11110693  0.78418352  0.02539703  1
  O2-  O291  1  0.12313439  0.77201279  0.50993091  1
  O2-  O292  1  0.60970191  0.26579756  -0.03522775  1
  O2-  O293  1  0.61181338  0.27366623  0.48913442  1
  O2-  O294  1  0.61551429  0.76837996  0.02001389  1
  O2-  O295  1  0.61885061  0.76982598  0.51153829  1
  O2-  O296  1  0.39053721  0.21360960  0.01219163  1
  O2-  O297  1  0.37878817  0.24155338  0.52104564  1
  O2-  O298  1  0.38023159  0.73947639  -0.02651392  1
  O2-  O299  1  0.36726742  0.73901544  0.47053451  1
  O2-  O300  1  0.88164316  0.23011858  0.02338084  1
  O2-  O301  1  0.88336049  0.22062643  0.52833000  1
  O2-  O302  1  0.88750774  0.71068391  -0.01269807  1
  O2-  O303  1  0.87058070  0.73416385  0.47977172  1
  O2-  O304  1  0.27521536  0.38503492  -0.00797965  1
  O2-  O305  1  0.27358538  0.37795659  0.48638813  1
  O2-  O306  1  0.27619425  0.88626442  -0.00736959  1
  O2-  O307  1  0.26148450  0.87810938  0.47495743  1
  O2-  O308  1  0.77088343  0.38186115  0.03067862  1
  O2-  O309  1  0.77364099  0.38633511  0.52970867  1
  O2-  O310  1  0.76147231  0.88642016  0.03293340  1
  O2-  O311  1  0.75632552  0.87806494  0.50902476  1
  O2-  O312  1  0.24874314  0.11228118  0.03729801  1
  O2-  O313  1  0.24501913  0.12808393  0.50572500  1
  O2-  O314  1  0.23405472  0.61560197  0.03364892  1
  O2-  O315  1  0.23806070  0.62949498  0.50614600  1
  O2-  O316  1  0.71872474  0.11346738  -0.00577895  1
  O2-  O317  1  0.71752360  0.11400229  0.47797980  1
  O2-  O318  1  0.72312859  0.61751761  -0.01955015  1
  O2-  O319  1  0.72570661  0.63950399  0.47656264  1
