# generated using pymatgen
data_Sr64Ca21Nb43O192
_symmetry_space_group_name_H-M   'P 1'
_cell_length_a   16.58935466
_cell_length_b   16.57943152
_cell_length_c   16.78059429
_cell_angle_alpha   90.06600459
_cell_angle_beta   89.99945791
_cell_angle_gamma   89.82810012
_symmetry_Int_Tables_number   1
_chemical_formula_structural   Sr64Ca21Nb43O192
_chemical_formula_sum   'Sr64 Ca21 Nb43 O192'
_cell_volume   4615.34554741
_cell_formula_units_Z   1
loop_
 _symmetry_equiv_pos_site_id
 _symmetry_equiv_pos_as_xyz
  1  'x, y, z'
loop_
 _atom_type_symbol
 _atom_type_oxidation_number
  Sr2+  2.0
  Ca2+  2.0
  Nb5+  5.0
  O2-  -2.0
loop_
 _atom_site_type_symbol
 _atom_site_label
 _atom_site_symmetry_multiplicity
 _atom_site_fract_x
 _atom_site_fract_y
 _atom_site_fract_z
 _atom_site_occupancy
  Sr2+  Sr0  1  0.12194096  0.15226269  0.12610727  1
  Sr2+  Sr1  1  0.12388309  0.13137579  0.62476563  1
  Sr2+  Sr2  1  0.12804932  0.63605570  0.13465752  1
  Sr2+  Sr3  1  0.12690595  0.61852465  0.62149741  1
  Sr2+  Sr4  1  0.62793861  0.12832474  0.12223046  1
  Sr2+  Sr5  1  0.62808162  0.11586447  0.62242876  1
  Sr2+  Sr6  1  0.62766145  0.62092812  0.12197638  1
  Sr2+  Sr7  1  0.61694862  0.62090978  0.62748620  1
  Sr2+  Sr8  1  0.37985905  0.37477664  0.12206361  1
  Sr2+  Sr9  1  0.37793474  0.36918598  0.62774939  1
  Sr2+  Sr10  1  0.38000637  0.87433785  0.12522616  1
  Sr2+  Sr11  1  0.36518784  0.86434304  0.62681158  1
  Sr2+  Sr12  1  0.87564541  0.37135568  0.12182377  1
  Sr2+  Sr13  1  0.88271119  0.38238715  0.62773510  1
  Sr2+  Sr14  1  0.88387396  0.85316141  0.12133158  1
  Sr2+  Sr15  1  0.88150056  0.86517616  0.63065067  1
  Sr2+  Sr16  1  0.12708978  0.37191674  0.37164649  1
  Sr2+  Sr17  1  0.11184495  0.37378945  0.87081429  1
  Sr2+  Sr18  1  0.12066345  0.87864866  0.37296312  1
  Sr2+  Sr19  1  0.14359572  0.88106823  0.88051524  1
  Sr2+  Sr20  1  0.62650850  0.36730115  0.36886598  1
  Sr2+  Sr21  1  0.62290122  0.37874301  0.87216495  1
  Sr2+  Sr22  1  0.61434802  0.88054696  0.36678590  1
  Sr2+  Sr23  1  0.63191888  0.88038134  0.87866684  1
  Sr2+  Sr24  1  0.39825382  0.12850641  0.37738166  1
  Sr2+  Sr25  1  0.37158145  0.12195037  0.86578952  1
  Sr2+  Sr26  1  0.38817513  0.63794518  0.37484437  1
  Sr2+  Sr27  1  0.37960033  0.62638023  0.88972487  1
  Sr2+  Sr28  1  0.85724960  0.12228978  0.37714999  1
  Sr2+  Sr29  1  0.87800310  0.12993753  0.87558234  1
  Sr2+  Sr30  1  0.87124012  0.63066479  0.37483114  1
  Sr2+  Sr31  1  0.86488901  0.62949594  0.87271537  1
  Sr2+  Sr32  1  0.12484973  0.12529092  0.37571350  1
  Sr2+  Sr33  1  0.12326009  0.12012264  0.89773397  1
  Sr2+  Sr34  1  0.12598005  0.63058856  0.37503176  1
  Sr2+  Sr35  1  0.13228444  0.63334028  0.89147605  1
  Sr2+  Sr36  1  0.61698798  0.11129783  0.37355692  1
  Sr2+  Sr37  1  0.62928473  0.14265549  0.87279345  1
  Sr2+  Sr38  1  0.62419367  0.62414709  0.37021305  1
  Sr2+  Sr39  1  0.61217606  0.64069280  0.87758931  1
  Sr2+  Sr40  1  0.38192972  0.36826507  0.37196547  1
  Sr2+  Sr41  1  0.38918427  0.38091214  0.88082611  1
  Sr2+  Sr42  1  0.38461813  0.88925540  0.37975092  1
  Sr2+  Sr43  1  0.38237796  0.87526271  0.86773990  1
  Sr2+  Sr44  1  0.86570850  0.38155111  0.38081402  1
  Sr2+  Sr45  1  0.86633225  0.36936982  0.86554015  1
  Sr2+  Sr46  1  0.86953313  0.88032205  0.37842337  1
  Sr2+  Sr47  1  0.87401337  0.88985362  0.87666699  1
  Sr2+  Sr48  1  0.14307423  0.37611891  0.13015036  1
  Sr2+  Sr49  1  0.11624163  0.37283705  0.61862233  1
  Sr2+  Sr50  1  0.11843428  0.87520311  0.11614812  1
  Sr2+  Sr51  1  0.12988788  0.87435974  0.62774235  1
  Sr2+  Sr52  1  0.64148230  0.37486545  0.11990429  1
  Sr2+  Sr53  1  0.61631841  0.37099149  0.63724314  1
  Sr2+  Sr54  1  0.63345258  0.86833142  0.11895250  1
  Sr2+  Sr55  1  0.62721036  0.86254400  0.63515238  1
  Sr2+  Sr56  1  0.37667677  0.12093280  0.13044342  1
  Sr2+  Sr57  1  0.36957566  0.13436338  0.62368234  1
  Sr2+  Sr58  1  0.37216791  0.61146613  0.12763617  1
  Sr2+  Sr59  1  0.37717659  0.62817740  0.62684717  1
  Sr2+  Sr60  1  0.88424782  0.13908827  0.11933192  1
  Sr2+  Sr61  1  0.88050177  0.11384007  0.62194241  1
  Sr2+  Sr62  1  0.87832048  0.61887885  0.12854595  1
  Sr2+  Sr63  1  0.89169725  0.61951476  0.62784886  1
  Ca2+  Ca64  1  0.00147956  0.50072091  0.00276476  1
  Ca2+  Ca65  1  -0.00241240  -0.00057550  0.00309411  1
  Ca2+  Ca66  1  0.49973282  0.00170634  -0.00647891  1
  Ca2+  Ca67  1  0.49731957  -0.00004769  0.51031025  1
  Ca2+  Ca68  1  0.49798371  0.49851958  0.49596241  1
  Ca2+  Ca69  1  0.75288077  0.74919730  -0.00196052  1
  Ca2+  Ca70  1  0.25580268  0.75328748  0.00772661  1
  Ca2+  Ca71  1  0.25471104  0.25010049  -0.00289643  1
  Ca2+  Ca72  1  0.75051090  0.25202671  0.49906866  1
  Ca2+  Ca73  1  0.75104732  0.74852037  0.50133561  1
  Ca2+  Ca74  1  0.74875213  0.50100271  0.75033402  1
  Ca2+  Ca75  1  0.24665798  -0.00169366  0.25453152  1
  Ca2+  Ca76  1  0.49782991  0.75204877  0.24773232  1
  Ca2+  Ca77  1  0.00134982  0.75095909  0.75007215  1
  Ca2+  Ca78  1  0.49835266  0.75209805  0.74898958  1
  Ca2+  Ca79  1  0.25147561  0.49968817  0.75020592  1
  Ca2+  Ca80  1  0.49652229  0.24661682  0.75390506  1
  Ca2+  Ca81  1  0.00016290  0.24790542  0.74743574  1
  Ca2+  Ca82  1  -0.00111891  0.25539911  0.25419267  1
  Ca2+  Ca83  1  0.50136343  0.25138247  0.24573477  1
  Ca2+  Ca84  1  0.75102609  -0.00353382  0.24721067  1
  Nb5+  Nb85  1  -0.00089829  -0.00672016  0.49918272  1
  Nb5+  Nb86  1  0.00120331  0.49636058  0.49398898  1
  Nb5+  Nb87  1  0.50340392  0.50029929  0.00298977  1
  Nb5+  Nb88  1  0.74962544  0.25118248  -0.00173937  1
  Nb5+  Nb89  1  0.24930770  0.75180102  0.49779425  1
  Nb5+  Nb90  1  0.25089281  0.25508495  0.49921351  1
  Nb5+  Nb91  1  0.75547999  0.49863334  0.25061681  1
  Nb5+  Nb92  1  0.25380121  0.00174727  0.74884649  1
  Nb5+  Nb93  1  0.25641005  0.50040459  0.25726606  1
  Nb5+  Nb94  1  -0.00097951  0.74967302  0.25369954  1
  Nb5+  Nb95  1  0.75395761  0.00149071  0.74915700  1
  Nb5+  Nb96  1  -0.00261013  0.00081962  0.24795774  1
  Nb5+  Nb97  1  0.00558881  0.00062065  0.74962558  1
  Nb5+  Nb98  1  0.00443559  0.49840405  0.25090112  1
  Nb5+  Nb99  1  0.00634979  0.50494946  0.75805863  1
  Nb5+  Nb100  1  0.49770982  -0.00046827  0.24380154  1
  Nb5+  Nb101  1  0.50687078  0.00079103  0.74803329  1
  Nb5+  Nb102  1  0.51058798  0.49648299  0.25080650  1
  Nb5+  Nb103  1  0.49581048  0.50386954  0.74709825  1
  Nb5+  Nb104  1  0.24972485  0.24577935  0.25239000  1
  Nb5+  Nb105  1  0.24818832  0.25258820  0.75285202  1
  Nb5+  Nb106  1  0.25113760  0.75171762  0.25565871  1
  Nb5+  Nb107  1  0.24574563  0.74482549  0.75506162  1
  Nb5+  Nb108  1  0.74850805  0.24639723  0.25091716  1
  Nb5+  Nb109  1  0.75210543  0.24760410  0.73940966  1
  Nb5+  Nb110  1  0.74881630  0.75080812  0.24904210  1
  Nb5+  Nb111  1  0.74816169  0.74577043  0.75139470  1
  Nb5+  Nb112  1  -0.00057086  0.24236567  0.49712209  1
  Nb5+  Nb113  1  0.00407016  0.25741825  0.99871803  1
  Nb5+  Nb114  1  0.00248578  0.74442062  0.50025848  1
  Nb5+  Nb115  1  0.00105906  0.74384194  0.99305488  1
  Nb5+  Nb116  1  0.50732736  0.25556339  0.50116436  1
  Nb5+  Nb117  1  0.49853261  0.24633051  0.99731133  1
  Nb5+  Nb118  1  0.50546836  0.75453087  0.49803798  1
  Nb5+  Nb119  1  0.49924812  0.75480617  1.00401500  1
  Nb5+  Nb120  1  0.25296309  0.00008424  0.00854314  1
  Nb5+  Nb121  1  0.24656969  0.00604984  0.50156818  1
  Nb5+  Nb122  1  0.24783243  0.49774185  -0.00028138  1
  Nb5+  Nb123  1  0.25192884  0.50380278  0.49570264  1
  Nb5+  Nb124  1  0.75437802  0.00296785  0.00835192  1
  Nb5+  Nb125  1  0.74413538  -0.00601558  0.50214431  1
  Nb5+  Nb126  1  0.75191866  0.50210641  -0.00441430  1
  Nb5+  Nb127  1  0.74806873  0.50264210  0.50776875  1
  O2-  O128  1  -0.02995991  -0.01832036  0.13862355  1
  O2-  O129  1  -0.01720229  -0.01863740  0.61825394  1
  O2-  O130  1  -0.02304143  0.48644723  0.13949782  1
  O2-  O131  1  -0.01215380  0.48847042  0.61165462  1
  O2-  O132  1  0.47565637  0.00434054  0.12834459  1
  O2-  O133  1  0.49017342  0.04389771  0.63931122  1
  O2-  O134  1  0.49011133  0.50772502  0.12627263  1
  O2-  O135  1  0.48190323  0.51080486  0.63214419  1
  O2-  O136  1  0.02231270  0.00853702  0.38353382  1
  O2-  O137  1  0.00929831  0.02133111  0.86195795  1
  O2-  O138  1  0.01514201  0.52206405  0.37619594  1
  O2-  O139  1  0.03176345  0.52186139  0.86768583  1
  O2-  O140  1  0.51211133  -0.00427552  0.36941313  1
  O2-  O141  1  0.50438778  -0.03736038  0.86158702  1
  O2-  O142  1  0.52916421  0.48502722  0.36441563  1
  O2-  O143  1  0.50756846  0.49437537  0.88404871  1
  O2-  O144  1  0.26590563  0.26031998  0.13732543  1
  O2-  O145  1  0.26571864  0.26450419  0.61754058  1
  O2-  O146  1  0.22531175  0.76802936  0.14344662  1
  O2-  O147  1  0.22798973  0.75473499  0.61472737  1
  O2-  O148  1  0.75429243  0.23529500  0.12149211  1
  O2-  O149  1  0.75989669  0.21964212  0.62981171  1
  O2-  O150  1  0.74117593  0.72180641  0.13429822  1
  O2-  O151  1  0.71745995  0.73541055  0.63494921  1
  O2-  O152  1  0.23100088  0.23964836  0.38083897  1
  O2-  O153  1  0.22658013  0.22795697  0.86237119  1
  O2-  O154  1  0.25794670  0.72410703  0.37930752  1
  O2-  O155  1  0.26400711  0.73232740  0.86780673  1
  O2-  O156  1  0.75007198  0.27443641  0.36310632  1
  O2-  O157  1  0.74151639  0.26719270  0.88077169  1
  O2-  O158  1  0.77927647  0.75721436  0.36280996  1
  O2-  O159  1  0.77999617  0.77457318  0.86424685  1
  O2-  O160  1  -0.01014261  0.27194387  0.11724867  1
  O2-  O161  1  -0.01025187  0.27602669  0.60964456  1
  O2-  O162  1  0.01752146  0.76387895  0.13771728  1
  O2-  O163  1  0.02054322  0.76895833  0.61119662  1
  O2-  O164  1  0.47574528  0.24548503  0.11310362  1
  O2-  O165  1  0.48981130  0.24816356  0.61798485  1
  O2-  O166  1  0.53464074  0.74982227  0.11743544  1
  O2-  O167  1  0.50970186  0.72842175  0.61350498  1
  O2-  O168  1  0.21875486  0.00217664  0.39042861  1
  O2-  O169  1  0.23432075  0.01727240  0.86233556  1
  O2-  O170  1  0.21952703  0.50309891  0.37240721  1
  O2-  O171  1  0.23803763  0.51547059  0.88784487  1
  O2-  O172  1  0.73403656  -0.02546076  0.38572648  1
  O2-  O173  1  0.73953659  -0.01426022  0.86505638  1
  O2-  O174  1  0.73567387  0.47639333  0.36533982  1
  O2-  O175  1  0.74620398  0.46977441  0.88539894  1
  O2-  O176  1  0.02995213  0.24252912  0.38562523  1
  O2-  O177  1  0.01458717  0.22816446  0.88301604  1
  O2-  O178  1  -0.01157948  0.73306318  0.37671246  1
  O2-  O179  1  -0.00997235  0.71813305  0.88257133  1
  O2-  O180  1  0.50586727  0.25812186  0.38148399  1
  O2-  O181  1  0.51832949  0.27526788  0.88510349  1
  O2-  O182  1  0.47537322  0.76644474  0.38286143  1
  O2-  O183  1  0.47520747  0.74289870  0.88515437  1
  O2-  O184  1  0.26582632  -0.02282732  0.11912126  1
  O2-  O185  1  0.25587087  -0.02111602  0.62147791  1
  O2-  O186  1  0.26323521  0.48641759  0.13842657  1
  O2-  O187  1  0.27274259  0.49000373  0.60843654  1
  O2-  O188  1  0.76664305  0.03623316  0.11607047  1
  O2-  O189  1  0.75937812  0.02433250  0.62519276  1
  O2-  O190  1  0.75722310  0.51098192  0.12544326  1
  O2-  O191  1  0.77002999  0.52946549  0.61592252  1
  O2-  O192  1  0.13354230  0.27822775  0.24199504  1
  O2-  O193  1  0.13497691  0.26017948  0.72120746  1
  O2-  O194  1  0.12072925  0.75234980  0.27425706  1
  O2-  O195  1  0.13431610  0.78274325  0.76166439  1
  O2-  O196  1  0.63513875  0.28054834  0.23569045  1
  O2-  O197  1  0.63417785  0.26310766  0.74731141  1
  O2-  O198  1  0.63586290  0.76148473  0.27206710  1
  O2-  O199  1  0.63358610  0.77962527  0.77044679  1
  O2-  O200  1  0.36412548  0.23582801  0.27493160  1
  O2-  O201  1  0.36181042  0.21909532  0.74920516  1
  O2-  O202  1  0.36064586  0.72276584  0.23625554  1
  O2-  O203  1  0.35981068  0.74366329  0.72283546  1
  O2-  O204  1  0.86587836  0.22858822  0.24612410  1
  O2-  O205  1  0.86503762  0.23414052  0.76973621  1
  O2-  O206  1  0.88158933  0.72622310  0.23650926  1
  O2-  O207  1  0.86420000  0.73764182  0.72046306  1
  O2-  O208  1  0.26189876  0.37970865  0.26936153  1
  O2-  O209  1  0.27215658  0.36391818  0.76875551  1
  O2-  O210  1  0.26454439  0.86172578  0.28373476  1
  O2-  O211  1  0.26386299  0.87997888  0.75854917  1
  O2-  O212  1  0.77089289  0.38019004  0.22951934  1
  O2-  O213  1  0.76731547  0.36392868  0.72438487  1
  O2-  O214  1  0.76867610  0.86163630  0.22193498  1
  O2-  O215  1  0.76177652  0.88545619  0.72599449  1
  O2-  O216  1  0.22010501  0.13365782  0.24383734  1
  O2-  O217  1  0.23660003  0.11625525  0.72155359  1
  O2-  O218  1  0.22828715  0.61827040  0.24775931  1
  O2-  O219  1  0.22067883  0.63428569  0.73791272  1
  O2-  O220  1  0.72564456  0.13371565  0.26818497  1
  O2-  O221  1  0.73045446  0.12306664  0.76286592  1
  O2-  O222  1  0.73201992  0.61638040  0.26227561  1
  O2-  O223  1  0.73339684  0.63513894  0.78051566  1
  O2-  O224  1  0.11931832  0.48432009  0.23684813  1
  O2-  O225  1  0.11828892  0.47471844  0.72792766  1
  O2-  O226  1  0.10932390  0.96209550  0.24199201  1
  O2-  O227  1  0.12105934  0.98331009  0.73549682  1
  O2-  O228  1  0.62544047  0.48299135  0.22942552  1
  O2-  O229  1  0.61396089  0.47217804  0.74459352  1
  O2-  O230  1  0.61490212  0.96611634  0.23256182  1
  O2-  O231  1  0.62439204  0.99102322  0.73122338  1
  O2-  O232  1  0.38022607  0.03316015  0.26429707  1
  O2-  O233  1  0.36903242  0.01179871  0.75732514  1
  O2-  O234  1  0.36924469  0.51930883  0.27073160  1
  O2-  O235  1  0.38322415  0.53560438  0.77072638  1
  O2-  O236  1  0.88523035  0.00653924  0.28664489  1
  O2-  O237  1  0.86941248  0.02060954  0.75712802  1
  O2-  O238  1  0.86988878  0.51960859  0.26499914  1
  O2-  O239  1  0.88622812  0.52156318  0.76296140  1
  O2-  O240  1  0.46890841  0.38714080  0.24347267  1
  O2-  O241  1  0.46925689  0.38565979  0.74914328  1
  O2-  O242  1  0.46307114  0.88372865  0.24736240  1
  O2-  O243  1  0.48365628  0.88790790  0.71547590  1
  O2-  O244  1  0.98045110  0.38945017  0.28137258  1
  O2-  O245  1  0.98302091  0.38522513  0.76584848  1
  O2-  O246  1  0.97909981  0.86424472  0.27123656  1
  O2-  O247  1  0.97171674  0.88799144  0.75830932  1
  O2-  O248  1  0.02058505  0.11356099  0.23819653  1
  O2-  O249  1  0.00241350  0.11335321  0.71479521  1
  O2-  O250  1  0.01188718  0.62252762  0.24179002  1
  O2-  O251  1  0.01653418  0.61682097  0.71948009  1
  O2-  O252  1  0.53066238  0.11707232  0.24632893  1
  O2-  O253  1  0.50698001  0.11272271  0.79187734  1
  O2-  O254  1  0.50925015  0.61427239  0.25909627  1
  O2-  O255  1  0.53179921  0.61793602  0.75469996  1
  O2-  O256  1  0.13680938  0.47114632  0.01538141  1
  O2-  O257  1  0.12439390  0.48450305  0.50892954  1
  O2-  O258  1  0.13330016  0.97591618  -0.00106901  1
  O2-  O259  1  0.11928465  0.98689578  0.52234284  1
  O2-  O260  1  0.62429601  0.48106307  0.01364025  1
  O2-  O261  1  0.63589368  0.48436798  0.52569894  1
  O2-  O262  1  0.63737553  0.98369121  0.00847043  1
  O2-  O263  1  0.63314787  0.97713879  0.52579073  1
  O2-  O264  1  0.36323423  0.03439884  -0.01419503  1
  O2-  O265  1  0.36042752  0.01552002  0.48547188  1
  O2-  O266  1  0.38137564  0.51860182  -0.00222614  1
  O2-  O267  1  0.36099669  0.51521021  0.46315458  1
  O2-  O268  1  0.86500647  0.01663523  -0.02971424  1
  O2-  O269  1  0.88253781  0.02001624  0.48790695  1
  O2-  O270  1  0.86532188  0.52469220  -0.00756000  1
  O2-  O271  1  0.88410922  0.51850251  0.48118887  1
  O2-  O272  1  0.48623108  0.37995686  0.01106944  1
  O2-  O273  1  0.46070653  0.36665273  0.50310903  1
  O2-  O274  1  0.47214040  0.86655430  0.00644918  1
  O2-  O275  1  0.46633586  0.86603797  0.51664738  1
  O2-  O276  1  0.97489136  0.36883194  -0.02988083  1
  O2-  O277  1  0.99306431  0.38003652  0.47752936  1
  O2-  O278  1  0.97701435  0.86192259  -0.00656601  1
  O2-  O279  1  0.98836273  0.87520779  0.48112499  1
  O2-  O280  1  0.01133486  0.13616769  0.02285652  1
  O2-  O281  1  0.01354930  0.12560363  0.51477028  1
  O2-  O282  1  0.03155406  0.63242313  0.02466871  1
  O2-  O283  1  0.02184473  0.62673725  0.51054607  1
  O2-  O284  1  0.53252391  0.13590879  -0.00594676  1
  O2-  O285  1  0.52304051  0.13692084  0.49164270  1
  O2-  O286  1  0.52288669  0.61900663  0.00091798  1
  O2-  O287  1  0.51326943  0.63475881  0.47666884  1
  O2-  O288  1  0.11867790  0.27731784  0.01013021  1
  O2-  O289  1  0.13000707  0.25548952  0.51737644  1
  O2-  O290  1  0.11964968  0.77079961  -0.01271848  1
  O2-  O291  1  0.12564623  0.75980741  0.47633967  1
  O2-  O292  1  0.62994339  0.26765751  0.01248012  1
  O2-  O293  1  0.61796721  0.28866681  0.50788535  1
  O2-  O294  1  0.61727106  0.76758953  -0.02390972  1
  O2-  O295  1  0.61646195  0.78152039  0.48404410  1
  O2-  O296  1  0.38645837  0.23182502  -0.02883138  1
  O2-  O297  1  0.36532878  0.22485175  0.49022734  1
  O2-  O298  1  0.38707078  0.72233092  0.03093276  1
  O2-  O299  1  0.36295344  0.72654467  0.51305548  1
  O2-  O300  1  0.87027639  0.23529420  -0.00508770  1
  O2-  O301  1  0.88639458  0.23481172  0.47796973  1
  O2-  O302  1  0.88693125  0.72388697  0.02264383  1
  O2-  O303  1  0.88830972  0.72998677  0.51523780  1
  O2-  O304  1  0.28446179  0.38500677  -0.00156181  1
  O2-  O305  1  0.25846046  0.37176681  0.48223582  1
  O2-  O306  1  0.27450047  0.88678976  -0.02749594  1
  O2-  O307  1  0.26050345  0.86811182  0.48938622  1
  O2-  O308  1  0.76485884  0.37278523  0.01864887  1
  O2-  O309  1  0.78354339  0.38932670  0.51002600  1
  O2-  O310  1  0.77037041  0.88705731  0.02390146  1
  O2-  O311  1  0.78458679  0.88476600  0.51850988  1
  O2-  O312  1  0.21966947  0.11660517  0.01733190  1
  O2-  O313  1  0.23108486  0.12102521  0.51577694  1
  O2-  O314  1  0.23863413  0.61419418  0.02587333  1
  O2-  O315  1  0.22809876  0.61886411  0.50572278  1
  O2-  O316  1  0.73445434  0.13085996  -0.01713420  1
  O2-  O317  1  0.73661082  0.11315924  0.47798593  1
  O2-  O318  1  0.72376036  0.61298511  -0.01976242  1
  O2-  O319  1  0.73947997  0.61255640  0.46659511  1
