# generated using pymatgen
data_Sr64Ca21Nb43O192
_symmetry_space_group_name_H-M   'P 1'
_cell_length_a   16.64418103
_cell_length_b   16.56407044
_cell_length_c   16.76303564
_cell_angle_alpha   90.01343912
_cell_angle_beta   89.85914507
_cell_angle_gamma   90.00213525
_symmetry_Int_Tables_number   1
_chemical_formula_structural   Sr64Ca21Nb43O192
_chemical_formula_sum   'Sr64 Ca21 Nb43 O192'
_cell_volume   4621.47750050
_cell_formula_units_Z   1
loop_
 _symmetry_equiv_pos_site_id
 _symmetry_equiv_pos_as_xyz
  1  'x, y, z'
loop_
 _atom_type_symbol
 _atom_type_oxidation_number
  Sr2+  2.0
  Ca2+  2.0
  Nb5+  5.0
  O2-  -2.0
loop_
 _atom_site_type_symbol
 _atom_site_label
 _atom_site_symmetry_multiplicity
 _atom_site_fract_x
 _atom_site_fract_y
 _atom_site_fract_z
 _atom_site_occupancy
  Sr2+  Sr0  1  0.13116376  0.13832483  0.12935523  1
  Sr2+  Sr1  1  0.13701769  0.11848235  0.64203345  1
  Sr2+  Sr2  1  0.12727149  0.63670838  0.12832900  1
  Sr2+  Sr3  1  0.12327237  0.63554505  0.62675814  1
  Sr2+  Sr4  1  0.63230526  0.12471790  0.11942364  1
  Sr2+  Sr5  1  0.62816951  0.13770460  0.62873444  1
  Sr2+  Sr6  1  0.63286880  0.62917655  0.11968841  1
  Sr2+  Sr7  1  0.63657092  0.64447086  0.63043366  1
  Sr2+  Sr8  1  0.37851565  0.38653921  0.12535371  1
  Sr2+  Sr9  1  0.38877706  0.38249719  0.62755948  1
  Sr2+  Sr10  1  0.37704929  0.88247523  0.11728075  1
  Sr2+  Sr11  1  0.38205470  0.89275882  0.62764340  1
  Sr2+  Sr12  1  0.88151054  0.37825486  0.12387474  1
  Sr2+  Sr13  1  0.87869840  0.38602287  0.62592340  1
  Sr2+  Sr14  1  0.88296690  0.88098642  0.12992553  1
  Sr2+  Sr15  1  0.88154529  0.88747625  0.62373955  1
  Sr2+  Sr16  1  0.12873168  0.37371488  0.37677999  1
  Sr2+  Sr17  1  0.13380194  0.37352146  0.88141103  1
  Sr2+  Sr18  1  0.11532718  0.86547541  0.36742053  1
  Sr2+  Sr19  1  0.13195682  0.86901240  0.86582169  1
  Sr2+  Sr20  1  0.61510137  0.36703373  0.37140519  1
  Sr2+  Sr21  1  0.60466717  0.36865055  0.87806224  1
  Sr2+  Sr22  1  0.61827404  0.87171410  0.37632668  1
  Sr2+  Sr23  1  0.60869673  0.87418048  0.87544884  1
  Sr2+  Sr24  1  0.36262724  0.10897858  0.37951907  1
  Sr2+  Sr25  1  0.35935986  0.12504577  0.86922485  1
  Sr2+  Sr26  1  0.36018353  0.61507536  0.37344808  1
  Sr2+  Sr27  1  0.36011729  0.61502693  0.87439615  1
  Sr2+  Sr28  1  0.87237237  0.12160914  0.37583436  1
  Sr2+  Sr29  1  0.87531730  0.11403026  0.87437087  1
  Sr2+  Sr30  1  0.87176826  0.62145906  0.37693632  1
  Sr2+  Sr31  1  0.86452542  0.61721057  0.87269336  1
  Sr2+  Sr32  1  0.12422204  0.14552165  0.37550909  1
  Sr2+  Sr33  1  0.11749101  0.10574229  0.87060731  1
  Sr2+  Sr34  1  0.11735348  0.62133582  0.37640846  1
  Sr2+  Sr35  1  0.12340024  0.62352252  0.88019411  1
  Sr2+  Sr36  1  0.61794836  0.11366821  0.37447159  1
  Sr2+  Sr37  1  0.61544076  0.12055273  0.88077367  1
  Sr2+  Sr38  1  0.61855823  0.61758989  0.36912351  1
  Sr2+  Sr39  1  0.61450290  0.61355813  0.87514680  1
  Sr2+  Sr40  1  0.36626220  0.36361005  0.37814739  1
  Sr2+  Sr41  1  0.36906603  0.37368870  0.86342810  1
  Sr2+  Sr42  1  0.37469630  0.86833077  0.38342280  1
  Sr2+  Sr43  1  0.36658940  0.85359156  0.87498854  1
  Sr2+  Sr44  1  0.87096430  0.36920999  0.37520121  1
  Sr2+  Sr45  1  0.87927123  0.36598894  0.88468454  1
  Sr2+  Sr46  1  0.87100421  0.87156634  0.37548156  1
  Sr2+  Sr47  1  0.87868443  0.87415833  0.85639966  1
  Sr2+  Sr48  1  0.13477498  0.38254642  0.13031711  1
  Sr2+  Sr49  1  0.13590149  0.38585362  0.62378355  1
  Sr2+  Sr50  1  0.13430810  0.87944788  0.11867866  1
  Sr2+  Sr51  1  0.13003851  0.88636312  0.63504288  1
  Sr2+  Sr52  1  0.63684457  0.38075322  0.12200136  1
  Sr2+  Sr53  1  0.62956208  0.37615425  0.62913468  1
  Sr2+  Sr54  1  0.64102641  0.88616087  0.12336236  1
  Sr2+  Sr55  1  0.62830966  0.88427862  0.62358455  1
  Sr2+  Sr56  1  0.37987850  0.13049074  0.11935883  1
  Sr2+  Sr57  1  0.38822412  0.13166201  0.62432806  1
  Sr2+  Sr58  1  0.38849412  0.63870000  0.12206711  1
  Sr2+  Sr59  1  0.39382892  0.63076593  0.63144824  1
  Sr2+  Sr60  1  0.87697132  0.12513392  0.12599524  1
  Sr2+  Sr61  1  0.88143493  0.13171132  0.62728733  1
  Sr2+  Sr62  1  0.87606590  0.62501953  0.12042444  1
  Sr2+  Sr63  1  0.87583243  0.62637422  0.62241090  1
  Ca2+  Ca64  1  0.49659321  0.00009781  0.00075402  1
  Ca2+  Ca65  1  0.00199829  0.00164524  0.49721670  1
  Ca2+  Ca66  1  0.49745852  0.49806953  0.00115643  1
  Ca2+  Ca67  1  0.50356827  0.50120568  0.49842395  1
  Ca2+  Ca68  1  0.00032736  -0.00311678  0.00106883  1
  Ca2+  Ca69  1  0.74897338  0.25029731  0.00018533  1
  Ca2+  Ca70  1  0.24928809  0.24661365  0.50473216  1
  Ca2+  Ca71  1  0.25111722  0.25025848  -0.00087676  1
  Ca2+  Ca72  1  0.25121198  0.74977307  0.49925145  1
  Ca2+  Ca73  1  0.75588773  0.75520881  0.00076681  1
  Ca2+  Ca74  1  0.24769778  -0.00152058  0.24791762  1
  Ca2+  Ca75  1  0.74895997  0.49814694  0.74938609  1
  Ca2+  Ca76  1  0.50317726  0.24958670  0.25197481  1
  Ca2+  Ca77  1  0.74727809  0.00265371  0.74605928  1
  Ca2+  Ca78  1  0.25664437  -0.00321167  0.75306107  1
  Ca2+  Ca79  1  0.24641571  0.50111631  0.24923553  1
  Ca2+  Ca80  1  0.00009282  0.25458967  0.74957768  1
  Ca2+  Ca81  1  0.24626246  0.49901158  0.74622885  1
  Ca2+  Ca82  1  0.50151691  0.75375488  0.75119380  1
  Ca2+  Ca83  1  0.50408471  0.75272388  0.25009852  1
  Ca2+  Ca84  1  -0.00007610  0.74543227  0.74931576  1
  Nb5+  Nb85  1  0.00138808  0.49956546  0.00716122  1
  Nb5+  Nb86  1  -0.00111205  0.49822939  0.50168180  1
  Nb5+  Nb87  1  0.50048621  0.00215465  0.50000957  1
  Nb5+  Nb88  1  0.75084255  0.25722323  0.50047469  1
  Nb5+  Nb89  1  0.75257213  0.75759907  0.50108947  1
  Nb5+  Nb90  1  0.25169954  0.74573257  0.00238181  1
  Nb5+  Nb91  1  0.75098342  0.49412560  0.25053107  1
  Nb5+  Nb92  1  -0.00291457  0.25721079  0.24895848  1
  Nb5+  Nb93  1  0.50057281  0.24839914  0.75187304  1
  Nb5+  Nb94  1  0.75213242  -0.00385562  0.25292566  1
  Nb5+  Nb95  1  -0.00252673  0.75271351  0.24950452  1
  Nb5+  Nb96  1  0.00129621  0.00749496  0.25484888  1
  Nb5+  Nb97  1  -0.00015086  0.00086764  0.74682008  1
  Nb5+  Nb98  1  -0.00389807  0.50223314  0.25415754  1
  Nb5+  Nb99  1  -0.00324370  0.49794195  0.76167656  1
  Nb5+  Nb100  1  0.49835768  0.00182236  0.24774299  1
  Nb5+  Nb101  1  0.49745350  0.00286783  0.75651284  1
  Nb5+  Nb102  1  0.49380811  0.50340574  0.24912284  1
  Nb5+  Nb103  1  0.50288699  0.50454899  0.74700835  1
  Nb5+  Nb104  1  0.25847713  0.24508491  0.25082031  1
  Nb5+  Nb105  1  0.24590808  0.25135598  0.74519271  1
  Nb5+  Nb106  1  0.25469033  0.74933094  0.25119769  1
  Nb5+  Nb107  1  0.25327522  0.74150487  0.74182824  1
  Nb5+  Nb108  1  0.74911058  0.24406903  0.25267855  1
  Nb5+  Nb109  1  0.74941775  0.25344681  0.75756244  1
  Nb5+  Nb110  1  0.75192018  0.74543155  0.25227801  1
  Nb5+  Nb111  1  0.74804636  0.75600020  0.75943709  1
  Nb5+  Nb112  1  -0.00262895  0.25452816  0.50045504  1
  Nb5+  Nb113  1  0.00637493  0.24594839  0.99705302  1
  Nb5+  Nb114  1  -0.00314064  0.75129591  0.50086420  1
  Nb5+  Nb115  1  0.00162697  0.74888454  0.99794880  1
  Nb5+  Nb116  1  0.49886499  0.24820640  0.49650911  1
  Nb5+  Nb117  1  0.49502244  0.25142891  1.00755999  1
  Nb5+  Nb118  1  0.50055555  0.74617563  0.49907663  1
  Nb5+  Nb119  1  0.50946368  0.75265655  1.00437336  1
  Nb5+  Nb120  1  0.24625775  0.00369219  -0.00151946  1
  Nb5+  Nb121  1  0.24182449  -0.00899199  0.49592021  1
  Nb5+  Nb122  1  0.25154474  0.50050623  0.00664998  1
  Nb5+  Nb123  1  0.25658207  0.50349786  0.50368263  1
  Nb5+  Nb124  1  0.75371291  -0.00171771  -0.00878643  1
  Nb5+  Nb125  1  0.74830233  0.01103264  0.49929628  1
  Nb5+  Nb126  1  0.75110301  0.49698167  -0.00585256  1
  Nb5+  Nb127  1  0.74728714  0.50716814  0.49699743  1
  O2-  O128  1  -0.00411149  -0.00672121  0.14009317  1
  O2-  O129  1  0.02452305  -0.00084695  0.62863939  1
  O2-  O130  1  0.01016715  0.49397678  0.12542338  1
  O2-  O131  1  0.00926817  0.49026565  0.61519554  1
  O2-  O132  1  0.51985433  -0.02303173  0.13757406  1
  O2-  O133  1  0.51680236  -0.01307763  0.61734299  1
  O2-  O134  1  0.51705721  0.46890643  0.13684530  1
  O2-  O135  1  0.51618612  0.47300983  0.63247821  1
  O2-  O136  1  -0.03109669  -0.00561872  0.36578295  1
  O2-  O137  1  -0.02237410  0.00144314  0.86616674  1
  O2-  O138  1  -0.02477526  0.50074369  0.36892666  1
  O2-  O139  1  -0.01796618  0.50763990  0.87752244  1
  O2-  O140  1  0.49202957  0.02535201  0.37996107  1
  O2-  O141  1  0.48621350  0.03392851  0.86585234  1
  O2-  O142  1  0.48880585  0.53477607  0.36586142  1
  O2-  O143  1  0.48045989  0.51702316  0.86501172  1
  O2-  O144  1  0.25991060  0.22101359  0.13455325  1
  O2-  O145  1  0.26416803  0.21379996  0.63381156  1
  O2-  O146  1  0.25930138  0.72123311  0.12360686  1
  O2-  O147  1  0.26686108  0.71418402  0.63167964  1
  O2-  O148  1  0.76526844  0.23017688  0.13884620  1
  O2-  O149  1  0.76326401  0.22660582  0.61205243  1
  O2-  O150  1  0.77582599  0.73818216  0.13984261  1
  O2-  O151  1  0.76757732  0.72996112  0.61335350  1
  O2-  O152  1  0.23127664  0.26764509  0.36672246  1
  O2-  O153  1  0.24973246  0.27737152  0.86317355  1
  O2-  O154  1  0.23584686  0.77775634  0.36213671  1
  O2-  O155  1  0.23370021  0.76111475  0.88612170  1
  O2-  O156  1  0.73910782  0.27013673  0.37551690  1
  O2-  O157  1  0.73741623  0.28620276  0.86550147  1
  O2-  O158  1  0.74148333  0.76732130  0.37585464  1
  O2-  O159  1  0.73244145  0.78472661  0.86861257  1
  O2-  O160  1  -0.02484799  0.24649064  0.13232269  1
  O2-  O161  1  -0.02950011  0.25769016  0.61156504  1
  O2-  O162  1  -0.02064624  0.73947185  0.13447896  1
  O2-  O163  1  -0.02375078  0.73804841  0.61279528  1
  O2-  O164  1  0.47226062  0.26619491  0.11924508  1
  O2-  O165  1  0.49197875  0.25865546  0.62041887  1
  O2-  O166  1  0.47167245  0.76632782  0.11748871  1
  O2-  O167  1  0.48324807  0.77620309  0.61241975  1
  O2-  O168  1  0.27859835  -0.01827497  0.38180981  1
  O2-  O169  1  0.28024465  -0.02316914  0.88715359  1
  O2-  O170  1  0.26683136  0.47806090  0.38453294  1
  O2-  O171  1  0.25951530  0.48419894  0.88772610  1
  O2-  O172  1  0.76899101  -0.00863844  0.37712449  1
  O2-  O173  1  0.77503450  -0.01551325  0.88032911  1
  O2-  O174  1  0.77817064  0.49504285  0.36841509  1
  O2-  O175  1  0.78044213  0.48365422  0.88463567  1
  O2-  O176  1  0.00995274  0.26188666  0.36906232  1
  O2-  O177  1  0.02861994  0.25733380  0.88552365  1
  O2-  O178  1  0.01527701  0.74256855  0.37246118  1
  O2-  O179  1  0.02781609  0.75267720  0.88692585  1
  O2-  O180  1  0.53139548  0.23666031  0.38622385  1
  O2-  O181  1  0.51813857  0.23619593  0.86620818  1
  O2-  O182  1  0.53509523  0.74374991  0.38626479  1
  O2-  O183  1  0.52806356  0.73684941  0.88626245  1
  O2-  O184  1  0.21334724  0.01125552  0.11443969  1
  O2-  O185  1  0.23216088  0.00475140  0.61448214  1
  O2-  O186  1  0.21170635  0.51429427  0.11675184  1
  O2-  O187  1  0.21129509  0.51768229  0.61173668  1
  O2-  O188  1  0.73587028  0.01579730  0.13879904  1
  O2-  O189  1  0.72120474  0.01300315  0.61076129  1
  O2-  O190  1  0.73724148  0.51660902  0.13424647  1
  O2-  O191  1  0.72958965  0.51621053  0.60951016  1
  O2-  O192  1  0.11266170  0.26703061  0.23485291  1
  O2-  O193  1  0.13423264  0.27055201  0.72515833  1
  O2-  O194  1  0.11385409  0.76686422  0.23457622  1
  O2-  O195  1  0.13572556  0.76772451  0.73049374  1
  O2-  O196  1  0.63949262  0.27816441  0.23785288  1
  O2-  O197  1  0.62107558  0.26806035  0.73216213  1
  O2-  O198  1  0.64199603  0.77353535  0.23484702  1
  O2-  O199  1  0.63578364  0.77209538  0.72234774  1
  O2-  O200  1  0.36841189  0.22568786  0.27378846  1
  O2-  O201  1  0.38325452  0.22903678  0.75685084  1
  O2-  O202  1  0.36632104  0.72619618  0.26633333  1
  O2-  O203  1  0.36845037  0.72355621  0.77266177  1
  O2-  O204  1  0.87345560  0.23747653  0.27101055  1
  O2-  O205  1  0.86204795  0.22549248  0.76449199  1
  O2-  O206  1  0.87683845  0.73676551  0.27460942  1
  O2-  O207  1  0.86488409  0.72894918  0.77154649  1
  O2-  O208  1  0.26439080  0.36324505  0.22779007  1
  O2-  O209  1  0.27630853  0.36475617  0.72262643  1
  O2-  O210  1  0.25941377  0.86204158  0.21563896  1
  O2-  O211  1  0.27425964  0.85962908  0.73955118  1
  O2-  O212  1  0.77385519  0.37954638  0.23914775  1
  O2-  O213  1  0.75950253  0.36262234  0.71149080  1
  O2-  O214  1  0.77544929  0.88038122  0.24419419  1
  O2-  O215  1  0.77713925  0.86675564  0.72454467  1
  O2-  O216  1  0.21870631  0.13295784  0.26638126  1
  O2-  O217  1  0.23151830  0.13307991  0.77605277  1
  O2-  O218  1  0.21836693  0.63593658  0.26543905  1
  O2-  O219  1  0.22816571  0.63026926  0.77758474  1
  O2-  O220  1  0.73522485  0.12947157  0.27328620  1
  O2-  O221  1  0.71862087  0.13893521  0.76254138  1
  O2-  O222  1  0.73907937  0.62869607  0.26732000  1
  O2-  O223  1  0.72487941  0.63637513  0.76763575  1
  O2-  O224  1  0.10852279  0.47706726  0.26587385  1
  O2-  O225  1  0.10901276  0.45962932  0.76001506  1
  O2-  O226  1  0.11064345  0.97928805  0.26903212  1
  O2-  O227  1  0.11952172  0.97998304  0.76621921  1
  O2-  O228  1  0.63727645  0.48290289  0.26960603  1
  O2-  O229  1  0.61599849  0.47760232  0.77445830  1
  O2-  O230  1  0.63584356  0.98305552  0.27172196  1
  O2-  O231  1  0.61364302  0.98042531  0.76137914  1
  O2-  O232  1  0.38652859  0.02604619  0.23468726  1
  O2-  O233  1  0.38651329  0.02163830  0.72085786  1
  O2-  O234  1  0.38236853  0.52376089  0.22833155  1
  O2-  O235  1  0.38328261  0.51310140  0.72832468  1
  O2-  O236  1  0.86845466  0.02642076  0.24256841  1
  O2-  O237  1  0.88236944  0.02274848  0.72624617  1
  O2-  O238  1  0.87616374  0.51644186  0.22981825  1
  O2-  O239  1  0.88389184  0.52874055  0.73127259  1
  O2-  O240  1  0.48384166  0.38761841  0.28210346  1
  O2-  O241  1  0.48262096  0.36730859  0.76095756  1
  O2-  O242  1  0.48906620  0.88859455  0.28132902  1
  O2-  O243  1  0.47582993  0.88838807  0.77151195  1
  O2-  O244  1  0.97438060  0.37499824  0.24728872  1
  O2-  O245  1  0.95760184  0.38447743  0.75582214  1
  O2-  O246  1  0.97839203  0.86879314  0.25560522  1
  O2-  O247  1  0.97851654  0.88078804  0.74356079  1
  O2-  O248  1  0.01255396  0.12674073  0.25635376  1
  O2-  O249  1  0.02356339  0.12011977  0.74888215  1
  O2-  O250  1  0.01163514  0.62041616  0.25055139  1
  O2-  O251  1  0.03180301  0.61048585  0.74554830  1
  O2-  O252  1  0.53639899  0.11509755  0.23933781  1
  O2-  O253  1  0.51924139  0.12847742  0.72981256  1
  O2-  O254  1  0.53333975  0.61566169  0.22811839  1
  O2-  O255  1  0.52328113  0.61750663  0.72754377  1
  O2-  O256  1  0.11564048  0.48475538  -0.01839760  1
  O2-  O257  1  0.11115974  0.48495190  0.47574309  1
  O2-  O258  1  0.13338587  0.96949945  -0.02507816  1
  O2-  O259  1  0.13347525  0.95939330  0.48066129  1
  O2-  O260  1  0.63636040  0.48125883  -0.01668108  1
  O2-  O261  1  0.63892981  0.48251687  0.46691211  1
  O2-  O262  1  0.63485427  0.97363723  -0.01200106  1
  O2-  O263  1  0.62917943  0.98636094  0.47683103  1
  O2-  O264  1  0.36153803  0.00994119  0.03377112  1
  O2-  O265  1  0.38657976  0.02124149  0.51350569  1
  O2-  O266  1  0.36253734  0.52195287  0.02703937  1
  O2-  O267  1  0.36684608  0.52474327  0.52472935  1
  O2-  O268  1  0.86588060  0.03152965  0.01423623  1
  O2-  O269  1  0.86296736  0.01765857  0.52049634  1
  O2-  O270  1  0.87986306  0.51673690  0.01582691  1
  O2-  O271  1  0.87096087  0.51372472  0.51050193  1
  O2-  O272  1  0.47112590  0.36432151  -0.02574624  1
  O2-  O273  1  0.48208562  0.36391929  0.48419915  1
  O2-  O274  1  0.47623789  0.86491189  -0.02151368  1
  O2-  O275  1  0.49328456  0.88284821  0.48190579  1
  O2-  O276  1  0.98051597  0.38033302  0.00063531  1
  O2-  O277  1  0.97235052  0.37991168  0.48847879  1
  O2-  O278  1  0.98430522  0.86064470  0.01646336  1
  O2-  O279  1  0.97359426  0.86348009  0.49326000  1
  O2-  O280  1  0.02780104  0.13317123  0.00593813  1
  O2-  O281  1  0.00710242  0.13984763  0.48577174  1
  O2-  O282  1  0.01894348  0.62012528  0.00991814  1
  O2-  O283  1  0.00324337  0.61849345  0.49257797  1
  O2-  O284  1  0.52617203  0.13477898  0.01636801  1
  O2-  O285  1  0.52673512  0.12405772  0.51511307  1
  O2-  O286  1  0.51594547  0.63326518  0.02114130  1
  O2-  O287  1  0.52489874  0.63649073  0.52597340  1
  O2-  O288  1  0.11454300  0.27588317  0.03133428  1
  O2-  O289  1  0.11002137  0.27704843  0.50817991  1
  O2-  O290  1  0.12332193  0.75414557  0.02713961  1
  O2-  O291  1  0.11155722  0.75927052  0.51517790  1
  O2-  O292  1  0.61319684  0.27883589  0.01182077  1
  O2-  O293  1  0.63277119  0.26772501  0.51517493  1
  O2-  O294  1  0.62008624  0.77058652  0.02975907  1
  O2-  O295  1  0.63558942  0.76714477  0.51693380  1
  O2-  O296  1  0.38398407  0.21618492  -0.01721714  1
  O2-  O297  1  0.38710687  0.22335247  0.48188769  1
  O2-  O298  1  0.36695940  0.72648231  -0.01420834  1
  O2-  O299  1  0.38969447  0.73010999  0.47205863  1
  O2-  O300  1  0.88759985  0.23669186  -0.01923067  1
  O2-  O301  1  0.86957971  0.24097927  0.47601516  1
  O2-  O302  1  0.88935170  0.72149530  -0.01623573  1
  O2-  O303  1  0.87091022  0.73216309  0.47810258  1
  O2-  O304  1  0.26097028  0.38475635  0.02547340  1
  O2-  O305  1  0.26315796  0.38405325  0.52200918  1
  O2-  O306  1  0.26123236  0.86223575  0.02180348  1
  O2-  O307  1  0.28652362  0.88074708  0.51553959  1
  O2-  O308  1  0.76940866  0.38575658  0.03021075  1
  O2-  O309  1  0.76728840  0.37481571  0.50993613  1
  O2-  O310  1  0.77277434  0.88824535  0.03214439  1
  O2-  O311  1  0.76834306  0.87415131  0.50962618  1
  O2-  O312  1  0.22887047  0.11497147  -0.02497421  1
  O2-  O313  1  0.22949529  0.10974773  0.47840559  1
  O2-  O314  1  0.22867809  0.62335078  -0.01394878  1
  O2-  O315  1  0.23086535  0.61572792  0.46979274  1
  O2-  O316  1  0.72282267  0.11571325  -0.01085446  1
  O2-  O317  1  0.73676755  0.12683033  0.47760181  1
  O2-  O318  1  0.73745812  0.61592356  -0.00866621  1
  O2-  O319  1  0.73761217  0.62392447  0.47809257  1
