# generated using pymatgen
data_Sr64Ca21Nb43O192
_symmetry_space_group_name_H-M   'P 1'
_cell_length_a   16.56588874
_cell_length_b   16.56200535
_cell_length_c   16.74758974
_cell_angle_alpha   89.98648760
_cell_angle_beta   90.01446484
_cell_angle_gamma   90.04662298
_symmetry_Int_Tables_number   1
_chemical_formula_structural   Sr64Ca21Nb43O192
_chemical_formula_sum   'Sr64 Ca21 Nb43 O192'
_cell_volume   4594.93957399
_cell_formula_units_Z   1
loop_
 _symmetry_equiv_pos_site_id
 _symmetry_equiv_pos_as_xyz
  1  'x, y, z'
loop_
 _atom_type_symbol
 _atom_type_oxidation_number
  Sr2+  2.0
  Ca2+  2.0
  Nb5+  5.0
  O2-  -2.0
loop_
 _atom_site_type_symbol
 _atom_site_label
 _atom_site_symmetry_multiplicity
 _atom_site_fract_x
 _atom_site_fract_y
 _atom_site_fract_z
 _atom_site_occupancy
  Sr2+  Sr0  1  0.12093341  0.13908249  0.12235608  1
  Sr2+  Sr1  1  0.12943089  0.11405391  0.62998307  1
  Sr2+  Sr2  1  0.12669559  0.60259876  0.12400824  1
  Sr2+  Sr3  1  0.11988007  0.60898245  0.62549714  1
  Sr2+  Sr4  1  0.62315889  0.11850886  0.13754021  1
  Sr2+  Sr5  1  0.62518274  0.12845439  0.60037576  1
  Sr2+  Sr6  1  0.62530205  0.63011338  0.12722648  1
  Sr2+  Sr7  1  0.61566017  0.61343083  0.62871954  1
  Sr2+  Sr8  1  0.35808322  0.35869688  0.12919846  1
  Sr2+  Sr9  1  0.37368575  0.36571659  0.61730763  1
  Sr2+  Sr10  1  0.37511270  0.87825222  0.13018050  1
  Sr2+  Sr11  1  0.36801120  0.88856662  0.62137586  1
  Sr2+  Sr12  1  0.89001387  0.36110626  0.13106138  1
  Sr2+  Sr13  1  0.88474234  0.36356415  0.62858401  1
  Sr2+  Sr14  1  0.87427996  0.88015962  0.13237084  1
  Sr2+  Sr15  1  0.88240836  0.86306613  0.62053832  1
  Sr2+  Sr16  1  0.13732772  0.38419325  0.37456442  1
  Sr2+  Sr17  1  0.12723006  0.37290974  0.87576689  1
  Sr2+  Sr18  1  0.13571945  0.86746060  0.38267681  1
  Sr2+  Sr19  1  0.12215299  0.86976546  0.87406712  1
  Sr2+  Sr20  1  0.62404116  0.38104567  0.37263206  1
  Sr2+  Sr21  1  0.63087213  0.38594099  0.87056026  1
  Sr2+  Sr22  1  0.62554114  0.87526017  0.37886712  1
  Sr2+  Sr23  1  0.62380578  0.87355796  0.87807626  1
  Sr2+  Sr24  1  0.38722153  0.12778672  0.39580092  1
  Sr2+  Sr25  1  0.38173581  0.12412007  0.87123505  1
  Sr2+  Sr26  1  0.37678987  0.61936850  0.36613086  1
  Sr2+  Sr27  1  0.36394241  0.62200216  0.88028758  1
  Sr2+  Sr28  1  0.85899780  0.12419962  0.37055154  1
  Sr2+  Sr29  1  0.86885640  0.12721560  0.87486461  1
  Sr2+  Sr30  1  0.87518018  0.62103368  0.38029990  1
  Sr2+  Sr31  1  0.85710166  0.62472450  0.87368332  1
  Sr2+  Sr32  1  0.13378334  0.12669320  0.38277294  1
  Sr2+  Sr33  1  0.12319951  0.12257655  0.87319649  1
  Sr2+  Sr34  1  0.11809221  0.61663622  0.37820295  1
  Sr2+  Sr35  1  0.12542148  0.62390128  0.88007449  1
  Sr2+  Sr36  1  0.62463290  0.14830475  0.37449275  1
  Sr2+  Sr37  1  0.62130747  0.13444972  0.87236026  1
  Sr2+  Sr38  1  0.61879782  0.61289640  0.36848207  1
  Sr2+  Sr39  1  0.62481675  0.60300906  0.88031356  1
  Sr2+  Sr40  1  0.38187332  0.37970060  0.37463314  1
  Sr2+  Sr41  1  0.38317550  0.37274346  0.87194381  1
  Sr2+  Sr42  1  0.38242095  0.85634104  0.38117522  1
  Sr2+  Sr43  1  0.37898793  0.87109185  0.87001259  1
  Sr2+  Sr44  1  0.87622801  0.37371302  0.38513303  1
  Sr2+  Sr45  1  0.86871466  0.37860603  0.86540523  1
  Sr2+  Sr46  1  0.86732333  0.87527622  0.37897547  1
  Sr2+  Sr47  1  0.87133380  0.86540526  0.87457146  1
  Sr2+  Sr48  1  0.12798369  0.37592990  0.14092960  1
  Sr2+  Sr49  1  0.12567480  0.37813784  0.61444430  1
  Sr2+  Sr50  1  0.12283561  0.87926584  0.12391848  1
  Sr2+  Sr51  1  0.12687035  0.86960390  0.61953675  1
  Sr2+  Sr52  1  0.63183272  0.38892202  0.12703605  1
  Sr2+  Sr53  1  0.63862565  0.36595337  0.62073958  1
  Sr2+  Sr54  1  0.61928742  0.88128562  0.12652067  1
  Sr2+  Sr55  1  0.62841685  0.88440011  0.61722747  1
  Sr2+  Sr56  1  0.37977804  0.12123679  0.11687765  1
  Sr2+  Sr57  1  0.39379114  0.12413943  0.63133120  1
  Sr2+  Sr58  1  0.37065036  0.62789662  0.12544833  1
  Sr2+  Sr59  1  0.36808088  0.61434516  0.62728001  1
  Sr2+  Sr60  1  0.87013832  0.11794418  0.12867108  1
  Sr2+  Sr61  1  0.86526926  0.12655892  0.62767572  1
  Sr2+  Sr62  1  0.86711579  0.62558735  0.12526749  1
  Sr2+  Sr63  1  0.87972799  0.61989135  0.62392785  1
  Ca2+  Ca64  1  0.49933560  -0.00371603  0.49912882  1
  Ca2+  Ca65  1  0.49727873  0.49873707  0.00111146  1
  Ca2+  Ca66  1  -0.00011448  0.00047493  0.49947802  1
  Ca2+  Ca67  1  -0.00266737  0.50023751  -0.00151996  1
  Ca2+  Ca68  1  0.50091207  0.50398601  0.49955532  1
  Ca2+  Ca69  1  0.24957457  0.24992950  0.50466369  1
  Ca2+  Ca70  1  0.75495622  0.25379874  0.49854007  1
  Ca2+  Ca71  1  0.75141812  0.24941845  0.00230001  1
  Ca2+  Ca72  1  0.74519959  0.74369001  0.49973690  1
  Ca2+  Ca73  1  0.25480822  0.74420553  0.50219114  1
  Ca2+  Ca74  1  0.25275007  0.50231267  0.24982460  1
  Ca2+  Ca75  1  0.49510283  0.24796790  0.24610548  1
  Ca2+  Ca76  1  0.25293109  0.49604038  0.75013924  1
  Ca2+  Ca77  1  0.25181517  0.00099069  0.24856268  1
  Ca2+  Ca78  1  0.75357332  0.50163548  0.25225356  1
  Ca2+  Ca79  1  -0.00102841  0.24599380  0.25393451  1
  Ca2+  Ca80  1  0.74984235  0.50188609  0.74298839  1
  Ca2+  Ca81  1  0.75400311  -0.00324073  0.75261906  1
  Ca2+  Ca82  1  0.00047384  0.75016945  0.24739366  1
  Ca2+  Ca83  1  0.49958275  0.25455115  0.74988885  1
  Ca2+  Ca84  1  0.49878086  0.74660986  0.75289512  1
  Nb5+  Nb85  1  0.49689141  -0.00042460  -0.00159588  1
  Nb5+  Nb86  1  -0.00486724  -0.00013538  -0.00120941  1
  Nb5+  Nb87  1  -0.00200607  0.49760379  0.50116766  1
  Nb5+  Nb88  1  0.74151562  0.75368819  0.00056775  1
  Nb5+  Nb89  1  0.24839442  0.23960078  -0.00214123  1
  Nb5+  Nb90  1  0.24305940  0.75131867  0.00234274  1
  Nb5+  Nb91  1  0.74699860  -0.00157072  0.25165717  1
  Nb5+  Nb92  1  0.50301439  0.75028592  0.24860603  1
  Nb5+  Nb93  1  0.00388579  0.24034890  0.74983022  1
  Nb5+  Nb94  1  0.24858747  0.00067962  0.75303064  1
  Nb5+  Nb95  1  0.00310908  0.74341932  0.75236023  1
  Nb5+  Nb96  1  0.00282845  0.00092986  0.25654068  1
  Nb5+  Nb97  1  -0.00032917  -0.00761623  0.75246878  1
  Nb5+  Nb98  1  -0.00271793  0.49992816  0.24856471  1
  Nb5+  Nb99  1  0.00304611  0.49184772  0.75347145  1
  Nb5+  Nb100  1  0.49646238  -0.00119859  0.25311980  1
  Nb5+  Nb101  1  0.50714308  -0.00387115  0.74980441  1
  Nb5+  Nb102  1  0.49754559  0.49578530  0.24175570  1
  Nb5+  Nb103  1  0.49690589  0.49934951  0.74801912  1
  Nb5+  Nb104  1  0.25047639  0.24356886  0.26055570  1
  Nb5+  Nb105  1  0.24881359  0.24898825  0.75288167  1
  Nb5+  Nb106  1  0.24563099  0.75325583  0.25074814  1
  Nb5+  Nb107  1  0.24823059  0.74967792  0.75119474  1
  Nb5+  Nb108  1  0.75001329  0.25725495  0.24326593  1
  Nb5+  Nb109  1  0.74682216  0.24912251  0.75490771  1
  Nb5+  Nb110  1  0.74782465  0.75096301  0.25061571  1
  Nb5+  Nb111  1  0.74332306  0.75267053  0.74636972  1
  Nb5+  Nb112  1  0.00189108  0.24294299  0.49977072  1
  Nb5+  Nb113  1  -0.00092114  0.25089130  0.99581089  1
  Nb5+  Nb114  1  -0.00097356  0.74792932  0.49537099  1
  Nb5+  Nb115  1  -0.00378889  0.75276569  1.00087751  1
  Nb5+  Nb116  1  0.49996267  0.25563829  0.49955361  1
  Nb5+  Nb117  1  0.50266527  0.25488010  1.00163466  1
  Nb5+  Nb118  1  0.49971070  0.74631269  0.51010995  1
  Nb5+  Nb119  1  0.49338038  0.75108211  0.99827837  1
  Nb5+  Nb120  1  0.24646215  -0.00582008  -0.00399289  1
  Nb5+  Nb121  1  0.25080578  0.00159079  0.49356414  1
  Nb5+  Nb122  1  0.25067760  0.48658543  -0.00182939  1
  Nb5+  Nb123  1  0.25625064  0.50292150  0.49914396  1
  Nb5+  Nb124  1  0.74498734  -0.00250607  -0.00161824  1
  Nb5+  Nb125  1  0.75089532  0.00096388  0.50372571  1
  Nb5+  Nb126  1  0.75600456  0.49547507  0.00444880  1
  Nb5+  Nb127  1  0.74786141  0.49965334  0.49942543  1
  O2-  O128  1  0.00376067  -0.02466159  0.11386166  1
  O2-  O129  1  0.01615266  -0.02089399  0.63861376  1
  O2-  O130  1  -0.00452014  0.48172733  0.13354440  1
  O2-  O131  1  -0.00844092  0.49339390  0.62404317  1
  O2-  O132  1  0.51157215  0.01137930  0.11618837  1
  O2-  O133  1  0.51673588  0.01629316  0.63596853  1
  O2-  O134  1  0.51641187  0.52328809  0.13023276  1
  O2-  O135  1  0.48949212  0.52194576  0.63192206  1
  O2-  O136  1  -0.00281964  0.03566279  0.36436330  1
  O2-  O137  1  -0.00682378  0.01720616  0.87671479  1
  O2-  O138  1  0.00159676  0.51076324  0.38204319  1
  O2-  O139  1  0.02127917  0.51046446  0.86466699  1
  O2-  O140  1  0.47946744  -0.02143647  0.36381550  1
  O2-  O141  1  0.49419744  -0.02187059  0.87974923  1
  O2-  O142  1  0.49619768  0.50060831  0.36208141  1
  O2-  O143  1  0.50706113  0.47771075  0.86807190  1
  O2-  O144  1  0.22642780  0.26613767  0.11122045  1
  O2-  O145  1  0.22646540  0.26669112  0.64150691  1
  O2-  O146  1  0.26016603  0.78010691  0.11544019  1
  O2-  O147  1  0.26253206  0.77725489  0.64040420  1
  O2-  O148  1  0.72541999  0.22438288  0.13245810  1
  O2-  O149  1  0.73536939  0.22820114  0.63755375  1
  O2-  O150  1  0.75789686  0.73629332  0.11737716  1
  O2-  O151  1  0.75223216  0.72672749  0.63662853  1
  O2-  O152  1  0.26939877  0.22114720  0.36982552  1
  O2-  O153  1  0.26059285  0.22263336  0.87950268  1
  O2-  O154  1  0.23663045  0.72820642  0.36233480  1
  O2-  O155  1  0.23191809  0.74055524  0.88164439  1
  O2-  O156  1  0.77517854  0.25774552  0.36168203  1
  O2-  O157  1  0.77816291  0.26553586  0.87014228  1
  O2-  O158  1  0.74486196  0.77818864  0.36228097  1
  O2-  O159  1  0.74703405  0.77615537  0.88293094  1
  O2-  O160  1  0.02246396  0.26776254  0.10974128  1
  O2-  O161  1  0.02169512  0.26749356  0.63688659  1
  O2-  O162  1  -0.00832560  0.78012138  0.11158946  1
  O2-  O163  1  0.00046376  0.76392454  0.63572008  1
  O2-  O164  1  0.50717607  0.21495715  0.11111939  1
  O2-  O165  1  0.52839170  0.24619901  0.61746020  1
  O2-  O166  1  0.48998176  0.74275945  0.11950321  1
  O2-  O167  1  0.47879450  0.72389612  0.61946793  1
  O2-  O168  1  0.26499944  0.02370726  0.38294422  1
  O2-  O169  1  0.25751115  0.02325937  0.87837735  1
  O2-  O170  1  0.24017140  0.52904156  0.38285370  1
  O2-  O171  1  0.23978675  0.52224981  0.88507172  1
  O2-  O172  1  0.75482936  -0.02061538  0.36678635  1
  O2-  O173  1  0.76138325  -0.02873391  0.88766281  1
  O2-  O174  1  0.75675171  0.46325139  0.38334920  1
  O2-  O175  1  0.75214816  0.48719681  0.88279542  1
  O2-  O176  1  -0.02397736  0.22936911  0.38912484  1
  O2-  O177  1  -0.01293993  0.22708235  0.87280386  1
  O2-  O178  1  -0.00077758  0.72778327  0.38329303  1
  O2-  O179  1  0.01635377  0.74330837  0.87492007  1
  O2-  O180  1  0.47184019  0.25602095  0.38075610  1
  O2-  O181  1  0.47373753  0.25333056  0.88733843  1
  O2-  O182  1  0.51673652  0.76743140  0.36214443  1
  O2-  O183  1  0.50603892  0.77935447  0.88681947  1
  O2-  O184  1  0.24816356  -0.01995366  0.11039684  1
  O2-  O185  1  0.23237069  -0.01506859  0.63782931  1
  O2-  O186  1  0.25186585  0.47572720  0.11616376  1
  O2-  O187  1  0.26228781  0.46939939  0.61544826  1
  O2-  O188  1  0.74395343  0.01239002  0.12229091  1
  O2-  O189  1  0.73944918  0.01840196  0.61746389  1
  O2-  O190  1  0.74492333  0.53087047  0.11616267  1
  O2-  O191  1  0.75087995  0.54035505  0.61209228  1
  O2-  O192  1  0.13260940  0.27349228  0.26603259  1
  O2-  O193  1  0.12150285  0.25729762  0.77901914  1
  O2-  O194  1  0.13496637  0.78365910  0.24070752  1
  O2-  O195  1  0.12427732  0.77779596  0.75033688  1
  O2-  O196  1  0.63187413  0.26630317  0.26977375  1
  O2-  O197  1  0.63406431  0.26457411  0.77776311  1
  O2-  O198  1  0.62459237  0.76990543  0.22559807  1
  O2-  O199  1  0.63375210  0.78607298  0.74373145  1
  O2-  O200  1  0.35913653  0.22901143  0.21634493  1
  O2-  O201  1  0.36164435  0.22795789  0.73831129  1
  O2-  O202  1  0.38409727  0.73545518  0.25392727  1
  O2-  O203  1  0.36051487  0.74006770  0.77891356  1
  O2-  O204  1  0.86589853  0.23105244  0.22397139  1
  O2-  O205  1  0.88560870  0.23413191  0.73657043  1
  O2-  O206  1  0.86270416  0.73509169  0.24505993  1
  O2-  O207  1  0.88634369  0.73172642  0.76225069  1
  O2-  O208  1  0.27196317  0.36424686  0.26509068  1
  O2-  O209  1  0.25744260  0.36085451  0.78522465  1
  O2-  O210  1  0.28304255  0.86530582  0.26445046  1
  O2-  O211  1  0.25668371  0.88359349  0.77637080  1
  O2-  O212  1  0.76322724  0.36843852  0.21585141  1
  O2-  O213  1  0.77404862  0.36507701  0.73403725  1
  O2-  O214  1  0.75760777  0.87745013  0.22695536  1
  O2-  O215  1  0.78852343  0.86260659  0.73800242  1
  O2-  O216  1  0.21516542  0.13250148  0.23521577  1
  O2-  O217  1  0.22597616  0.12280026  0.74575642  1
  O2-  O218  1  0.24336292  0.64170650  0.21164542  1
  O2-  O219  1  0.22578561  0.63828333  0.73761164  1
  O2-  O220  1  0.73106353  0.11608633  0.26362120  1
  O2-  O221  1  0.74693369  0.13141106  0.77842472  1
  O2-  O222  1  0.72147723  0.63878743  0.25883743  1
  O2-  O223  1  0.73718503  0.64009675  0.78235089  1
  O2-  O224  1  0.11696948  0.47592508  0.25426467  1
  O2-  O225  1  0.11774221  0.48501159  0.72654055  1
  O2-  O226  1  0.11487057  0.97309116  0.25753872  1
  O2-  O227  1  0.12323346  0.99268433  0.77344158  1
  O2-  O228  1  0.61762749  0.47811100  0.25312676  1
  O2-  O229  1  0.61562661  0.46503492  0.73488867  1
  O2-  O230  1  0.62450887  0.98007992  0.24701733  1
  O2-  O231  1  0.61848263  0.97457439  0.76407996  1
  O2-  O232  1  0.38654932  0.01427473  0.22335979  1
  O2-  O233  1  0.36533486  0.01803407  0.74511721  1
  O2-  O234  1  0.38475867  0.53414263  0.24131129  1
  O2-  O235  1  0.38233428  0.53980811  0.75998052  1
  O2-  O236  1  0.86597630  0.01382929  0.24206771  1
  O2-  O237  1  0.88904236  0.02432279  0.74443147  1
  O2-  O238  1  0.88490661  0.53992234  0.25388221  1
  O2-  O239  1  0.88842029  0.52128028  0.75403596  1
  O2-  O240  1  0.47090772  0.38365686  0.23014150  1
  O2-  O241  1  0.45649193  0.38469243  0.73807323  1
  O2-  O242  1  0.49205600  0.87529560  0.22807559  1
  O2-  O243  1  0.46718914  0.88611515  0.73692048  1
  O2-  O244  1  0.96810223  0.38407793  0.26696372  1
  O2-  O245  1  0.98771551  0.37494671  0.76582523  1
  O2-  O246  1  0.96770495  0.88799310  0.26565768  1
  O2-  O247  1  0.98588008  0.87717768  0.77026610  1
  O2-  O248  1  0.00408034  0.11062851  0.21203118  1
  O2-  O249  1  0.02095300  0.12569657  0.73800309  1
  O2-  O250  1  0.03415794  0.61666216  0.24243661  1
  O2-  O251  1  0.02390258  0.62966904  0.74335059  1
  O2-  O252  1  0.52289029  0.11155016  0.26352311  1
  O2-  O253  1  0.50357663  0.11292277  0.77371960  1
  O2-  O254  1  0.52471293  0.63525767  0.25192603  1
  O2-  O255  1  0.53775845  0.61540762  0.76430871  1
  O2-  O256  1  0.13283835  0.49155330  0.00891791  1
  O2-  O257  1  0.12030918  0.48669720  0.50446648  1
  O2-  O258  1  0.12856715  0.98464210  -0.01169489  1
  O2-  O259  1  0.13387850  0.97187721  0.49046725  1
  O2-  O260  1  0.63628659  0.48180620  -0.00201531  1
  O2-  O261  1  0.63442526  0.47551997  0.50402843  1
  O2-  O262  1  0.62644599  0.97943716  -0.00543429  1
  O2-  O263  1  0.63366813  0.97525502  0.49093477  1
  O2-  O264  1  0.37705896  0.01340182  0.00150104  1
  O2-  O265  1  0.36335344  0.02144408  0.52815776  1
  O2-  O266  1  0.36233334  0.52669489  0.00005695  1
  O2-  O267  1  0.36788120  0.52842215  0.49165823  1
  O2-  O268  1  0.87760586  0.01110954  0.00705367  1
  O2-  O269  1  0.86659043  0.02914215  0.49483455  1
  O2-  O270  1  0.86772448  0.53697025  -0.00367738  1
  O2-  O271  1  0.88063152  0.52008088  0.49691135  1
  O2-  O272  1  0.47446791  0.36351902  0.02560936  1
  O2-  O273  1  0.47286135  0.37066331  0.50372316  1
  O2-  O274  1  0.48557184  0.87861464  0.01855740  1
  O2-  O275  1  0.46984563  0.86445229  0.51421499  1
  O2-  O276  1  0.98213280  0.36279061  -0.02670692  1
  O2-  O277  1  0.98287739  0.37924323  0.49812501  1
  O2-  O278  1  0.99302109  0.87946647  -0.02763804  1
  O2-  O279  1  0.97669258  0.86392211  0.48666925  1
  O2-  O280  1  0.02107367  0.11603028  0.00785267  1
  O2-  O281  1  0.02459824  0.13415198  0.52505635  1
  O2-  O282  1  0.02383669  0.64154671  0.01326934  1
  O2-  O283  1  0.01740853  0.62268043  0.51514159  1
  O2-  O284  1  0.51241044  0.11634352  -0.02092516  1
  O2-  O285  1  0.51661714  0.13238498  0.48580240  1
  O2-  O286  1  0.51535372  0.63912021  -0.01595943  1
  O2-  O287  1  0.54083561  0.63677140  0.48913560  1
  O2-  O288  1  0.12501758  0.25133102  -0.02621941  1
  O2-  O289  1  0.11393964  0.27703344  0.48446403  1
  O2-  O290  1  0.12753356  0.77798172  0.00675513  1
  O2-  O291  1  0.11642690  0.76768057  0.50608570  1
  O2-  O292  1  0.61490358  0.27190172  -0.01884316  1
  O2-  O293  1  0.61846625  0.27260755  0.47855996  1
  O2-  O294  1  0.62551920  0.77211434  0.01034076  1
  O2-  O295  1  0.61409362  0.78547385  0.50909966  1
  O2-  O296  1  0.36513334  0.23463921  0.01419618  1
  O2-  O297  1  0.38260470  0.23009353  0.52905939  1
  O2-  O298  1  0.37327632  0.74229229  -0.01021879  1
  O2-  O299  1  0.38936173  0.72533476  0.46879492  1
  O2-  O300  1  0.88867801  0.22164686  0.01603318  1
  O2-  O301  1  0.88805218  0.24287930  0.53417018  1
  O2-  O302  1  0.87953411  0.74125566  -0.01331060  1
  O2-  O303  1  0.88370312  0.72691267  0.51472678  1
  O2-  O304  1  0.26223192  0.37121454  -0.02383658  1
  O2-  O305  1  0.26427077  0.38500862  0.47134863  1
  O2-  O306  1  0.26515839  0.87971968  -0.02548739  1
  O2-  O307  1  0.27187844  0.88192460  0.48513792  1
  O2-  O308  1  0.78107227  0.38503854  0.02544577  1
  O2-  O309  1  0.77478386  0.38654584  0.53249744  1
  O2-  O310  1  0.76677011  0.87407450  0.02223220  1
  O2-  O311  1  0.77723674  0.88388580  0.51364273  1
  O2-  O312  1  0.23674136  0.12230819  0.01649426  1
  O2-  O313  1  0.21810458  0.11591794  0.51305520  1
  O2-  O314  1  0.23421800  0.63750650  0.01784662  1
  O2-  O315  1  0.23253259  0.61530497  0.53495909  1
  O2-  O316  1  0.73683123  0.11150304  -0.02061951  1
  O2-  O317  1  0.72842572  0.11807291  0.47790244  1
  O2-  O318  1  0.73356212  0.63784383  -0.01775359  1
  O2-  O319  1  0.74217261  0.61282576  0.45615973  1
