# generated using pymatgen
data_Sr64Ca21Nb43O192
_symmetry_space_group_name_H-M   'P 1'
_cell_length_a   16.56816649
_cell_length_b   16.58200552
_cell_length_c   16.72380790
_cell_angle_alpha   89.99048744
_cell_angle_beta   89.99592934
_cell_angle_gamma   89.89080183
_symmetry_Int_Tables_number   1
_chemical_formula_structural   Sr64Ca21Nb43O192
_chemical_formula_sum   'Sr64 Ca21 Nb43 O192'
_cell_volume   4594.58065620
_cell_formula_units_Z   1
loop_
 _symmetry_equiv_pos_site_id
 _symmetry_equiv_pos_as_xyz
  1  'x, y, z'
loop_
 _atom_type_symbol
 _atom_type_oxidation_number
  Sr2+  2.0
  Ca2+  2.0
  Nb5+  5.0
  O2-  -2.0
loop_
 _atom_site_type_symbol
 _atom_site_label
 _atom_site_symmetry_multiplicity
 _atom_site_fract_x
 _atom_site_fract_y
 _atom_site_fract_z
 _atom_site_occupancy
  Sr2+  Sr0  1  0.11690420  0.11539376  0.12605851  1
  Sr2+  Sr1  1  0.11637615  0.11309949  0.62794504  1
  Sr2+  Sr2  1  0.12742296  0.63964916  0.12021554  1
  Sr2+  Sr3  1  0.12475035  0.62638159  0.62301346  1
  Sr2+  Sr4  1  0.63353723  0.10674600  0.12842112  1
  Sr2+  Sr5  1  0.63369170  0.11816253  0.62250992  1
  Sr2+  Sr6  1  0.62534201  0.63221528  0.12907673  1
  Sr2+  Sr7  1  0.62573803  0.63524523  0.62737064  1
  Sr2+  Sr8  1  0.37195893  0.36861048  0.11416138  1
  Sr2+  Sr9  1  0.37736010  0.37134845  0.62222369  1
  Sr2+  Sr10  1  0.37329629  0.86031553  0.12433446  1
  Sr2+  Sr11  1  0.37799604  0.87718110  0.62147011  1
  Sr2+  Sr12  1  0.87069078  0.37642183  0.12931763  1
  Sr2+  Sr13  1  0.87215121  0.37138907  0.62436967  1
  Sr2+  Sr14  1  0.87512186  0.88315277  0.11955219  1
  Sr2+  Sr15  1  0.87425255  0.84221043  0.62178615  1
  Sr2+  Sr16  1  0.12390678  0.37942154  0.36832914  1
  Sr2+  Sr17  1  0.13138200  0.37729835  0.88033447  1
  Sr2+  Sr18  1  0.14308529  0.88048400  0.37428263  1
  Sr2+  Sr19  1  0.12454757  0.88191991  0.87853072  1
  Sr2+  Sr20  1  0.61642578  0.38320352  0.37716447  1
  Sr2+  Sr21  1  0.62614655  0.38064891  0.88449502  1
  Sr2+  Sr22  1  0.61547561  0.88416524  0.37072136  1
  Sr2+  Sr23  1  0.62492218  0.87907501  0.86558900  1
  Sr2+  Sr24  1  0.37221719  0.13142607  0.38186996  1
  Sr2+  Sr25  1  0.37688694  0.13354305  0.87389109  1
  Sr2+  Sr26  1  0.37453232  0.62596787  0.38548764  1
  Sr2+  Sr27  1  0.37600683  0.63009804  0.87215500  1
  Sr2+  Sr28  1  0.88293865  0.14096766  0.37666399  1
  Sr2+  Sr29  1  0.87508968  0.13233826  0.87853371  1
  Sr2+  Sr30  1  0.88195866  0.63281722  0.36795609  1
  Sr2+  Sr31  1  0.88728871  0.63316855  0.87196768  1
  Sr2+  Sr32  1  0.13208163  0.12414979  0.37330969  1
  Sr2+  Sr33  1  0.12457041  0.12335783  0.87232307  1
  Sr2+  Sr34  1  0.12515486  0.64328750  0.36711796  1
  Sr2+  Sr35  1  0.13382928  0.63954912  0.87330567  1
  Sr2+  Sr36  1  0.62285225  0.12571761  0.37343611  1
  Sr2+  Sr37  1  0.62488926  0.12006947  0.87514887  1
  Sr2+  Sr38  1  0.61976219  0.64117804  0.37141655  1
  Sr2+  Sr39  1  0.63016602  0.63775599  0.87874310  1
  Sr2+  Sr40  1  0.37218723  0.39276987  0.37372646  1
  Sr2+  Sr41  1  0.37050954  0.38469969  0.87304515  1
  Sr2+  Sr42  1  0.37270761  0.90245090  0.37638346  1
  Sr2+  Sr43  1  0.37563832  0.88639037  0.87135615  1
  Sr2+  Sr44  1  0.87760493  0.38498973  0.37359149  1
  Sr2+  Sr45  1  0.87637127  0.38471920  0.87904610  1
  Sr2+  Sr46  1  0.88083391  0.86605967  0.38203256  1
  Sr2+  Sr47  1  0.87714790  0.89212460  0.87754126  1
  Sr2+  Sr48  1  0.12046557  0.36472157  0.12302298  1
  Sr2+  Sr49  1  0.12166821  0.36898387  0.63309517  1
  Sr2+  Sr50  1  0.12788752  0.87557919  0.12313047  1
  Sr2+  Sr51  1  0.11349143  0.86448587  0.62518651  1
  Sr2+  Sr52  1  0.61951635  0.37083368  0.12973528  1
  Sr2+  Sr53  1  0.63438346  0.36794140  0.62043974  1
  Sr2+  Sr54  1  0.62403311  0.86345478  0.13463435  1
  Sr2+  Sr55  1  0.63187884  0.86965585  0.61715421  1
  Sr2+  Sr56  1  0.39343596  0.12706420  0.12316574  1
  Sr2+  Sr57  1  0.38722256  0.11438147  0.62871407  1
  Sr2+  Sr58  1  0.38825413  0.62287290  0.12096610  1
  Sr2+  Sr59  1  0.37759761  0.61401500  0.62438228  1
  Sr2+  Sr60  1  0.87498679  0.12383565  0.13418920  1
  Sr2+  Sr61  1  0.86805106  0.13043245  0.62443946  1
  Sr2+  Sr62  1  0.86573184  0.61721638  0.12775906  1
  Sr2+  Sr63  1  0.87164860  0.61608236  0.62656259  1
  Ca2+  Ca64  1  0.49877307  -0.00391728  0.00166703  1
  Ca2+  Ca65  1  -0.00107142  0.50075011  -0.00037317  1
  Ca2+  Ca66  1  -0.00187921  0.49986851  0.49866746  1
  Ca2+  Ca67  1  -0.00271611  -0.00088669  0.50038576  1
  Ca2+  Ca68  1  0.50058945  0.49811530  -0.00229234  1
  Ca2+  Ca69  1  0.75261005  0.74976754  0.00040709  1
  Ca2+  Ca70  1  0.74967633  0.74517990  0.49737831  1
  Ca2+  Ca71  1  0.75350694  0.25073410  0.00108020  1
  Ca2+  Ca72  1  0.24931758  0.25269808  0.50412619  1
  Ca2+  Ca73  1  0.25305881  0.75046299  0.50393009  1
  Ca2+  Ca74  1  0.75482246  0.00235087  0.25509610  1
  Ca2+  Ca75  1  0.25035427  0.00289424  0.74870677  1
  Ca2+  Ca76  1  0.75115122  -0.00008549  0.74783267  1
  Ca2+  Ca77  1  0.24984748  0.50370929  0.24393247  1
  Ca2+  Ca78  1  0.25299394  0.00440444  0.24485518  1
  Ca2+  Ca79  1  0.50402066  0.24947838  0.75025107  1
  Ca2+  Ca80  1  0.49611451  0.75063301  0.25503420  1
  Ca2+  Ca81  1  0.49672410  0.74729250  0.74714641  1
  Ca2+  Ca82  1  0.50015807  0.25029691  0.25350119  1
  Ca2+  Ca83  1  -0.00008980  0.74998345  0.75274356  1
  Ca2+  Ca84  1  -0.00023794  0.75439950  0.24469120  1
  Nb5+  Nb85  1  -0.00077972  0.00242280  -0.00148302  1
  Nb5+  Nb86  1  0.50350070  0.00809145  0.50162132  1
  Nb5+  Nb87  1  0.50485574  0.50506495  0.50064096  1
  Nb5+  Nb88  1  0.25137945  0.75744738  -0.00416756  1
  Nb5+  Nb89  1  0.24953089  0.25046147  -0.00035989  1
  Nb5+  Nb90  1  0.75081016  0.25102711  0.49625296  1
  Nb5+  Nb91  1  0.75197922  0.49931140  0.75549708  1
  Nb5+  Nb92  1  0.25051865  0.50014365  0.75288711  1
  Nb5+  Nb93  1  -0.00256599  0.25127895  0.75703248  1
  Nb5+  Nb94  1  0.74736348  0.50043286  0.25831281  1
  Nb5+  Nb95  1  0.00205979  0.25323055  0.25497123  1
  Nb5+  Nb96  1  0.00099882  -0.00122591  0.25616459  1
  Nb5+  Nb97  1  -0.00585575  -0.00090163  0.74456807  1
  Nb5+  Nb98  1  0.00451134  0.50068175  0.24456919  1
  Nb5+  Nb99  1  0.00472455  0.49786591  0.75146994  1
  Nb5+  Nb100  1  0.49774251  -0.00028150  0.24524074  1
  Nb5+  Nb101  1  0.50349109  -0.00244264  0.75070618  1
  Nb5+  Nb102  1  0.49740169  0.49959669  0.25023092  1
  Nb5+  Nb103  1  0.51145042  0.49430381  0.74825861  1
  Nb5+  Nb104  1  0.25363825  0.24827951  0.25080035  1
  Nb5+  Nb105  1  0.24864116  0.24968709  0.74959463  1
  Nb5+  Nb106  1  0.25271912  0.74947115  0.25401990  1
  Nb5+  Nb107  1  0.25004293  0.75448455  0.74801600  1
  Nb5+  Nb108  1  0.74832697  0.25477692  0.25182550  1
  Nb5+  Nb109  1  0.74810527  0.25359817  0.75348843  1
  Nb5+  Nb110  1  0.75602607  0.75635412  0.25072330  1
  Nb5+  Nb111  1  0.75269584  0.75027324  0.75378686  1
  Nb5+  Nb112  1  0.00394495  0.25461822  0.50560149  1
  Nb5+  Nb113  1  -0.00155105  0.24719511  1.00618863  1
  Nb5+  Nb114  1  0.00365180  0.74589564  0.49818564  1
  Nb5+  Nb115  1  -0.00193150  0.74896734  0.99943311  1
  Nb5+  Nb116  1  0.49877483  0.25471509  0.49999142  1
  Nb5+  Nb117  1  0.50679462  0.25044331  1.00068471  1
  Nb5+  Nb118  1  0.49966290  0.75976203  0.50015827  1
  Nb5+  Nb119  1  0.50306870  0.75232478  0.99791198  1
  Nb5+  Nb120  1  0.25036131  0.00820431  -0.00158750  1
  Nb5+  Nb121  1  0.24520823  0.00154387  0.50742448  1
  Nb5+  Nb122  1  0.24904456  0.50777179  0.00001934  1
  Nb5+  Nb123  1  0.24251468  0.49535559  0.50120127  1
  Nb5+  Nb124  1  0.74378445  -0.00297960  0.00111752  1
  Nb5+  Nb125  1  0.75535714  -0.00121921  0.49663771  1
  Nb5+  Nb126  1  0.74884021  0.49965864  0.00889290  1
  Nb5+  Nb127  1  0.74751203  0.50186840  0.50225356  1
  O2-  O128  1  -0.01788472  0.01678492  0.11682169  1
  O2-  O129  1  -0.02019813  0.03117391  0.63405915  1
  O2-  O130  1  -0.03228802  0.50370048  0.13251716  1
  O2-  O131  1  -0.02549858  0.50406413  0.63719538  1
  O2-  O132  1  0.46660882  -0.01540936  0.13579544  1
  O2-  O133  1  0.48014074  -0.01121513  0.61958510  1
  O2-  O134  1  0.48281716  0.47928767  0.13726263  1
  O2-  O135  1  0.48882711  0.47636513  0.61668494  1
  O2-  O136  1  0.03093750  -0.00891315  0.36624349  1
  O2-  O137  1  0.01809494  -0.00787736  0.87546270  1
  O2-  O138  1  0.00649705  0.47774839  0.36134609  1
  O2-  O139  1  0.00420562  0.46723098  0.86466692  1
  O2-  O140  1  0.52224132  0.01124140  0.38446696  1
  O2-  O141  1  0.52746958  0.00211928  0.86617527  1
  O2-  O142  1  0.52342546  0.51406361  0.38233613  1
  O2-  O143  1  0.52711965  0.51096291  0.86076134  1
  O2-  O144  1  0.23948252  0.26343253  0.11778612  1
  O2-  O145  1  0.23991666  0.27709912  0.63892221  1
  O2-  O146  1  0.23215395  0.76318218  0.11347091  1
  O2-  O147  1  0.22045102  0.75508840  0.63685230  1
  O2-  O148  1  0.74834247  0.25753149  0.13678557  1
  O2-  O149  1  0.74257549  0.24900287  0.62185420  1
  O2-  O150  1  0.72659769  0.74708570  0.13455768  1
  O2-  O151  1  0.73137207  0.74868799  0.63474681  1
  O2-  O152  1  0.25144602  0.24064992  0.36618790  1
  O2-  O153  1  0.24926492  0.23290145  0.87834808  1
  O2-  O154  1  0.26386152  0.72756237  0.36715605  1
  O2-  O155  1  0.26581345  0.73393958  0.87634442  1
  O2-  O156  1  0.77328395  0.25998343  0.37777479  1
  O2-  O157  1  0.77545791  0.26269489  0.86433699  1
  O2-  O158  1  0.77925122  0.74378530  0.36690276  1
  O2-  O159  1  0.76945318  0.72400478  0.86779853  1
  O2-  O160  1  0.01547707  0.23772598  0.12240094  1
  O2-  O161  1  0.01240874  0.24014284  0.62227476  1
  O2-  O162  1  0.03234678  0.75688185  0.11202091  1
  O2-  O163  1  0.02346952  0.74197864  0.61891854  1
  O2-  O164  1  0.49256345  0.27421347  0.11835978  1
  O2-  O165  1  0.52272173  0.26599643  0.61444050  1
  O2-  O166  1  0.51108686  0.76549169  0.11882154  1
  O2-  O167  1  0.53099176  0.75890234  0.61457911  1
  O2-  O168  1  0.23389369  0.00863787  0.38565177  1
  O2-  O169  1  0.22159602  0.00294992  0.88331437  1
  O2-  O170  1  0.22926897  0.50867321  0.38677546  1
  O2-  O171  1  0.22105185  0.50550307  0.87243712  1
  O2-  O172  1  0.71690102  -0.00209041  0.38652799  1
  O2-  O173  1  0.72582375  -0.00792908  0.88319488  1
  O2-  O174  1  0.73138002  0.48983534  0.37424902  1
  O2-  O175  1  0.72881043  0.49242722  0.86777518  1
  O2-  O176  1  -0.00815305  0.26671683  0.37027607  1
  O2-  O177  1  -0.01734097  0.25741681  0.87312402  1
  O2-  O178  1  -0.02021939  0.74985476  0.38028722  1
  O2-  O179  1  -0.02304034  0.77350028  0.88567820  1
  O2-  O180  1  0.49782202  0.21983386  0.38777138  1
  O2-  O181  1  0.49962084  0.21944275  0.88548034  1
  O2-  O182  1  0.48330406  0.72283750  0.38902847  1
  O2-  O183  1  0.48441293  0.72928099  0.88279937  1
  O2-  O184  1  0.26523095  -0.02204004  0.10958474  1
  O2-  O185  1  0.28608279  0.00046868  0.61764523  1
  O2-  O186  1  0.28419311  0.49942326  0.10970592  1
  O2-  O187  1  0.26401638  0.47898671  0.63698551  1
  O2-  O188  1  0.77654832  0.01143195  0.11677503  1
  O2-  O189  1  0.75972766  0.02583386  0.61248252  1
  O2-  O190  1  0.76337292  0.49923975  0.12601144  1
  O2-  O191  1  0.76254020  0.49985127  0.61999773  1
  O2-  O192  1  0.12029895  0.27961846  0.25456603  1
  O2-  O193  1  0.11511360  0.27369953  0.76262949  1
  O2-  O194  1  0.13451708  0.77844320  0.26227923  1
  O2-  O195  1  0.13407824  0.76274799  0.77936260  1
  O2-  O196  1  0.63712171  0.28025151  0.26522462  1
  O2-  O197  1  0.63743429  0.28464146  0.76343994  1
  O2-  O198  1  0.63710791  0.76580607  0.27294965  1
  O2-  O199  1  0.63403029  0.75568873  0.77512842  1
  O2-  O200  1  0.36472943  0.21980184  0.23929168  1
  O2-  O201  1  0.36273817  0.23082609  0.74657669  1
  O2-  O202  1  0.36433490  0.72893446  0.22022118  1
  O2-  O203  1  0.36000336  0.71444822  0.73615188  1
  O2-  O204  1  0.88139543  0.23483007  0.24316370  1
  O2-  O205  1  0.87736363  0.23563481  0.73285300  1
  O2-  O206  1  0.86765757  0.71837688  0.22968447  1
  O2-  O207  1  0.86703057  0.71820080  0.73024272  1
  O2-  O208  1  0.27343985  0.36662417  0.24989068  1
  O2-  O209  1  0.25124274  0.37430240  0.77606551  1
  O2-  O210  1  0.27445974  0.86773241  0.26088037  1
  O2-  O211  1  0.27488972  0.86584382  0.75637228  1
  O2-  O212  1  0.77630666  0.37868346  0.25148230  1
  O2-  O213  1  0.77081185  0.37972610  0.73702496  1
  O2-  O214  1  0.78142511  0.86852774  0.24788306  1
  O2-  O215  1  0.77568570  0.86313374  0.75724087  1
  O2-  O216  1  0.21488508  0.13788589  0.23561214  1
  O2-  O217  1  0.21558014  0.13912308  0.74043691  1
  O2-  O218  1  0.21861115  0.63527178  0.23360086  1
  O2-  O219  1  0.22276053  0.61394746  0.74317015  1
  O2-  O220  1  0.73199190  0.13973479  0.25901232  1
  O2-  O221  1  0.72737335  0.13940648  0.75619355  1
  O2-  O222  1  0.72969650  0.61615099  0.25208533  1
  O2-  O223  1  0.72534457  0.61217068  0.74288639  1
  O2-  O224  1  0.11511202  0.47255876  0.22693302  1
  O2-  O225  1  0.11868929  0.47978163  0.73337692  1
  O2-  O226  1  0.11337724  0.99083812  0.21945137  1
  O2-  O227  1  0.11258917  0.98643046  0.73063030  1
  O2-  O228  1  0.63057887  0.47672219  0.23688141  1
  O2-  O229  1  0.62518081  0.47453558  0.72935483  1
  O2-  O230  1  0.61800986  0.97948428  0.23041602  1
  O2-  O231  1  0.61779036  0.96711535  0.72783268  1
  O2-  O232  1  0.38576446  0.02648018  0.27938682  1
  O2-  O233  1  0.38578638  0.02781271  0.76902190  1
  O2-  O234  1  0.38556832  0.52137189  0.27615736  1
  O2-  O235  1  0.36451149  0.51311305  0.76866984  1
  O2-  O236  1  0.89010531  0.03908664  0.26492358  1
  O2-  O237  1  0.88329135  0.02340364  0.77908320  1
  O2-  O238  1  0.86804254  0.51647625  0.26659333  1
  O2-  O239  1  0.86759039  0.51535013  0.76817431  1
  O2-  O240  1  0.49181814  0.38519178  0.28256063  1
  O2-  O241  1  0.46841087  0.38524232  0.75534191  1
  O2-  O242  1  0.48719897  0.88498584  0.27799345  1
  O2-  O243  1  0.46944016  0.88156785  0.75245385  1
  O2-  O244  1  0.97942050  0.36987984  0.23326267  1
  O2-  O245  1  0.97928180  0.36879590  0.73434959  1
  O2-  O246  1  0.96869684  0.88933254  0.24284274  1
  O2-  O247  1  0.97526857  0.88609507  0.73005245  1
  O2-  O248  1  0.02370516  0.13539865  0.25881385  1
  O2-  O249  1  0.01689395  0.13351999  0.76073843  1
  O2-  O250  1  0.02231406  0.61470581  0.25448411  1
  O2-  O251  1  0.01429979  0.61129240  0.77162938  1
  O2-  O252  1  0.52644356  0.11630111  0.23459030  1
  O2-  O253  1  0.52559057  0.11392235  0.72853942  1
  O2-  O254  1  0.52679089  0.61354334  0.24129458  1
  O2-  O255  1  0.50281646  0.60673076  0.71957014  1
  O2-  O256  1  0.13667057  0.47440621  0.01709362  1
  O2-  O257  1  0.13299012  0.47233155  0.52323275  1
  O2-  O258  1  0.12176267  0.98649266  0.01587341  1
  O2-  O259  1  0.13326974  0.98139796  0.53301570  1
  O2-  O260  1  0.63423326  0.46311261  0.01100825  1
  O2-  O261  1  0.62341070  0.46954399  0.50978397  1
  O2-  O262  1  0.63359004  0.97441858  0.03062615  1
  O2-  O263  1  0.62119297  0.98551916  0.52135061  1
  O2-  O264  1  0.36308265  0.02153642  -0.02597543  1
  O2-  O265  1  0.38384787  0.02263131  0.48332463  1
  O2-  O266  1  0.36257450  0.50920917  -0.03636669  1
  O2-  O267  1  0.38598522  0.51395245  0.48586658  1
  O2-  O268  1  0.88264177  0.01913868  -0.02330960  1
  O2-  O269  1  0.86452141  0.02330602  0.46991658  1
  O2-  O270  1  0.86073888  0.53023912  -0.02227104  1
  O2-  O271  1  0.85937310  0.52065011  0.47879809  1
  O2-  O272  1  0.47027289  0.36240488  -0.02079446  1
  O2-  O273  1  0.48611166  0.36951369  0.47805107  1
  O2-  O274  1  0.46288213  0.86399098  -0.00931168  1
  O2-  O275  1  0.48238871  0.87619408  0.48930413  1
  O2-  O276  1  0.98111855  0.36118638  0.01030534  1
  O2-  O277  1  0.96389968  0.36523528  0.50426542  1
  O2-  O278  1  0.98723041  0.88324347  0.00798255  1
  O2-  O279  1  0.97161026  0.86523086  0.50995756  1
  O2-  O280  1  0.02373780  0.12411580  -0.01390942  1
  O2-  O281  1  0.01449592  0.14021980  0.47784014  1
  O2-  O282  1  0.02282367  0.63607582  -0.01875141  1
  O2-  O283  1  0.03662463  0.62947758  0.48987880  1
  O2-  O284  1  0.51557322  0.13266568  0.02957094  1
  O2-  O285  1  0.52107788  0.12278445  0.51950541  1
  O2-  O286  1  0.50937400  0.63239692  0.02103662  1
  O2-  O287  1  0.52005327  0.61737831  0.51807618  1
  O2-  O288  1  0.12339094  0.26243699  -0.01164302  1
  O2-  O289  1  0.11419658  0.28561882  0.49200886  1
  O2-  O290  1  0.13054093  0.76438577  -0.02355652  1
  O2-  O291  1  0.11895096  0.77757470  0.47909234  1
  O2-  O292  1  0.61859986  0.27620557  -0.00330348  1
  O2-  O293  1  0.63157361  0.26888925  0.48463751  1
  O2-  O294  1  0.61531908  0.77500463  -0.02031851  1
  O2-  O295  1  0.61712735  0.76941386  0.47368130  1
  O2-  O296  1  0.36484535  0.22556258  0.00606252  1
  O2-  O297  1  0.38695219  0.23083820  0.51981347  1
  O2-  O298  1  0.36503882  0.72777858  0.01446693  1
  O2-  O299  1  0.38738024  0.73362926  0.53050080  1
  O2-  O300  1  0.88741444  0.21660019  0.01126264  1
  O2-  O301  1  0.87119989  0.23014661  0.51102273  1
  O2-  O302  1  0.88783619  0.73033885  0.02708772  1
  O2-  O303  1  0.88516283  0.71823769  0.51982952  1
  O2-  O304  1  0.26404976  0.36751785  -0.01350837  1
  O2-  O305  1  0.28523938  0.38593487  0.49661608  1
  O2-  O306  1  0.26361017  0.87214363  -0.01936562  1
  O2-  O307  1  0.27406636  0.88544938  0.49130339  1
  O2-  O308  1  0.78384786  0.38485143  -0.00226507  1
  O2-  O309  1  0.76490387  0.37413609  0.50474582  1
  O2-  O310  1  0.78392639  0.88411368  -0.00117224  1
  O2-  O311  1  0.77120635  0.88478196  0.51051111  1
  O2-  O312  1  0.22729465  0.12352187  0.01218866  1
  O2-  O313  1  0.22624880  0.12025789  0.51034515  1
  O2-  O314  1  0.22812325  0.62295480  0.00243002  1
  O2-  O315  1  0.24832587  0.60936448  0.52857329  1
  O2-  O316  1  0.72761782  0.11641900  -0.00932696  1
  O2-  O317  1  0.72966029  0.13423070  0.48980732  1
  O2-  O318  1  0.71331331  0.61309131  0.00383262  1
  O2-  O319  1  0.71285379  0.61132802  0.49862742  1
