# generated using pymatgen
data_Sr64Ca21Nb43O192
_symmetry_space_group_name_H-M   'P 1'
_cell_length_a   16.51987573
_cell_length_b   16.55985502
_cell_length_c   16.71423964
_cell_angle_alpha   89.96107602
_cell_angle_beta   89.98309268
_cell_angle_gamma   89.99986891
_symmetry_Int_Tables_number   1
_chemical_formula_structural   Sr64Ca21Nb43O192
_chemical_formula_sum   'Sr64 Ca21 Nb43 O192'
_cell_volume   4572.45891093
_cell_formula_units_Z   1
loop_
 _symmetry_equiv_pos_site_id
 _symmetry_equiv_pos_as_xyz
  1  'x, y, z'
loop_
 _atom_type_symbol
 _atom_type_oxidation_number
  Sr2+  2.0
  Ca2+  2.0
  Nb5+  5.0
  O2-  -2.0
loop_
 _atom_site_type_symbol
 _atom_site_label
 _atom_site_symmetry_multiplicity
 _atom_site_fract_x
 _atom_site_fract_y
 _atom_site_fract_z
 _atom_site_occupancy
  Sr2+  Sr0  1  0.11724696  0.11804349  0.12678566  1
  Sr2+  Sr1  1  0.11455806  0.10531538  0.62412065  1
  Sr2+  Sr2  1  0.11466626  0.63473258  0.11871007  1
  Sr2+  Sr3  1  0.11813169  0.63619789  0.63140241  1
  Sr2+  Sr4  1  0.62027832  0.11972945  0.12622750  1
  Sr2+  Sr5  1  0.61359760  0.11089897  0.63235540  1
  Sr2+  Sr6  1  0.61170105  0.63070036  0.11563835  1
  Sr2+  Sr7  1  0.62177602  0.63833475  0.61881642  1
  Sr2+  Sr8  1  0.36742015  0.37756822  0.12292555  1
  Sr2+  Sr9  1  0.36931046  0.37837797  0.63142509  1
  Sr2+  Sr10  1  0.36756191  0.86956623  0.12756140  1
  Sr2+  Sr11  1  0.37493174  0.87528445  0.62651275  1
  Sr2+  Sr12  1  0.87037010  0.37622685  0.12405688  1
  Sr2+  Sr13  1  0.86986478  0.38923791  0.62436811  1
  Sr2+  Sr14  1  0.86736678  0.87533799  0.12884865  1
  Sr2+  Sr15  1  0.87219441  0.87292255  0.63218431  1
  Sr2+  Sr16  1  0.13048680  0.37407868  0.37776585  1
  Sr2+  Sr17  1  0.13755195  0.37371387  0.86832852  1
  Sr2+  Sr18  1  0.13335819  0.87957111  0.38599294  1
  Sr2+  Sr19  1  0.12364665  0.87288233  0.84524370  1
  Sr2+  Sr20  1  0.62852635  0.36674445  0.37782179  1
  Sr2+  Sr21  1  0.63449477  0.37035911  0.87416483  1
  Sr2+  Sr22  1  0.63263087  0.87291526  0.38583864  1
  Sr2+  Sr23  1  0.62770948  0.87447833  0.85543418  1
  Sr2+  Sr24  1  0.39287299  0.13212278  0.37689243  1
  Sr2+  Sr25  1  0.39219814  0.13376805  0.87534559  1
  Sr2+  Sr26  1  0.37571445  0.61974108  0.36620583  1
  Sr2+  Sr27  1  0.39029543  0.61599547  0.87212036  1
  Sr2+  Sr28  1  0.88602145  0.12667774  0.37485851  1
  Sr2+  Sr29  1  0.89768637  0.12740502  0.87950276  1
  Sr2+  Sr30  1  0.88420243  0.62534476  0.38136494  1
  Sr2+  Sr31  1  0.89119663  0.61988267  0.86875682  1
  Sr2+  Sr32  1  0.12535519  0.12105992  0.38042823  1
  Sr2+  Sr33  1  0.12619676  0.12362430  0.86466888  1
  Sr2+  Sr34  1  0.12658088  0.62382248  0.37919382  1
  Sr2+  Sr35  1  0.13000991  0.63870520  0.87663386  1
  Sr2+  Sr36  1  0.62850235  0.11818504  0.37218156  1
  Sr2+  Sr37  1  0.63111486  0.12206220  0.86869838  1
  Sr2+  Sr38  1  0.63348291  0.63215687  0.38044587  1
  Sr2+  Sr39  1  0.62830753  0.63273783  0.87894338  1
  Sr2+  Sr40  1  0.37952544  0.36870342  0.37369361  1
  Sr2+  Sr41  1  0.37679042  0.37460099  0.87615416  1
  Sr2+  Sr42  1  0.38337302  0.88499455  0.38575342  1
  Sr2+  Sr43  1  0.37768830  0.86697932  0.85749351  1
  Sr2+  Sr44  1  0.88807639  0.37263117  0.37419653  1
  Sr2+  Sr45  1  0.87638916  0.37325109  0.87251457  1
  Sr2+  Sr46  1  0.87127816  0.86550967  0.37875056  1
  Sr2+  Sr47  1  0.88148566  0.88896902  0.86897006  1
  Sr2+  Sr48  1  0.12250051  0.37970236  0.12418608  1
  Sr2+  Sr49  1  0.12189901  0.37565026  0.62522374  1
  Sr2+  Sr50  1  0.12658741  0.86711500  0.12706627  1
  Sr2+  Sr51  1  0.15261114  0.87296047  0.62131400  1
  Sr2+  Sr52  1  0.62924170  0.37834371  0.12384032  1
  Sr2+  Sr53  1  0.62969710  0.38156705  0.63122253  1
  Sr2+  Sr54  1  0.62487432  0.87154501  0.12469924  1
  Sr2+  Sr55  1  0.59949965  0.87251241  0.62245683  1
  Sr2+  Sr56  1  0.36803678  0.12531361  0.12254166  1
  Sr2+  Sr57  1  0.37042681  0.12910127  0.62726134  1
  Sr2+  Sr58  1  0.36803838  0.63158393  0.12297848  1
  Sr2+  Sr59  1  0.37590363  0.63264951  0.62651874  1
  Sr2+  Sr60  1  0.86845201  0.12211017  0.12238154  1
  Sr2+  Sr61  1  0.87035292  0.12412546  0.65202891  1
  Sr2+  Sr62  1  0.87061465  0.62911279  0.11911358  1
  Sr2+  Sr63  1  0.86168912  0.62744163  0.62299833  1
  Ca2+  Ca64  1  0.00568659  -0.00001751  0.00267209  1
  Ca2+  Ca65  1  0.49812535  0.49785664  0.49816526  1
  Ca2+  Ca66  1  0.50144022  0.00374470  0.49968935  1
  Ca2+  Ca67  1  0.49892337  0.00197376  0.00061347  1
  Ca2+  Ca68  1  -0.00528845  -0.00266462  0.49983072  1
  Ca2+  Ca69  1  0.25094502  0.75187678  -0.00331453  1
  Ca2+  Ca70  1  0.25075858  0.74232294  0.49653039  1
  Ca2+  Ca71  1  0.74934748  0.25175677  0.49760756  1
  Ca2+  Ca72  1  0.24674589  0.25150191  0.49661921  1
  Ca2+  Ca73  1  0.75301659  0.75048140  -0.00102522  1
  Ca2+  Ca74  1  0.74886818  -0.00087302  0.74868903  1
  Ca2+  Ca75  1  0.25236526  0.00454468  0.75112498  1
  Ca2+  Ca76  1  -0.00239444  0.25480066  0.75039892  1
  Ca2+  Ca77  1  0.25155708  0.50044818  0.74987313  1
  Ca2+  Ca78  1  -0.00278059  0.74713889  0.74685614  1
  Ca2+  Ca79  1  0.50271757  0.74544352  0.75149672  1
  Ca2+  Ca80  1  0.50287826  0.75000263  0.25041184  1
  Ca2+  Ca81  1  0.75003970  0.50496054  0.75176989  1
  Ca2+  Ca82  1  0.50027696  0.25456053  0.75319204  1
  Ca2+  Ca83  1  -0.00028937  0.74751835  0.25104917  1
  Ca2+  Ca84  1  0.75048339  0.50302422  0.25233452  1
  Nb5+  Nb85  1  0.00183783  0.49961163  0.50062957  1
  Nb5+  Nb86  1  0.49585760  0.49708488  0.00133980  1
  Nb5+  Nb87  1  -0.00141473  0.49777229  -0.00266949  1
  Nb5+  Nb88  1  0.25165943  0.24616850  -0.00090616  1
  Nb5+  Nb89  1  0.75321538  0.24707422  -0.00028131  1
  Nb5+  Nb90  1  0.75088619  0.75131370  0.50398904  1
  Nb5+  Nb91  1  0.00647295  0.25111584  0.24786286  1
  Nb5+  Nb92  1  0.24770790  0.50537954  0.24594384  1
  Nb5+  Nb93  1  0.74552722  -0.00183436  0.24967332  1
  Nb5+  Nb94  1  0.24657616  0.00390438  0.24991526  1
  Nb5+  Nb95  1  0.50525852  0.25256205  0.24729955  1
  Nb5+  Nb96  1  -0.00768150  -0.00233608  0.25084765  1
  Nb5+  Nb97  1  -0.00082337  -0.00080395  0.74885033  1
  Nb5+  Nb98  1  0.00396268  0.50170489  0.24703198  1
  Nb5+  Nb99  1  0.00163532  0.49928882  0.74487748  1
  Nb5+  Nb100  1  0.49309994  -0.00110071  0.24774750  1
  Nb5+  Nb101  1  0.49698906  0.00133981  0.75449349  1
  Nb5+  Nb102  1  0.50387234  0.49671101  0.25023913  1
  Nb5+  Nb103  1  0.50495658  0.50053153  0.74455055  1
  Nb5+  Nb104  1  0.25300319  0.25282645  0.24817362  1
  Nb5+  Nb105  1  0.24723685  0.25172046  0.74289044  1
  Nb5+  Nb106  1  0.25240353  0.75859364  0.25392051  1
  Nb5+  Nb107  1  0.25152805  0.74674229  0.74860427  1
  Nb5+  Nb108  1  0.75683875  0.24995921  0.25078342  1
  Nb5+  Nb109  1  0.75124670  0.25484442  0.74409096  1
  Nb5+  Nb110  1  0.74641805  0.74572752  0.24864705  1
  Nb5+  Nb111  1  0.74934743  0.74943926  0.75417544  1
  Nb5+  Nb112  1  -0.00563666  0.24991423  0.50406165  1
  Nb5+  Nb113  1  0.00749486  0.25356065  1.00228129  1
  Nb5+  Nb114  1  -0.00102085  0.75241580  0.50252860  1
  Nb5+  Nb115  1  -0.00454959  0.75588734  1.00061014  1
  Nb5+  Nb116  1  0.49991368  0.25108115  0.50965298  1
  Nb5+  Nb117  1  0.50628862  0.25232080  1.00404028  1
  Nb5+  Nb118  1  0.49511963  0.74539039  0.49497603  1
  Nb5+  Nb119  1  0.49749759  0.75734226  1.00259503  1
  Nb5+  Nb120  1  0.25072459  -0.00244904  -0.00315707  1
  Nb5+  Nb121  1  0.25351940  0.00263393  0.50043335  1
  Nb5+  Nb122  1  0.24475997  0.49875988  0.00084640  1
  Nb5+  Nb123  1  0.25040965  0.49916856  0.50323054  1
  Nb5+  Nb124  1  0.74968047  -0.00158967  -0.00083679  1
  Nb5+  Nb125  1  0.75420031  0.00282519  0.50310780  1
  Nb5+  Nb126  1  0.74466051  0.49962023  0.00216495  1
  Nb5+  Nb127  1  0.74764199  0.49826531  0.49292883  1
  O2-  O128  1  -0.00759052  0.02905054  0.13799318  1
  O2-  O129  1  -0.02431884  0.01819703  0.63251764  1
  O2-  O130  1  0.01869044  0.50629761  0.12548174  1
  O2-  O131  1  0.01289601  0.50815310  0.62282069  1
  O2-  O132  1  0.48943228  0.03558438  0.13682852  1
  O2-  O133  1  0.47577259  0.02242304  0.63448811  1
  O2-  O134  1  0.50950850  0.51191036  0.12621779  1
  O2-  O135  1  0.52836215  0.51474989  0.63314715  1
  O2-  O136  1  0.02710877  -0.00570260  0.36188522  1
  O2-  O137  1  0.02253395  -0.01064229  0.86918344  1
  O2-  O138  1  -0.00151623  0.48614661  0.37060801  1
  O2-  O139  1  -0.00959615  0.47995831  0.88152919  1
  O2-  O140  1  0.52362708  -0.01220446  0.36048638  1
  O2-  O141  1  0.52661925  -0.01818904  0.86982073  1
  O2-  O142  1  0.47802176  0.47811271  0.36147610  1
  O2-  O143  1  0.48636311  0.47740484  0.88757520  1
  O2-  O144  1  0.25482900  0.26168303  0.12628640  1
  O2-  O145  1  0.25447633  0.27555366  0.63098464  1
  O2-  O146  1  0.25710339  0.76422246  0.13462711  1
  O2-  O147  1  0.27700138  0.75033979  0.62930585  1
  O2-  O148  1  0.75536276  0.25879599  0.12782122  1
  O2-  O149  1  0.76832139  0.27210885  0.63155231  1
  O2-  O150  1  0.76453718  0.76435636  0.13547289  1
  O2-  O151  1  0.76799902  0.75947573  0.62077639  1
  O2-  O152  1  0.22605407  0.23843749  0.35890053  1
  O2-  O153  1  0.24122719  0.23178826  0.88449792  1
  O2-  O154  1  0.24266940  0.71755558  0.36284350  1
  O2-  O155  1  0.22401617  0.75667274  0.86570003  1
  O2-  O156  1  0.72249278  0.23956560  0.35997705  1
  O2-  O157  1  0.73342084  0.24098875  0.88604943  1
  O2-  O158  1  0.73931063  0.74512041  0.37905232  1
  O2-  O159  1  0.72954431  0.74574939  0.86786676  1
  O2-  O160  1  -0.01252858  0.23644182  0.12555735  1
  O2-  O161  1  -0.02725479  0.23940443  0.61486337  1
  O2-  O162  1  -0.01311906  0.72404716  0.11829502  1
  O2-  O163  1  -0.01389588  0.71639290  0.61386017  1
  O2-  O164  1  0.48772812  0.23124402  0.12560487  1
  O2-  O165  1  0.49953075  0.22531089  0.61995323  1
  O2-  O166  1  0.48925404  0.72050311  0.11810168  1
  O2-  O167  1  0.49421012  0.73015614  0.61597930  1
  O2-  O168  1  0.22871525  0.00605791  0.36725513  1
  O2-  O169  1  0.21883053  0.00416174  0.88753363  1
  O2-  O170  1  0.25071580  0.52019078  0.36218405  1
  O2-  O171  1  0.26542869  0.50991688  0.88856339  1
  O2-  O172  1  0.72743408  0.00400683  0.36596230  1
  O2-  O173  1  0.72465657  0.00392379  0.88701795  1
  O2-  O174  1  0.76071645  0.53817248  0.38203025  1
  O2-  O175  1  0.77283714  0.50510622  0.88971140  1
  O2-  O176  1  0.01258110  0.27168752  0.36236096  1
  O2-  O177  1  -0.00126783  0.27372052  0.88988510  1
  O2-  O178  1  0.00166642  0.74629434  0.38533004  1
  O2-  O179  1  0.01410944  0.75867373  0.88449569  1
  O2-  O180  1  0.50230586  0.27289032  0.36313839  1
  O2-  O181  1  0.49556119  0.27754303  0.89171145  1
  O2-  O182  1  0.51791338  0.77194921  0.38279924  1
  O2-  O183  1  0.51835497  0.76750683  0.88701497  1
  O2-  O184  1  0.27945139  -0.00957217  0.13717042  1
  O2-  O185  1  0.27767483  -0.00258639  0.61360353  1
  O2-  O186  1  0.24479759  0.47446535  0.12351411  1
  O2-  O187  1  0.24522437  0.46939897  0.61353229  1
  O2-  O188  1  0.77599140  -0.00312045  0.13242268  1
  O2-  O189  1  0.78544028  -0.00261336  0.61283504  1
  O2-  O190  1  0.75506700  0.47870740  0.11793894  1
  O2-  O191  1  0.74786677  0.48429444  0.61211865  1
  O2-  O192  1  0.12248924  0.26345153  0.22836383  1
  O2-  O193  1  0.13040300  0.27920662  0.75319593  1
  O2-  O194  1  0.13431358  0.77695891  0.24969660  1
  O2-  O195  1  0.13131323  0.77063735  0.72415468  1
  O2-  O196  1  0.62072017  0.26608998  0.23146901  1
  O2-  O197  1  0.63396830  0.27980655  0.74994828  1
  O2-  O198  1  0.63655331  0.79033716  0.25073962  1
  O2-  O199  1  0.63410954  0.78208463  0.73233896  1
  O2-  O200  1  0.36961327  0.23231962  0.25565628  1
  O2-  O201  1  0.36311424  0.22151279  0.75427338  1
  O2-  O202  1  0.36729334  0.72361282  0.25363954  1
  O2-  O203  1  0.36727341  0.72662934  0.77374900  1
  O2-  O204  1  0.87446582  0.23114382  0.25744086  1
  O2-  O205  1  0.86304882  0.22438279  0.77314734  1
  O2-  O206  1  0.86282981  0.72849071  0.26738678  1
  O2-  O207  1  0.86400822  0.71659523  0.75654344  1
  O2-  O208  1  0.26734535  0.36921973  0.25866342  1
  O2-  O209  1  0.27100980  0.36492321  0.77719350  1
  O2-  O210  1  0.27428594  0.87530042  0.26892977  1
  O2-  O211  1  0.27013219  0.86907612  0.74779767  1
  O2-  O212  1  0.77372745  0.36490077  0.26084503  1
  O2-  O213  1  0.77330077  0.36938039  0.76892202  1
  O2-  O214  1  0.77595020  0.88376189  0.25852356  1
  O2-  O215  1  0.78069642  0.86676623  0.75922259  1
  O2-  O216  1  0.23668916  0.12214405  0.23532191  1
  O2-  O217  1  0.21618641  0.13614238  0.73463880  1
  O2-  O218  1  0.22889848  0.61623868  0.22253140  1
  O2-  O219  1  0.22021912  0.63146511  0.74447237  1
  O2-  O220  1  0.73927021  0.12422815  0.23833525  1
  O2-  O221  1  0.72459180  0.13630366  0.73356121  1
  O2-  O222  1  0.71255849  0.63622338  0.23454747  1
  O2-  O223  1  0.71502079  0.63539397  0.73619203  1
  O2-  O224  1  0.13058182  0.46751708  0.25223120  1
  O2-  O225  1  0.11608726  0.46753904  0.75194865  1
  O2-  O226  1  0.13239851  0.98430905  0.23026424  1
  O2-  O227  1  0.11657651  0.97832099  0.72354623  1
  O2-  O228  1  0.61448658  0.46249738  0.25474579  1
  O2-  O229  1  0.61716462  0.46940185  0.76891244  1
  O2-  O230  1  0.62977099  0.99111611  0.22734607  1
  O2-  O231  1  0.61569479  0.98380424  0.72366234  1
  O2-  O232  1  0.37738154  0.01663391  0.27230662  1
  O2-  O233  1  0.38194710  0.01601631  0.78628087  1
  O2-  O234  1  0.36839246  0.51082193  0.23400675  1
  O2-  O235  1  0.38542160  0.52890061  0.73473163  1
  O2-  O236  1  0.87830183  0.02134515  0.26643643  1
  O2-  O237  1  0.88167291  0.02250513  0.77743106  1
  O2-  O238  1  0.89030625  0.52270803  0.24014727  1
  O2-  O239  1  0.88537075  0.53052078  0.73826322  1
  O2-  O240  1  0.47522794  0.36821573  0.22716218  1
  O2-  O241  1  0.46850928  0.38652965  0.74007970  1
  O2-  O242  1  0.48249016  0.88743743  0.22409921  1
  O2-  O243  1  0.47613954  0.88158503  0.73685389  1
  O2-  O244  1  0.98323509  0.37254986  0.23276801  1
  O2-  O245  1  0.96548761  0.38631807  0.74127346  1
  O2-  O246  1  0.97923644  0.88501031  0.23451590  1
  O2-  O247  1  0.97301365  0.88165432  0.74654518  1
  O2-  O248  1  0.01614027  0.13344419  0.26583373  1
  O2-  O249  1  0.01998117  0.12012348  0.76016614  1
  O2-  O250  1  0.03712468  0.61099356  0.25751605  1
  O2-  O251  1  0.02634503  0.61148820  0.77543400  1
  O2-  O252  1  0.51299452  0.13390285  0.26763516  1
  O2-  O253  1  0.51999769  0.11992558  0.77130571  1
  O2-  O254  1  0.52014266  0.60961096  0.26743909  1
  O2-  O255  1  0.51964577  0.61204527  0.78444131  1
  O2-  O256  1  0.12802753  0.47391402  -0.00677564  1
  O2-  O257  1  0.11829343  0.47199082  0.49244908  1
  O2-  O258  1  0.14066270  0.98926373  0.04071223  1
  O2-  O259  1  0.13283372  0.97795141  0.51255086  1
  O2-  O260  1  0.62749757  0.47566148  -0.00335268  1
  O2-  O261  1  0.63386066  0.48060988  0.48106203  1
  O2-  O262  1  0.63681341  0.99267994  0.03607027  1
  O2-  O263  1  0.63814993  0.97464218  0.51314437  1
  O2-  O264  1  0.36052584  0.04233088  -0.00639904  1
  O2-  O265  1  0.36704540  0.01629830  0.46609325  1
  O2-  O266  1  0.37722881  0.50812268  0.01607088  1
  O2-  O267  1  0.36160000  0.53248914  0.50451969  1
  O2-  O268  1  0.86475853  0.03323648  -0.00712198  1
  O2-  O269  1  0.86341363  0.00488925  0.45700403  1
  O2-  O270  1  0.88298540  0.51275030  0.01467910  1
  O2-  O271  1  0.88117157  0.51912652  0.50617238  1
  O2-  O272  1  0.48900717  0.37531461  0.02902875  1
  O2-  O273  1  0.46121067  0.36536588  0.51277301  1
  O2-  O274  1  0.47825386  0.86799631  0.02614807  1
  O2-  O275  1  0.48062038  0.86606248  0.51560108  1
  O2-  O276  1  0.98587301  0.37562281  0.02406989  1
  O2-  O277  1  0.97458099  0.37997534  0.50843634  1
  O2-  O278  1  0.96992265  0.86698084  0.01588928  1
  O2-  O279  1  0.96796016  0.86275486  0.50932368  1
  O2-  O280  1  0.02127132  0.13886885  -0.01236397  1
  O2-  O281  1  0.01367846  0.13643714  0.48171224  1
  O2-  O282  1  0.02497770  0.61032489  -0.01284930  1
  O2-  O283  1  0.01750985  0.61561286  0.48489294  1
  O2-  O284  1  0.51960215  0.13931750  -0.01813452  1
  O2-  O285  1  0.52519459  0.13902534  0.47374500  1
  O2-  O286  1  0.52079073  0.61047514  -0.01446821  1
  O2-  O287  1  0.52866324  0.63148053  0.48327854  1
  O2-  O288  1  0.12389699  0.27386818  0.01058280  1
  O2-  O289  1  0.10875473  0.27859563  0.50533902  1
  O2-  O290  1  0.11393331  0.75800727  0.02038240  1
  O2-  O291  1  0.11445133  0.77113684  0.50983715  1
  O2-  O292  1  0.62282094  0.27015048  0.01562433  1
  O2-  O293  1  0.61361524  0.28902700  0.50661650  1
  O2-  O294  1  0.61654190  0.75581483  0.02206883  1
  O2-  O295  1  0.63150205  0.76593375  0.51265538  1
  O2-  O296  1  0.37055981  0.23683404  0.00206422  1
  O2-  O297  1  0.38126684  0.22198871  0.49367191  1
  O2-  O298  1  0.38509861  0.71842414  -0.01388983  1
  O2-  O299  1  0.38368842  0.72205963  0.47841145  1
  O2-  O300  1  0.87135512  0.23576871  -0.00107496  1
  O2-  O301  1  0.88299773  0.24654587  0.46220222  1
  O2-  O302  1  0.88481690  0.71104168  -0.01107350  1
  O2-  O303  1  0.87049097  0.72635304  0.48996411  1
  O2-  O304  1  0.26449340  0.37002559  -0.01047310  1
  O2-  O305  1  0.26159680  0.38775503  0.46359135  1
  O2-  O306  1  0.28320831  0.88742362  -0.00385845  1
  O2-  O307  1  0.26531506  0.88080442  0.48337262  1
  O2-  O308  1  0.76302551  0.36860700  -0.00547308  1
  O2-  O309  1  0.77318438  0.38800340  0.46949102  1
  O2-  O310  1  0.77515671  0.88609704  -0.00191917  1
  O2-  O311  1  0.76875973  0.86994204  0.48879548  1
  O2-  O312  1  0.22477599  0.13332833  0.02029123  1
  O2-  O313  1  0.22146860  0.11705768  0.50529676  1
  O2-  O314  1  0.23194931  0.61150279  0.01994192  1
  O2-  O315  1  0.20811695  0.60900269  0.50982880  1
  O2-  O316  1  0.72862855  0.13215713  0.01658392  1
  O2-  O317  1  0.73002869  0.11613659  0.50347640  1
  O2-  O318  1  0.72822018  0.61283814  0.01546039  1
  O2-  O319  1  0.73345552  0.62886202  0.51646344  1
