# generated using pymatgen
data_Sr64Ca21Nb43O192
_symmetry_space_group_name_H-M   'P 1'
_cell_length_a   16.56641785
_cell_length_b   16.58220131
_cell_length_c   16.74665770
_cell_angle_alpha   90.03319129
_cell_angle_beta   90.03680670
_cell_angle_gamma   90.01469443
_symmetry_Int_Tables_number   1
_chemical_formula_structural   Sr64Ca21Nb43O192
_chemical_formula_sum   'Sr64 Ca21 Nb43 O192'
_cell_volume   4600.43354299
_cell_formula_units_Z   1
loop_
 _symmetry_equiv_pos_site_id
 _symmetry_equiv_pos_as_xyz
  1  'x, y, z'
loop_
 _atom_type_symbol
 _atom_type_oxidation_number
  Sr2+  2.0
  Ca2+  2.0
  Nb5+  5.0
  O2-  -2.0
loop_
 _atom_site_type_symbol
 _atom_site_label
 _atom_site_symmetry_multiplicity
 _atom_site_fract_x
 _atom_site_fract_y
 _atom_site_fract_z
 _atom_site_occupancy
  Sr2+  Sr0  1  0.11154833  0.12705100  0.12583665  1
  Sr2+  Sr1  1  0.11667542  0.12790297  0.62063135  1
  Sr2+  Sr2  1  0.13124181  0.64553372  0.12446097  1
  Sr2+  Sr3  1  0.11857135  0.62862648  0.63150344  1
  Sr2+  Sr4  1  0.61922672  0.11639067  0.13074584  1
  Sr2+  Sr5  1  0.63125342  0.11416342  0.63173722  1
  Sr2+  Sr6  1  0.62667466  0.63564251  0.11710689  1
  Sr2+  Sr7  1  0.62971429  0.62237124  0.62418628  1
  Sr2+  Sr8  1  0.37564308  0.36510194  0.11927512  1
  Sr2+  Sr9  1  0.37032123  0.36453990  0.62435837  1
  Sr2+  Sr10  1  0.36925679  0.87246921  0.11984064  1
  Sr2+  Sr11  1  0.37473452  0.87082550  0.63285423  1
  Sr2+  Sr12  1  0.88924385  0.36158529  0.13075051  1
  Sr2+  Sr13  1  0.88044475  0.35570961  0.62204067  1
  Sr2+  Sr14  1  0.87526444  0.86840360  0.12397157  1
  Sr2+  Sr15  1  0.88133060  0.85828805  0.62717005  1
  Sr2+  Sr16  1  0.11351998  0.39241275  0.36883074  1
  Sr2+  Sr17  1  0.13630003  0.37796295  0.86860252  1
  Sr2+  Sr18  1  0.12776252  0.87026914  0.38291120  1
  Sr2+  Sr19  1  0.12086629  0.88499094  0.88443246  1
  Sr2+  Sr20  1  0.61881152  0.37690136  0.37545733  1
  Sr2+  Sr21  1  0.61055364  0.38386638  0.87388913  1
  Sr2+  Sr22  1  0.62422460  0.87941883  0.38201383  1
  Sr2+  Sr23  1  0.62017571  0.87104900  0.86066533  1
  Sr2+  Sr24  1  0.38489915  0.13315845  0.37534882  1
  Sr2+  Sr25  1  0.37908662  0.13280867  0.86629445  1
  Sr2+  Sr26  1  0.36998508  0.62746577  0.37453363  1
  Sr2+  Sr27  1  0.37984021  0.61827330  0.87186943  1
  Sr2+  Sr28  1  0.85917788  0.13361672  0.37441725  1
  Sr2+  Sr29  1  0.87291387  0.12917591  0.88775514  1
  Sr2+  Sr30  1  0.87927453  0.63043856  0.37008058  1
  Sr2+  Sr31  1  0.85206920  0.62986407  0.87768251  1
  Sr2+  Sr32  1  0.13190481  0.13097387  0.37410860  1
  Sr2+  Sr33  1  0.11765251  0.14119793  0.87812503  1
  Sr2+  Sr34  1  0.12347398  0.63295472  0.36850350  1
  Sr2+  Sr35  1  0.12905640  0.61100342  0.87317988  1
  Sr2+  Sr36  1  0.62238310  0.13366286  0.37439460  1
  Sr2+  Sr37  1  0.62123796  0.12154073  0.86737596  1
  Sr2+  Sr38  1  0.61290857  0.61363011  0.37687019  1
  Sr2+  Sr39  1  0.61792404  0.62142575  0.87648222  1
  Sr2+  Sr40  1  0.38171740  0.38086737  0.37379040  1
  Sr2+  Sr41  1  0.37183837  0.36775948  0.87551783  1
  Sr2+  Sr42  1  0.36886174  0.88908301  0.37595934  1
  Sr2+  Sr43  1  0.37820768  0.90159472  0.87291679  1
  Sr2+  Sr44  1  0.86947685  0.37097583  0.38431026  1
  Sr2+  Sr45  1  0.88737315  0.37661169  0.86325283  1
  Sr2+  Sr46  1  0.87027860  0.88735944  0.37701567  1
  Sr2+  Sr47  1  0.87571330  0.87381154  0.86993929  1
  Sr2+  Sr48  1  0.12395465  0.37300345  0.12123310  1
  Sr2+  Sr49  1  0.10828983  0.37239086  0.63154997  1
  Sr2+  Sr50  1  0.10902659  0.87839030  0.12567054  1
  Sr2+  Sr51  1  0.10486115  0.86921312  0.62093259  1
  Sr2+  Sr52  1  0.62748146  0.36730398  0.12424081  1
  Sr2+  Sr53  1  0.64538137  0.37359722  0.62684302  1
  Sr2+  Sr54  1  0.63161577  0.86652337  0.12520024  1
  Sr2+  Sr55  1  0.60977141  0.87049311  0.62750943  1
  Sr2+  Sr56  1  0.36128497  0.12419502  0.12677106  1
  Sr2+  Sr57  1  0.37795953  0.11462595  0.63772813  1
  Sr2+  Sr58  1  0.37288937  0.62759694  0.11655592  1
  Sr2+  Sr59  1  0.37572649  0.62883273  0.61879412  1
  Sr2+  Sr60  1  0.87183445  0.11788460  0.12611641  1
  Sr2+  Sr61  1  0.88559642  0.12314557  0.61647821  1
  Sr2+  Sr62  1  0.86578366  0.63733370  0.12183420  1
  Sr2+  Sr63  1  0.87878330  0.62329954  0.63389399  1
  Ca2+  Ca64  1  0.49981138  0.00382533  0.00157564  1
  Ca2+  Ca65  1  0.00187816  0.50372295  0.49987781  1
  Ca2+  Ca66  1  0.00010260  0.49964003  0.00015228  1
  Ca2+  Ca67  1  0.00170475  -0.00247068  0.49378130  1
  Ca2+  Ca68  1  0.49972784  0.00063600  0.49766325  1
  Ca2+  Ca69  1  0.74866242  0.25244227  0.00219252  1
  Ca2+  Ca70  1  0.74967599  0.74745439  0.49971254  1
  Ca2+  Ca71  1  0.25027871  0.24884969  0.00065922  1
  Ca2+  Ca72  1  0.25171056  0.25366001  0.49924083  1
  Ca2+  Ca73  1  0.24869057  0.75362902  -0.00487281  1
  Ca2+  Ca74  1  0.00336175  0.74961719  0.75700406  1
  Ca2+  Ca75  1  0.49484583  0.74517150  0.75097187  1
  Ca2+  Ca76  1  0.74560478  0.50233584  0.24823662  1
  Ca2+  Ca77  1  0.00011629  0.25001070  0.25486607  1
  Ca2+  Ca78  1  0.75766801  -0.00029244  0.74911043  1
  Ca2+  Ca79  1  -0.00139072  0.75049037  0.24689512  1
  Ca2+  Ca80  1  0.50082038  0.74960946  0.25171584  1
  Ca2+  Ca81  1  0.50513363  0.25457269  0.74663259  1
  Ca2+  Ca82  1  -0.00120236  0.24277966  0.74835018  1
  Ca2+  Ca83  1  0.74832285  0.49792246  0.75356149  1
  Ca2+  Ca84  1  0.24187990  -0.00140084  0.74880357  1
  Nb5+  Nb85  1  -0.00216590  0.00270697  0.00172412  1
  Nb5+  Nb86  1  0.49842250  0.49772192  0.49884444  1
  Nb5+  Nb87  1  0.49845214  0.50094922  -0.00007937  1
  Nb5+  Nb88  1  0.74597103  0.75630358  -0.00479806  1
  Nb5+  Nb89  1  0.74508703  0.24671536  0.50265201  1
  Nb5+  Nb90  1  0.25322139  0.75023599  0.50310650  1
  Nb5+  Nb91  1  0.74171036  -0.00179253  0.24890539  1
  Nb5+  Nb92  1  0.24375618  0.00478850  0.24756414  1
  Nb5+  Nb93  1  0.25312715  0.49896068  0.74037462  1
  Nb5+  Nb94  1  0.25095809  0.50249190  0.24487002  1
  Nb5+  Nb95  1  0.49946658  0.25092818  0.24989867  1
  Nb5+  Nb96  1  -0.00564835  0.00190221  0.25244333  1
  Nb5+  Nb97  1  0.00034728  -0.00044596  0.74730816  1
  Nb5+  Nb98  1  -0.00657379  0.50433865  0.24698217  1
  Nb5+  Nb99  1  -0.00261471  0.50192992  0.75386541  1
  Nb5+  Nb100  1  0.48982098  -0.00017615  0.25089554  1
  Nb5+  Nb101  1  0.50135513  -0.00127083  0.74893374  1
  Nb5+  Nb102  1  0.49724548  0.49841819  0.24222591  1
  Nb5+  Nb103  1  0.49785046  0.49557587  0.73908598  1
  Nb5+  Nb104  1  0.25087249  0.26002038  0.25526037  1
  Nb5+  Nb105  1  0.24840710  0.24692805  0.74316729  1
  Nb5+  Nb106  1  0.25592626  0.75745018  0.24933206  1
  Nb5+  Nb107  1  0.24795756  0.75088047  0.75557160  1
  Nb5+  Nb108  1  0.74973431  0.25187136  0.24685800  1
  Nb5+  Nb109  1  0.75434524  0.25044154  0.75861650  1
  Nb5+  Nb110  1  0.74596834  0.75123030  0.25767252  1
  Nb5+  Nb111  1  0.74970424  0.74767701  0.74478104  1
  Nb5+  Nb112  1  0.00693367  0.25064359  0.48981090  1
  Nb5+  Nb113  1  -0.00478116  0.25568977  0.99853231  1
  Nb5+  Nb114  1  -0.00436796  0.74043526  0.50006025  1
  Nb5+  Nb115  1  0.00163048  0.74914041  0.99878071  1
  Nb5+  Nb116  1  0.50284275  0.24960894  0.50565478  1
  Nb5+  Nb117  1  0.50434066  0.24737614  0.99836479  1
  Nb5+  Nb118  1  0.49830776  0.75139219  0.49648104  1
  Nb5+  Nb119  1  0.49346920  0.75361272  0.99808675  1
  Nb5+  Nb120  1  0.24762158  0.00827952  -0.00438095  1
  Nb5+  Nb121  1  0.25106562  0.00163246  0.50315500  1
  Nb5+  Nb122  1  0.25141985  0.49869966  -0.00364452  1
  Nb5+  Nb123  1  0.25016190  0.49815491  0.49584431  1
  Nb5+  Nb124  1  0.74429060  -0.00134278  -0.00181618  1
  Nb5+  Nb125  1  0.75451881  -0.00282836  0.50459774  1
  Nb5+  Nb126  1  0.75203578  0.49739805  0.00864791  1
  Nb5+  Nb127  1  0.75089020  0.50369247  0.49669370  1
  O2-  O128  1  -0.00821074  0.02047303  0.12599024  1
  O2-  O129  1  -0.00694185  0.00779894  0.63141935  1
  O2-  O130  1  -0.00106587  0.47277780  0.13420316  1
  O2-  O131  1  -0.00653629  0.51591712  0.63549645  1
  O2-  O132  1  0.48380781  0.02153243  0.13632116  1
  O2-  O133  1  0.47806522  -0.01143906  0.63023349  1
  O2-  O134  1  0.47498447  0.49199954  0.12902002  1
  O2-  O135  1  0.47961641  0.48516760  0.62516866  1
  O2-  O136  1  0.01880038  -0.02464798  0.36111905  1
  O2-  O137  1  0.01065545  -0.00637516  0.88553640  1
  O2-  O138  1  0.02145997  0.51648259  0.36391240  1
  O2-  O139  1  0.02806500  0.48181654  0.86706988  1
  O2-  O140  1  0.52699352  0.00412800  0.36155611  1
  O2-  O141  1  0.52367858  0.00310197  0.86795799  1
  O2-  O142  1  0.50679282  0.50017643  0.37906933  1
  O2-  O143  1  0.50683279  0.51022842  0.88365119  1
  O2-  O144  1  0.24037360  0.26374013  0.13905343  1
  O2-  O145  1  0.22920576  0.28182278  0.63086087  1
  O2-  O146  1  0.26470799  0.75250328  0.13250087  1
  O2-  O147  1  0.27117655  0.74977410  0.61757523  1
  O2-  O148  1  0.71815700  0.23069122  0.13717019  1
  O2-  O149  1  0.72113261  0.23650378  0.61451579  1
  O2-  O150  1  0.74661601  0.74513259  0.12330460  1
  O2-  O151  1  0.75509935  0.72084575  0.63282147  1
  O2-  O152  1  0.27855291  0.23339476  0.36653772  1
  O2-  O153  1  0.27163414  0.23878215  0.86322685  1
  O2-  O154  1  0.24604934  0.74196455  0.37338834  1
  O2-  O155  1  0.21435768  0.74339425  0.86455096  1
  O2-  O156  1  0.76048910  0.25711227  0.37052902  1
  O2-  O157  1  0.78602664  0.26196467  0.86786977  1
  O2-  O158  1  0.75755291  0.77960075  0.36844869  1
  O2-  O159  1  0.74655853  0.77629094  0.87960715  1
  O2-  O160  1  0.02126651  0.25858516  0.11856412  1
  O2-  O161  1  0.01486746  0.24457750  0.61030004  1
  O2-  O162  1  -0.02301932  0.74616724  0.11331596  1
  O2-  O163  1  -0.00779707  0.73955129  0.62026925  1
  O2-  O164  1  0.51959911  0.25587419  0.13291546  1
  O2-  O165  1  0.53016940  0.27140480  0.61361250  1
  O2-  O166  1  0.50551041  0.75466226  0.11537189  1
  O2-  O167  1  0.48182130  0.75620196  0.61415297  1
  O2-  O168  1  0.23137956  -0.00574816  0.36540838  1
  O2-  O169  1  0.22116677  0.02210457  0.88527972  1
  O2-  O170  1  0.23917108  0.50720673  0.37793584  1
  O2-  O171  1  0.24742268  0.50566728  0.87915010  1
  O2-  O172  1  0.73642146  -0.01731720  0.36757577  1
  O2-  O173  1  0.73589856  -0.02445939  0.88632438  1
  O2-  O174  1  0.73186136  0.47557888  0.38262792  1
  O2-  O175  1  0.72814227  0.48339028  0.89411422  1
  O2-  O176  1  -0.03879545  0.24496995  0.38329599  1
  O2-  O177  1  -0.02457395  0.24083490  0.88189422  1
  O2-  O178  1  0.00428947  0.74645999  0.38089947  1
  O2-  O179  1  0.00385356  0.78529999  0.88805380  1
  O2-  O180  1  0.48531013  0.25333765  0.37466454  1
  O2-  O181  1  0.48285195  0.24613705  0.88554557  1
  O2-  O182  1  0.50492671  0.71672736  0.38435758  1
  O2-  O183  1  0.51669333  0.73356084  0.88549528  1
  O2-  O184  1  0.27599677  -0.01123710  0.13421664  1
  O2-  O185  1  0.27690708  -0.00893327  0.61350411  1
  O2-  O186  1  0.27212901  0.49327440  0.13174870  1
  O2-  O187  1  0.27130476  0.49750224  0.62564389  1
  O2-  O188  1  0.76358960  0.01479962  0.13035658  1
  O2-  O189  1  0.76877981  0.02739264  0.61345472  1
  O2-  O190  1  0.74292629  0.54188420  0.11742608  1
  O2-  O191  1  0.75053199  0.51658736  0.61499073  1
  O2-  O192  1  0.13784000  0.26702436  0.27679333  1
  O2-  O193  1  0.13415718  0.26850299  0.76983359  1
  O2-  O194  1  0.13743522  0.76332658  0.24139384  1
  O2-  O195  1  0.13925282  0.75782465  0.71304620  1
  O2-  O196  1  0.62078442  0.26595684  0.26949697  1
  O2-  O197  1  0.63801075  0.27673303  0.77266466  1
  O2-  O198  1  0.63336272  0.79043115  0.25197785  1
  O2-  O199  1  0.63200806  0.77295659  0.74245045  1
  O2-  O200  1  0.37994219  0.23235758  0.23403291  1
  O2-  O201  1  0.36862323  0.24014338  0.72356881  1
  O2-  O202  1  0.36735664  0.71908583  0.25445869  1
  O2-  O203  1  0.36006703  0.71248011  0.75501265  1
  O2-  O204  1  0.86257025  0.22666045  0.23156487  1
  O2-  O205  1  0.86451812  0.22810502  0.71586426  1
  O2-  O206  1  0.86247445  0.72768139  0.24776461  1
  O2-  O207  1  0.86750720  0.72234514  0.76058611  1
  O2-  O208  1  0.27501097  0.37454801  0.26368894  1
  O2-  O209  1  0.27099638  0.38245831  0.76325668  1
  O2-  O210  1  0.27409687  0.87321828  0.25592702  1
  O2-  O211  1  0.27950629  0.86252597  0.75938747  1
  O2-  O212  1  0.76698900  0.36509484  0.23297781  1
  O2-  O213  1  0.77245348  0.36540217  0.72576862  1
  O2-  O214  1  0.77513052  0.88404386  0.23710608  1
  O2-  O215  1  0.77602838  0.86381620  0.73550619  1
  O2-  O216  1  0.23612829  0.12132356  0.24182245  1
  O2-  O217  1  0.23606996  0.13394262  0.71984259  1
  O2-  O218  1  0.23255197  0.61747702  0.24465831  1
  O2-  O219  1  0.22820911  0.61516793  0.74918496  1
  O2-  O220  1  0.73349902  0.11861881  0.26581878  1
  O2-  O221  1  0.72383581  0.13470415  0.75971227  1
  O2-  O222  1  0.71617589  0.64015309  0.26984067  1
  O2-  O223  1  0.72763806  0.63355863  0.78001133  1
  O2-  O224  1  0.13957185  0.46976803  0.24057280  1
  O2-  O225  1  0.13578955  0.47702876  0.73679496  1
  O2-  O226  1  0.13217670  0.98463501  0.22864969  1
  O2-  O227  1  0.11337787  0.95387209  0.74966934  1
  O2-  O228  1  0.60890285  0.46783588  0.24275038  1
  O2-  O229  1  0.61281805  0.47326178  0.73978870  1
  O2-  O230  1  0.62705439  0.98510584  0.22929266  1
  O2-  O231  1  0.61922964  0.98007686  0.72867636  1
  O2-  O232  1  0.37569684  0.02217823  0.27173088  1
  O2-  O233  1  0.38066496  0.02076731  0.77093809  1
  O2-  O234  1  0.37435479  0.50953211  0.27160745  1
  O2-  O235  1  0.37414370  0.52009202  0.75899749  1
  O2-  O236  1  0.87874988  0.02015921  0.26456293  1
  O2-  O237  1  0.88950653  0.03420374  0.77312625  1
  O2-  O238  1  0.88211839  0.53439169  0.25140406  1
  O2-  O239  1  0.88461472  0.51924382  0.77625983  1
  O2-  O240  1  0.47617868  0.37115619  0.25362548  1
  O2-  O241  1  0.47566280  0.38572302  0.77262487  1
  O2-  O242  1  0.47066078  0.88656756  0.24610886  1
  O2-  O243  1  0.47849202  0.88011347  0.76021519  1
  O2-  O244  1  0.97935763  0.38566052  0.27282191  1
  O2-  O245  1  0.98470078  0.38151075  0.73733506  1
  O2-  O246  1  0.98933242  0.88667438  0.22481893  1
  O2-  O247  1  0.96452584  0.88393803  0.74565150  1
  O2-  O248  1  0.03059344  0.11477884  0.25942422  1
  O2-  O249  1  0.04408301  0.11166405  0.75289209  1
  O2-  O250  1  0.03475852  0.61453354  0.23182759  1
  O2-  O251  1  0.03241296  0.61556715  0.76284730  1
  O2-  O252  1  0.51566184  0.13193479  0.25696211  1
  O2-  O253  1  0.51770493  0.11891937  0.73884517  1
  O2-  O254  1  0.52078432  0.61069590  0.24039304  1
  O2-  O255  1  0.52065170  0.61105865  0.74327032  1
  O2-  O256  1  0.13899262  0.47436393  0.01038884  1
  O2-  O257  1  0.14039299  0.47028744  0.51437503  1
  O2-  O258  1  0.12227616  0.98415996  0.01804334  1
  O2-  O259  1  0.13941827  0.96399021  0.50536426  1
  O2-  O260  1  0.61533404  0.48577618  0.02029189  1
  O2-  O261  1  0.61609464  0.47705530  0.51223350  1
  O2-  O262  1  0.63457655  0.98343827  0.02839420  1
  O2-  O263  1  0.63745854  0.97647842  0.51091089  1
  O2-  O264  1  0.36354177  0.02984224  -0.02126457  1
  O2-  O265  1  0.36401801  0.01381041  0.46591993  1
  O2-  O266  1  0.37762460  0.52567038  -0.00386140  1
  O2-  O267  1  0.37959082  0.52422294  0.49121892  1
  O2-  O268  1  0.87637210  0.01593085  -0.00398697  1
  O2-  O269  1  0.86681591  0.01984953  0.46897033  1
  O2-  O270  1  0.86221650  0.52877955  -0.00568864  1
  O2-  O271  1  0.86412869  0.51833327  0.48144497  1
  O2-  O272  1  0.47681112  0.38265283  -0.00112181  1
  O2-  O273  1  0.47921937  0.37702720  0.49254050  1
  O2-  O274  1  0.47034774  0.86779750  -0.00702300  1
  O2-  O275  1  0.47996471  0.86355833  0.47596554  1
  O2-  O276  1  0.96359453  0.36708490  -0.00587504  1
  O2-  O277  1  0.97786377  0.36761994  0.49989757  1
  O2-  O278  1  0.98496308  0.88519840  0.01875679  1
  O2-  O279  1  0.98397235  0.86021766  0.50776168  1
  O2-  O280  1  0.01866511  0.12328477  -0.00234881  1
  O2-  O281  1  0.02592744  0.13114666  0.49166726  1
  O2-  O282  1  0.02012907  0.63630307  -0.01539128  1
  O2-  O283  1  0.04415463  0.63328255  0.49908711  1
  O2-  O284  1  0.53789367  0.13758541  0.00205798  1
  O2-  O285  1  0.52682727  0.13576816  0.50115694  1
  O2-  O286  1  0.51707935  0.62091076  0.01512788  1
  O2-  O287  1  0.51915216  0.61487971  0.51812192  1
  O2-  O288  1  0.11436609  0.27021319  -0.02144053  1
  O2-  O289  1  0.11727255  0.27171167  0.46349659  1
  O2-  O290  1  0.11447833  0.77108924  0.02123876  1
  O2-  O291  1  0.13643640  0.77009614  0.50431881  1
  O2-  O292  1  0.61512523  0.29048291  -0.00764538  1
  O2-  O293  1  0.62659647  0.26728886  0.47416930  1
  O2-  O294  1  0.62749692  0.77596632  0.00212675  1
  O2-  O295  1  0.61444042  0.76867929  0.50832712  1
  O2-  O296  1  0.38972843  0.23540824  0.02738405  1
  O2-  O297  1  0.38908818  0.22869682  0.52411968  1
  O2-  O298  1  0.38247483  0.72188466  -0.00697554  1
  O2-  O299  1  0.37420705  0.72326159  0.48948266  1
  O2-  O300  1  0.88189736  0.22473989  0.02712401  1
  O2-  O301  1  0.86321939  0.23229547  0.51391876  1
  O2-  O302  1  0.86894098  0.73846143  -0.00922049  1
  O2-  O303  1  0.88391943  0.70859556  0.49848127  1
  O2-  O304  1  0.28104885  0.38398169  -0.00095913  1
  O2-  O305  1  0.28781212  0.38819389  0.49293649  1
  O2-  O306  1  0.26832067  0.89025681  -0.00736457  1
  O2-  O307  1  0.27772949  0.86612050  0.49153809  1
  O2-  O308  1  0.76646575  0.38864566  0.04071308  1
  O2-  O309  1  0.76186276  0.36979393  0.51323691  1
  O2-  O310  1  0.76937144  0.87678993  0.01815386  1
  O2-  O311  1  0.78067069  0.88398414  0.51300409  1
  O2-  O312  1  0.22952194  0.11735749  0.03453474  1
  O2-  O313  1  0.22407220  0.11415480  0.50439879  1
  O2-  O314  1  0.23380778  0.61505694  0.01419699  1
  O2-  O315  1  0.23876262  0.62263597  0.50595042  1
  O2-  O316  1  0.73653816  0.11423425  -0.01979805  1
  O2-  O317  1  0.73139867  0.12722661  0.48029185  1
  O2-  O318  1  0.72805185  0.63863758  -0.01674290  1
  O2-  O319  1  0.71826376  0.61360208  0.48080059  1
