# generated using pymatgen
data_Sr64Ca21Nb43O192
_symmetry_space_group_name_H-M   'P 1'
_cell_length_a   16.57022107
_cell_length_b   16.57770666
_cell_length_c   16.73516319
_cell_angle_alpha   89.95805442
_cell_angle_beta   90.01916383
_cell_angle_gamma   90.04888099
_symmetry_Int_Tables_number   1
_chemical_formula_structural   Sr64Ca21Nb43O192
_chemical_formula_sum   'Sr64 Ca21 Nb43 O192'
_cell_volume   4597.08364755
_cell_formula_units_Z   1
loop_
 _symmetry_equiv_pos_site_id
 _symmetry_equiv_pos_as_xyz
  1  'x, y, z'
loop_
 _atom_type_symbol
 _atom_type_oxidation_number
  Sr2+  2.0
  Ca2+  2.0
  Nb5+  5.0
  O2-  -2.0
loop_
 _atom_site_type_symbol
 _atom_site_label
 _atom_site_symmetry_multiplicity
 _atom_site_fract_x
 _atom_site_fract_y
 _atom_site_fract_z
 _atom_site_occupancy
  Sr2+  Sr0  1  0.12291657  0.09909630  0.12574160  1
  Sr2+  Sr1  1  0.12559906  0.11324972  0.62523342  1
  Sr2+  Sr2  1  0.12183185  0.63456083  0.12106036  1
  Sr2+  Sr3  1  0.11541134  0.60985108  0.62568780  1
  Sr2+  Sr4  1  0.62014001  0.11271161  0.12481956  1
  Sr2+  Sr5  1  0.62912788  0.11515776  0.62081754  1
  Sr2+  Sr6  1  0.62504630  0.61557259  0.12899211  1
  Sr2+  Sr7  1  0.62231744  0.62642330  0.61997867  1
  Sr2+  Sr8  1  0.37535945  0.36911947  0.11642997  1
  Sr2+  Sr9  1  0.36771842  0.36365353  0.62879479  1
  Sr2+  Sr10  1  0.36395672  0.87537596  0.13265979  1
  Sr2+  Sr11  1  0.36691017  0.86572683  0.62197653  1
  Sr2+  Sr12  1  0.87487198  0.36825872  0.12685316  1
  Sr2+  Sr13  1  0.87841653  0.37704490  0.62556788  1
  Sr2+  Sr14  1  0.88210758  0.86642984  0.12323791  1
  Sr2+  Sr15  1  0.87329865  0.87525567  0.63677447  1
  Sr2+  Sr16  1  0.12892790  0.38176196  0.37899026  1
  Sr2+  Sr17  1  0.14054550  0.38374053  0.87570570  1
  Sr2+  Sr18  1  0.13663575  0.87804673  0.36715449  1
  Sr2+  Sr19  1  0.14274724  0.88072833  0.87597855  1
  Sr2+  Sr20  1  0.62344745  0.37991044  0.37661274  1
  Sr2+  Sr21  1  0.61965615  0.37578117  0.86935811  1
  Sr2+  Sr22  1  0.61445839  0.87861432  0.37377906  1
  Sr2+  Sr23  1  0.63318174  0.88248566  0.88134467  1
  Sr2+  Sr24  1  0.38977196  0.12777232  0.37431935  1
  Sr2+  Sr25  1  0.38841539  0.13101688  0.87061949  1
  Sr2+  Sr26  1  0.38752436  0.63638115  0.37918853  1
  Sr2+  Sr27  1  0.38804328  0.63469471  0.87435161  1
  Sr2+  Sr28  1  0.86962591  0.13405747  0.37548179  1
  Sr2+  Sr29  1  0.87668360  0.13003586  0.86794214  1
  Sr2+  Sr30  1  0.86987502  0.62562687  0.37548066  1
  Sr2+  Sr31  1  0.86772478  0.63028178  0.88429504  1
  Sr2+  Sr32  1  0.12309718  0.13344863  0.37022602  1
  Sr2+  Sr33  1  0.13068333  0.12916795  0.86771748  1
  Sr2+  Sr34  1  0.12773886  0.63434943  0.37328203  1
  Sr2+  Sr35  1  0.12627584  0.63394172  0.88599833  1
  Sr2+  Sr36  1  0.62742028  0.11680911  0.37584954  1
  Sr2+  Sr37  1  0.63405671  0.13395603  0.87416010  1
  Sr2+  Sr38  1  0.63102230  0.64742875  0.37452312  1
  Sr2+  Sr39  1  0.62247197  0.64893763  0.87674185  1
  Sr2+  Sr40  1  0.37546851  0.38069307  0.38185865  1
  Sr2+  Sr41  1  0.38539414  0.38698278  0.86824631  1
  Sr2+  Sr42  1  0.38596781  0.88372756  0.37547407  1
  Sr2+  Sr43  1  0.38188698  0.87459354  0.86398921  1
  Sr2+  Sr44  1  0.87141482  0.37827871  0.37504930  1
  Sr2+  Sr45  1  0.87062353  0.37631651  0.87689576  1
  Sr2+  Sr46  1  0.87242821  0.86234565  0.37360940  1
  Sr2+  Sr47  1  0.86718206  0.88644901  0.87340016  1
  Sr2+  Sr48  1  0.12997354  0.37079806  0.12602917  1
  Sr2+  Sr49  1  0.13265884  0.37208054  0.62626520  1
  Sr2+  Sr50  1  0.12162505  0.86765849  0.12319207  1
  Sr2+  Sr51  1  0.12545781  0.87238845  0.63091387  1
  Sr2+  Sr52  1  0.61945609  0.36741389  0.12106505  1
  Sr2+  Sr53  1  0.60913297  0.36694343  0.62615997  1
  Sr2+  Sr54  1  0.60553000  0.87556471  0.12588423  1
  Sr2+  Sr55  1  0.61273688  0.86639687  0.62322010  1
  Sr2+  Sr56  1  0.37419502  0.11559430  0.12720416  1
  Sr2+  Sr57  1  0.36094967  0.11948975  0.62085953  1
  Sr2+  Sr58  1  0.37488602  0.61682508  0.11967293  1
  Sr2+  Sr59  1  0.37016438  0.63094937  0.62995262  1
  Sr2+  Sr60  1  0.88675542  0.12313420  0.12879354  1
  Sr2+  Sr61  1  0.88440236  0.11376571  0.62552151  1
  Sr2+  Sr62  1  0.87246909  0.61759521  0.13170340  1
  Sr2+  Sr63  1  0.88262149  0.62033139  0.63200762  1
  Ca2+  Ca64  1  -0.00054905  0.00158710  -0.00306823  1
  Ca2+  Ca65  1  -0.00009106  -0.00215758  0.49780456  1
  Ca2+  Ca66  1  0.49614544  0.00091482  -0.00507547  1
  Ca2+  Ca67  1  0.50068466  0.50114082  0.49890174  1
  Ca2+  Ca68  1  0.49884207  0.00378472  0.50661799  1
  Ca2+  Ca69  1  0.25369466  0.75088198  0.00027822  1
  Ca2+  Ca70  1  0.24927142  0.24641199  -0.00038240  1
  Ca2+  Ca71  1  0.24718829  0.74896667  0.49802238  1
  Ca2+  Ca72  1  0.75274549  0.74964674  0.50349144  1
  Ca2+  Ca73  1  0.74969706  0.75030461  0.00296770  1
  Ca2+  Ca74  1  0.50136452  0.24569545  0.74757699  1
  Ca2+  Ca75  1  0.24895414  0.50172006  0.75035725  1
  Ca2+  Ca76  1  0.75358459  -0.00096708  0.25160981  1
  Ca2+  Ca77  1  0.50123403  0.74743089  0.24639191  1
  Ca2+  Ca78  1  0.74968127  0.50014115  0.75010316  1
  Ca2+  Ca79  1  0.24636202  0.49975223  0.24985657  1
  Ca2+  Ca80  1  0.24838832  0.00184698  0.25326553  1
  Ca2+  Ca81  1  0.50198157  0.75446394  0.74994957  1
  Ca2+  Ca82  1  -0.00126778  0.25373503  0.74823873  1
  Ca2+  Ca83  1  0.50436178  0.25327833  0.25023680  1
  Ca2+  Ca84  1  -0.00102592  0.75007316  0.75195706  1
  Nb5+  Nb85  1  0.00173270  0.49490841  0.00938183  1
  Nb5+  Nb86  1  0.50868118  0.50000362  -0.00114325  1
  Nb5+  Nb87  1  0.00040481  0.49851087  0.50025692  1
  Nb5+  Nb88  1  0.75099813  0.25052775  -0.00241573  1
  Nb5+  Nb89  1  0.74585867  0.25352320  0.49508281  1
  Nb5+  Nb90  1  0.24410303  0.24804402  0.49802006  1
  Nb5+  Nb91  1  -0.00069126  0.74274108  0.25067933  1
  Nb5+  Nb92  1  0.25775882  0.00024377  0.75123077  1
  Nb5+  Nb93  1  0.75296081  0.00373968  0.75079558  1
  Nb5+  Nb94  1  0.74843027  0.49689100  0.25096070  1
  Nb5+  Nb95  1  0.00177239  0.24854222  0.24944408  1
  Nb5+  Nb96  1  -0.00213193  -0.01126844  0.25323964  1
  Nb5+  Nb97  1  0.00662958  0.00002982  0.75005525  1
  Nb5+  Nb98  1  -0.00093155  0.49501975  0.25405332  1
  Nb5+  Nb99  1  -0.00102141  0.50034081  0.76642086  1
  Nb5+  Nb100  1  0.50015986  0.00272328  0.24903486  1
  Nb5+  Nb101  1  0.50856159  0.00102738  0.74839221  1
  Nb5+  Nb102  1  0.49576141  0.49943059  0.25071011  1
  Nb5+  Nb103  1  0.49965152  0.50467965  0.74324143  1
  Nb5+  Nb104  1  0.25477468  0.24892089  0.24934001  1
  Nb5+  Nb105  1  0.25335448  0.24844102  0.75419551  1
  Nb5+  Nb106  1  0.25708342  0.74409940  0.24950656  1
  Nb5+  Nb107  1  0.24455980  0.74529504  0.74643557  1
  Nb5+  Nb108  1  0.74893559  0.25158590  0.24601653  1
  Nb5+  Nb109  1  0.75169094  0.25186579  0.73874951  1
  Nb5+  Nb110  1  0.75146918  0.75408373  0.24727330  1
  Nb5+  Nb111  1  0.74633315  0.74850066  0.74876476  1
  Nb5+  Nb112  1  -0.00356443  0.25181225  0.50042320  1
  Nb5+  Nb113  1  0.00000327  0.25228070  1.00080728  1
  Nb5+  Nb114  1  -0.00082116  0.75042764  0.50017297  1
  Nb5+  Nb115  1  -0.00642827  0.75145329  0.99637086  1
  Nb5+  Nb116  1  0.49339924  0.25115524  0.50196941  1
  Nb5+  Nb117  1  0.49994777  0.24713990  1.00128025  1
  Nb5+  Nb118  1  0.49996739  0.74992134  0.49958298  1
  Nb5+  Nb119  1  0.49663654  0.75569114  1.00454093  1
  Nb5+  Nb120  1  0.25024723  0.00226533  -0.00118432  1
  Nb5+  Nb121  1  0.24749090  -0.00052716  0.49536837  1
  Nb5+  Nb122  1  0.25867600  0.49834953  -0.00198460  1
  Nb5+  Nb123  1  0.25006417  0.50319683  0.49916637  1
  Nb5+  Nb124  1  0.75464599  0.00164579  0.00756473  1
  Nb5+  Nb125  1  0.75501706  -0.00544818  0.50079216  1
  Nb5+  Nb126  1  0.75198875  0.49759822  -0.00124345  1
  Nb5+  Nb127  1  0.75094628  0.49778515  0.50253154  1
  O2-  O128  1  -0.02542012  -0.00681702  0.13483340  1
  O2-  O129  1  -0.02261673  -0.01486541  0.63370436  1
  O2-  O130  1  -0.02364790  0.49138651  0.12425550  1
  O2-  O131  1  -0.01996399  0.49755525  0.61427015  1
  O2-  O132  1  0.49023973  0.02516053  0.13037973  1
  O2-  O133  1  0.48937088  0.04187867  0.63913210  1
  O2-  O134  1  0.49353493  0.52061103  0.11850770  1
  O2-  O135  1  0.48900728  0.53292145  0.63239669  1
  O2-  O136  1  0.03396346  0.00409400  0.36451711  1
  O2-  O137  1  0.01437920  0.02737895  0.86443046  1
  O2-  O138  1  0.01695483  0.50856624  0.36738681  1
  O2-  O139  1  0.01229160  0.49743429  0.88142072  1
  O2-  O140  1  0.50986365  -0.01727366  0.36883354  1
  O2-  O141  1  0.50696655  -0.03697512  0.86354209  1
  O2-  O142  1  0.50749038  0.47269550  0.36213771  1
  O2-  O143  1  0.51050138  0.47790598  0.88317818  1
  O2-  O144  1  0.24387771  0.27335004  0.13730285  1
  O2-  O145  1  0.23849539  0.26393354  0.61879349  1
  O2-  O146  1  0.23835620  0.77812922  0.13481425  1
  O2-  O147  1  0.24016041  0.78039377  0.63068878  1
  O2-  O148  1  0.73615684  0.24893704  0.13098981  1
  O2-  O149  1  0.73506908  0.25310294  0.62353929  1
  O2-  O150  1  0.73909928  0.72427809  0.13605912  1
  O2-  O151  1  0.71801949  0.75759060  0.63335801  1
  O2-  O152  1  0.26286292  0.22314252  0.38298781  1
  O2-  O153  1  0.26670960  0.22194420  0.86479789  1
  O2-  O154  1  0.25979185  0.71821496  0.36528267  1
  O2-  O155  1  0.25322111  0.72583741  0.86441812  1
  O2-  O156  1  0.77054750  0.25717505  0.37992177  1
  O2-  O157  1  0.77240618  0.25158030  0.88311280  1
  O2-  O158  1  0.77209536  0.74454700  0.36476088  1
  O2-  O159  1  0.77841653  0.75489100  0.86603897  1
  O2-  O160  1  0.00464689  0.27490062  0.13294692  1
  O2-  O161  1  0.00901145  0.28070936  0.61056578  1
  O2-  O162  1  0.00936354  0.76140594  0.13017350  1
  O2-  O163  1  0.02449174  0.74699905  0.61201859  1
  O2-  O164  1  0.53523443  0.23965562  0.11467691  1
  O2-  O165  1  0.53262676  0.23379828  0.61280730  1
  O2-  O166  1  0.52421694  0.72472427  0.11490464  1
  O2-  O167  1  0.52084794  0.73197796  0.61628399  1
  O2-  O168  1  0.22186776  0.02010126  0.38627460  1
  O2-  O169  1  0.22556890  0.01333388  0.86623491  1
  O2-  O170  1  0.21523600  0.50724064  0.38583289  1
  O2-  O171  1  0.22059152  0.51564531  0.88581640  1
  O2-  O172  1  0.72851422  -0.00678784  0.38785379  1
  O2-  O173  1  0.73039007  0.00383054  0.86992721  1
  O2-  O174  1  0.74488925  0.48347625  0.37216138  1
  O2-  O175  1  0.74259486  0.47253021  0.88710024  1
  O2-  O176  1  -0.01574592  0.24091140  0.37121808  1
  O2-  O177  1  -0.01920961  0.24039249  0.88849314  1
  O2-  O178  1  -0.02312178  0.73712936  0.36682070  1
  O2-  O179  1  -0.01530084  0.72577933  0.88567084  1
  O2-  O180  1  0.48961298  0.28104356  0.38647824  1
  O2-  O181  1  0.48613031  0.27352362  0.88637373  1
  O2-  O182  1  0.47963869  0.76522220  0.37936875  1
  O2-  O183  1  0.47968264  0.75911428  0.88578853  1
  O2-  O184  1  0.26916415  -0.00324136  0.11458141  1
  O2-  O185  1  0.26802039  -0.01146056  0.63171221  1
  O2-  O186  1  0.26152756  0.46920377  0.11329527  1
  O2-  O187  1  0.26009434  0.47171934  0.61307062  1
  O2-  O188  1  0.77512790  0.01881426  0.11786587  1
  O2-  O189  1  0.76941517  0.00937452  0.63002647  1
  O2-  O190  1  0.76347782  0.50428246  0.12831267  1
  O2-  O191  1  0.78098377  0.50439866  0.61317917  1
  O2-  O192  1  0.11540975  0.27443277  0.26673192  1
  O2-  O193  1  0.13437260  0.26167393  0.76205910  1
  O2-  O194  1  0.11505873  0.76541795  0.26505542  1
  O2-  O195  1  0.13191125  0.78046700  0.76253624  1
  O2-  O196  1  0.64001920  0.27900400  0.26906113  1
  O2-  O197  1  0.63861255  0.26313947  0.77244459  1
  O2-  O198  1  0.63769136  0.77239497  0.26561676  1
  O2-  O199  1  0.63407554  0.77975017  0.77704568  1
  O2-  O200  1  0.36695126  0.22441678  0.24183868  1
  O2-  O201  1  0.36675140  0.22897177  0.72312094  1
  O2-  O202  1  0.36802472  0.72125963  0.23049272  1
  O2-  O203  1  0.36509988  0.74277867  0.73769053  1
  O2-  O204  1  0.87653822  0.23849376  0.23893503  1
  O2-  O205  1  0.86373441  0.21805571  0.73887062  1
  O2-  O206  1  0.87855865  0.72984901  0.23350197  1
  O2-  O207  1  0.86360543  0.74267014  0.71754213  1
  O2-  O208  1  0.25970701  0.36196809  0.28416215  1
  O2-  O209  1  0.26920503  0.36360186  0.76599662  1
  O2-  O210  1  0.26561003  0.86354612  0.27698022  1
  O2-  O211  1  0.26378998  0.88276194  0.76752698  1
  O2-  O212  1  0.77864861  0.37597186  0.24739224  1
  O2-  O213  1  0.77730930  0.36401333  0.74595312  1
  O2-  O214  1  0.78204902  0.86483973  0.23800951  1
  O2-  O215  1  0.76625878  0.88558835  0.75007598  1
  O2-  O216  1  0.21274641  0.13865412  0.24258001  1
  O2-  O217  1  0.23211736  0.12044884  0.73249418  1
  O2-  O218  1  0.21876232  0.63319355  0.22892915  1
  O2-  O219  1  0.23110307  0.63380712  0.71757611  1
  O2-  O220  1  0.73851343  0.13795251  0.26492396  1
  O2-  O221  1  0.72673147  0.12419685  0.74912855  1
  O2-  O222  1  0.73774549  0.61450390  0.26090383  1
  O2-  O223  1  0.72293914  0.63493562  0.75221876  1
  O2-  O224  1  0.10975700  0.48205324  0.22530304  1
  O2-  O225  1  0.11046837  0.46922738  0.73625018  1
  O2-  O226  1  0.11477134  0.97947000  0.22330182  1
  O2-  O227  1  0.12273505  0.98366722  0.73452432  1
  O2-  O228  1  0.63506804  0.47426546  0.23598295  1
  O2-  O229  1  0.61595200  0.47464771  0.73712364  1
  O2-  O230  1  0.61980934  0.98092533  0.23177691  1
  O2-  O231  1  0.62516098  0.98752814  0.73126309  1
  O2-  O232  1  0.38125707  0.02433400  0.26324388  1
  O2-  O233  1  0.37103173  0.01709092  0.76851707  1
  O2-  O234  1  0.38382963  0.52531050  0.25828072  1
  O2-  O235  1  0.38298020  0.51858746  0.77287996  1
  O2-  O236  1  0.88796774  0.02311949  0.27784714  1
  O2-  O237  1  0.86866818  0.02047834  0.76574354  1
  O2-  O238  1  0.87702239  0.51782360  0.25968536  1
  O2-  O239  1  0.88429487  0.53696434  0.76564855  1
  O2-  O240  1  0.48773979  0.38649998  0.21580617  1
  O2-  O241  1  0.47830506  0.38412196  0.73306115  1
  O2-  O242  1  0.47946431  0.88321661  0.22948357  1
  O2-  O243  1  0.48083504  0.88937805  0.71627529  1
  O2-  O244  1  0.97731708  0.37941186  0.26163951  1
  O2-  O245  1  0.96127906  0.38752955  0.75552541  1
  O2-  O246  1  0.97758109  0.87234010  0.25997813  1
  O2-  O247  1  0.97515526  0.88675108  0.76859924  1
  O2-  O248  1  0.01566126  0.13329916  0.23723025  1
  O2-  O249  1  0.01031780  0.11837090  0.72458976  1
  O2-  O250  1  0.01274913  0.62443231  0.23790614  1
  O2-  O251  1  0.02935615  0.61399014  0.74667774  1
  O2-  O252  1  0.52536178  0.12010478  0.26813489  1
  O2-  O253  1  0.51384925  0.11398237  0.78831216  1
  O2-  O254  1  0.53706245  0.61021391  0.25911809  1
  O2-  O255  1  0.51985001  0.61705683  0.77659649  1
  O2-  O256  1  0.11504660  0.47374582  0.01542800  1
  O2-  O257  1  0.11741889  0.47416020  0.51569526  1
  O2-  O258  1  0.13187355  0.96734106  0.01228387  1
  O2-  O259  1  0.13458270  0.98769617  0.53199950  1
  O2-  O260  1  0.62637346  0.48188270  0.01684024  1
  O2-  O261  1  0.63968746  0.46864485  0.51450200  1
  O2-  O262  1  0.63579136  0.98670516  0.01565756  1
  O2-  O263  1  0.63829810  0.99028946  0.52833837  1
  O2-  O264  1  0.36249204  0.03831605  -0.01861689  1
  O2-  O265  1  0.36293508  0.02821609  0.49075353  1
  O2-  O266  1  0.37597454  0.51336513  -0.01247482  1
  O2-  O267  1  0.36271638  0.51299917  0.47291359  1
  O2-  O268  1  0.86423727  0.02515557  -0.02935010  1
  O2-  O269  1  0.86507614  0.03726683  0.48989023  1
  O2-  O270  1  0.87079154  0.51328570  -0.01012974  1
  O2-  O271  1  0.88045506  0.50791955  0.47432108  1
  O2-  O272  1  0.49037543  0.37848339  0.01910492  1
  O2-  O273  1  0.48423250  0.36859731  0.52949673  1
  O2-  O274  1  0.47640168  0.86680076  0.03006639  1
  O2-  O275  1  0.47942714  0.86818771  0.51774311  1
  O2-  O276  1  0.96785244  0.37694450  -0.00198818  1
  O2-  O277  1  0.98947342  0.37672993  0.47363202  1
  O2-  O278  1  0.97097547  0.86396227  -0.00956239  1
  O2-  O279  1  0.97018513  0.86128769  0.49107679  1
  O2-  O280  1  0.01065156  0.14047253  0.02868144  1
  O2-  O281  1  0.01975581  0.13898304  0.50870386  1
  O2-  O282  1  0.01405106  0.61230388  0.00948424  1
  O2-  O283  1  0.02427598  0.61395824  0.49486363  1
  O2-  O284  1  0.52265264  0.13637022  -0.02135651  1
  O2-  O285  1  0.51608527  0.13860862  0.47224118  1
  O2-  O286  1  0.51804827  0.61597803  -0.01938748  1
  O2-  O287  1  0.52436848  0.63191407  0.47556746  1
  O2-  O288  1  0.11109894  0.28180570  -0.00783881  1
  O2-  O289  1  0.12650570  0.26444734  0.48091350  1
  O2-  O290  1  0.11272066  0.75435051  -0.00301807  1
  O2-  O291  1  0.11154661  0.76161118  0.46358915  1
  O2-  O292  1  0.63398895  0.27324357  -0.01700450  1
  O2-  O293  1  0.63339581  0.27527608  0.48480524  1
  O2-  O294  1  0.61596756  0.76987894  -0.01779723  1
  O2-  O295  1  0.61914536  0.77373647  0.47846407  1
  O2-  O296  1  0.38708085  0.23507528  0.02743394  1
  O2-  O297  1  0.37592531  0.23608128  0.51527635  1
  O2-  O298  1  0.38421751  0.71807092  0.01438823  1
  O2-  O299  1  0.38227014  0.72247957  0.51390846  1
  O2-  O300  1  0.87021276  0.23889087  0.02439303  1
  O2-  O301  1  0.87930176  0.23692135  0.51153011  1
  O2-  O302  1  0.88371229  0.71963356  0.02423449  1
  O2-  O303  1  0.88750167  0.70967959  0.50831069  1
  O2-  O304  1  0.26559588  0.38080357  -0.03013337  1
  O2-  O305  1  0.26192552  0.36665758  0.48198576  1
  O2-  O306  1  0.27464740  0.88727857  -0.02801846  1
  O2-  O307  1  0.26735346  0.88623062  0.47863567  1
  O2-  O308  1  0.76508305  0.37184197  0.01833913  1
  O2-  O309  1  0.77898836  0.37111064  0.50437864  1
  O2-  O310  1  0.77426906  0.88672098  0.00600507  1
  O2-  O311  1  0.78657403  0.88457404  0.50653795  1
  O2-  O312  1  0.20789681  0.11558758  0.00205368  1
  O2-  O313  1  0.23351539  0.13002978  0.52124294  1
  O2-  O314  1  0.23234842  0.61101894  0.02317891  1
  O2-  O315  1  0.22762175  0.61278631  0.52363344  1
  O2-  O316  1  0.72948069  0.13359545  0.00195774  1
  O2-  O317  1  0.73220286  0.13632377  0.49875340  1
  O2-  O318  1  0.73106853  0.61079195  -0.01225127  1
  O2-  O319  1  0.72937859  0.61085904  0.49068841  1
