# generated using pymatgen
data_Sr64Ca21Nb43O192
_symmetry_space_group_name_H-M   'P 1'
_cell_length_a   16.58571516
_cell_length_b   16.56297754
_cell_length_c   16.71266129
_cell_angle_alpha   89.95129012
_cell_angle_beta   89.97831757
_cell_angle_gamma   89.97685951
_symmetry_Int_Tables_number   1
_chemical_formula_structural   Sr64Ca21Nb43O192
_chemical_formula_sum   'Sr64 Ca21 Nb43 O192'
_cell_volume   4591.11322790
_cell_formula_units_Z   1
loop_
 _symmetry_equiv_pos_site_id
 _symmetry_equiv_pos_as_xyz
  1  'x, y, z'
loop_
 _atom_type_symbol
 _atom_type_oxidation_number
  Sr2+  2.0
  Ca2+  2.0
  Nb5+  5.0
  O2-  -2.0
loop_
 _atom_site_type_symbol
 _atom_site_label
 _atom_site_symmetry_multiplicity
 _atom_site_fract_x
 _atom_site_fract_y
 _atom_site_fract_z
 _atom_site_occupancy
  Sr2+  Sr0  1  0.11403169  0.12605033  0.13221515  1
  Sr2+  Sr1  1  0.12023759  0.13225138  0.62442612  1
  Sr2+  Sr2  1  0.12482805  0.63864097  0.12825941  1
  Sr2+  Sr3  1  0.12279175  0.62145031  0.62200469  1
  Sr2+  Sr4  1  0.62136262  0.13514053  0.12574179  1
  Sr2+  Sr5  1  0.62153523  0.12166491  0.63018313  1
  Sr2+  Sr6  1  0.61973481  0.61468053  0.12517575  1
  Sr2+  Sr7  1  0.61920542  0.63803414  0.62672746  1
  Sr2+  Sr8  1  0.37669641  0.39284531  0.12624637  1
  Sr2+  Sr9  1  0.36695121  0.38215525  0.62848420  1
  Sr2+  Sr10  1  0.36471797  0.88674882  0.12483730  1
  Sr2+  Sr11  1  0.36743802  0.88492160  0.62557876  1
  Sr2+  Sr12  1  0.86078381  0.39205868  0.12517627  1
  Sr2+  Sr13  1  0.87088216  0.38441539  0.62467979  1
  Sr2+  Sr14  1  0.86563710  0.88528704  0.12530550  1
  Sr2+  Sr15  1  0.86091699  0.88862840  0.63141966  1
  Sr2+  Sr16  1  0.12912961  0.37386612  0.37587598  1
  Sr2+  Sr17  1  0.12225034  0.37056369  0.87850866  1
  Sr2+  Sr18  1  0.12783832  0.86597936  0.37155671  1
  Sr2+  Sr19  1  0.13143561  0.87425607  0.88431704  1
  Sr2+  Sr20  1  0.64091372  0.36033486  0.37357157  1
  Sr2+  Sr21  1  0.63896224  0.36953236  0.88403390  1
  Sr2+  Sr22  1  0.64232143  0.87076379  0.37464770  1
  Sr2+  Sr23  1  0.63314404  0.86215068  0.86609985  1
  Sr2+  Sr24  1  0.38553769  0.12114201  0.37280363  1
  Sr2+  Sr25  1  0.37994080  0.12127771  0.87735113  1
  Sr2+  Sr26  1  0.37957856  0.61338401  0.37473815  1
  Sr2+  Sr27  1  0.38801623  0.62921948  0.87254188  1
  Sr2+  Sr28  1  0.88442403  0.11580700  0.37414834  1
  Sr2+  Sr29  1  0.88925852  0.11809219  0.87397542  1
  Sr2+  Sr30  1  0.89120946  0.61962717  0.37515734  1
  Sr2+  Sr31  1  0.88366041  0.61210489  0.88411258  1
  Sr2+  Sr32  1  0.13706034  0.11348313  0.37163435  1
  Sr2+  Sr33  1  0.12558064  0.11106270  0.87809892  1
  Sr2+  Sr34  1  0.13156409  0.61231443  0.37727954  1
  Sr2+  Sr35  1  0.13715889  0.62458429  0.88087455  1
  Sr2+  Sr36  1  0.62793009  0.11009102  0.37766674  1
  Sr2+  Sr37  1  0.63342849  0.12058499  0.87955778  1
  Sr2+  Sr38  1  0.63973042  0.61611695  0.37214824  1
  Sr2+  Sr39  1  0.63289313  0.60935652  0.87466268  1
  Sr2+  Sr40  1  0.37873575  0.35994054  0.37522731  1
  Sr2+  Sr41  1  0.38464684  0.36296287  0.87558873  1
  Sr2+  Sr42  1  0.38504463  0.87299622  0.37720896  1
  Sr2+  Sr43  1  0.37461889  0.87145360  0.87984595  1
  Sr2+  Sr44  1  0.88410884  0.37327540  0.37209311  1
  Sr2+  Sr45  1  0.87536402  0.36095661  0.87753308  1
  Sr2+  Sr46  1  0.87576019  0.85932234  0.37489937  1
  Sr2+  Sr47  1  0.88494284  0.87460045  0.87745204  1
  Sr2+  Sr48  1  0.11751277  0.38470901  0.12063295  1
  Sr2+  Sr49  1  0.11417895  0.37790099  0.62730287  1
  Sr2+  Sr50  1  0.10793417  0.87787648  0.12734099  1
  Sr2+  Sr51  1  0.11932717  0.87289653  0.62425543  1
  Sr2+  Sr52  1  0.62094206  0.37939599  0.12376639  1
  Sr2+  Sr53  1  0.62118076  0.38484229  0.62953010  1
  Sr2+  Sr54  1  0.63139681  0.87562207  0.12593909  1
  Sr2+  Sr55  1  0.61866488  0.88503423  0.62615174  1
  Sr2+  Sr56  1  0.36434903  0.13558008  0.13043117  1
  Sr2+  Sr57  1  0.36725842  0.12832561  0.62041419  1
  Sr2+  Sr58  1  0.36832114  0.62806533  0.13133930  1
  Sr2+  Sr59  1  0.36312850  0.63285265  0.62620268  1
  Sr2+  Sr60  1  0.85812372  0.12691072  0.12128940  1
  Sr2+  Sr61  1  0.86311379  0.13790909  0.63219792  1
  Sr2+  Sr62  1  0.85563481  0.63956630  0.12696692  1
  Sr2+  Sr63  1  0.85833074  0.62503598  0.62177258  1
  Ca2+  Ca64  1  0.00150182  -0.00075412  0.50237864  1
  Ca2+  Ca65  1  0.49874336  0.49765953  0.49939584  1
  Ca2+  Ca66  1  0.49875844  -0.00254815  -0.00031244  1
  Ca2+  Ca67  1  -0.00142773  0.50087889  0.00334783  1
  Ca2+  Ca68  1  0.49580194  0.50119075  -0.00522515  1
  Ca2+  Ca69  1  0.74840309  0.74971442  0.50364395  1
  Ca2+  Ca70  1  0.75047633  0.24859277  0.49871685  1
  Ca2+  Ca71  1  0.74567630  0.75172511  -0.00314879  1
  Ca2+  Ca72  1  0.75089940  0.24973925  0.00209259  1
  Ca2+  Ca73  1  0.24939133  0.25237105  -0.00033238  1
  Ca2+  Ca74  1  0.00269912  0.74721236  0.75276710  1
  Ca2+  Ca75  1  0.25246450  0.49842666  0.74945686  1
  Ca2+  Ca76  1  0.75132700  -0.00039954  0.75479787  1
  Ca2+  Ca77  1  0.50236531  0.74948501  0.25246102  1
  Ca2+  Ca78  1  0.00171181  0.25049642  0.25126075  1
  Ca2+  Ca79  1  0.75052983  0.00179279  0.25048771  1
  Ca2+  Ca80  1  0.75104288  0.49858197  0.74994659  1
  Ca2+  Ca81  1  -0.00185671  0.74820886  0.25038350  1
  Ca2+  Ca82  1  0.25020347  0.00049614  0.74877059  1
  Ca2+  Ca83  1  0.25050832  -0.00031336  0.24966046  1
  Ca2+  Ca84  1  0.75177237  0.50104284  0.25330609  1
  Nb5+  Nb85  1  0.00094118  0.50038599  0.50185958  1
  Nb5+  Nb86  1  0.49834134  -0.00214869  0.49927094  1
  Nb5+  Nb87  1  -0.00079751  0.00092116  0.00381224  1
  Nb5+  Nb88  1  0.24904679  0.74778312  0.50189388  1
  Nb5+  Nb89  1  0.25285697  0.75075572  0.00829317  1
  Nb5+  Nb90  1  0.24875467  0.24457573  0.49992343  1
  Nb5+  Nb91  1  -0.00429132  0.24907804  0.75178031  1
  Nb5+  Nb92  1  0.50147101  0.25019682  0.25565937  1
  Nb5+  Nb93  1  0.49816562  0.25235992  0.75064267  1
  Nb5+  Nb94  1  0.49558603  0.75917247  0.74526223  1
  Nb5+  Nb95  1  0.24874046  0.49895177  0.24810333  1
  Nb5+  Nb96  1  -0.00311996  -0.00260899  0.25692717  1
  Nb5+  Nb97  1  0.00412975  -0.00380073  0.74713005  1
  Nb5+  Nb98  1  0.00114051  0.50391975  0.24430621  1
  Nb5+  Nb99  1  0.00349411  0.49905346  0.75488887  1
  Nb5+  Nb100  1  0.50034129  -0.00338991  0.24419160  1
  Nb5+  Nb101  1  0.49676801  0.00539539  0.75169584  1
  Nb5+  Nb102  1  0.50362148  0.49708159  0.25749797  1
  Nb5+  Nb103  1  0.49995371  0.50859892  0.74702447  1
  Nb5+  Nb104  1  0.24930785  0.25628518  0.24579996  1
  Nb5+  Nb105  1  0.24495769  0.24776771  0.75112851  1
  Nb5+  Nb106  1  0.25336800  0.75058373  0.25831269  1
  Nb5+  Nb107  1  0.24917279  0.75233774  0.75617463  1
  Nb5+  Nb108  1  0.75767730  0.24705543  0.25358677  1
  Nb5+  Nb109  1  0.74037903  0.25144879  0.74760798  1
  Nb5+  Nb110  1  0.74685283  0.75121753  0.25172826  1
  Nb5+  Nb111  1  0.75972717  0.74372431  0.75487420  1
  Nb5+  Nb112  1  0.00176882  0.24837489  0.49793668  1
  Nb5+  Nb113  1  -0.00331525  0.24953165  1.00894056  1
  Nb5+  Nb114  1  -0.00448744  0.75179528  0.50470655  1
  Nb5+  Nb115  1  -0.00254398  0.74561589  0.99593437  1
  Nb5+  Nb116  1  0.50096008  0.24989883  0.50661592  1
  Nb5+  Nb117  1  0.49671034  0.24802380  1.00862245  1
  Nb5+  Nb118  1  0.50138645  0.75002821  0.49833077  1
  Nb5+  Nb119  1  0.49988444  0.75095664  1.00382965  1
  Nb5+  Nb120  1  0.24834671  0.00623970  0.00710216  1
  Nb5+  Nb121  1  0.24910762  -0.00823866  0.49471911  1
  Nb5+  Nb122  1  0.25335307  0.50101524  -0.00848153  1
  Nb5+  Nb123  1  0.25152859  0.49292334  0.49857760  1
  Nb5+  Nb124  1  0.74360559  -0.00222636  -0.00448382  1
  Nb5+  Nb125  1  0.75665776  0.00546698  0.50263963  1
  Nb5+  Nb126  1  0.74890386  0.50281392  0.00117635  1
  Nb5+  Nb127  1  0.74488147  0.49646545  0.49682009  1
  O2-  O128  1  0.02299981  0.01222601  0.11938507  1
  O2-  O129  1  0.03625496  0.00802612  0.63630731  1
  O2-  O130  1  0.03484795  0.51680875  0.13576724  1
  O2-  O131  1  0.02647204  0.50669371  0.62048977  1
  O2-  O132  1  0.53203944  0.00548766  0.13379270  1
  O2-  O133  1  0.51609951  0.01321289  0.61863011  1
  O2-  O134  1  0.51137358  0.50094621  0.13768293  1
  O2-  O135  1  0.53417222  0.50812945  0.63115018  1
  O2-  O136  1  -0.03038730  -0.01814287  0.36870831  1
  O2-  O137  1  -0.01614842  -0.00738728  0.87986006  1
  O2-  O138  1  -0.01049118  0.48279468  0.38267764  1
  O2-  O139  1  -0.02023394  0.47503739  0.86589678  1
  O2-  O140  1  0.47532887  -0.00420309  0.38120833  1
  O2-  O141  1  0.46938702  -0.00871086  0.86222876  1
  O2-  O142  1  0.46358932  0.48174513  0.36663485  1
  O2-  O143  1  0.46083869  0.49200208  0.85850102  1
  O2-  O144  1  0.27652102  0.27336361  0.13498244  1
  O2-  O145  1  0.26560477  0.26780834  0.61633440  1
  O2-  O146  1  0.27068128  0.75873208  0.12326980  1
  O2-  O147  1  0.26174476  0.76652808  0.61622913  1
  O2-  O148  1  0.76723054  0.27361256  0.13707279  1
  O2-  O149  1  0.77273505  0.26641449  0.63383171  1
  O2-  O150  1  0.76557639  0.76973332  0.13301518  1
  O2-  O151  1  0.77212391  0.76788710  0.63838787  1
  O2-  O152  1  0.23524313  0.24446842  0.37868692  1
  O2-  O153  1  0.23954383  0.22207351  0.86225593  1
  O2-  O154  1  0.23315882  0.73652730  0.37324758  1
  O2-  O155  1  0.24282263  0.73808179  0.87221002  1
  O2-  O156  1  0.71782410  0.22966374  0.36485959  1
  O2-  O157  1  0.72592040  0.23675897  0.86497954  1
  O2-  O158  1  0.72406435  0.73764403  0.37085453  1
  O2-  O159  1  0.71356412  0.73333314  0.86333107  1
  O2-  O160  1  -0.01183328  0.21703576  0.11772119  1
  O2-  O161  1  -0.00089063  0.23312247  0.62745640  1
  O2-  O162  1  -0.00232186  0.72925472  0.11289940  1
  O2-  O163  1  0.01365947  0.72479542  0.61771140  1
  O2-  O164  1  0.48263050  0.23263514  0.12432282  1
  O2-  O165  1  0.49109350  0.22528574  0.62170672  1
  O2-  O166  1  0.49302180  0.72117364  0.11410931  1
  O2-  O167  1  0.47464975  0.73878391  0.62156205  1
  O2-  O168  1  0.26967035  0.02636495  0.38340215  1
  O2-  O169  1  0.26728305  0.01368009  0.88908275  1
  O2-  O170  1  0.25870560  0.51861035  0.37570998  1
  O2-  O171  1  0.26536144  0.53522359  0.88274518  1
  O2-  O172  1  0.76135552  0.02960128  0.38611205  1
  O2-  O173  1  0.77137485  0.03114898  0.88509125  1
  O2-  O174  1  0.77263494  0.53122267  0.38588313  1
  O2-  O175  1  0.76572979  0.52571648  0.88363606  1
  O2-  O176  1  0.01213321  0.27786496  0.38724335  1
  O2-  O177  1  0.01184634  0.26777963  0.86799334  1
  O2-  O178  1  0.01110684  0.77194916  0.38855198  1
  O2-  O179  1  0.01444435  0.78357695  0.88497607  1
  O2-  O180  1  0.50817940  0.26143471  0.37362129  1
  O2-  O181  1  0.51591712  0.26642004  0.86322218  1
  O2-  O182  1  0.50741265  0.78305166  0.38805990  1
  O2-  O183  1  0.49786339  0.77328739  0.86206239  1
  O2-  O184  1  0.23173704  -0.03412793  0.11726604  1
  O2-  O185  1  0.23203869  -0.02018168  0.61063826  1
  O2-  O186  1  0.23502297  0.47911417  0.13283661  1
  O2-  O187  1  0.23060714  0.48544865  0.61202055  1
  O2-  O188  1  0.74075451  -0.02526271  0.11409612  1
  O2-  O189  1  0.73365028  -0.02150234  0.61832015  1
  O2-  O190  1  0.73003986  0.47976692  0.11990772  1
  O2-  O191  1  0.74453367  0.46943272  0.61376470  1
  O2-  O192  1  0.13670219  0.28259109  0.23587963  1
  O2-  O193  1  0.13045247  0.26851344  0.73871694  1
  O2-  O194  1  0.13888584  0.76304740  0.23059235  1
  O2-  O195  1  0.13794774  0.78089619  0.74378597  1
  O2-  O196  1  0.61431743  0.26938087  0.23148205  1
  O2-  O197  1  0.62311879  0.26303181  0.72513359  1
  O2-  O198  1  0.63040110  0.78414706  0.23838593  1
  O2-  O199  1  0.61077312  0.76654464  0.72700811  1
  O2-  O200  1  0.37483997  0.23507428  0.26760066  1
  O2-  O201  1  0.38380926  0.22567242  0.75786168  1
  O2-  O202  1  0.36574523  0.71549707  0.26031762  1
  O2-  O203  1  0.37616106  0.72553299  0.75433415  1
  O2-  O204  1  0.86850243  0.22734458  0.27643524  1
  O2-  O205  1  0.88123131  0.23092951  0.76360565  1
  O2-  O206  1  0.86472740  0.72375149  0.26920845  1
  O2-  O207  1  0.86899225  0.71765726  0.77711639  1
  O2-  O208  1  0.27011799  0.37932696  0.27244844  1
  O2-  O209  1  0.28085212  0.35997528  0.76013472  1
  O2-  O210  1  0.27718796  0.86292327  0.26777529  1
  O2-  O211  1  0.28384351  0.86526926  0.75658097  1
  O2-  O212  1  0.76445625  0.36603095  0.27706819  1
  O2-  O213  1  0.76853613  0.36436736  0.77111015  1
  O2-  O214  1  0.77325356  0.86918472  0.27233924  1
  O2-  O215  1  0.76871892  0.86378322  0.77469343  1
  O2-  O216  1  0.23069996  0.14060958  0.23547559  1
  O2-  O217  1  0.24243756  0.13572870  0.71458636  1
  O2-  O218  1  0.23107172  0.61881598  0.23767330  1
  O2-  O219  1  0.23458296  0.63751372  0.72636393  1
  O2-  O220  1  0.72986737  0.13520977  0.22267846  1
  O2-  O221  1  0.73690878  0.13372431  0.73012159  1
  O2-  O222  1  0.71908107  0.63391183  0.23203489  1
  O2-  O223  1  0.72679052  0.63207808  0.72649503  1
  O2-  O224  1  0.13001851  0.48129729  0.27008221  1
  O2-  O225  1  0.11843323  0.46469688  0.76027922  1
  O2-  O226  1  0.11685748  0.97654648  0.26751631  1
  O2-  O227  1  0.11789695  0.98676570  0.78230059  1
  O2-  O228  1  0.61422478  0.47308516  0.27611626  1
  O2-  O229  1  0.61094735  0.47506376  0.77568526  1
  O2-  O230  1  0.61186802  0.98759012  0.28133698  1
  O2-  O231  1  0.61146918  0.97592625  0.75884070  1
  O2-  O232  1  0.38569233  0.03034464  0.23287279  1
  O2-  O233  1  0.38469219  0.01737469  0.71908395  1
  O2-  O234  1  0.36761630  0.51522200  0.23498602  1
  O2-  O235  1  0.38559072  0.51064700  0.71030904  1
  O2-  O236  1  0.88610100  0.02763953  0.22691732  1
  O2-  O237  1  0.89008942  0.02774066  0.73450045  1
  O2-  O238  1  0.88755451  0.52518463  0.22950632  1
  O2-  O239  1  0.89063109  0.51305150  0.72234511  1
  O2-  O240  1  0.47656802  0.36786907  0.23841101  1
  O2-  O241  1  0.48369436  0.36507972  0.72692910  1
  O2-  O242  1  0.46903068  0.88547378  0.23909260  1
  O2-  O243  1  0.47848640  0.87470326  0.72869654  1
  O2-  O244  1  0.98097901  0.38674289  0.23738545  1
  O2-  O245  1  0.98581057  0.36647848  0.72949867  1
  O2-  O246  1  0.98217496  0.88315280  0.22547999  1
  O2-  O247  1  0.97704919  0.88412713  0.73585422  1
  O2-  O248  1  0.02698327  0.11543900  0.26981411  1
  O2-  O249  1  0.02462570  0.13147520  0.76304000  1
  O2-  O250  1  0.02171701  0.61494066  0.28037081  1
  O2-  O251  1  0.03077781  0.61060908  0.77060789  1
  O2-  O252  1  0.51539567  0.13106344  0.26080201  1
  O2-  O253  1  0.52189190  0.12287403  0.76113309  1
  O2-  O254  1  0.51805241  0.61184479  0.27156516  1
  O2-  O255  1  0.51455523  0.62556881  0.75865279  1
  O2-  O256  1  0.13523929  0.48417838  -0.01225256  1
  O2-  O257  1  0.12897686  0.48825008  0.48016294  1
  O2-  O258  1  0.12472553  0.98612287  -0.01650641  1
  O2-  O259  1  0.13489161  0.98316354  0.47005803  1
  O2-  O260  1  0.62948161  0.48350804  -0.01926436  1
  O2-  O261  1  0.63324708  0.47914392  0.47303326  1
  O2-  O262  1  0.63245584  0.97985864  -0.03132359  1
  O2-  O263  1  0.61385268  0.98264373  0.48336737  1
  O2-  O264  1  0.36391173  0.01847408  0.02874290  1
  O2-  O265  1  0.37226599  0.01530043  0.51748258  1
  O2-  O266  1  0.36241706  0.51816569  0.03097816  1
  O2-  O267  1  0.36223072  0.52555270  0.51281058  1
  O2-  O268  1  0.88365840  0.01791819  0.01769694  1
  O2-  O269  1  0.86803745  0.02767428  0.52511328  1
  O2-  O270  1  0.86654573  0.52630367  0.02544016  1
  O2-  O271  1  0.88625877  0.51561813  0.51754861  1
  O2-  O272  1  0.47339040  0.36481885  0.00551254  1
  O2-  O273  1  0.46592820  0.36048477  0.51348520  1
  O2-  O274  1  0.45884175  0.86256227  0.00879354  1
  O2-  O275  1  0.47546534  0.88203169  0.51651371  1
  O2-  O276  1  0.97633188  0.36409662  0.02644920  1
  O2-  O277  1  0.99270738  0.37615932  0.52168431  1
  O2-  O278  1  0.98940409  0.87970273  0.01795788  1
  O2-  O279  1  0.97649452  0.86389498  0.52963394  1
  O2-  O280  1  0.02066064  0.12232152  -0.01616633  1
  O2-  O281  1  0.03322933  0.13681751  0.48525137  1
  O2-  O282  1  0.01981888  0.63435345  -0.03084261  1
  O2-  O283  1  0.02334943  0.61901182  0.48600815  1
  O2-  O284  1  0.51915499  0.13397471  -0.02117907  1
  O2-  O285  1  0.50781957  0.12694804  0.48451737  1
  O2-  O286  1  0.51259325  0.63910855  -0.03425969  1
  O2-  O287  1  0.51343898  0.63722976  0.47866578  1
  O2-  O288  1  0.11395453  0.27349305  0.00638673  1
  O2-  O289  1  0.13204888  0.27234730  0.51378776  1
  O2-  O290  1  0.13241835  0.76335351  0.00987411  1
  O2-  O291  1  0.13284680  0.77521894  0.50456078  1
  O2-  O292  1  0.61343215  0.27069148  0.01553399  1
  O2-  O293  1  0.61188751  0.27670646  0.51217685  1
  O2-  O294  1  0.60935773  0.78584596  0.00388112  1
  O2-  O295  1  0.61113267  0.77012144  0.52647740  1
  O2-  O296  1  0.38250164  0.22920122  -0.02365591  1
  O2-  O297  1  0.36900915  0.23017260  0.48510939  1
  O2-  O298  1  0.36764615  0.72659629  -0.01430664  1
  O2-  O299  1  0.36819696  0.73871938  0.48214978  1
  O2-  O300  1  0.88576808  0.22954073  -0.02567879  1
  O2-  O301  1  0.88875551  0.22636138  0.49165255  1
  O2-  O302  1  0.88351657  0.73222663  -0.01583785  1
  O2-  O303  1  0.88549272  0.72075264  0.49302365  1
  O2-  O304  1  0.26939742  0.38715016  -0.02871710  1
  O2-  O305  1  0.26816152  0.37828646  0.48260683  1
  O2-  O306  1  0.26406490  0.86749131  -0.01550371  1
  O2-  O307  1  0.26833222  0.87604756  0.47695422  1
  O2-  O308  1  0.77139829  0.38478370  -0.01780683  1
  O2-  O309  1  0.77643189  0.38270698  0.47351988  1
  O2-  O310  1  0.77727641  0.88509317  -0.02223942  1
  O2-  O311  1  0.76566937  0.88736090  0.47962018  1
  O2-  O312  1  0.22579299  0.11755449  0.02814171  1
  O2-  O313  1  0.23222774  0.12965327  0.51451909  1
  O2-  O314  1  0.22979943  0.62883666  0.01789181  1
  O2-  O315  1  0.23139510  0.63202437  0.51065368  1
  O2-  O316  1  0.73188254  0.11541674  0.02498340  1
  O2-  O317  1  0.71711956  0.11690888  0.52071663  1
  O2-  O318  1  0.72305994  0.62028180  0.02120472  1
  O2-  O319  1  0.73313251  0.61328764  0.52852415  1
