# generated using pymatgen
data_Sr64Ca21Nb43O192
_symmetry_space_group_name_H-M   'P 1'
_cell_length_a   16.62332494
_cell_length_b   16.56226575
_cell_length_c   16.71782618
_cell_angle_alpha   90.08527867
_cell_angle_beta   89.97902234
_cell_angle_gamma   89.97899345
_symmetry_Int_Tables_number   1
_chemical_formula_structural   Sr64Ca21Nb43O192
_chemical_formula_sum   'Sr64 Ca21 Nb43 O192'
_cell_volume   4602.74493880
_cell_formula_units_Z   1
loop_
 _symmetry_equiv_pos_site_id
 _symmetry_equiv_pos_as_xyz
  1  'x, y, z'
loop_
 _atom_type_symbol
 _atom_type_oxidation_number
  Sr2+  2.0
  Ca2+  2.0
  Nb5+  5.0
  O2-  -2.0
loop_
 _atom_site_type_symbol
 _atom_site_label
 _atom_site_symmetry_multiplicity
 _atom_site_fract_x
 _atom_site_fract_y
 _atom_site_fract_z
 _atom_site_occupancy
  Sr2+  Sr0  1  0.13469786  0.12583808  0.12412110  1
  Sr2+  Sr1  1  0.12298445  0.13491824  0.61666343  1
  Sr2+  Sr2  1  0.12771498  0.62802660  0.12310073  1
  Sr2+  Sr3  1  0.13521190  0.62247982  0.62873283  1
  Sr2+  Sr4  1  0.62722860  0.13493700  0.12862911  1
  Sr2+  Sr5  1  0.63777069  0.13821751  0.63039603  1
  Sr2+  Sr6  1  0.64338452  0.62811796  0.12701093  1
  Sr2+  Sr7  1  0.63263838  0.63301152  0.62257205  1
  Sr2+  Sr8  1  0.37845475  0.36478623  0.12460139  1
  Sr2+  Sr9  1  0.37099903  0.38441458  0.62476943  1
  Sr2+  Sr10  1  0.37940316  0.88726065  0.12497830  1
  Sr2+  Sr11  1  0.38577960  0.88585396  0.61638309  1
  Sr2+  Sr12  1  0.88100893  0.39057898  0.12445084  1
  Sr2+  Sr13  1  0.88370602  0.36917906  0.62736671  1
  Sr2+  Sr14  1  0.88405598  0.88019756  0.12413267  1
  Sr2+  Sr15  1  0.87999041  0.89329288  0.62780899  1
  Sr2+  Sr16  1  0.11831468  0.37550920  0.37113051  1
  Sr2+  Sr17  1  0.11670782  0.37496621  0.87072876  1
  Sr2+  Sr18  1  0.11283253  0.87199049  0.37718649  1
  Sr2+  Sr19  1  0.11327823  0.86562498  0.86999814  1
  Sr2+  Sr20  1  0.62106290  0.37852932  0.37673515  1
  Sr2+  Sr21  1  0.61513440  0.36806137  0.86622057  1
  Sr2+  Sr22  1  0.61004087  0.85946192  0.37748775  1
  Sr2+  Sr23  1  0.62691025  0.87033398  0.87480643  1
  Sr2+  Sr24  1  0.36799636  0.12194976  0.37463552  1
  Sr2+  Sr25  1  0.37050243  0.11896627  0.86949750  1
  Sr2+  Sr26  1  0.38931964  0.62010638  0.37612569  1
  Sr2+  Sr27  1  0.37415016  0.61722163  0.87416077  1
  Sr2+  Sr28  1  0.86876382  0.10927485  0.38047434  1
  Sr2+  Sr29  1  0.85257462  0.11875919  0.86847728  1
  Sr2+  Sr30  1  0.85530952  0.62399348  0.37461426  1
  Sr2+  Sr31  1  0.85342763  0.61894650  0.87661069  1
  Sr2+  Sr32  1  0.12057744  0.11074027  0.37463136  1
  Sr2+  Sr33  1  0.12092364  0.11338670  0.87355496  1
  Sr2+  Sr34  1  0.11931311  0.63139513  0.37008069  1
  Sr2+  Sr35  1  0.12164702  0.62131957  0.87126228  1
  Sr2+  Sr36  1  0.61762107  0.12201977  0.38005010  1
  Sr2+  Sr37  1  0.61833885  0.11010722  0.86895253  1
  Sr2+  Sr38  1  0.61887747  0.61905937  0.38352990  1
  Sr2+  Sr39  1  0.61532508  0.63445857  0.87206416  1
  Sr2+  Sr40  1  0.37076188  0.37120575  0.36852355  1
  Sr2+  Sr41  1  0.36505534  0.36663667  0.87069339  1
  Sr2+  Sr42  1  0.36425403  0.85749867  0.37816596  1
  Sr2+  Sr43  1  0.37601985  0.85615394  0.88034106  1
  Sr2+  Sr44  1  0.86085955  0.37188811  0.37976304  1
  Sr2+  Sr45  1  0.86491472  0.36506947  0.87542951  1
  Sr2+  Sr46  1  0.87267833  0.86317019  0.37360597  1
  Sr2+  Sr47  1  0.86436586  0.86490558  0.86346257  1
  Sr2+  Sr48  1  0.11583043  0.38123720  0.12217254  1
  Sr2+  Sr49  1  0.13018489  0.37709919  0.62575526  1
  Sr2+  Sr50  1  0.13329615  0.87213230  0.12748758  1
  Sr2+  Sr51  1  0.12500698  0.88145901  0.63405392  1
  Sr2+  Sr52  1  0.65148146  0.37099538  0.12851501  1
  Sr2+  Sr53  1  0.64889674  0.38524141  0.62440613  1
  Sr2+  Sr54  1  0.63573870  0.89235185  0.12243567  1
  Sr2+  Sr55  1  0.64661352  0.87584442  0.62697201  1
  Sr2+  Sr56  1  0.38728483  0.12633203  0.12466485  1
  Sr2+  Sr57  1  0.39116421  0.13374800  0.62000602  1
  Sr2+  Sr58  1  0.38253577  0.62472852  0.12386991  1
  Sr2+  Sr59  1  0.39649713  0.61889096  0.62262697  1
  Sr2+  Sr60  1  0.88599684  0.13963534  0.12815040  1
  Sr2+  Sr61  1  0.88163267  0.13268904  0.62621847  1
  Sr2+  Sr62  1  0.88279516  0.62781781  0.12377508  1
  Sr2+  Sr63  1  0.86563317  0.62790369  0.62204699  1
  Ca2+  Ca64  1  0.49910570  0.49656453  0.00017623  1
  Ca2+  Ca65  1  0.50101958  0.49365651  0.50142614  1
  Ca2+  Ca66  1  0.00044877  0.00004773  0.00143254  1
  Ca2+  Ca67  1  0.00104220  0.50279860  0.49981878  1
  Ca2+  Ca68  1  0.50032306  0.00052450  0.49604977  1
  Ca2+  Ca69  1  0.75246360  0.25069815  0.49840941  1
  Ca2+  Ca70  1  0.24765663  0.74709420  0.50137643  1
  Ca2+  Ca71  1  0.75071696  0.75407267  0.49801309  1
  Ca2+  Ca72  1  0.75146588  0.75027565  0.00410051  1
  Ca2+  Ca73  1  0.74918866  0.24789232  -0.00168471  1
  Ca2+  Ca74  1  0.50048792  0.25300030  0.74896625  1
  Ca2+  Ca75  1  0.00314817  0.24851819  0.75566157  1
  Ca2+  Ca76  1  0.00363288  0.25223998  0.25314746  1
  Ca2+  Ca77  1  -0.00291837  0.74445127  0.74851122  1
  Ca2+  Ca78  1  0.75018449  0.00010181  0.25094267  1
  Ca2+  Ca79  1  0.25335976  -0.00233955  0.74796292  1
  Ca2+  Ca80  1  0.49630960  0.75438811  0.74815903  1
  Ca2+  Ca81  1  0.74808269  0.00036458  0.74844451  1
  Ca2+  Ca82  1  0.75222848  0.50167539  0.75121633  1
  Ca2+  Ca83  1  0.75102763  0.50148719  0.25000396  1
  Ca2+  Ca84  1  0.49738720  0.75039363  0.24624768  1
  Nb5+  Nb85  1  0.49902210  -0.00008400  -0.00196749  1
  Nb5+  Nb86  1  -0.00004999  0.50388777  -0.00213353  1
  Nb5+  Nb87  1  -0.00014762  0.00010796  0.50053827  1
  Nb5+  Nb88  1  0.24830788  0.24346237  -0.00354167  1
  Nb5+  Nb89  1  0.25077358  0.25053787  0.49068158  1
  Nb5+  Nb90  1  0.24578638  0.74259663  -0.00189859  1
  Nb5+  Nb91  1  0.25067180  -0.00852383  0.24968620  1
  Nb5+  Nb92  1  0.50278088  0.25030802  0.25134100  1
  Nb5+  Nb93  1  0.25043465  0.49628112  0.24410405  1
  Nb5+  Nb94  1  0.24953514  0.49877063  0.74735314  1
  Nb5+  Nb95  1  -0.00166690  0.75031343  0.25013849  1
  Nb5+  Nb96  1  0.00090320  0.00310425  0.24546685  1
  Nb5+  Nb97  1  -0.00049750  0.00418308  0.75793387  1
  Nb5+  Nb98  1  -0.00158447  0.50484165  0.25313542  1
  Nb5+  Nb99  1  -0.00168220  0.50028279  0.74742893  1
  Nb5+  Nb100  1  0.49933460  -0.00196922  0.25277304  1
  Nb5+  Nb101  1  0.50134048  -0.00263203  0.73974595  1
  Nb5+  Nb102  1  0.50406553  0.49936596  0.24280769  1
  Nb5+  Nb103  1  0.50548799  0.49826905  0.75239524  1
  Nb5+  Nb104  1  0.25052014  0.24481825  0.24559928  1
  Nb5+  Nb105  1  0.25101890  0.24542531  0.74354617  1
  Nb5+  Nb106  1  0.24615170  0.74085715  0.25027577  1
  Nb5+  Nb107  1  0.25463275  0.74869955  0.73922961  1
  Nb5+  Nb108  1  0.75848305  0.24443667  0.25410919  1
  Nb5+  Nb109  1  0.75077950  0.25329277  0.75028967  1
  Nb5+  Nb110  1  0.74168434  0.75576385  0.24677968  1
  Nb5+  Nb111  1  0.74852265  0.74871328  0.75073509  1
  Nb5+  Nb112  1  -0.00031894  0.25121250  0.49239347  1
  Nb5+  Nb113  1  0.00063218  0.24696067  1.00056069  1
  Nb5+  Nb114  1  0.00047277  0.75023639  0.50637338  1
  Nb5+  Nb115  1  -0.00165794  0.74896657  0.99728400  1
  Nb5+  Nb116  1  0.50272533  0.25561518  0.50457447  1
  Nb5+  Nb117  1  0.50115999  0.24865013  1.00032451  1
  Nb5+  Nb118  1  0.49617533  0.75028035  0.50101822  1
  Nb5+  Nb119  1  0.50415914  0.74907954  1.00990793  1
  Nb5+  Nb120  1  0.25265296  -0.01024631  -0.00321300  1
  Nb5+  Nb121  1  0.24803458  0.00082270  0.50365155  1
  Nb5+  Nb122  1  0.25036244  0.49297274  -0.00162382  1
  Nb5+  Nb123  1  0.24471414  0.49968638  0.49028674  1
  Nb5+  Nb124  1  0.75838743  0.00396064  0.00580757  1
  Nb5+  Nb125  1  0.74320220  -0.00207996  0.49357377  1
  Nb5+  Nb126  1  0.74171892  0.49387799  -0.00233111  1
  Nb5+  Nb127  1  0.75324648  0.50214198  0.50015377  1
  O2-  O128  1  0.02357747  -0.02549142  0.13472673  1
  O2-  O129  1  0.01895921  -0.01445579  0.61459747  1
  O2-  O130  1  0.00763403  0.49218651  0.12688110  1
  O2-  O131  1  0.00653996  0.47295611  0.63595706  1
  O2-  O132  1  0.50520760  -0.01069905  0.12770439  1
  O2-  O133  1  0.51985767  -0.02937405  0.63011832  1
  O2-  O134  1  0.47268229  0.47760773  0.13336762  1
  O2-  O135  1  0.48706472  0.47540735  0.63681865  1
  O2-  O136  1  -0.00743207  0.01207827  0.36897768  1
  O2-  O137  1  -0.01842806  0.02747905  0.86865116  1
  O2-  O138  1  0.01139262  0.52755917  0.36499824  1
  O2-  O139  1  0.00687452  0.51846312  0.88257074  1
  O2-  O140  1  0.48281942  0.02976174  0.36258195  1
  O2-  O141  1  0.48166772  0.02163852  0.88580745  1
  O2-  O142  1  0.49688674  0.51290484  0.36077295  1
  O2-  O143  1  0.49944771  0.53324445  0.86846085  1
  O2-  O144  1  0.27040242  0.23430643  0.13096529  1
  O2-  O145  1  0.26746289  0.23117860  0.62932064  1
  O2-  O146  1  0.25546253  0.73352473  0.12555756  1
  O2-  O147  1  0.26719387  0.70681792  0.63430285  1
  O2-  O148  1  0.75779749  0.22347337  0.13496484  1
  O2-  O149  1  0.76762381  0.22906773  0.63140818  1
  O2-  O150  1  0.76676808  0.71849417  0.13585435  1
  O2-  O151  1  0.75512832  0.72747225  0.63271377  1
  O2-  O152  1  0.23885719  0.26842765  0.37538965  1
  O2-  O153  1  0.23583205  0.27052497  0.88677059  1
  O2-  O154  1  0.22538314  0.76435177  0.36216554  1
  O2-  O155  1  0.22870628  0.76818767  0.88569448  1
  O2-  O156  1  0.73376184  0.27937035  0.36462169  1
  O2-  O157  1  0.73451603  0.27999738  0.86686617  1
  O2-  O158  1  0.74125768  0.77978138  0.36301894  1
  O2-  O159  1  0.74044315  0.77188791  0.87145687  1
  O2-  O160  1  -0.01770525  0.27444703  0.11667316  1
  O2-  O161  1  -0.00869544  0.25486619  0.61213102  1
  O2-  O162  1  -0.01390480  0.76057458  0.12703834  1
  O2-  O163  1  -0.02795911  0.76898540  0.61490359  1
  O2-  O164  1  0.47612667  0.25351059  0.13050342  1
  O2-  O165  1  0.46940471  0.27090130  0.61360425  1
  O2-  O166  1  0.45869158  0.76412483  0.11625187  1
  O2-  O167  1  0.46352011  0.76059466  0.61492825  1
  O2-  O168  1  0.26805485  -0.00758384  0.36744485  1
  O2-  O169  1  0.28166016  -0.01596538  0.88600860  1
  O2-  O170  1  0.24915865  0.48359598  0.37353334  1
  O2-  O171  1  0.25038163  0.48246099  0.88124740  1
  O2-  O172  1  0.78648613  -0.01538498  0.38254388  1
  O2-  O173  1  0.76981009  -0.01952842  0.88768972  1
  O2-  O174  1  0.75774530  0.47911603  0.38078988  1
  O2-  O175  1  0.77449441  0.48511680  0.88541928  1
  O2-  O176  1  0.04425275  0.24078602  0.38384735  1
  O2-  O177  1  0.04364683  0.24328945  0.89215651  1
  O2-  O178  1  0.02292195  0.74532936  0.36706109  1
  O2-  O179  1  0.02564510  0.73830344  0.88606847  1
  O2-  O180  1  0.51167099  0.23142846  0.36817844  1
  O2-  O181  1  0.51887200  0.22887164  0.88887038  1
  O2-  O182  1  0.51929258  0.73163467  0.37901112  1
  O2-  O183  1  0.50720668  0.74742680  0.89197537  1
  O2-  O184  1  0.22925980  0.00666586  0.12744122  1
  O2-  O185  1  0.21753516  0.01367988  0.61283639  1
  O2-  O186  1  0.24556167  0.51259652  0.12719743  1
  O2-  O187  1  0.24107405  0.50370372  0.62977201  1
  O2-  O188  1  0.71698100  0.01914330  0.11649495  1
  O2-  O189  1  0.72695540  0.01689066  0.61191834  1
  O2-  O190  1  0.75058392  0.51755415  0.11438288  1
  O2-  O191  1  0.74291539  0.52416920  0.61767073  1
  O2-  O192  1  0.14010765  0.27733642  0.23426209  1
  O2-  O193  1  0.13871402  0.27669650  0.73957182  1
  O2-  O194  1  0.12484312  0.76436852  0.22994359  1
  O2-  O195  1  0.13728284  0.76437204  0.73965500  1
  O2-  O196  1  0.61541236  0.26743467  0.23395511  1
  O2-  O197  1  0.63364243  0.27563001  0.72725605  1
  O2-  O198  1  0.63054056  0.77871214  0.22680812  1
  O2-  O199  1  0.62987749  0.77789142  0.74184337  1
  O2-  O200  1  0.36899660  0.24071134  0.27025918  1
  O2-  O201  1  0.36429699  0.24074131  0.77809590  1
  O2-  O202  1  0.35991727  0.72950823  0.26642351  1
  O2-  O203  1  0.36013999  0.73396353  0.78554040  1
  O2-  O204  1  0.86994249  0.21949368  0.27041822  1
  O2-  O205  1  0.87007918  0.23002545  0.77031671  1
  O2-  O206  1  0.88417736  0.73249847  0.26460821  1
  O2-  O207  1  0.86579917  0.72342479  0.76921156  1
  O2-  O208  1  0.27090948  0.37958361  0.23737630  1
  O2-  O209  1  0.27112296  0.37638894  0.74227609  1
  O2-  O210  1  0.26311074  0.87550733  0.23418957  1
  O2-  O211  1  0.27026768  0.86109836  0.71400033  1
  O2-  O212  1  0.77147405  0.36290391  0.22614862  1
  O2-  O213  1  0.77909314  0.36963868  0.72890039  1
  O2-  O214  1  0.77786311  0.86702465  0.22312768  1
  O2-  O215  1  0.77579063  0.86725082  0.73188565  1
  O2-  O216  1  0.23231917  0.13001459  0.26138920  1
  O2-  O217  1  0.23212775  0.13543534  0.77500837  1
  O2-  O218  1  0.22528651  0.62392546  0.25853884  1
  O2-  O219  1  0.23244191  0.61604028  0.76984619  1
  O2-  O220  1  0.71771999  0.13407202  0.27159474  1
  O2-  O221  1  0.72815919  0.13480736  0.77003723  1
  O2-  O222  1  0.72503299  0.63689945  0.27391132  1
  O2-  O223  1  0.72053948  0.63321310  0.77131778  1
  O2-  O224  1  0.12973368  0.48342989  0.24980329  1
  O2-  O225  1  0.13162412  0.47584288  0.75866854  1
  O2-  O226  1  0.13207807  0.98517142  0.26762940  1
  O2-  O227  1  0.11821615  0.97623130  0.76949049  1
  O2-  O228  1  0.61506865  0.47159437  0.23995543  1
  O2-  O229  1  0.61792854  0.47451368  0.75238827  1
  O2-  O230  1  0.61108076  0.97584194  0.26490373  1
  O2-  O231  1  0.61312468  0.98190528  0.77786077  1
  O2-  O232  1  0.36439582  0.02052387  0.23106749  1
  O2-  O233  1  0.38453722  0.02983826  0.72870021  1
  O2-  O234  1  0.36417274  0.52318409  0.25431801  1
  O2-  O235  1  0.36683797  0.51541413  0.75304671  1
  O2-  O236  1  0.88872516  0.02153489  0.22791245  1
  O2-  O237  1  0.88600139  0.02162179  0.72564584  1
  O2-  O238  1  0.88657431  0.52955109  0.24386903  1
  O2-  O239  1  0.88862665  0.53290971  0.74589168  1
  O2-  O240  1  0.47763012  0.36801509  0.26227456  1
  O2-  O241  1  0.48119391  0.38517301  0.78631226  1
  O2-  O242  1  0.46462473  0.88779654  0.26418879  1
  O2-  O243  1  0.46683020  0.88852089  0.76996389  1
  O2-  O244  1  0.98339075  0.38986242  0.26841116  1
  O2-  O245  1  0.98477460  0.38649356  0.78049294  1
  O2-  O246  1  0.98918981  0.87292324  0.26193708  1
  O2-  O247  1  0.98201275  0.88414709  0.76148897  1
  O2-  O248  1  0.02958647  0.11599079  0.23306359  1
  O2-  O249  1  0.03165678  0.11570293  0.73106660  1
  O2-  O250  1  0.02361458  0.63119455  0.23377265  1
  O2-  O251  1  0.03860395  0.61175202  0.74089827  1
  O2-  O252  1  0.50698788  0.12753948  0.23163229  1
  O2-  O253  1  0.52316699  0.11772526  0.73128975  1
  O2-  O254  1  0.51519093  0.61333824  0.22280145  1
  O2-  O255  1  0.51280806  0.61688177  0.72622959  1
  O2-  O256  1  0.12991918  0.48836408  0.00438518  1
  O2-  O257  1  0.13506383  0.45975110  0.50030641  1
  O2-  O258  1  0.13746002  0.98831077  -0.02457354  1
  O2-  O259  1  0.12665978  0.98982756  0.47355319  1
  O2-  O260  1  0.63227933  0.45915755  -0.00653079  1
  O2-  O261  1  0.63450084  0.47373536  0.49549150  1
  O2-  O262  1  0.61249323  0.98208059  -0.01400487  1
  O2-  O263  1  0.63365389  0.97987876  0.46516555  1
  O2-  O264  1  0.36846905  0.01532970  0.02416624  1
  O2-  O265  1  0.36172699  0.02640218  0.51650564  1
  O2-  O266  1  0.36027510  0.52766975  0.00238906  1
  O2-  O267  1  0.36033647  0.51512205  0.50560237  1
  O2-  O268  1  0.86799478  0.02573574  0.03086590  1
  O2-  O269  1  0.88648064  0.02283825  0.51609144  1
  O2-  O270  1  0.88660134  0.51987378  0.00845324  1
  O2-  O271  1  0.87060359  0.53354508  0.50113562  1
  O2-  O272  1  0.46945653  0.35955878  -0.01190240  1
  O2-  O273  1  0.47959769  0.36314187  0.46444571  1
  O2-  O274  1  0.47297530  0.88249010  -0.00481907  1
  O2-  O275  1  0.47401301  0.86802508  0.47616051  1
  O2-  O276  1  0.99836383  0.38217259  -0.00986233  1
  O2-  O277  1  0.98367170  0.36548772  0.47837621  1
  O2-  O278  1  0.97746529  0.86343663  -0.01409221  1
  O2-  O279  1  0.98477958  0.88338252  0.47921777  1
  O2-  O280  1  0.02067286  0.13588479  0.02725186  1
  O2-  O281  1  0.02322432  0.12116954  0.50284962  1
  O2-  O282  1  0.02461511  0.62236272  0.01633466  1
  O2-  O283  1  0.02961226  0.63890426  0.51826558  1
  O2-  O284  1  0.50478007  0.12187551  0.02215910  1
  O2-  O285  1  0.51702600  0.13711317  0.51521850  1
  O2-  O286  1  0.51802954  0.63504445  0.02522272  1
  O2-  O287  1  0.51552915  0.63031685  0.51649589  1
  O2-  O288  1  0.13740412  0.26148763  0.03316469  1
  O2-  O289  1  0.13692790  0.26203273  0.52371350  1
  O2-  O290  1  0.12446843  0.76346140  0.02228224  1
  O2-  O291  1  0.11427713  0.78565202  0.51352376  1
  O2-  O292  1  0.61137175  0.26319969  0.02853670  1
  O2-  O293  1  0.61546872  0.27444091  0.51622769  1
  O2-  O294  1  0.61341076  0.77613421  0.02647194  1
  O2-  O295  1  0.61252614  0.77565025  0.51758081  1
  O2-  O296  1  0.36748089  0.22968767  -0.00615838  1
  O2-  O297  1  0.36833559  0.22820115  0.48546080  1
  O2-  O298  1  0.36182498  0.73192707  -0.01391321  1
  O2-  O299  1  0.37752230  0.72995848  0.47137044  1
  O2-  O300  1  0.89034050  0.23347541  -0.02752473  1
  O2-  O301  1  0.88972328  0.22715853  0.47230170  1
  O2-  O302  1  0.88771051  0.71668443  -0.00964098  1
  O2-  O303  1  0.88919484  0.73736399  0.46932974  1
  O2-  O304  1  0.26582562  0.37715062  0.01772679  1
  O2-  O305  1  0.27261685  0.36739981  0.51012467  1
  O2-  O306  1  0.26122135  0.87419094  0.01984412  1
  O2-  O307  1  0.26919803  0.88685140  0.50741521  1
  O2-  O308  1  0.77998415  0.38097917  0.02042191  1
  O2-  O309  1  0.78317856  0.38487429  0.52082429  1
  O2-  O310  1  0.76327416  0.88548388  0.02677556  1
  O2-  O311  1  0.77428157  0.88650573  0.52250046  1
  O2-  O312  1  0.23403067  0.12631197  -0.01223896  1
  O2-  O313  1  0.23242862  0.12856391  0.47825224  1
  O2-  O314  1  0.22596501  0.62668517  -0.01089524  1
  O2-  O315  1  0.21406666  0.61035236  0.48799486  1
  O2-  O316  1  0.72824538  0.11541524  -0.02664913  1
  O2-  O317  1  0.73934511  0.11685029  0.47517797  1
  O2-  O318  1  0.72066610  0.61262266  -0.01839687  1
  O2-  O319  1  0.72923010  0.61996406  0.47817000  1
