# generated using pymatgen
data_Sr64Ca21Nb43O192
_symmetry_space_group_name_H-M   'P 1'
_cell_length_a   16.58149764
_cell_length_b   16.58475359
_cell_length_c   16.75370216
_cell_angle_alpha   89.99629198
_cell_angle_beta   89.96135793
_cell_angle_gamma   89.87646931
_symmetry_Int_Tables_number   1
_chemical_formula_structural   Sr64Ca21Nb43O192
_chemical_formula_sum   'Sr64 Ca21 Nb43 O192'
_cell_volume   4607.25720798
_cell_formula_units_Z   1
loop_
 _symmetry_equiv_pos_site_id
 _symmetry_equiv_pos_as_xyz
  1  'x, y, z'
loop_
 _atom_type_symbol
 _atom_type_oxidation_number
  Sr2+  2.0
  Ca2+  2.0
  Nb5+  5.0
  O2-  -2.0
loop_
 _atom_site_type_symbol
 _atom_site_label
 _atom_site_symmetry_multiplicity
 _atom_site_fract_x
 _atom_site_fract_y
 _atom_site_fract_z
 _atom_site_occupancy
  Sr2+  Sr0  1  0.11762935  0.13453578  0.12964232  1
  Sr2+  Sr1  1  0.11662687  0.13231318  0.63166476  1
  Sr2+  Sr2  1  0.12024945  0.61934498  0.12429572  1
  Sr2+  Sr3  1  0.11974518  0.62784146  0.62216939  1
  Sr2+  Sr4  1  0.61028096  0.12438794  0.11137472  1
  Sr2+  Sr5  1  0.64203087  0.12808054  0.62294238  1
  Sr2+  Sr6  1  0.62888095  0.63062521  0.14940710  1
  Sr2+  Sr7  1  0.61174755  0.62528927  0.62113413  1
  Sr2+  Sr8  1  0.36624577  0.38809769  0.13036030  1
  Sr2+  Sr9  1  0.37646753  0.37968651  0.61514347  1
  Sr2+  Sr10  1  0.37703289  0.87388364  0.13960154  1
  Sr2+  Sr11  1  0.37460079  0.87947034  0.62833615  1
  Sr2+  Sr12  1  0.88303674  0.39407885  0.12645147  1
  Sr2+  Sr13  1  0.87952167  0.36798752  0.61611715  1
  Sr2+  Sr14  1  0.87589920  0.89420758  0.11981071  1
  Sr2+  Sr15  1  0.87721831  0.87746311  0.63534113  1
  Sr2+  Sr16  1  0.13532512  0.36157642  0.36976027  1
  Sr2+  Sr17  1  0.13681725  0.37426698  0.87597510  1
  Sr2+  Sr18  1  0.13605158  0.87579206  0.38286727  1
  Sr2+  Sr19  1  0.12581690  0.87330772  0.87583250  1
  Sr2+  Sr20  1  0.62433285  0.37195210  0.37784213  1
  Sr2+  Sr21  1  0.63174913  0.37014858  0.87434803  1
  Sr2+  Sr22  1  0.61938879  0.87430847  0.35307354  1
  Sr2+  Sr23  1  0.62769649  0.87308882  0.87131225  1
  Sr2+  Sr24  1  0.37630434  0.11455147  0.37746591  1
  Sr2+  Sr25  1  0.39696756  0.12127448  0.87544284  1
  Sr2+  Sr26  1  0.38754543  0.62596064  0.37275048  1
  Sr2+  Sr27  1  0.38195427  0.62610297  0.87368254  1
  Sr2+  Sr28  1  0.87171163  0.12883648  0.37537765  1
  Sr2+  Sr29  1  0.86387895  0.12441940  0.87659345  1
  Sr2+  Sr30  1  0.85644870  0.62154529  0.37192303  1
  Sr2+  Sr31  1  0.86815852  0.61243253  0.87568531  1
  Sr2+  Sr32  1  0.11884936  0.12834249  0.36446356  1
  Sr2+  Sr33  1  0.12929472  0.12306683  0.87602425  1
  Sr2+  Sr34  1  0.13668181  0.61836123  0.38372240  1
  Sr2+  Sr35  1  0.12868925  0.61959945  0.87906514  1
  Sr2+  Sr36  1  0.61922531  0.12328233  0.38103697  1
  Sr2+  Sr37  1  0.62817465  0.14897308  0.87302043  1
  Sr2+  Sr38  1  0.62037752  0.60591182  0.37620356  1
  Sr2+  Sr39  1  0.62070829  0.60222508  0.87284646  1
  Sr2+  Sr40  1  0.38660994  0.36856518  0.36727186  1
  Sr2+  Sr41  1  0.38598757  0.36020271  0.88138205  1
  Sr2+  Sr42  1  0.38676442  0.88740963  0.37940535  1
  Sr2+  Sr43  1  0.37734413  0.87456974  0.87525143  1
  Sr2+  Sr44  1  0.87426766  0.36472442  0.37305267  1
  Sr2+  Sr45  1  0.87445281  0.37531915  0.88260083  1
  Sr2+  Sr46  1  0.86927486  0.87626780  0.34976539  1
  Sr2+  Sr47  1  0.87393704  0.87942088  0.88010253  1
  Sr2+  Sr48  1  0.12253063  0.37919117  0.13389055  1
  Sr2+  Sr49  1  0.12713257  0.38012750  0.62635687  1
  Sr2+  Sr50  1  0.12356291  0.87500046  0.12347775  1
  Sr2+  Sr51  1  0.12099146  0.86996856  0.62613985  1
  Sr2+  Sr52  1  0.62316719  0.38479916  0.12167984  1
  Sr2+  Sr53  1  0.62491002  0.38039555  0.62127964  1
  Sr2+  Sr54  1  0.65132771  0.86916666  0.12649346  1
  Sr2+  Sr55  1  0.63634104  0.87206768  0.62692283  1
  Sr2+  Sr56  1  0.36869008  0.12186518  0.12783372  1
  Sr2+  Sr57  1  0.36041575  0.12803913  0.63014394  1
  Sr2+  Sr58  1  0.36399790  0.63342011  0.12803141  1
  Sr2+  Sr59  1  0.36415782  0.63060840  0.61834772  1
  Sr2+  Sr60  1  0.88189239  0.12789110  0.13295861  1
  Sr2+  Sr61  1  0.87600002  0.12773185  0.61363662  1
  Sr2+  Sr62  1  0.86713224  0.63178981  0.12193492  1
  Sr2+  Sr63  1  0.87741253  0.63452769  0.62744415  1
  Ca2+  Ca64  1  0.49642546  0.50180258  0.00181719  1
  Ca2+  Ca65  1  0.50237449  0.00128858  0.50906986  1
  Ca2+  Ca66  1  -0.00107457  -0.00384049  0.50018302  1
  Ca2+  Ca67  1  -0.00082938  0.50234394  0.49845067  1
  Ca2+  Ca68  1  0.49814974  -0.00754660  -0.00326492  1
  Ca2+  Ca69  1  0.25038343  0.24695435  0.00111822  1
  Ca2+  Ca70  1  0.74965753  0.74768795  -0.00484335  1
  Ca2+  Ca71  1  0.74985966  0.75133058  0.49854009  1
  Ca2+  Ca72  1  0.25146926  0.24859988  0.49991441  1
  Ca2+  Ca73  1  0.75379554  0.24959297  0.00658113  1
  Ca2+  Ca74  1  0.75177490  0.49406954  0.25197565  1
  Ca2+  Ca75  1  0.49786032  0.75162216  0.25019670  1
  Ca2+  Ca76  1  0.74552271  0.00925640  0.24875791  1
  Ca2+  Ca77  1  0.25301237  0.50457436  0.75042802  1
  Ca2+  Ca78  1  0.24701801  0.50454994  0.25215324  1
  Ca2+  Ca79  1  0.24976527  0.00052247  0.24810498  1
  Ca2+  Ca80  1  0.49924475  0.25053028  0.74739367  1
  Ca2+  Ca81  1  0.00067093  0.24931464  0.75236501  1
  Ca2+  Ca82  1  0.50398389  0.24722619  0.24712690  1
  Ca2+  Ca83  1  0.75104736  0.49992248  0.74606898  1
  Ca2+  Ca84  1  0.00485733  0.75077259  0.25127659  1
  Nb5+  Nb85  1  0.49719266  0.49815117  0.49761347  1
  Nb5+  Nb86  1  0.00165049  0.00588280  -0.00357744  1
  Nb5+  Nb87  1  0.00144989  0.50600702  -0.00117521  1
  Nb5+  Nb88  1  0.25100105  0.75320773  0.50522935  1
  Nb5+  Nb89  1  0.74851193  0.25214616  0.49867589  1
  Nb5+  Nb90  1  0.24862122  0.74999996  0.00394764  1
  Nb5+  Nb91  1  0.75684689  0.00057512  0.75052322  1
  Nb5+  Nb92  1  -0.00299829  0.74628456  0.75442067  1
  Nb5+  Nb93  1  -0.00216070  0.25384386  0.24876057  1
  Nb5+  Nb94  1  0.25136523  -0.00084136  0.75141939  1
  Nb5+  Nb95  1  0.49584661  0.74905348  0.74846174  1
  Nb5+  Nb96  1  0.00207282  -0.00226964  0.25105758  1
  Nb5+  Nb97  1  0.00534974  -0.00176534  0.75151039  1
  Nb5+  Nb98  1  -0.00177919  0.50583665  0.25901195  1
  Nb5+  Nb99  1  -0.00150197  0.49693573  0.74983941  1
  Nb5+  Nb100  1  0.50253870  0.00489169  0.24550973  1
  Nb5+  Nb101  1  0.51040923  -0.00085410  0.74828994  1
  Nb5+  Nb102  1  0.49994320  0.50100594  0.24353519  1
  Nb5+  Nb103  1  0.49172068  0.49427925  0.75097750  1
  Nb5+  Nb104  1  0.25848296  0.24747491  0.25217408  1
  Nb5+  Nb105  1  0.25244200  0.25719304  0.75233618  1
  Nb5+  Nb106  1  0.24797107  0.75265097  0.26266809  1
  Nb5+  Nb107  1  0.24596338  0.74982891  0.75410546  1
  Nb5+  Nb108  1  0.74755607  0.24930281  0.24610960  1
  Nb5+  Nb109  1  0.75641367  0.25444012  0.74639150  1
  Nb5+  Nb110  1  0.75251102  0.75028923  0.25202030  1
  Nb5+  Nb111  1  0.74369711  0.74687115  0.75308935  1
  Nb5+  Nb112  1  0.00457025  0.25207760  0.50020328  1
  Nb5+  Nb113  1  0.00231772  0.25890759  0.99903724  1
  Nb5+  Nb114  1  -0.00224400  0.75216952  0.49472339  1
  Nb5+  Nb115  1  -0.00087907  0.75287843  1.00001790  1
  Nb5+  Nb116  1  0.49920075  0.24500170  0.50136942  1
  Nb5+  Nb117  1  0.49806341  0.24957548  1.00354997  1
  Nb5+  Nb118  1  0.49949784  0.75276822  0.50293968  1
  Nb5+  Nb119  1  0.50154472  0.75059463  1.00174548  1
  Nb5+  Nb120  1  0.24836163  -0.00454478  -0.00234435  1
  Nb5+  Nb121  1  0.24468155  0.00491892  0.50228355  1
  Nb5+  Nb122  1  0.25175867  0.50043243  -0.00152174  1
  Nb5+  Nb123  1  0.25195038  0.49463696  0.49453011  1
  Nb5+  Nb124  1  0.74663006  -0.00027577  -0.00138132  1
  Nb5+  Nb125  1  0.75109196  -0.00556616  0.49929539  1
  Nb5+  Nb126  1  0.74550106  0.49782396  -0.00111659  1
  Nb5+  Nb127  1  0.75277378  0.50171038  0.50530778  1
  O2-  O128  1  -0.01597186  0.01109251  0.11259968  1
  O2-  O129  1  -0.01700767  0.01149501  0.63930227  1
  O2-  O130  1  0.02053730  0.49873544  0.11686267  1
  O2-  O131  1  0.02431395  0.50532915  0.63642245  1
  O2-  O132  1  0.48264148  0.01335177  0.12854315  1
  O2-  O133  1  0.46614961  0.01135745  0.64259025  1
  O2-  O134  1  0.52991304  0.51204608  0.13291210  1
  O2-  O135  1  0.51500602  0.49964172  0.62068440  1
  O2-  O136  1  0.02077344  -0.01583156  0.36295708  1
  O2-  O137  1  0.00951293  -0.01945411  0.87511960  1
  O2-  O138  1  -0.03821173  0.50230436  0.36671114  1
  O2-  O139  1  -0.02257614  0.49309561  0.88035914  1
  O2-  O140  1  0.50850164  0.00281160  0.37129402  1
  O2-  O141  1  0.50207368  -0.03576927  0.85899330  1
  O2-  O142  1  0.47721330  0.49701957  0.37928638  1
  O2-  O143  1  0.47385489  0.49471542  0.86590473  1
  O2-  O144  1  0.27458041  0.26757672  0.13534297  1
  O2-  O145  1  0.27696039  0.26670331  0.63407782  1
  O2-  O146  1  0.25295019  0.77259547  0.11608370  1
  O2-  O147  1  0.25815702  0.77222183  0.62139057  1
  O2-  O148  1  0.75617568  0.21218600  0.13874639  1
  O2-  O149  1  0.76449802  0.23094958  0.62243309  1
  O2-  O150  1  0.74970719  0.72871656  0.13126032  1
  O2-  O151  1  0.76265787  0.73557502  0.63754300  1
  O2-  O152  1  0.22267088  0.23254228  0.36707701  1
  O2-  O153  1  0.21997801  0.23674781  0.86528552  1
  O2-  O154  1  0.24109948  0.73371658  0.37722404  1
  O2-  O155  1  0.24491294  0.72995290  0.86708655  1
  O2-  O156  1  0.74419363  0.27625971  0.38411452  1
  O2-  O157  1  0.74478583  0.26560283  0.86397779  1
  O2-  O158  1  0.74809935  0.78296256  0.36727136  1
  O2-  O159  1  0.75371411  0.78340984  0.86255586  1
  O2-  O160  1  -0.01747222  0.24553326  0.12912738  1
  O2-  O161  1  -0.01471538  0.23915594  0.61432352  1
  O2-  O162  1  0.00749234  0.73407780  0.11300293  1
  O2-  O163  1  0.00129776  0.73087412  0.63609808  1
  O2-  O164  1  0.48437731  0.21605315  0.11580592  1
  O2-  O165  1  0.48773811  0.26626863  0.61509156  1
  O2-  O166  1  0.49463489  0.72518527  0.11264661  1
  O2-  O167  1  0.48353419  0.72814776  0.62628088  1
  O2-  O168  1  0.23184059  0.02126931  0.38771812  1
  O2-  O169  1  0.22126903  0.00076570  0.86839322  1
  O2-  O170  1  0.26824925  0.53586545  0.38510105  1
  O2-  O171  1  0.25864451  0.53585023  0.88593590  1
  O2-  O172  1  0.73320080  -0.02129062  0.38745552  1
  O2-  O173  1  0.74226261  -0.02127847  0.86925423  1
  O2-  O174  1  0.76778024  0.47663448  0.39015100  1
  O2-  O175  1  0.77155231  0.47964904  0.88078997  1
  O2-  O176  1  0.01227657  0.25710220  0.37036322  1
  O2-  O177  1  0.02372011  0.26435346  0.88665729  1
  O2-  O178  1  0.00410281  0.78466955  0.38617899  1
  O2-  O179  1  0.00849747  0.76263730  0.87328783  1
  O2-  O180  1  0.52289366  0.25839148  0.38548866  1
  O2-  O181  1  0.51899359  0.27324996  0.88192228  1
  O2-  O182  1  0.50233197  0.76152081  0.38826231  1
  O2-  O183  1  0.49787302  0.76937435  0.86394671  1
  O2-  O184  1  0.26196279  -0.03055736  0.10837532  1
  O2-  O185  1  0.25848655  -0.02242537  0.63373704  1
  O2-  O186  1  0.22282414  0.49072361  0.11367656  1
  O2-  O187  1  0.23949949  0.48198686  0.61289856  1
  O2-  O188  1  0.76708547  0.01946008  0.11107310  1
  O2-  O189  1  0.77041768  0.02030820  0.63428587  1
  O2-  O190  1  0.73067267  0.51681868  0.11538319  1
  O2-  O191  1  0.71110508  0.51141145  0.61565854  1
  O2-  O192  1  0.11763146  0.26499104  0.23535723  1
  O2-  O193  1  0.13508753  0.26091139  0.71991341  1
  O2-  O194  1  0.13660607  0.79166403  0.24863774  1
  O2-  O195  1  0.12816004  0.76833801  0.74713497  1
  O2-  O196  1  0.63773897  0.28330604  0.23951718  1
  O2-  O197  1  0.63759681  0.25581857  0.73200516  1
  O2-  O198  1  0.63246324  0.77042313  0.24108239  1
  O2-  O199  1  0.62687892  0.76646809  0.74226784  1
  O2-  O200  1  0.36937136  0.22934814  0.27848363  1
  O2-  O201  1  0.36364125  0.21701353  0.76678486  1
  O2-  O202  1  0.36289176  0.72625529  0.24539087  1
  O2-  O203  1  0.37549686  0.74042316  0.75444702  1
  O2-  O204  1  0.88047860  0.23046720  0.26527753  1
  O2-  O205  1  0.86786923  0.21599961  0.75557277  1
  O2-  O206  1  0.87045832  0.72556523  0.26066648  1
  O2-  O207  1  0.87965991  0.73754044  0.75745004  1
  O2-  O208  1  0.26197915  0.36739763  0.26980669  1
  O2-  O209  1  0.26815258  0.36880165  0.77592122  1
  O2-  O210  1  0.28044464  0.86874235  0.27221894  1
  O2-  O211  1  0.26351234  0.87038422  0.76215330  1
  O2-  O212  1  0.78575511  0.36113667  0.23745399  1
  O2-  O213  1  0.77530033  0.36579752  0.72771794  1
  O2-  O214  1  0.77589448  0.86943728  0.22755378  1
  O2-  O215  1  0.75659409  0.88038065  0.72894852  1
  O2-  O216  1  0.23101666  0.13454351  0.22576489  1
  O2-  O217  1  0.23010033  0.11294729  0.73316308  1
  O2-  O218  1  0.21925600  0.64091492  0.23254255  1
  O2-  O219  1  0.23670554  0.63980273  0.71970193  1
  O2-  O220  1  0.74065827  0.14027549  0.29288600  1
  O2-  O221  1  0.73317261  0.11612146  0.76503184  1
  O2-  O222  1  0.73157542  0.63177262  0.27543277  1
  O2-  O223  1  0.73510537  0.63529813  0.77693084  1
  O2-  O224  1  0.11077278  0.46993320  0.26677362  1
  O2-  O225  1  0.11485841  0.48625988  0.77587217  1
  O2-  O226  1  0.11505081  0.99424613  0.21811961  1
  O2-  O227  1  0.12047764  0.97482117  0.73926673  1
  O2-  O228  1  0.61598226  0.47899457  0.27303927  1
  O2-  O229  1  0.61086062  0.48081266  0.76776270  1
  O2-  O230  1  0.61757773  0.96594366  0.23245577  1
  O2-  O231  1  0.62550103  0.98496381  0.73198222  1
  O2-  O232  1  0.38341094  0.03422048  0.25617974  1
  O2-  O233  1  0.36513799  0.00666920  0.77088823  1
  O2-  O234  1  0.38183759  0.52139834  0.22717383  1
  O2-  O235  1  0.38583923  0.54067233  0.73175903  1
  O2-  O236  1  0.88441975  0.02236751  0.25868247  1
  O2-  O237  1  0.87486477  0.00324988  0.76999482  1
  O2-  O238  1  0.88739121  0.51873091  0.21780018  1
  O2-  O239  1  0.88668453  0.53701652  0.74040236  1
  O2-  O240  1  0.47411720  0.38357913  0.24086036  1
  O2-  O241  1  0.46137675  0.38482567  0.74100601  1
  O2-  O242  1  0.47305356  0.88581478  0.25346417  1
  O2-  O243  1  0.49709046  0.86681155  0.72166985  1
  O2-  O244  1  0.97981327  0.37214689  0.24554208  1
  O2-  O245  1  0.97069018  0.38491854  0.74588456  1
  O2-  O246  1  0.97836768  0.88618198  0.22855738  1
  O2-  O247  1  0.98783625  0.87039282  0.74320027  1
  O2-  O248  1  0.01512340  0.12771540  0.25022497  1
  O2-  O249  1  0.02313740  0.11155281  0.76719749  1
  O2-  O250  1  0.03106474  0.61589295  0.25959410  1
  O2-  O251  1  0.02175932  0.63079918  0.76843592  1
  O2-  O252  1  0.54639114  0.11635279  0.25089719  1
  O2-  O253  1  0.51734661  0.11194963  0.77165485  1
  O2-  O254  1  0.51764531  0.61719429  0.26860271  1
  O2-  O255  1  0.52559614  0.63310846  0.75671212  1
  O2-  O256  1  0.11977431  0.48613533  -0.02278388  1
  O2-  O257  1  0.13641340  0.48320730  0.47608674  1
  O2-  O258  1  0.11762912  0.97156994  0.00296382  1
  O2-  O259  1  0.13337444  0.96967373  0.51598322  1
  O2-  O260  1  0.63232393  0.47563115  -0.02036964  1
  O2-  O261  1  0.61662206  0.48510772  0.48137842  1
  O2-  O262  1  0.63470362  0.97617480  0.00942800  1
  O2-  O263  1  0.63835685  0.99589431  0.53569357  1
  O2-  O264  1  0.35893979  0.01035872  -0.02845306  1
  O2-  O265  1  0.36339573  0.01185496  0.49461350  1
  O2-  O266  1  0.36217401  0.52055262  0.02553841  1
  O2-  O267  1  0.37707781  0.51689438  0.51833311  1
  O2-  O268  1  0.88325270  0.01022878  -0.02198826  1
  O2-  O269  1  0.86438297  0.02783898  0.49163971  1
  O2-  O270  1  0.88264507  0.51976830  0.01620117  1
  O2-  O271  1  0.86355161  0.51313719  0.53589034  1
  O2-  O272  1  0.47268958  0.36580562  0.02330926  1
  O2-  O273  1  0.48137030  0.37952216  0.49761535  1
  O2-  O274  1  0.45557598  0.85879206  0.00686046  1
  O2-  O275  1  0.47751541  0.86507615  0.51815664  1
  O2-  O276  1  0.98274858  0.37471670  0.00632190  1
  O2-  O277  1  0.97376825  0.36733735  0.49671029  1
  O2-  O278  1  0.98300082  0.86946970  0.00794982  1
  O2-  O279  1  0.98827120  0.86125312  0.53693123  1
  O2-  O280  1  0.02318808  0.11937509  -0.01143566  1
  O2-  O281  1  0.01853169  0.13448914  0.48399211  1
  O2-  O282  1  0.02129724  0.62158760  -0.01134319  1
  O2-  O283  1  0.03440388  0.63832856  0.49443895  1
  O2-  O284  1  0.52237405  0.12890174  -0.02412173  1
  O2-  O285  1  0.53139693  0.13527156  0.50978015  1
  O2-  O286  1  0.50765208  0.63795550  -0.03392304  1
  O2-  O287  1  0.51056824  0.62194535  0.49268282  1
  O2-  O288  1  0.11467586  0.25999585  0.03278164  1
  O2-  O289  1  0.11698875  0.27766529  0.51405744  1
  O2-  O290  1  0.12450398  0.76429799  -0.00864788  1
  O2-  O291  1  0.13203890  0.77190572  0.50381508  1
  O2-  O292  1  0.61834096  0.26788625  0.02126620  1
  O2-  O293  1  0.63064883  0.27076341  0.51601033  1
  O2-  O294  1  0.61230934  0.78209846  -0.00188188  1
  O2-  O295  1  0.61350588  0.75784684  0.52389543  1
  O2-  O296  1  0.38236680  0.22903130  -0.02506730  1
  O2-  O297  1  0.38635201  0.22362554  0.48405520  1
  O2-  O298  1  0.36260355  0.72488714  -0.00981783  1
  O2-  O299  1  0.37072595  0.73023395  0.49393459  1
  O2-  O300  1  0.89036099  0.22347803  -0.00869971  1
  O2-  O301  1  0.87070288  0.23731144  0.48794795  1
  O2-  O302  1  0.88796683  0.72458195  -0.01124513  1
  O2-  O303  1  0.88671250  0.71975284  0.49448909  1
  O2-  O304  1  0.26268210  0.38715306  -0.02393990  1
  O2-  O305  1  0.27750336  0.38411043  0.47406063  1
  O2-  O306  1  0.25404385  0.86722814  -0.03010169  1
  O2-  O307  1  0.26830091  0.87058454  0.48073518  1
  O2-  O308  1  0.77905744  0.38339632  0.01759622  1
  O2-  O309  1  0.75982253  0.37306377  0.52541661  1
  O2-  O310  1  0.77789773  0.88393241  0.00834200  1
  O2-  O311  1  0.77006258  0.88509489  0.52874420  1
  O2-  O312  1  0.22180562  0.10706833  0.01174330  1
  O2-  O313  1  0.23104638  0.11486769  0.53569151  1
  O2-  O314  1  0.22338145  0.63298142  0.01553605  1
  O2-  O315  1  0.23296701  0.63310840  0.51906634  1
  O2-  O316  1  0.74020034  0.11405446  -0.03051496  1
  O2-  O317  1  0.73148071  0.13276734  0.49050238  1
  O2-  O318  1  0.74115003  0.61389392  -0.02791641  1
  O2-  O319  1  0.73562939  0.61441146  0.47831554  1
