# generated using pymatgen
data_Sr64Ca21Nb43O192
_symmetry_space_group_name_H-M   'P 1'
_cell_length_a   16.55651126
_cell_length_b   16.55818663
_cell_length_c   16.72642996
_cell_angle_alpha   90.02174775
_cell_angle_beta   90.01912298
_cell_angle_gamma   90.06441693
_symmetry_Int_Tables_number   1
_chemical_formula_structural   Sr64Ca21Nb43O192
_chemical_formula_sum   'Sr64 Ca21 Nb43 O192'
_cell_volume   4585.47709500
_cell_formula_units_Z   1
loop_
 _symmetry_equiv_pos_site_id
 _symmetry_equiv_pos_as_xyz
  1  'x, y, z'
loop_
 _atom_type_symbol
 _atom_type_oxidation_number
  Sr2+  2.0
  Ca2+  2.0
  Nb5+  5.0
  O2-  -2.0
loop_
 _atom_site_type_symbol
 _atom_site_label
 _atom_site_symmetry_multiplicity
 _atom_site_fract_x
 _atom_site_fract_y
 _atom_site_fract_z
 _atom_site_occupancy
  Sr2+  Sr0  1  0.12957807  0.12037604  0.13013352  1
  Sr2+  Sr1  1  0.12642288  0.12411418  0.62228038  1
  Sr2+  Sr2  1  0.12899752  0.62584821  0.13174360  1
  Sr2+  Sr3  1  0.13083867  0.61621746  0.62022226  1
  Sr2+  Sr4  1  0.62958011  0.12918438  0.12710424  1
  Sr2+  Sr5  1  0.62399844  0.12248897  0.62101540  1
  Sr2+  Sr6  1  0.62791324  0.60604397  0.12028421  1
  Sr2+  Sr7  1  0.63373280  0.62014812  0.62985192  1
  Sr2+  Sr8  1  0.38332518  0.36315744  0.12354692  1
  Sr2+  Sr9  1  0.37975767  0.36402345  0.62745009  1
  Sr2+  Sr10  1  0.38090727  0.85591707  0.13274926  1
  Sr2+  Sr11  1  0.38149924  0.86917791  0.62738416  1
  Sr2+  Sr12  1  0.86956882  0.36716803  0.12561147  1
  Sr2+  Sr13  1  0.88656313  0.36479549  0.62686181  1
  Sr2+  Sr14  1  0.88969500  0.86051078  0.12250098  1
  Sr2+  Sr15  1  0.87845590  0.87218658  0.62315282  1
  Sr2+  Sr16  1  0.11094621  0.37923532  0.37342187  1
  Sr2+  Sr17  1  0.11885699  0.37903877  0.87294767  1
  Sr2+  Sr18  1  0.11674991  0.88514793  0.36847863  1
  Sr2+  Sr19  1  0.11455855  0.88778544  0.87908496  1
  Sr2+  Sr20  1  0.61740060  0.38766264  0.36910348  1
  Sr2+  Sr21  1  0.60651675  0.38128163  0.87609028  1
  Sr2+  Sr22  1  0.61172711  0.87847445  0.37664457  1
  Sr2+  Sr23  1  0.61785745  0.87974778  0.87418988  1
  Sr2+  Sr24  1  0.36884325  0.12481866  0.37895689  1
  Sr2+  Sr25  1  0.36495035  0.12820156  0.87423637  1
  Sr2+  Sr26  1  0.36833062  0.63768764  0.36694197  1
  Sr2+  Sr27  1  0.37329753  0.62962078  0.87772136  1
  Sr2+  Sr28  1  0.86704217  0.11924852  0.38014769  1
  Sr2+  Sr29  1  0.86305571  0.12930219  0.87658143  1
  Sr2+  Sr30  1  0.86189169  0.62878562  0.37154435  1
  Sr2+  Sr31  1  0.86492411  0.63176045  0.88472104  1
  Sr2+  Sr32  1  0.11514316  0.13160422  0.36974907  1
  Sr2+  Sr33  1  0.11741644  0.13346867  0.87833186  1
  Sr2+  Sr34  1  0.11548122  0.63895884  0.37152592  1
  Sr2+  Sr35  1  0.11513600  0.64135825  0.87805212  1
  Sr2+  Sr36  1  0.60978209  0.13005616  0.37439167  1
  Sr2+  Sr37  1  0.61755344  0.12355653  0.88812311  1
  Sr2+  Sr38  1  0.62362119  0.63341694  0.37497556  1
  Sr2+  Sr39  1  0.61489566  0.64054673  0.87570980  1
  Sr2+  Sr40  1  0.37396413  0.38886984  0.36888652  1
  Sr2+  Sr41  1  0.36365703  0.38731316  0.87747665  1
  Sr2+  Sr42  1  0.37173826  0.87741700  0.37494657  1
  Sr2+  Sr43  1  0.37360032  0.87985802  0.87161822  1
  Sr2+  Sr44  1  0.86846343  0.39335996  0.37702967  1
  Sr2+  Sr45  1  0.87158584  0.38236137  0.86832868  1
  Sr2+  Sr46  1  0.87057457  0.87297308  0.37965389  1
  Sr2+  Sr47  1  0.87428635  0.87056050  0.87560860  1
  Sr2+  Sr48  1  0.14457018  0.36639698  0.12845527  1
  Sr2+  Sr49  1  0.13239204  0.37068950  0.62456963  1
  Sr2+  Sr50  1  0.13507473  0.86938434  0.12991972  1
  Sr2+  Sr51  1  0.12933286  0.87734547  0.62639904  1
  Sr2+  Sr52  1  0.63073777  0.36977874  0.13147001  1
  Sr2+  Sr53  1  0.63764676  0.36356680  0.62176879  1
  Sr2+  Sr54  1  0.63629063  0.88545631  0.12762199  1
  Sr2+  Sr55  1  0.63312096  0.87007214  0.62823741  1
  Sr2+  Sr56  1  0.37597632  0.11882067  0.12506012  1
  Sr2+  Sr57  1  0.38014283  0.11679593  0.62384421  1
  Sr2+  Sr58  1  0.38821751  0.61781110  0.12377070  1
  Sr2+  Sr59  1  0.37618648  0.62070051  0.62914742  1
  Sr2+  Sr60  1  0.86124353  0.12161537  0.12292478  1
  Sr2+  Sr61  1  0.86715690  0.12363420  0.62797063  1
  Sr2+  Sr62  1  0.88898126  0.61709947  0.12321515  1
  Sr2+  Sr63  1  0.88654470  0.62352561  0.61850781  1
  Ca2+  Ca64  1  0.49767850  -0.00010844  -0.00099388  1
  Ca2+  Ca65  1  0.49938314  0.49867986  -0.00198509  1
  Ca2+  Ca66  1  0.00406441  0.49535922  -0.00071949  1
  Ca2+  Ca67  1  0.49847823  0.50422302  0.50164342  1
  Ca2+  Ca68  1  -0.00157016  0.00435293  -0.00096136  1
  Ca2+  Ca69  1  0.75091520  0.24988128  0.49852177  1
  Ca2+  Ca70  1  0.74735414  0.74909142  0.00320044  1
  Ca2+  Ca71  1  0.25147009  0.75034771  -0.00037911  1
  Ca2+  Ca72  1  0.24778811  0.74890964  0.50152183  1
  Ca2+  Ca73  1  0.25116737  0.25186397  0.50139875  1
  Ca2+  Ca74  1  0.74961297  -0.00079944  0.75234632  1
  Ca2+  Ca75  1  0.50110665  0.24833612  0.24931652  1
  Ca2+  Ca76  1  0.49968871  0.24617138  0.74985857  1
  Ca2+  Ca77  1  0.75129354  -0.00116319  0.25233926  1
  Ca2+  Ca78  1  0.75123370  0.50087427  0.74760254  1
  Ca2+  Ca79  1  0.24847277  0.49960528  0.25003085  1
  Ca2+  Ca80  1  0.25166249  0.00014150  0.25184178  1
  Ca2+  Ca81  1  -0.00196357  0.25121984  0.24797857  1
  Ca2+  Ca82  1  -0.00293070  0.75099662  0.25304055  1
  Ca2+  Ca83  1  -0.00011825  0.74954976  0.75064441  1
  Ca2+  Ca84  1  0.50484179  0.74942096  0.25074336  1
  Nb5+  Nb85  1  0.00124876  0.50530723  0.50034539  1
  Nb5+  Nb86  1  -0.00242424  0.00566661  0.50245047  1
  Nb5+  Nb87  1  0.49502491  -0.00143800  0.50014218  1
  Nb5+  Nb88  1  0.24456260  0.24924390  -0.00191831  1
  Nb5+  Nb89  1  0.74402308  0.25325089  -0.00440835  1
  Nb5+  Nb90  1  0.74909438  0.75096285  0.50155211  1
  Nb5+  Nb91  1  0.75172842  0.50260497  0.24706934  1
  Nb5+  Nb92  1  0.24644198  0.50830969  0.75247447  1
  Nb5+  Nb93  1  0.00028109  0.24704595  0.75002162  1
  Nb5+  Nb94  1  0.49893324  0.74939348  0.74740242  1
  Nb5+  Nb95  1  0.24737999  0.00507479  0.75035879  1
  Nb5+  Nb96  1  -0.00337073  0.00089221  0.24353103  1
  Nb5+  Nb97  1  -0.00269589  0.00274342  0.74938228  1
  Nb5+  Nb98  1  0.00011799  0.49453781  0.24460775  1
  Nb5+  Nb99  1  0.00329913  0.50419241  0.75212715  1
  Nb5+  Nb100  1  0.49955182  -0.00268901  0.24588830  1
  Nb5+  Nb101  1  0.50072125  -0.00108556  0.74791344  1
  Nb5+  Nb102  1  0.49697153  0.50263890  0.25227567  1
  Nb5+  Nb103  1  0.49940987  0.49530127  0.74537589  1
  Nb5+  Nb104  1  0.25605881  0.25226500  0.25793838  1
  Nb5+  Nb105  1  0.24959943  0.25485294  0.74957265  1
  Nb5+  Nb106  1  0.24939180  0.74935181  0.25152687  1
  Nb5+  Nb107  1  0.24750804  0.75837626  0.75129182  1
  Nb5+  Nb108  1  0.75502270  0.25057125  0.25912539  1
  Nb5+  Nb109  1  0.74494280  0.25194743  0.75348349  1
  Nb5+  Nb110  1  0.74687864  0.75004454  0.24279112  1
  Nb5+  Nb111  1  0.75418401  0.74720594  0.74920267  1
  Nb5+  Nb112  1  -0.00312149  0.25366972  0.49707804  1
  Nb5+  Nb113  1  -0.00486024  0.25409508  1.00267102  1
  Nb5+  Nb114  1  0.00094651  0.75828851  0.49898394  1
  Nb5+  Nb115  1  0.00206823  0.74981172  1.00133188  1
  Nb5+  Nb116  1  0.49712184  0.25685131  0.49749921  1
  Nb5+  Nb117  1  0.49215390  0.24648852  0.99730717  1
  Nb5+  Nb118  1  0.49878192  0.74682697  0.50467533  1
  Nb5+  Nb119  1  0.50477882  0.75499950  1.00661438  1
  Nb5+  Nb120  1  0.25327555  -0.00106914  0.00399176  1
  Nb5+  Nb121  1  0.24420814  -0.00366322  0.50006535  1
  Nb5+  Nb122  1  0.24723582  0.50478980  0.00096393  1
  Nb5+  Nb123  1  0.25041417  0.49966758  0.49614574  1
  Nb5+  Nb124  1  0.75349967  -0.00571246  0.00086901  1
  Nb5+  Nb125  1  0.74173138  -0.00115018  0.50010337  1
  Nb5+  Nb126  1  0.74697863  0.49710162  -0.00997666  1
  Nb5+  Nb127  1  0.75021210  0.49902846  0.50449662  1
  O2-  O128  1  -0.01225451  -0.01679036  0.13204881  1
  O2-  O129  1  0.00491316  -0.01653169  0.62265892  1
  O2-  O130  1  -0.02929152  0.48034157  0.13511811  1
  O2-  O131  1  -0.01911175  0.48639850  0.62319557  1
  O2-  O132  1  0.49095998  -0.02256211  0.13304944  1
  O2-  O133  1  0.49307910  -0.02303303  0.61976051  1
  O2-  O134  1  0.48133671  0.48282076  0.13447896  1
  O2-  O135  1  0.46136272  0.49229361  0.63393966  1
  O2-  O136  1  0.00705508  0.01486551  0.38638087  1
  O2-  O137  1  0.01235172  0.01923376  0.86190913  1
  O2-  O138  1  0.01972770  0.51296244  0.38468488  1
  O2-  O139  1  0.03338304  0.51063318  0.86245663  1
  O2-  O140  1  0.50507259  0.01303253  0.38367576  1
  O2-  O141  1  0.49733938  0.01889835  0.86005177  1
  O2-  O142  1  0.52809769  0.51652574  0.36829132  1
  O2-  O143  1  0.51470038  0.52492148  0.85878782  1
  O2-  O144  1  0.23162673  0.23177958  0.11263515  1
  O2-  O145  1  0.22258156  0.23710410  0.63801567  1
  O2-  O146  1  0.22225393  0.74046146  0.13349822  1
  O2-  O147  1  0.23085073  0.72759862  0.63949752  1
  O2-  O148  1  0.73277013  0.24312958  0.11411866  1
  O2-  O149  1  0.73259596  0.23048232  0.63781860  1
  O2-  O150  1  0.71223666  0.73277185  0.13593073  1
  O2-  O151  1  0.72956457  0.73621832  0.62183433  1
  O2-  O152  1  0.28362630  0.26789200  0.36758820  1
  O2-  O153  1  0.26888306  0.26108651  0.87241616  1
  O2-  O154  1  0.28031274  0.76018465  0.36973885  1
  O2-  O155  1  0.28536638  0.75627003  0.86246434  1
  O2-  O156  1  0.78803313  0.26257227  0.36723325  1
  O2-  O157  1  0.77762264  0.26596866  0.87657560  1
  O2-  O158  1  0.77230147  0.75953095  0.38545057  1
  O2-  O159  1  0.76987615  0.76070570  0.86384672  1
  O2-  O160  1  0.01301403  0.28701541  0.11067835  1
  O2-  O161  1  0.02039130  0.26336787  0.62909778  1
  O2-  O162  1  0.01889434  0.77311060  0.11895362  1
  O2-  O163  1  0.01734446  0.76544969  0.61534111  1
  O2-  O164  1  0.51625036  0.27482117  0.11089568  1
  O2-  O165  1  0.52416967  0.26585288  0.61494405  1
  O2-  O166  1  0.52284000  0.78343078  0.11583863  1
  O2-  O167  1  0.51536603  0.77712575  0.62451081  1
  O2-  O168  1  0.24874808  -0.02951652  0.38837254  1
  O2-  O169  1  0.24824095  -0.02180283  0.86677364  1
  O2-  O170  1  0.23445095  0.46661291  0.38706804  1
  O2-  O171  1  0.23446523  0.47741105  0.86779643  1
  O2-  O172  1  0.76064350  -0.02560389  0.38710255  1
  O2-  O173  1  0.75958416  -0.02955687  0.88364012  1
  O2-  O174  1  0.74088532  0.48970614  0.38044281  1
  O2-  O175  1  0.73081290  0.47144290  0.88047843  1
  O2-  O176  1  -0.01891336  0.22391987  0.38736046  1
  O2-  O177  1  -0.01104378  0.22260350  0.86623018  1
  O2-  O178  1  -0.02779536  0.72972696  0.38917451  1
  O2-  O179  1  -0.02179827  0.72543358  0.88321592  1
  O2-  O180  1  0.48411223  0.22019443  0.38537882  1
  O2-  O181  1  0.49333679  0.21535038  0.88165043  1
  O2-  O182  1  0.49060041  0.73119688  0.38943713  1
  O2-  O183  1  0.48467315  0.73142167  0.86128175  1
  O2-  O184  1  0.25118750  0.02864906  0.11506249  1
  O2-  O185  1  0.24859248  0.02437797  0.62924924  1
  O2-  O186  1  0.26364985  0.52369869  0.11331289  1
  O2-  O187  1  0.25641732  0.52292952  0.63294539  1
  O2-  O188  1  0.74009747  0.02680096  0.11702939  1
  O2-  O189  1  0.74803314  0.02128006  0.61583673  1
  O2-  O190  1  0.76743137  0.51617418  0.13178301  1
  O2-  O191  1  0.77031811  0.52931869  0.61498050  1
  O2-  O192  1  0.13681673  0.27450677  0.26261943  1
  O2-  O193  1  0.12557110  0.25828239  0.77311452  1
  O2-  O194  1  0.13174493  0.77028985  0.27684727  1
  O2-  O195  1  0.13542589  0.76961711  0.77824496  1
  O2-  O196  1  0.64027258  0.27904903  0.26104831  1
  O2-  O197  1  0.63480633  0.27827584  0.77031837  1
  O2-  O198  1  0.63821641  0.76168479  0.28744400  1
  O2-  O199  1  0.61772468  0.77128766  0.75985592  1
  O2-  O200  1  0.36757306  0.23124446  0.21913628  1
  O2-  O201  1  0.36236696  0.22938430  0.73202042  1
  O2-  O202  1  0.36866998  0.72408229  0.22666095  1
  O2-  O203  1  0.37781231  0.74094857  0.72405037  1
  O2-  O204  1  0.86430631  0.24177071  0.21370101  1
  O2-  O205  1  0.88339212  0.23249175  0.73473173  1
  O2-  O206  1  0.86129630  0.71902935  0.23562778  1
  O2-  O207  1  0.86510115  0.72209646  0.72916848  1
  O2-  O208  1  0.27141697  0.36672062  0.22167806  1
  O2-  O209  1  0.26314479  0.37124327  0.73688605  1
  O2-  O210  1  0.27206519  0.86719281  0.23364767  1
  O2-  O211  1  0.26149307  0.87378696  0.72996232  1
  O2-  O212  1  0.77111352  0.38228722  0.24235960  1
  O2-  O213  1  0.77894006  0.36518758  0.73248967  1
  O2-  O214  1  0.77222603  0.86249266  0.22925387  1
  O2-  O215  1  0.76458952  0.86356491  0.72506177  1
  O2-  O216  1  0.23038659  0.13578842  0.26901381  1
  O2-  O217  1  0.23466461  0.12023250  0.77091633  1
  O2-  O218  1  0.22698315  0.63120024  0.27106423  1
  O2-  O219  1  0.22958744  0.62184980  0.77146724  1
  O2-  O220  1  0.73134242  0.13747002  0.26791146  1
  O2-  O221  1  0.73838258  0.13588006  0.77943082  1
  O2-  O222  1  0.73279708  0.61917608  0.26948633  1
  O2-  O223  1  0.71676044  0.63408032  0.76198611  1
  O2-  O224  1  0.11381186  0.47514073  0.23142537  1
  O2-  O225  1  0.12790183  0.47770292  0.72998495  1
  O2-  O226  1  0.11568460  0.97434238  0.24692738  1
  O2-  O227  1  0.12861587  0.98190573  0.74112812  1
  O2-  O228  1  0.63387687  0.48228808  0.23599101  1
  O2-  O229  1  0.61169609  0.47940795  0.72012371  1
  O2-  O230  1  0.61752662  0.96833386  0.25429228  1
  O2-  O231  1  0.61417868  0.97747080  0.74454411  1
  O2-  O232  1  0.38586080  0.03135863  0.26100648  1
  O2-  O233  1  0.36848309  0.00674919  0.74658155  1
  O2-  O234  1  0.38393739  0.51985618  0.27394760  1
  O2-  O235  1  0.36496613  0.51752428  0.76712934  1
  O2-  O236  1  0.88389128  0.03812517  0.25805032  1
  O2-  O237  1  0.88518268  0.02685672  0.74420776  1
  O2-  O238  1  0.87254190  0.51612329  0.27081072  1
  O2-  O239  1  0.88924362  0.51495782  0.77548839  1
  O2-  O240  1  0.49123198  0.38348862  0.27307536  1
  O2-  O241  1  0.47572125  0.38401949  0.76843416  1
  O2-  O242  1  0.47562394  0.88222881  0.27385659  1
  O2-  O243  1  0.47765324  0.87460651  0.75985925  1
  O2-  O244  1  0.98175281  0.38415002  0.28462645  1
  O2-  O245  1  0.99010610  0.36879208  0.76008586  1
  O2-  O246  1  0.97165467  0.88705879  0.27378480  1
  O2-  O247  1  0.98016286  0.88657597  0.76138782  1
  O2-  O248  1  0.03115994  0.11753049  0.24231368  1
  O2-  O249  1  0.02198765  0.12600313  0.72807834  1
  O2-  O250  1  0.01604632  0.61264757  0.24051273  1
  O2-  O251  1  0.02328605  0.61432470  0.72719625  1
  O2-  O252  1  0.53405439  0.11367723  0.24062105  1
  O2-  O253  1  0.50659927  0.11118768  0.71620730  1
  O2-  O254  1  0.52445947  0.61605794  0.22744098  1
  O2-  O255  1  0.51030211  0.63177819  0.72422387  1
  O2-  O256  1  0.13774811  0.46340112  0.01246755  1
  O2-  O257  1  0.11552703  0.47782091  0.51903831  1
  O2-  O258  1  0.13579202  0.98576719  -0.00378780  1
  O2-  O259  1  0.12393637  0.98200235  0.50726398  1
  O2-  O260  1  0.63549466  0.47642307  0.02566454  1
  O2-  O261  1  0.63632637  0.48328882  0.52067271  1
  O2-  O262  1  0.63432978  0.99063359  -0.01165651  1
  O2-  O263  1  0.62473324  0.97984114  0.50312235  1
  O2-  O264  1  0.36571837  0.03035083  -0.01460509  1
  O2-  O265  1  0.37503571  0.01199336  0.49862791  1
  O2-  O266  1  0.36359431  0.50951499  -0.02597558  1
  O2-  O267  1  0.36131194  0.52994048  0.48115700  1
  O2-  O268  1  0.86577328  0.03406284  -0.00298326  1
  O2-  O269  1  0.87896888  0.01373349  0.50631421  1
  O2-  O270  1  0.86570215  0.51242931  -0.01579519  1
  O2-  O271  1  0.87984631  0.51674531  0.48287894  1
  O2-  O272  1  0.48568098  0.36272528  -0.03230045  1
  O2-  O273  1  0.47205773  0.36863360  0.48134059  1
  O2-  O274  1  0.48305617  0.86604464  -0.03148782  1
  O2-  O275  1  0.48771479  0.87582906  0.48350059  1
  O2-  O276  1  0.98957243  0.36226555  -0.04268673  1
  O2-  O277  1  0.98049476  0.37233597  0.48746379  1
  O2-  O278  1  0.97623951  0.86822772  -0.01874979  1
  O2-  O279  1  0.98182854  0.87642753  0.48824185  1
  O2-  O280  1  0.02884539  0.14163589  0.01347625  1
  O2-  O281  1  0.01525369  0.12171936  0.51789671  1
  O2-  O282  1  0.02360471  0.63052136  0.02181458  1
  O2-  O283  1  0.01186365  0.62268846  0.51852458  1
  O2-  O284  1  0.52686784  0.13452591  0.02091027  1
  O2-  O285  1  0.51729683  0.11476445  0.51767481  1
  O2-  O286  1  0.52193891  0.63469730  0.01391965  1
  O2-  O287  1  0.52697687  0.63711175  0.52538004  1
  O2-  O288  1  0.13092916  0.26842259  -0.02108677  1
  O2-  O289  1  0.11448733  0.26467548  0.48349722  1
  O2-  O290  1  0.11733127  0.77072862  -0.02678169  1
  O2-  O291  1  0.11285036  0.76773875  0.47340099  1
  O2-  O292  1  0.63142530  0.26844371  -0.02542444  1
  O2-  O293  1  0.61711150  0.26871317  0.47681563  1
  O2-  O294  1  0.61718276  0.76526498  -0.03336831  1
  O2-  O295  1  0.63072259  0.77125970  0.48958785  1
  O2-  O296  1  0.37658332  0.22896181  0.01193177  1
  O2-  O297  1  0.38443346  0.22835607  0.52717942  1
  O2-  O298  1  0.38721735  0.72974644  0.01898838  1
  O2-  O299  1  0.38534579  0.73661417  0.52445902  1
  O2-  O300  1  0.87940459  0.23617629  0.01256670  1
  O2-  O301  1  0.88534804  0.23455241  0.53136387  1
  O2-  O302  1  0.88151033  0.72948115  0.02448823  1
  O2-  O303  1  0.87177563  0.74471452  0.52601758  1
  O2-  O304  1  0.27484819  0.36528506  0.01111430  1
  O2-  O305  1  0.26363512  0.38800914  0.53552170  1
  O2-  O306  1  0.27658870  0.88687596  0.01900920  1
  O2-  O307  1  0.26019513  0.88429770  0.53649247  1
  O2-  O308  1  0.77069075  0.37180720  0.01299998  1
  O2-  O309  1  0.77433327  0.38628997  0.51929782  1
  O2-  O310  1  0.76946395  0.88383650  0.03190771  1
  O2-  O311  1  0.76411701  0.87447958  0.52159346  1
  O2-  O312  1  0.23611895  0.13067046  -0.02657051  1
  O2-  O313  1  0.23401176  0.11351227  0.48302639  1
  O2-  O314  1  0.22416626  0.61433186  -0.02364810  1
  O2-  O315  1  0.21158696  0.61173002  0.48949287  1
  O2-  O316  1  0.73783858  0.13543791  -0.02012137  1
  O2-  O317  1  0.73453578  0.11369642  0.47604891  1
  O2-  O318  1  0.72909252  0.61216175  -0.01953217  1
  O2-  O319  1  0.73833423  0.63037306  0.48551565  1
