# generated using pymatgen
data_Sr64Ca21Nb43O192
_symmetry_space_group_name_H-M   'P 1'
_cell_length_a   16.60941591
_cell_length_b   16.58186999
_cell_length_c   16.72952197
_cell_angle_alpha   89.94619902
_cell_angle_beta   89.98807565
_cell_angle_gamma   90.07326734
_symmetry_Int_Tables_number   1
_chemical_formula_structural   Sr64Ca21Nb43O192
_chemical_formula_sum   'Sr64 Ca21 Nb43 O192'
_cell_volume   4607.55832519
_cell_formula_units_Z   1
loop_
 _symmetry_equiv_pos_site_id
 _symmetry_equiv_pos_as_xyz
  1  'x, y, z'
loop_
 _atom_type_symbol
 _atom_type_oxidation_number
  Sr2+  2.0
  Ca2+  2.0
  Nb5+  5.0
  O2-  -2.0
loop_
 _atom_site_type_symbol
 _atom_site_label
 _atom_site_symmetry_multiplicity
 _atom_site_fract_x
 _atom_site_fract_y
 _atom_site_fract_z
 _atom_site_occupancy
  Sr2+  Sr0  1  0.12406645  0.13175076  0.12467863  1
  Sr2+  Sr1  1  0.11769796  0.12807480  0.62460820  1
  Sr2+  Sr2  1  0.11284007  0.63665656  0.12517121  1
  Sr2+  Sr3  1  0.12027832  0.63875713  0.62595794  1
  Sr2+  Sr4  1  0.61607097  0.13203143  0.12653072  1
  Sr2+  Sr5  1  0.61643815  0.12304734  0.61548642  1
  Sr2+  Sr6  1  0.61688962  0.63603536  0.12827282  1
  Sr2+  Sr7  1  0.61984494  0.63871988  0.61640233  1
  Sr2+  Sr8  1  0.36782727  0.37646186  0.12259624  1
  Sr2+  Sr9  1  0.36963000  0.38890935  0.62432409  1
  Sr2+  Sr10  1  0.36635299  0.89075175  0.12755780  1
  Sr2+  Sr11  1  0.37132316  0.88844124  0.63284667  1
  Sr2+  Sr12  1  0.87480886  0.38312552  0.12403846  1
  Sr2+  Sr13  1  0.86212155  0.37283015  0.63891876  1
  Sr2+  Sr14  1  0.86921247  0.89183551  0.12531905  1
  Sr2+  Sr15  1  0.86981832  0.88570436  0.62377808  1
  Sr2+  Sr16  1  0.13891705  0.36821619  0.38041595  1
  Sr2+  Sr17  1  0.13873828  0.36452097  0.87153809  1
  Sr2+  Sr18  1  0.13264302  0.87334653  0.37452679  1
  Sr2+  Sr19  1  0.13492170  0.86519250  0.87600125  1
  Sr2+  Sr20  1  0.63225104  0.36787674  0.37101294  1
  Sr2+  Sr21  1  0.61785709  0.37455067  0.87243844  1
  Sr2+  Sr22  1  0.63495788  0.85956043  0.37833330  1
  Sr2+  Sr23  1  0.63112379  0.86960420  0.88209197  1
  Sr2+  Sr24  1  0.38404229  0.11549689  0.36844146  1
  Sr2+  Sr25  1  0.39091145  0.12281239  0.87292415  1
  Sr2+  Sr26  1  0.38569376  0.61443624  0.37870626  1
  Sr2+  Sr27  1  0.39246178  0.61513108  0.87801087  1
  Sr2+  Sr28  1  0.88930316  0.12257179  0.37905091  1
  Sr2+  Sr29  1  0.87651681  0.11917573  0.88175703  1
  Sr2+  Sr30  1  0.87924505  0.62288804  0.37990378  1
  Sr2+  Sr31  1  0.88356547  0.61874286  0.87235712  1
  Sr2+  Sr32  1  0.13167092  0.11285104  0.37531087  1
  Sr2+  Sr33  1  0.13930532  0.12359209  0.87380929  1
  Sr2+  Sr34  1  0.13215737  0.61456538  0.37950189  1
  Sr2+  Sr35  1  0.12363030  0.61640911  0.87252130  1
  Sr2+  Sr36  1  0.63516411  0.11995998  0.37252402  1
  Sr2+  Sr37  1  0.63069869  0.10244739  0.87839791  1
  Sr2+  Sr38  1  0.63491117  0.61306488  0.37239548  1
  Sr2+  Sr39  1  0.62548532  0.61981203  0.88635296  1
  Sr2+  Sr40  1  0.38468114  0.37396147  0.38142241  1
  Sr2+  Sr41  1  0.37872739  0.36779726  0.87770950  1
  Sr2+  Sr42  1  0.37666012  0.86734766  0.36663519  1
  Sr2+  Sr43  1  0.38627227  0.86074124  0.87204223  1
  Sr2+  Sr44  1  0.87859819  0.35839184  0.37412269  1
  Sr2+  Sr45  1  0.88838795  0.36785624  0.87274395  1
  Sr2+  Sr46  1  0.88582640  0.86830526  0.37741313  1
  Sr2+  Sr47  1  0.87560103  0.86945401  0.87624496  1
  Sr2+  Sr48  1  0.11523832  0.37691031  0.12080190  1
  Sr2+  Sr49  1  0.12712697  0.38438229  0.62386250  1
  Sr2+  Sr50  1  0.12788508  0.88000507  0.12615386  1
  Sr2+  Sr51  1  0.12165284  0.88046528  0.63201837  1
  Sr2+  Sr52  1  0.61232925  0.38009330  0.13197477  1
  Sr2+  Sr53  1  0.61423967  0.37137507  0.62373719  1
  Sr2+  Sr54  1  0.61274637  0.88230001  0.12152586  1
  Sr2+  Sr55  1  0.60884212  0.88459304  0.62639636  1
  Sr2+  Sr56  1  0.36546034  0.13449316  0.12860432  1
  Sr2+  Sr57  1  0.38819657  0.12961574  0.63331432  1
  Sr2+  Sr58  1  0.36013106  0.63545463  0.11692142  1
  Sr2+  Sr59  1  0.35243362  0.63154932  0.62005569  1
  Sr2+  Sr60  1  0.86619459  0.13447415  0.12286415  1
  Sr2+  Sr61  1  0.86148783  0.12598622  0.61838152  1
  Sr2+  Sr62  1  0.86489718  0.62990450  0.12670155  1
  Sr2+  Sr63  1  0.86710332  0.62669389  0.63252322  1
  Ca2+  Ca64  1  0.50483772  0.50238027  0.49953627  1
  Ca2+  Ca65  1  0.49931027  -0.00150950  0.49617240  1
  Ca2+  Ca66  1  0.49654216  0.00129755  0.00339738  1
  Ca2+  Ca67  1  0.00183882  -0.00033929  0.00001449  1
  Ca2+  Ca68  1  -0.00207688  0.49919087  0.50119741  1
  Ca2+  Ca69  1  0.25123982  0.24587414  0.49903359  1
  Ca2+  Ca70  1  0.24813941  0.74968684  -0.00279624  1
  Ca2+  Ca71  1  0.75064070  0.25154819  -0.00201959  1
  Ca2+  Ca72  1  0.24532123  0.75513186  0.49850953  1
  Ca2+  Ca73  1  0.75138494  0.75048980  0.00154772  1
  Ca2+  Ca74  1  0.74959938  -0.00189795  0.74888664  1
  Ca2+  Ca75  1  0.49809253  0.25073688  0.25178153  1
  Ca2+  Ca76  1  0.25219212  0.50124260  0.75276480  1
  Ca2+  Ca77  1  0.50403919  0.24938061  0.75256835  1
  Ca2+  Ca78  1  0.00273903  0.24955632  0.74719109  1
  Ca2+  Ca79  1  0.24950742  0.50059109  0.24829863  1
  Ca2+  Ca80  1  0.00264437  0.25074660  0.25071435  1
  Ca2+  Ca81  1  0.75128105  -0.00069567  0.25137844  1
  Ca2+  Ca82  1  0.49895873  0.74948914  0.25112372  1
  Ca2+  Ca83  1  0.24902360  0.00172530  0.75224924  1
  Ca2+  Ca84  1  0.50216671  0.74409520  0.74830132  1
  Nb5+  Nb85  1  0.49434230  0.49852170  0.00495557  1
  Nb5+  Nb86  1  -0.00480101  0.50224269  0.00241359  1
  Nb5+  Nb87  1  0.00215342  -0.00076230  0.49958201  1
  Nb5+  Nb88  1  0.25184726  0.24945661  -0.00033154  1
  Nb5+  Nb89  1  0.75116506  0.74420437  0.50070142  1
  Nb5+  Nb90  1  0.74741044  0.24633721  0.49961990  1
  Nb5+  Nb91  1  -0.00436937  0.75254728  0.75573534  1
  Nb5+  Nb92  1  0.24989304  0.00271628  0.24918122  1
  Nb5+  Nb93  1  -0.00067407  0.75114192  0.25633175  1
  Nb5+  Nb94  1  0.75489423  0.49865160  0.25519575  1
  Nb5+  Nb95  1  0.74971462  0.50195536  0.76068846  1
  Nb5+  Nb96  1  0.00268468  0.00292022  0.24869488  1
  Nb5+  Nb97  1  -0.00283895  0.00230662  0.75486131  1
  Nb5+  Nb98  1  -0.00177535  0.49777903  0.25424783  1
  Nb5+  Nb99  1  0.00155089  0.50046974  0.74853408  1
  Nb5+  Nb100  1  0.50760606  -0.00371038  0.25556046  1
  Nb5+  Nb101  1  0.49950160  -0.00325748  0.75403891  1
  Nb5+  Nb102  1  0.49495631  0.50456133  0.24569157  1
  Nb5+  Nb103  1  0.50193942  0.50435842  0.74150551  1
  Nb5+  Nb104  1  0.24911636  0.25323168  0.25354191  1
  Nb5+  Nb105  1  0.25333072  0.25160549  0.74220146  1
  Nb5+  Nb106  1  0.24872596  0.74618013  0.25009427  1
  Nb5+  Nb107  1  0.25489645  0.74729705  0.75476320  1
  Nb5+  Nb108  1  0.75223073  0.24895807  0.24534827  1
  Nb5+  Nb109  1  0.74481755  0.24108636  0.75313301  1
  Nb5+  Nb110  1  0.75379262  0.75330839  0.24900279  1
  Nb5+  Nb111  1  0.74799223  0.74835946  0.74862407  1
  Nb5+  Nb112  1  -0.00045237  0.25661195  0.50739815  1
  Nb5+  Nb113  1  0.00389817  0.24541178  0.99585191  1
  Nb5+  Nb114  1  -0.00282810  0.75109895  0.50747983  1
  Nb5+  Nb115  1  -0.00697231  0.75242766  1.00838008  1
  Nb5+  Nb116  1  0.49727788  0.24890895  0.49726260  1
  Nb5+  Nb117  1  0.50565141  0.24943556  1.00081631  1
  Nb5+  Nb118  1  0.49011172  0.74800358  0.49905390  1
  Nb5+  Nb119  1  0.49722887  0.75243739  1.00530611  1
  Nb5+  Nb120  1  0.25413366  -0.00028528  -0.00514168  1
  Nb5+  Nb121  1  0.25295033  0.00221914  0.50317505  1
  Nb5+  Nb122  1  0.24076569  0.49895892  0.00152291  1
  Nb5+  Nb123  1  0.25062917  0.50132092  0.49803476  1
  Nb5+  Nb124  1  0.74961413  0.00040635  0.00368885  1
  Nb5+  Nb125  1  0.74980011  -0.00919499  0.49311891  1
  Nb5+  Nb126  1  0.74391178  0.49537894  0.00754647  1
  Nb5+  Nb127  1  0.75324722  0.49147180  0.50758619  1
  O2-  O128  1  0.02932627  0.00224760  0.13603548  1
  O2-  O129  1  0.02092666  0.00262996  0.61662089  1
  O2-  O130  1  0.02056711  0.51316051  0.12126788  1
  O2-  O131  1  0.02107644  0.51986977  0.63703045  1
  O2-  O132  1  0.52495860  0.01384228  0.13831923  1
  O2-  O133  1  0.51862269  0.01417371  0.63284636  1
  O2-  O134  1  0.53004013  0.51123049  0.12157490  1
  O2-  O135  1  0.53823257  0.51281138  0.63426025  1
  O2-  O136  1  -0.01579821  -0.01597542  0.37417907  1
  O2-  O137  1  -0.03275880  -0.01075901  0.86455884  1
  O2-  O138  1  -0.03433328  0.49232860  0.36400951  1
  O2-  O139  1  -0.02059223  0.49624866  0.88179110  1
  O2-  O140  1  0.46327498  -0.01359550  0.36608108  1
  O2-  O141  1  0.47124342  -0.01614379  0.86981994  1
  O2-  O142  1  0.48264969  0.49017838  0.36111256  1
  O2-  O143  1  0.48944522  0.48096878  0.88752645  1
  O2-  O144  1  0.26782445  0.26088955  0.12109607  1
  O2-  O145  1  0.27451845  0.26696861  0.63091089  1
  O2-  O146  1  0.26139691  0.77446763  0.13484580  1
  O2-  O147  1  0.26438446  0.77164651  0.63698939  1
  O2-  O148  1  0.77654717  0.26790899  0.13429567  1
  O2-  O149  1  0.75794784  0.26700840  0.61788756  1
  O2-  O150  1  0.78234666  0.76159940  0.13764823  1
  O2-  O151  1  0.77981670  0.75613811  0.61521315  1
  O2-  O152  1  0.22127803  0.23617239  0.36418576  1
  O2-  O153  1  0.23395873  0.23891009  0.88226583  1
  O2-  O154  1  0.21047730  0.74394182  0.36161259  1
  O2-  O155  1  0.21168418  0.73460333  0.86538424  1
  O2-  O156  1  0.73576363  0.24772772  0.37887600  1
  O2-  O157  1  0.73536778  0.22023141  0.86494705  1
  O2-  O158  1  0.73845488  0.72992210  0.37674865  1
  O2-  O159  1  0.72549323  0.73308702  0.85975022  1
  O2-  O160  1  -0.01135272  0.23747673  0.11340273  1
  O2-  O161  1  -0.01422474  0.21010403  0.61451478  1
  O2-  O162  1  -0.01884074  0.73215758  0.12256789  1
  O2-  O163  1  -0.02308385  0.73540988  0.62091925  1
  O2-  O164  1  0.48498761  0.23101288  0.11567226  1
  O2-  O165  1  0.50691538  0.22875222  0.61647940  1
  O2-  O166  1  0.48288834  0.71880587  0.11843751  1
  O2-  O167  1  0.48482399  0.71322804  0.61465530  1
  O2-  O168  1  0.25874692  0.02301614  0.36822713  1
  O2-  O169  1  0.26678276  0.03412765  0.88637082  1
  O2-  O170  1  0.26453308  0.52864890  0.38034019  1
  O2-  O171  1  0.27336130  0.51644929  0.88980558  1
  O2-  O172  1  0.77068933  0.03108504  0.38462712  1
  O2-  O173  1  0.76491057  0.02507334  0.88329535  1
  O2-  O174  1  0.76955004  0.51559025  0.36851507  1
  O2-  O175  1  0.75972704  0.52712662  0.87304570  1
  O2-  O176  1  0.00758524  0.26927720  0.38942180  1
  O2-  O177  1  0.01556495  0.27834925  0.88246700  1
  O2-  O178  1  0.01234402  0.76692197  0.37026808  1
  O2-  O179  1  0.00700281  0.76637544  0.86989862  1
  O2-  O180  1  0.51018729  0.28237414  0.38408604  1
  O2-  O181  1  0.50126068  0.28030359  0.88694353  1
  O2-  O182  1  0.51243957  0.77906857  0.38530773  1
  O2-  O183  1  0.52058504  0.76263826  0.88746414  1
  O2-  O184  1  0.23129604  -0.01290210  0.12960804  1
  O2-  O185  1  0.23409067  -0.02154416  0.61430733  1
  O2-  O186  1  0.24072346  0.46769297  0.11520326  1
  O2-  O187  1  0.24183929  0.47716178  0.61687012  1
  O2-  O188  1  0.73574513  -0.03199621  0.11939040  1
  O2-  O189  1  0.73528962  -0.01428892  0.60956595  1
  O2-  O190  1  0.74262357  0.47344307  0.12100348  1
  O2-  O191  1  0.73883529  0.47785955  0.62162791  1
  O2-  O192  1  0.13536435  0.26924054  0.22254582  1
  O2-  O193  1  0.13482219  0.28208210  0.73408843  1
  O2-  O194  1  0.11276897  0.76467720  0.22519729  1
  O2-  O195  1  0.10819896  0.76298120  0.72806050  1
  O2-  O196  1  0.63729350  0.27826097  0.24181310  1
  O2-  O197  1  0.63856264  0.28918682  0.74402253  1
  O2-  O198  1  0.63984079  0.76670046  0.23351424  1
  O2-  O199  1  0.63860502  0.76035088  0.71281638  1
  O2-  O200  1  0.36233938  0.21888870  0.25938007  1
  O2-  O201  1  0.36723198  0.22134850  0.76346430  1
  O2-  O202  1  0.35995665  0.73045253  0.27571086  1
  O2-  O203  1  0.36485627  0.72545444  0.77645863  1
  O2-  O204  1  0.86649903  0.23215561  0.27489661  1
  O2-  O205  1  0.86286970  0.24255645  0.75438624  1
  O2-  O206  1  0.87985494  0.72744655  0.26824874  1
  O2-  O207  1  0.87299931  0.72344932  0.75927466  1
  O2-  O208  1  0.27632031  0.36537745  0.26928623  1
  O2-  O209  1  0.27321105  0.36644050  0.77322010  1
  O2-  O210  1  0.26041744  0.88016053  0.26457191  1
  O2-  O211  1  0.26121375  0.86568073  0.77671633  1
  O2-  O212  1  0.77659665  0.38078658  0.26411661  1
  O2-  O213  1  0.77374747  0.38700091  0.76706238  1
  O2-  O214  1  0.77304552  0.86326558  0.27741328  1
  O2-  O215  1  0.77410671  0.86069492  0.75699882  1
  O2-  O216  1  0.22447112  0.12066189  0.23441968  1
  O2-  O217  1  0.21711390  0.13659604  0.73888801  1
  O2-  O218  1  0.22527820  0.63554836  0.22577841  1
  O2-  O219  1  0.22488276  0.63400847  0.72846168  1
  O2-  O220  1  0.72739764  0.13585652  0.23346916  1
  O2-  O221  1  0.72646339  0.13366897  0.71961814  1
  O2-  O222  1  0.74054777  0.62057260  0.23416756  1
  O2-  O223  1  0.73896977  0.61964772  0.72256417  1
  O2-  O224  1  0.11176682  0.48429021  0.27327383  1
  O2-  O225  1  0.11315945  0.48714394  0.77767943  1
  O2-  O226  1  0.12420830  0.97910374  0.26951957  1
  O2-  O227  1  0.10856397  0.96376098  0.76107907  1
  O2-  O228  1  0.63840101  0.48098579  0.25931978  1
  O2-  O229  1  0.63344403  0.48612588  0.77015542  1
  O2-  O230  1  0.61735537  0.97434002  0.28120594  1
  O2-  O231  1  0.61704166  0.97070397  0.77107354  1
  O2-  O232  1  0.36503219  0.01828940  0.23143508  1
  O2-  O233  1  0.38126088  0.01734553  0.72794410  1
  O2-  O234  1  0.38610918  0.53120265  0.22395134  1
  O2-  O235  1  0.38897979  0.52477583  0.72590865  1
  O2-  O236  1  0.88777610  0.01565153  0.22862165  1
  O2-  O237  1  0.88578588  0.01426624  0.71625392  1
  O2-  O238  1  0.87326285  0.51676073  0.22252518  1
  O2-  O239  1  0.87362929  0.52046531  0.74120651  1
  O2-  O240  1  0.48678529  0.38784165  0.22573842  1
  O2-  O241  1  0.48650301  0.38790889  0.74182426  1
  O2-  O242  1  0.47489956  0.88319597  0.23007811  1
  O2-  O243  1  0.47871777  0.87722169  0.73444736  1
  O2-  O244  1  0.98009661  0.38608490  0.23015622  1
  O2-  O245  1  0.97631602  0.38812386  0.73800065  1
  O2-  O246  1  0.97865887  0.86817755  0.23823780  1
  O2-  O247  1  0.97000873  0.86652047  0.73651590  1
  O2-  O248  1  0.02029964  0.11493100  0.26842948  1
  O2-  O249  1  0.02496633  0.11319112  0.76500972  1
  O2-  O250  1  0.01376030  0.62668540  0.25881254  1
  O2-  O251  1  0.00833733  0.62782622  0.76757094  1
  O2-  O252  1  0.51736018  0.11560583  0.27259616  1
  O2-  O253  1  0.52110146  0.11477318  0.77403405  1
  O2-  O254  1  0.53491516  0.61542105  0.26027696  1
  O2-  O255  1  0.52083650  0.61191820  0.78493975  1
  O2-  O256  1  0.12633649  0.48278040  -0.01897773  1
  O2-  O257  1  0.13073563  0.47953417  0.47888031  1
  O2-  O258  1  0.13651150  0.97983911  -0.01514969  1
  O2-  O259  1  0.11627680  0.97676330  0.48212922  1
  O2-  O260  1  0.63050517  0.47969984  -0.01320220  1
  O2-  O261  1  0.64207782  0.48848102  0.47197334  1
  O2-  O262  1  0.63136907  0.98115790  -0.01809718  1
  O2-  O263  1  0.63612285  0.98115408  0.47367520  1
  O2-  O264  1  0.36375328  0.02087838  0.03272624  1
  O2-  O265  1  0.36362311  0.02832377  0.51685813  1
  O2-  O266  1  0.38037463  0.51324207  0.02240821  1
  O2-  O267  1  0.36971692  0.52407095  0.51413659  1
  O2-  O268  1  0.86848882  0.02449864  0.02284137  1
  O2-  O269  1  0.87724641  0.01280845  0.51482998  1
  O2-  O270  1  0.88036422  0.51738287  0.01855719  1
  O2-  O271  1  0.86375283  0.52961386  0.51277018  1
  O2-  O272  1  0.48502403  0.37899210  0.02467731  1
  O2-  O273  1  0.48176059  0.36732181  0.52513928  1
  O2-  O274  1  0.47786346  0.86467961  0.02354833  1
  O2-  O275  1  0.48630879  0.86279303  0.53187133  1
  O2-  O276  1  0.98915814  0.38345215  0.01553210  1
  O2-  O277  1  0.97121178  0.36514675  0.53216187  1
  O2-  O278  1  0.96785925  0.86453672  0.01035108  1
  O2-  O279  1  0.97462608  0.87442112  0.50620617  1
  O2-  O280  1  0.02943212  0.13441305  -0.02006080  1
  O2-  O281  1  0.01223711  0.11589600  0.47938062  1
  O2-  O282  1  0.02233324  0.62154786  -0.01054491  1
  O2-  O283  1  0.01256268  0.63881302  0.48058101  1
  O2-  O284  1  0.51779129  0.13661707  -0.02279349  1
  O2-  O285  1  0.53441623  0.13605416  0.47970511  1
  O2-  O286  1  0.51749631  0.61481949  -0.01158379  1
  O2-  O287  1  0.53323769  0.63786371  0.47711681  1
  O2-  O288  1  0.12869178  0.27194660  0.01352033  1
  O2-  O289  1  0.11362271  0.27221700  0.52105664  1
  O2-  O290  1  0.11006971  0.76927534  0.01220844  1
  O2-  O291  1  0.10927647  0.77387723  0.52139350  1
  O2-  O292  1  0.61731813  0.27491537  0.01658824  1
  O2-  O293  1  0.63383337  0.27903013  0.50522553  1
  O2-  O294  1  0.61697469  0.76037332  0.02555166  1
  O2-  O295  1  0.63954743  0.77422374  0.51518308  1
  O2-  O296  1  0.37071951  0.23755343  -0.01307994  1
  O2-  O297  1  0.38582841  0.22183400  0.48459445  1
  O2-  O298  1  0.38250495  0.72372279  -0.02028604  1
  O2-  O299  1  0.37925834  0.72833271  0.47742164  1
  O2-  O300  1  0.88763509  0.23320686  -0.01971871  1
  O2-  O301  1  0.86936084  0.23270235  0.48706660  1
  O2-  O302  1  0.88433624  0.72083302  -0.02315256  1
  O2-  O303  1  0.87415543  0.74160731  0.47661271  1
  O2-  O304  1  0.26583062  0.37267546  -0.01582710  1
  O2-  O305  1  0.27044375  0.38291254  0.47592213  1
  O2-  O306  1  0.27506952  0.88637069  -0.02062996  1
  O2-  O307  1  0.26347798  0.88923691  0.46899716  1
  O2-  O308  1  0.77846539  0.38872251  -0.02678809  1
  O2-  O309  1  0.77631112  0.37935539  0.48649932  1
  O2-  O310  1  0.77096253  0.88234465  -0.02309708  1
  O2-  O311  1  0.77081953  0.87599875  0.47810379  1
  O2-  O312  1  0.23031407  0.13161293  0.01811543  1
  O2-  O313  1  0.21083402  0.11281242  0.50591741  1
  O2-  O314  1  0.23128870  0.61264515  0.02634950  1
  O2-  O315  1  0.22345942  0.61950559  0.51929182  1
  O2-  O316  1  0.72834130  0.11770979  0.02845396  1
  O2-  O317  1  0.73230417  0.13121533  0.51317213  1
  O2-  O318  1  0.73796937  0.61215537  0.01904930  1
  O2-  O319  1  0.73463950  0.62849328  0.51235357  1
