# generated using pymatgen
data_Sr64Ca21Nb43O192
_symmetry_space_group_name_H-M   'P 1'
_cell_length_a   16.58854891
_cell_length_b   16.60938256
_cell_length_c   16.74802582
_cell_angle_alpha   90.01503345
_cell_angle_beta   90.05246402
_cell_angle_gamma   89.98593582
_symmetry_Int_Tables_number   1
_chemical_formula_structural   Sr64Ca21Nb43O192
_chemical_formula_sum   'Sr64 Ca21 Nb43 O192'
_cell_volume   4614.50687667
_cell_formula_units_Z   1
loop_
 _symmetry_equiv_pos_site_id
 _symmetry_equiv_pos_as_xyz
  1  'x, y, z'
loop_
 _atom_type_symbol
 _atom_type_oxidation_number
  Sr2+  2.0
  Ca2+  2.0
  Nb5+  5.0
  O2-  -2.0
loop_
 _atom_site_type_symbol
 _atom_site_label
 _atom_site_symmetry_multiplicity
 _atom_site_fract_x
 _atom_site_fract_y
 _atom_site_fract_z
 _atom_site_occupancy
  Sr2+  Sr0  1  0.12822245  0.11788427  0.12328707  1
  Sr2+  Sr1  1  0.12612521  0.13033460  0.62005666  1
  Sr2+  Sr2  1  0.11857683  0.63968593  0.12884393  1
  Sr2+  Sr3  1  0.11975327  0.63654072  0.62691969  1
  Sr2+  Sr4  1  0.63166897  0.12441547  0.12052704  1
  Sr2+  Sr5  1  0.62294878  0.11135716  0.62240888  1
  Sr2+  Sr6  1  0.62574328  0.62996444  0.12578332  1
  Sr2+  Sr7  1  0.62701568  0.64431008  0.62905430  1
  Sr2+  Sr8  1  0.37720409  0.36845216  0.12276818  1
  Sr2+  Sr9  1  0.36337518  0.37072937  0.62888025  1
  Sr2+  Sr10  1  0.37850810  0.87890664  0.13379495  1
  Sr2+  Sr11  1  0.37883526  0.88848190  0.62577092  1
  Sr2+  Sr12  1  0.86223718  0.36317376  0.12168012  1
  Sr2+  Sr13  1  0.86895443  0.37363083  0.62773747  1
  Sr2+  Sr14  1  0.87104619  0.87781786  0.12455513  1
  Sr2+  Sr15  1  0.86576261  0.87825664  0.61831756  1
  Sr2+  Sr16  1  0.11673513  0.38539093  0.37545995  1
  Sr2+  Sr17  1  0.12101028  0.37492967  0.87690789  1
  Sr2+  Sr18  1  0.13685388  0.86452336  0.37313904  1
  Sr2+  Sr19  1  0.12870011  0.87378225  0.88392154  1
  Sr2+  Sr20  1  0.61775277  0.38095763  0.38571764  1
  Sr2+  Sr21  1  0.61656825  0.38340817  0.87849777  1
  Sr2+  Sr22  1  0.62514049  0.86467124  0.38179459  1
  Sr2+  Sr23  1  0.61717788  0.86142105  0.86087317  1
  Sr2+  Sr24  1  0.37828367  0.12542600  0.37504569  1
  Sr2+  Sr25  1  0.37164715  0.12566829  0.89611928  1
  Sr2+  Sr26  1  0.39468712  0.62557553  0.37943867  1
  Sr2+  Sr27  1  0.37680757  0.61663295  0.87968465  1
  Sr2+  Sr28  1  0.87877356  0.13248620  0.36647890  1
  Sr2+  Sr29  1  0.88556634  0.11865522  0.87462692  1
  Sr2+  Sr30  1  0.90144296  0.62185904  0.37250731  1
  Sr2+  Sr31  1  0.87667646  0.61974325  0.87893134  1
  Sr2+  Sr32  1  0.13643790  0.12947540  0.37646184  1
  Sr2+  Sr33  1  0.12965497  0.11368904  0.87868353  1
  Sr2+  Sr34  1  0.13244291  0.62165356  0.36594578  1
  Sr2+  Sr35  1  0.13486876  0.61981417  0.87283970  1
  Sr2+  Sr36  1  0.62731706  0.11896168  0.37215857  1
  Sr2+  Sr37  1  0.62465192  0.11349518  0.87141467  1
  Sr2+  Sr38  1  0.63213721  0.62770822  0.36537721  1
  Sr2+  Sr39  1  0.62810452  0.61996835  0.87489649  1
  Sr2+  Sr40  1  0.36407870  0.38484212  0.37272043  1
  Sr2+  Sr41  1  0.37382078  0.37420835  0.87954268  1
  Sr2+  Sr42  1  0.38091377  0.87936735  0.37901614  1
  Sr2+  Sr43  1  0.37131418  0.88469907  0.86601589  1
  Sr2+  Sr44  1  0.87311944  0.38319382  0.38233906  1
  Sr2+  Sr45  1  0.87812975  0.37241016  0.86811307  1
  Sr2+  Sr46  1  0.88027642  0.86112686  0.37092847  1
  Sr2+  Sr47  1  0.87949476  0.87445131  0.88505532  1
  Sr2+  Sr48  1  0.12103853  0.36927551  0.13376855  1
  Sr2+  Sr49  1  0.10900254  0.37440366  0.62981290  1
  Sr2+  Sr50  1  0.11465420  0.88530064  0.12621792  1
  Sr2+  Sr51  1  0.11939721  0.88153482  0.61666654  1
  Sr2+  Sr52  1  0.61788577  0.37775233  0.12448148  1
  Sr2+  Sr53  1  0.62662126  0.36880758  0.63044724  1
  Sr2+  Sr54  1  0.64479064  0.87379243  0.13013256  1
  Sr2+  Sr55  1  0.61802056  0.87882106  0.62665672  1
  Sr2+  Sr56  1  0.37640957  0.12721444  0.13158792  1
  Sr2+  Sr57  1  0.37273721  0.12092969  0.61836430  1
  Sr2+  Sr58  1  0.38368697  0.62943078  0.13036509  1
  Sr2+  Sr59  1  0.37254725  0.61943992  0.63395630  1
  Sr2+  Sr60  1  0.86142744  0.11732108  0.12277448  1
  Sr2+  Sr61  1  0.85963847  0.13345753  0.62884086  1
  Sr2+  Sr62  1  0.87806372  0.62983138  0.13002854  1
  Sr2+  Sr63  1  0.86562749  0.62162649  0.63247724  1
  Ca2+  Ca64  1  -0.00047433  0.00243330  0.50031919  1
  Ca2+  Ca65  1  0.50204683  -0.00571268  0.00318102  1
  Ca2+  Ca66  1  0.50137309  0.49855181  0.50718650  1
  Ca2+  Ca67  1  0.00170513  0.50325152  0.50201310  1
  Ca2+  Ca68  1  0.00230277  0.49822463  0.00344470  1
  Ca2+  Ca69  1  0.25090224  0.74881834  0.00104538  1
  Ca2+  Ca70  1  0.75196880  0.74869699  0.49614242  1
  Ca2+  Ca71  1  0.74947423  0.24861813  -0.00869613  1
  Ca2+  Ca72  1  0.74619040  0.74727042  -0.00178655  1
  Ca2+  Ca73  1  0.25270169  0.74706379  0.50010582  1
  Ca2+  Ca74  1  0.75464464  -0.00080909  0.74937845  1
  Ca2+  Ca75  1  0.49682127  0.24817171  0.75099203  1
  Ca2+  Ca76  1  0.25204379  0.50261390  0.24603731  1
  Ca2+  Ca77  1  0.49447359  0.74599671  0.75143022  1
  Ca2+  Ca78  1  0.24685702  0.00463464  0.74841456  1
  Ca2+  Ca79  1  0.50391041  0.25021750  0.25354653  1
  Ca2+  Ca80  1  0.75024165  0.49675796  0.24957628  1
  Ca2+  Ca81  1  0.74992372  0.00247623  0.25504755  1
  Ca2+  Ca82  1  0.24825092  -0.00065214  0.25103082  1
  Ca2+  Ca83  1  0.00018227  0.74994114  0.75063955  1
  Ca2+  Ca84  1  -0.00159835  0.24913366  0.24872711  1
  Nb5+  Nb85  1  0.49773100  0.49889500  0.00275972  1
  Nb5+  Nb86  1  -0.00212922  0.00147065  0.00072309  1
  Nb5+  Nb87  1  0.50201021  0.00307483  0.49739619  1
  Nb5+  Nb88  1  0.24344168  0.25690864  0.50318483  1
  Nb5+  Nb89  1  0.74652979  0.25132476  0.49857112  1
  Nb5+  Nb90  1  0.24667608  0.25045627  0.00694060  1
  Nb5+  Nb91  1  0.24306323  0.49681598  0.75044568  1
  Nb5+  Nb92  1  0.00233698  0.24861952  0.75042632  1
  Nb5+  Nb93  1  0.50581286  0.75205970  0.24901130  1
  Nb5+  Nb94  1  0.00810122  0.75627402  0.24846349  1
  Nb5+  Nb95  1  0.74352795  0.49950851  0.74980300  1
  Nb5+  Nb96  1  -0.00279226  0.00187910  0.25761476  1
  Nb5+  Nb97  1  0.00146053  -0.00433626  0.74655545  1
  Nb5+  Nb98  1  -0.00379095  0.49562129  0.24178177  1
  Nb5+  Nb99  1  -0.00504566  0.50207762  0.75273400  1
  Nb5+  Nb100  1  0.50634216  -0.00063377  0.24616609  1
  Nb5+  Nb101  1  0.49895797  0.00287296  0.75481755  1
  Nb5+  Nb102  1  0.49965973  0.49942000  0.25482849  1
  Nb5+  Nb103  1  0.49331835  0.49474886  0.75012369  1
  Nb5+  Nb104  1  0.25090838  0.25239905  0.25779627  1
  Nb5+  Nb105  1  0.24782776  0.24938579  0.75491763  1
  Nb5+  Nb106  1  0.26185931  0.74845564  0.25234116  1
  Nb5+  Nb107  1  0.25124822  0.75468689  0.74716155  1
  Nb5+  Nb108  1  0.74726398  0.25323852  0.24595007  1
  Nb5+  Nb109  1  0.74717721  0.25075184  0.75175170  1
  Nb5+  Nb110  1  0.75922639  0.74670044  0.25059590  1
  Nb5+  Nb111  1  0.75563859  0.75407715  0.74998604  1
  Nb5+  Nb112  1  -0.00655195  0.25139305  0.49898807  1
  Nb5+  Nb113  1  -0.00019120  0.24726522  1.00423395  1
  Nb5+  Nb114  1  -0.00123893  0.74967729  0.50432617  1
  Nb5+  Nb115  1  0.00311380  0.74704274  0.99616101  1
  Nb5+  Nb116  1  0.49213285  0.25108582  0.49839942  1
  Nb5+  Nb117  1  0.50314312  0.24803815  0.99848295  1
  Nb5+  Nb118  1  0.49782617  0.75058567  0.50597226  1
  Nb5+  Nb119  1  0.49535548  0.75128276  0.99916986  1
  Nb5+  Nb120  1  0.25309162  -0.00367150  0.00073556  1
  Nb5+  Nb121  1  0.24871125  -0.00241968  0.49661935  1
  Nb5+  Nb122  1  0.24870702  0.49699826  0.00402300  1
  Nb5+  Nb123  1  0.24639798  0.50266601  0.50111974  1
  Nb5+  Nb124  1  0.74378045  -0.00398236  -0.00707186  1
  Nb5+  Nb125  1  0.75620969  0.00167450  0.49917924  1
  Nb5+  Nb126  1  0.75295115  0.49789332  0.00242410  1
  Nb5+  Nb127  1  0.74384422  0.50327864  0.50061038  1
  O2-  O128  1  0.01681539  0.01539793  0.11789040  1
  O2-  O129  1  0.03409228  0.01305466  0.63736897  1
  O2-  O130  1  0.00350927  0.53799495  0.13247454  1
  O2-  O131  1  0.00430145  0.52001555  0.63722586  1
  O2-  O132  1  0.52437479  -0.03026419  0.13585813  1
  O2-  O133  1  0.51327811  -0.01324281  0.61880803  1
  O2-  O134  1  0.48033941  0.48377666  0.11990667  1
  O2-  O135  1  0.48732449  0.46530589  0.63931141  1
  O2-  O136  1  -0.03237004  -0.01186550  0.36703323  1
  O2-  O137  1  -0.01829765  -0.00821902  0.87894196  1
  O2-  O138  1  -0.00537730  0.48148385  0.36353642  1
  O2-  O139  1  0.00164667  0.47435395  0.86832634  1
  O2-  O140  1  0.48384397  0.01458168  0.37850100  1
  O2-  O141  1  0.47924627  0.01808797  0.86802017  1
  O2-  O142  1  0.52060460  0.51908540  0.36786429  1
  O2-  O143  1  0.50796345  0.51918046  0.87904212  1
  O2-  O144  1  0.23351414  0.26057023  0.12078287  1
  O2-  O145  1  0.23086233  0.26546088  0.61971336  1
  O2-  O146  1  0.27354805  0.76608932  0.13640529  1
  O2-  O147  1  0.28012701  0.73539310  0.63348342  1
  O2-  O148  1  0.73420579  0.26468950  0.13048726  1
  O2-  O149  1  0.75164502  0.26870270  0.62825053  1
  O2-  O150  1  0.76365997  0.75225139  0.13247324  1
  O2-  O151  1  0.77473676  0.74854910  0.63022355  1
  O2-  O152  1  0.26232600  0.24938602  0.37616742  1
  O2-  O153  1  0.26327027  0.24244983  0.86986583  1
  O2-  O154  1  0.22407920  0.73732632  0.36575789  1
  O2-  O155  1  0.21679179  0.74460980  0.86210576  1
  O2-  O156  1  0.76598367  0.23802132  0.38501072  1
  O2-  O157  1  0.78147061  0.23798696  0.86018488  1
  O2-  O158  1  0.72485886  0.74752661  0.36340898  1
  O2-  O159  1  0.72134754  0.74407043  0.86357098  1
  O2-  O160  1  0.02991712  0.23428992  0.11384351  1
  O2-  O161  1  0.01879209  0.24001484  0.62878048  1
  O2-  O162  1  -0.01714039  0.73940199  0.12672639  1
  O2-  O163  1  -0.01811285  0.71946698  0.61385734  1
  O2-  O164  1  0.50425976  0.27130767  0.11569203  1
  O2-  O165  1  0.51467908  0.26544030  0.61277025  1
  O2-  O166  1  0.47285295  0.75892515  0.13317189  1
  O2-  O167  1  0.47411590  0.76842267  0.61622987  1
  O2-  O168  1  0.26251062  0.02818752  0.38377293  1
  O2-  O169  1  0.26515758  0.01910445  0.88325903  1
  O2-  O170  1  0.24261931  0.49408586  0.38526173  1
  O2-  O171  1  0.24561938  0.50097918  0.87180526  1
  O2-  O172  1  0.76480533  0.03904508  0.38898731  1
  O2-  O173  1  0.77821520  0.00929339  0.88175555  1
  O2-  O174  1  0.73054763  0.49439693  0.38597818  1
  O2-  O175  1  0.74696531  0.51311738  0.86759837  1
  O2-  O176  1  -0.01735564  0.27051636  0.38531519  1
  O2-  O177  1  -0.00849440  0.26392057  0.87064816  1
  O2-  O178  1  0.01245198  0.77928213  0.36392790  1
  O2-  O179  1  0.01291710  0.77891556  0.88507036  1
  O2-  O180  1  0.50489876  0.21607720  0.38732083  1
  O2-  O181  1  0.46940559  0.23656634  0.88611430  1
  O2-  O182  1  0.52139851  0.73665130  0.36891045  1
  O2-  O183  1  0.52339904  0.73236409  0.88846529  1
  O2-  O184  1  0.22780551  -0.00840493  0.11518025  1
  O2-  O185  1  0.23630873  0.00942694  0.61256769  1
  O2-  O186  1  0.27398392  0.48767248  0.11328874  1
  O2-  O187  1  0.26160982  0.48932756  0.63203376  1
  O2-  O188  1  0.73531992  0.00118643  0.11420336  1
  O2-  O189  1  0.72597264  -0.01503394  0.61436647  1
  O2-  O190  1  0.75289618  0.47309388  0.11356887  1
  O2-  O191  1  0.76035762  0.49083675  0.63019574  1
  O2-  O192  1  0.13449162  0.28172955  0.26571847  1
  O2-  O193  1  0.12570919  0.27951841  0.75753898  1
  O2-  O194  1  0.12083840  0.77203192  0.22911837  1
  O2-  O195  1  0.13409378  0.76482768  0.71414092  1
  O2-  O196  1  0.63675287  0.28723943  0.27158253  1
  O2-  O197  1  0.63646110  0.27389543  0.76817922  1
  O2-  O198  1  0.61895357  0.76838826  0.23211886  1
  O2-  O199  1  0.63511375  0.76481184  0.72443681  1
  O2-  O200  1  0.36767733  0.22205420  0.24611475  1
  O2-  O201  1  0.35927841  0.23836368  0.72199187  1
  O2-  O202  1  0.37567407  0.72752279  0.27019198  1
  O2-  O203  1  0.36298400  0.72318502  0.77886198  1
  O2-  O204  1  0.86451961  0.21508820  0.23889719  1
  O2-  O205  1  0.88529691  0.24262707  0.73399187  1
  O2-  O206  1  0.87506280  0.73192074  0.26467643  1
  O2-  O207  1  0.86565673  0.71382466  0.76813889  1
  O2-  O208  1  0.28188610  0.36585980  0.24488906  1
  O2-  O209  1  0.26791660  0.37531708  0.75703780  1
  O2-  O210  1  0.26864345  0.86606409  0.27324608  1
  O2-  O211  1  0.27406348  0.86817964  0.74745178  1
  O2-  O212  1  0.79020493  0.36361405  0.26141547  1
  O2-  O213  1  0.77174863  0.37890048  0.75654183  1
  O2-  O214  1  0.76543278  0.86664243  0.25155432  1
  O2-  O215  1  0.78359714  0.86537347  0.75713593  1
  O2-  O216  1  0.22331310  0.13765125  0.23913486  1
  O2-  O217  1  0.21850825  0.13941074  0.74144670  1
  O2-  O218  1  0.22518364  0.63604761  0.23293592  1
  O2-  O219  1  0.22916214  0.61358821  0.74313909  1
  O2-  O220  1  0.71463953  0.13740373  0.24644766  1
  O2-  O221  1  0.73308367  0.13686321  0.73272057  1
  O2-  O222  1  0.72538304  0.63270042  0.24196752  1
  O2-  O223  1  0.73042790  0.61663917  0.73709002  1
  O2-  O224  1  0.11562887  0.48304491  0.24815405  1
  O2-  O225  1  0.12798404  0.47663521  0.74970831  1
  O2-  O226  1  0.11071952  0.96847921  0.25958754  1
  O2-  O227  1  0.11419301  0.98328552  0.78230135  1
  O2-  O228  1  0.61269337  0.49110641  0.22332441  1
  O2-  O229  1  0.62774903  0.47832455  0.74792197  1
  O2-  O230  1  0.61579891  0.97495369  0.28246038  1
  O2-  O231  1  0.61819710  0.97788780  0.76493523  1
  O2-  O232  1  0.38677122  0.01065873  0.23444828  1
  O2-  O233  1  0.38450259  0.01468717  0.72358765  1
  O2-  O234  1  0.38575148  0.53208560  0.26005116  1
  O2-  O235  1  0.37576222  0.51178899  0.75962136  1
  O2-  O236  1  0.88441057  0.01421813  0.22309428  1
  O2-  O237  1  0.89109541  0.03768791  0.73930814  1
  O2-  O238  1  0.88305669  0.53317719  0.25036571  1
  O2-  O239  1  0.87672230  0.51547946  0.75467121  1
  O2-  O240  1  0.47759380  0.38672016  0.26758862  1
  O2-  O241  1  0.49255437  0.38249917  0.78442773  1
  O2-  O242  1  0.47821420  0.86809351  0.26499261  1
  O2-  O243  1  0.48292428  0.88150419  0.76349555  1
  O2-  O244  1  0.97833246  0.38489868  0.21367799  1
  O2-  O245  1  0.98737450  0.37642227  0.73389518  1
  O2-  O246  1  0.97716968  0.87313263  0.23062737  1
  O2-  O247  1  0.97273779  0.88556470  0.73095936  1
  O2-  O248  1  0.02365016  0.11489074  0.27045027  1
  O2-  O249  1  0.02488458  0.13550175  0.76551659  1
  O2-  O250  1  0.01905150  0.63830040  0.26643417  1
  O2-  O251  1  0.02160624  0.61360902  0.77542943  1
  O2-  O252  1  0.52413781  0.11251919  0.23189641  1
  O2-  O253  1  0.52934663  0.11691653  0.73918524  1
  O2-  O254  1  0.51456412  0.63111735  0.23419937  1
  O2-  O255  1  0.51612863  0.61000115  0.73041942  1
  O2-  O256  1  0.13764799  0.46360847  0.00722598  1
  O2-  O257  1  0.13629567  0.46163577  0.51116073  1
  O2-  O258  1  0.12302453  0.99063759  -0.01593814  1
  O2-  O259  1  0.13482819  0.97949575  0.47974558  1
  O2-  O260  1  0.61595341  0.47493417  0.00435580  1
  O2-  O261  1  0.63386958  0.46103173  0.51843079  1
  O2-  O262  1  0.63323196  0.96962553  -0.03134572  1
  O2-  O263  1  0.62242963  1.00038881  0.48174432  1
  O2-  O264  1  0.36578288  0.01972444  0.02218985  1
  O2-  O265  1  0.37881221  0.01521987  0.51012734  1
  O2-  O266  1  0.37505287  0.50385681  -0.01815679  1
  O2-  O267  1  0.36519117  0.52399022  0.50182251  1
  O2-  O268  1  0.88145446  0.02150682  0.01174482  1
  O2-  O269  1  0.86589600  0.01720332  0.53240123  1
  O2-  O270  1  0.86506853  0.52517228  -0.00092170  1
  O2-  O271  1  0.86219154  0.51926019  0.49792133  1
  O2-  O272  1  0.48193106  0.37531586  -0.01372302  1
  O2-  O273  1  0.48325337  0.36306320  0.46980207  1
  O2-  O274  1  0.46603559  0.86174443  -0.01464242  1
  O2-  O275  1  0.49176724  0.88285981  0.48715309  1
  O2-  O276  1  0.98127972  0.36181139  0.01405778  1
  O2-  O277  1  0.98636052  0.36600236  0.52463506  1
  O2-  O278  1  0.98482653  0.88356479  0.01388561  1
  O2-  O279  1  0.97892130  0.86795503  0.52183746  1
  O2-  O280  1  0.01753458  0.12517960  -0.02031190  1
  O2-  O281  1  0.03104754  0.13935355  0.48976346  1
  O2-  O282  1  0.02551100  0.63514447  -0.01975049  1
  O2-  O283  1  0.02271378  0.63668279  0.46900447  1
  O2-  O284  1  0.51429894  0.13229086  0.01708268  1
  O2-  O285  1  0.50943435  0.12234672  0.52011050  1
  O2-  O286  1  0.51137715  0.61479171  0.02159734  1
  O2-  O287  1  0.51030773  0.63598043  0.51897358  1
  O2-  O288  1  0.12839032  0.26287348  -0.02002039  1
  O2-  O289  1  0.13076513  0.27305446  0.48208860  1
  O2-  O290  1  0.11536475  0.77205316  0.02674402  1
  O2-  O291  1  0.11598937  0.77465091  0.51247857  1
  O2-  O292  1  0.61406877  0.26623663  -0.02379636  1
  O2-  O293  1  0.63206585  0.26668126  0.49207369  1
  O2-  O294  1  0.60786059  0.76181332  0.03382544  1
  O2-  O295  1  0.61441062  0.77430552  0.51367528  1
  O2-  O296  1  0.36599911  0.23194095  0.01690907  1
  O2-  O297  1  0.37681692  0.23200896  0.50895212  1
  O2-  O298  1  0.38364706  0.71089998  -0.00423912  1
  O2-  O299  1  0.38747226  0.74857521  0.46552354  1
  O2-  O300  1  0.88618413  0.22604896  0.01621378  1
  O2-  O301  1  0.88014526  0.22925370  0.51312400  1
  O2-  O302  1  0.88463631  0.73290610  -0.01415293  1
  O2-  O303  1  0.88495806  0.73954870  0.46620963  1
  O2-  O304  1  0.26882465  0.36630004  -0.01196960  1
  O2-  O305  1  0.28301469  0.36975652  0.49945457  1
  O2-  O306  1  0.26425046  0.88397664  -0.02054095  1
  O2-  O307  1  0.27446364  0.88560821  0.49578484  1
  O2-  O308  1  0.76347640  0.38443755  -0.02952255  1
  O2-  O309  1  0.77603723  0.36771677  0.49852901  1
  O2-  O310  1  0.77843189  0.88251196  0.00034272  1
  O2-  O311  1  0.76492904  0.88914139  0.47526312  1
  O2-  O312  1  0.23175223  0.13041586  0.00453559  1
  O2-  O313  1  0.23799361  0.13791152  0.50641122  1
  O2-  O314  1  0.22612909  0.61003696  0.00283459  1
  O2-  O315  1  0.21604457  0.61231025  0.51082143  1
  O2-  O316  1  0.72145743  0.11597503  -0.00171320  1
  O2-  O317  1  0.73897768  0.13486912  0.52565522  1
  O2-  O318  1  0.71631243  0.61027423  0.00155725  1
  O2-  O319  1  0.71463329  0.61402705  0.50809225  1
