# generated using pymatgen
data_Sr64Ca21Nb43O192
_symmetry_space_group_name_H-M   'P 1'
_cell_length_a   16.53806661
_cell_length_b   16.52437389
_cell_length_c   16.70916006
_cell_angle_alpha   90.00760697
_cell_angle_beta   89.96017624
_cell_angle_gamma   90.01099015
_symmetry_Int_Tables_number   1
_chemical_formula_structural   Sr64Ca21Nb43O192
_chemical_formula_sum   'Sr64 Ca21 Nb43 O192'
_cell_volume   4566.29801916
_cell_formula_units_Z   1
loop_
 _symmetry_equiv_pos_site_id
 _symmetry_equiv_pos_as_xyz
  1  'x, y, z'
loop_
 _atom_type_symbol
 _atom_type_oxidation_number
  Sr2+  2.0
  Ca2+  2.0
  Nb5+  5.0
  O2-  -2.0
loop_
 _atom_site_type_symbol
 _atom_site_label
 _atom_site_symmetry_multiplicity
 _atom_site_fract_x
 _atom_site_fract_y
 _atom_site_fract_z
 _atom_site_occupancy
  Sr2+  Sr0  1  0.12004801  0.13322219  0.12618246  1
  Sr2+  Sr1  1  0.11701996  0.11966329  0.62594693  1
  Sr2+  Sr2  1  0.12147491  0.61697041  0.11703641  1
  Sr2+  Sr3  1  0.13564513  0.61705389  0.62829531  1
  Sr2+  Sr4  1  0.62796337  0.11072642  0.11413282  1
  Sr2+  Sr5  1  0.63524604  0.12318302  0.63015630  1
  Sr2+  Sr6  1  0.62409827  0.61634367  0.11680553  1
  Sr2+  Sr7  1  0.63301434  0.62728034  0.62999414  1
  Sr2+  Sr8  1  0.37371488  0.37824806  0.13207615  1
  Sr2+  Sr9  1  0.36454212  0.37822407  0.62833075  1
  Sr2+  Sr10  1  0.37038622  0.87506302  0.11739392  1
  Sr2+  Sr11  1  0.37233328  0.87660518  0.62751050  1
  Sr2+  Sr12  1  0.88095634  0.39640131  0.12045326  1
  Sr2+  Sr13  1  0.87697586  0.39287158  0.63002254  1
  Sr2+  Sr14  1  0.87863468  0.86295036  0.13093185  1
  Sr2+  Sr15  1  0.87630861  0.88052532  0.61933179  1
  Sr2+  Sr16  1  0.12280979  0.36614654  0.36840691  1
  Sr2+  Sr17  1  0.09926030  0.37973486  0.87819269  1
  Sr2+  Sr18  1  0.11224485  0.87712351  0.37174692  1
  Sr2+  Sr19  1  0.13093887  0.87756882  0.88883805  1
  Sr2+  Sr20  1  0.61450778  0.38019790  0.37859253  1
  Sr2+  Sr21  1  0.61582068  0.37367120  0.88580811  1
  Sr2+  Sr22  1  0.61978096  0.87566424  0.36858398  1
  Sr2+  Sr23  1  0.61358731  0.87128443  0.88404527  1
  Sr2+  Sr24  1  0.36311262  0.12785716  0.38073696  1
  Sr2+  Sr25  1  0.37657440  0.12362089  0.87202422  1
  Sr2+  Sr26  1  0.37345798  0.62450982  0.37361372  1
  Sr2+  Sr27  1  0.36724461  0.62599222  0.87655687  1
  Sr2+  Sr28  1  0.87250099  0.12839667  0.37123833  1
  Sr2+  Sr29  1  0.86711460  0.12936695  0.88038140  1
  Sr2+  Sr30  1  0.88894022  0.62519247  0.37245003  1
  Sr2+  Sr31  1  0.86539676  0.60810969  0.87555904  1
  Sr2+  Sr32  1  0.12633906  0.12742778  0.37100983  1
  Sr2+  Sr33  1  0.12620619  0.12698416  0.87260450  1
  Sr2+  Sr34  1  0.14102059  0.62526846  0.37426683  1
  Sr2+  Sr35  1  0.13537049  0.62925542  0.87759342  1
  Sr2+  Sr36  1  0.62113478  0.13126157  0.37205621  1
  Sr2+  Sr37  1  0.61924694  0.13061719  0.87792722  1
  Sr2+  Sr38  1  0.61702752  0.62248241  0.37451734  1
  Sr2+  Sr39  1  0.61669628  0.61987235  0.87508648  1
  Sr2+  Sr40  1  0.37245403  0.40086863  0.36963410  1
  Sr2+  Sr41  1  0.37670629  0.34645235  0.87403780  1
  Sr2+  Sr42  1  0.37329035  0.89388238  0.37399709  1
  Sr2+  Sr43  1  0.37344609  0.85778783  0.87748706  1
  Sr2+  Sr44  1  0.87334218  0.37266560  0.36951508  1
  Sr2+  Sr45  1  0.86673920  0.37686737  0.87966578  1
  Sr2+  Sr46  1  0.87136211  0.86501279  0.36975923  1
  Sr2+  Sr47  1  0.88056037  0.86591836  0.88908478  1
  Sr2+  Sr48  1  0.13037300  0.38028290  0.12492128  1
  Sr2+  Sr49  1  0.11398763  0.37412253  0.63046501  1
  Sr2+  Sr50  1  0.12032798  0.86858036  0.12608998  1
  Sr2+  Sr51  1  0.11719116  0.88589495  0.62352581  1
  Sr2+  Sr52  1  0.62739269  0.38152175  0.12219519  1
  Sr2+  Sr53  1  0.62892812  0.37989889  0.62029303  1
  Sr2+  Sr54  1  0.63931602  0.88063120  0.12548141  1
  Sr2+  Sr55  1  0.62331064  0.87310421  0.62780613  1
  Sr2+  Sr56  1  0.35899218  0.12759823  0.11511091  1
  Sr2+  Sr57  1  0.35436838  0.11935002  0.62618590  1
  Sr2+  Sr58  1  0.35859055  0.62924492  0.12754743  1
  Sr2+  Sr59  1  0.37070436  0.62638227  0.62700097  1
  Sr2+  Sr60  1  0.87040188  0.12086421  0.12339108  1
  Sr2+  Sr61  1  0.87400210  0.12536794  0.62707666  1
  Sr2+  Sr62  1  0.87468909  0.62206733  0.12418939  1
  Sr2+  Sr63  1  0.87900515  0.63226447  0.62458665  1
  Ca2+  Ca64  1  -0.00016244  0.50152516  -0.00202836  1
  Ca2+  Ca65  1  0.00227020  0.00171646  0.00336553  1
  Ca2+  Ca66  1  0.49281740  0.49902177  -0.00394001  1
  Ca2+  Ca67  1  0.49684298  -0.00102307  -0.00097688  1
  Ca2+  Ca68  1  0.00115527  0.49727947  0.49755416  1
  Ca2+  Ca69  1  0.24870194  0.25617429  0.50118176  1
  Ca2+  Ca70  1  0.24525124  0.25209431  -0.00451967  1
  Ca2+  Ca71  1  0.74973751  0.24868135  0.00624132  1
  Ca2+  Ca72  1  0.74834864  0.74880323  -0.00008938  1
  Ca2+  Ca73  1  0.25278014  0.75226573  0.50164125  1
  Ca2+  Ca74  1  0.75309511  -0.00376880  0.74763143  1
  Ca2+  Ca75  1  0.74907016  0.49639343  0.25287112  1
  Ca2+  Ca76  1  0.74794809  0.50074600  0.74765247  1
  Ca2+  Ca77  1  -0.00044430  0.75427123  0.75099751  1
  Ca2+  Ca78  1  0.24960063  0.00062953  0.75139677  1
  Ca2+  Ca79  1  0.25058050  -0.00010222  0.24673543  1
  Ca2+  Ca80  1  0.25112368  0.49796267  0.75545539  1
  Ca2+  Ca81  1  0.49957828  0.75048652  0.25127534  1
  Ca2+  Ca82  1  0.00363837  0.74860472  0.25116781  1
  Ca2+  Ca83  1  0.49925213  0.24644911  0.25398095  1
  Ca2+  Ca84  1  0.24742648  0.50346140  0.24836164  1
  Nb5+  Nb85  1  0.49977742  0.00861238  0.50296756  1
  Nb5+  Nb86  1  0.49965075  0.50854437  0.50327023  1
  Nb5+  Nb87  1  -0.00903770  0.00373519  0.49643780  1
  Nb5+  Nb88  1  0.24799130  0.75234058  0.00230461  1
  Nb5+  Nb89  1  0.74968644  0.75236710  0.50078300  1
  Nb5+  Nb90  1  0.75372589  0.25387220  0.50029760  1
  Nb5+  Nb91  1  0.75257797  -0.00074589  0.25170208  1
  Nb5+  Nb92  1  0.50115391  0.74397224  0.75003197  1
  Nb5+  Nb93  1  0.50031692  0.24428011  0.74312469  1
  Nb5+  Nb94  1  -0.00416450  0.25023509  0.24578024  1
  Nb5+  Nb95  1  -0.01029124  0.24763363  0.75134362  1
  Nb5+  Nb96  1  -0.00034103  0.00179455  0.24888785  1
  Nb5+  Nb97  1  -0.00303816  -0.00043205  0.75573847  1
  Nb5+  Nb98  1  0.00312522  0.50198683  0.25419628  1
  Nb5+  Nb99  1  0.00265752  0.50812836  0.74845081  1
  Nb5+  Nb100  1  0.50006197  0.00212165  0.24929778  1
  Nb5+  Nb101  1  0.50287480  -0.00528893  0.74997881  1
  Nb5+  Nb102  1  0.50223378  0.49891613  0.24423414  1
  Nb5+  Nb103  1  0.49833059  0.49163858  0.74793060  1
  Nb5+  Nb104  1  0.25377321  0.24709679  0.24962687  1
  Nb5+  Nb105  1  0.23768383  0.25485351  0.74802926  1
  Nb5+  Nb106  1  0.25213598  0.75295912  0.25500274  1
  Nb5+  Nb107  1  0.24605686  0.75718153  0.74698830  1
  Nb5+  Nb108  1  0.74945877  0.24753542  0.24953856  1
  Nb5+  Nb109  1  0.74424080  0.25253024  0.75362333  1
  Nb5+  Nb110  1  0.74698526  0.74294084  0.25085086  1
  Nb5+  Nb111  1  0.75116220  0.75248914  0.75560552  1
  Nb5+  Nb112  1  -0.00461483  0.25209959  0.49936621  1
  Nb5+  Nb113  1  -0.00256997  0.24829437  1.00091895  1
  Nb5+  Nb114  1  0.00619939  0.75011496  0.50173339  1
  Nb5+  Nb115  1  -0.00287829  0.74594703  0.99629439  1
  Nb5+  Nb116  1  0.49785730  0.25220651  0.50266944  1
  Nb5+  Nb117  1  0.49807787  0.25013560  1.00852802  1
  Nb5+  Nb118  1  0.50104277  0.75578930  0.50028966  1
  Nb5+  Nb119  1  0.49961557  0.75017304  1.00647371  1
  Nb5+  Nb120  1  0.24678256  0.00416587  0.00004996  1
  Nb5+  Nb121  1  0.24175501  -0.00214079  0.50001975  1
  Nb5+  Nb122  1  0.25423979  0.49496296  -0.00375085  1
  Nb5+  Nb123  1  0.24565491  0.49676941  0.50068155  1
  Nb5+  Nb124  1  0.75158726  -0.00587605  -0.00949424  1
  Nb5+  Nb125  1  0.74427190  0.00270212  0.49688297  1
  Nb5+  Nb126  1  0.74662083  0.49951371  0.00065200  1
  Nb5+  Nb127  1  0.75113515  0.50907359  0.49635222  1
  O2-  O128  1  -0.00776427  0.02328364  0.13706698  1
  O2-  O129  1  -0.01035893  0.00739973  0.61602655  1
  O2-  O130  1  0.00938214  0.49888336  0.13430230  1
  O2-  O131  1  0.00703095  0.48892887  0.63044929  1
  O2-  O132  1  0.49822786  -0.02038035  0.13694368  1
  O2-  O133  1  0.49296348  -0.02050447  0.61792082  1
  O2-  O134  1  0.50449398  0.48576101  0.13036143  1
  O2-  O135  1  0.48905580  0.48109271  0.61761853  1
  O2-  O136  1  0.00746282  0.00218272  0.37787254  1
  O2-  O137  1  0.01618227  -0.00520799  0.86748975  1
  O2-  O138  1  -0.01349901  0.47528486  0.36768977  1
  O2-  O139  1  -0.01782305  0.49180828  0.86318936  1
  O2-  O140  1  0.51679862  0.01334834  0.38640942  1
  O2-  O141  1  0.52129841  0.01096649  0.86165513  1
  O2-  O142  1  0.50176961  0.50661121  0.38323356  1
  O2-  O143  1  0.51585505  0.50178382  0.86044892  1
  O2-  O144  1  0.24858059  0.25797996  0.13142842  1
  O2-  O145  1  0.24245273  0.27897456  0.63262184  1
  O2-  O146  1  0.26032137  0.76384861  0.11961291  1
  O2-  O147  1  0.27266781  0.75342448  0.63439243  1
  O2-  O148  1  0.73880180  0.21453016  0.14038542  1
  O2-  O149  1  0.74681259  0.23126760  0.61968177  1
  O2-  O150  1  0.76828610  0.73450929  0.13706432  1
  O2-  O151  1  0.75722760  0.72205752  0.61663977  1
  O2-  O152  1  0.23159111  0.24437349  0.36774969  1
  O2-  O153  1  0.26031354  0.22628647  0.86130883  1
  O2-  O154  1  0.24474412  0.73731286  0.36906583  1
  O2-  O155  1  0.24151676  0.74792357  0.87545180  1
  O2-  O156  1  0.76713846  0.25373682  0.38054547  1
  O2-  O157  1  0.75699316  0.26031171  0.86719985  1
  O2-  O158  1  0.73000559  0.76192973  0.38333053  1
  O2-  O159  1  0.74087892  0.78327132  0.86533159  1
  O2-  O160  1  -0.00242009  0.23938606  0.12629637  1
  O2-  O161  1  -0.00125144  0.24286149  0.62623366  1
  O2-  O162  1  -0.00946781  0.73320701  0.11785593  1
  O2-  O163  1  -0.02781397  0.75767252  0.61418666  1
  O2-  O164  1  0.48820419  0.26419309  0.12058527  1
  O2-  O165  1  0.52505427  0.26037025  0.62386943  1
  O2-  O166  1  0.47576363  0.75268485  0.11732220  1
  O2-  O167  1  0.49077859  0.76299354  0.62810814  1
  O2-  O168  1  0.25326783  0.01171220  0.38326353  1
  O2-  O169  1  0.22323476  0.00926008  0.88201179  1
  O2-  O170  1  0.25723313  0.51727378  0.38312575  1
  O2-  O171  1  0.25122565  0.52920314  0.88387395  1
  O2-  O172  1  0.75282047  -0.02464054  0.38109364  1
  O2-  O173  1  0.75109284  -0.03336423  0.87983082  1
  O2-  O174  1  0.74835177  0.46782210  0.38748178  1
  O2-  O175  1  0.75884539  0.48602926  0.88043514  1
  O2-  O176  1  -0.00655557  0.25385579  0.37716254  1
  O2-  O177  1  -0.00807339  0.24970719  0.87207884  1
  O2-  O178  1  0.00131591  0.76532623  0.38651084  1
  O2-  O179  1  0.01892428  0.77153699  0.88244133  1
  O2-  O180  1  0.49935245  0.22563776  0.39110637  1
  O2-  O181  1  0.50404068  0.24362411  0.86114751  1
  O2-  O182  1  0.52100957  0.73702121  0.38874085  1
  O2-  O183  1  0.51191021  0.74408724  0.86835703  1
  O2-  O184  1  0.27836560  -0.00562829  0.11604181  1
  O2-  O185  1  0.26019171  -0.01259220  0.61599446  1
  O2-  O186  1  0.24207039  0.49636906  0.11528341  1
  O2-  O187  1  0.25693300  0.49939126  0.61893143  1
  O2-  O188  1  0.75193562  0.01771116  0.13665772  1
  O2-  O189  1  0.76817396  0.01160558  0.60984229  1
  O2-  O190  1  0.73762136  0.51433244  0.12027112  1
  O2-  O191  1  0.74808678  0.49547626  0.61102532  1
  O2-  O192  1  0.11314760  0.27217842  0.24580377  1
  O2-  O193  1  0.12246207  0.27349338  0.75881292  1
  O2-  O194  1  0.13497537  0.78853107  0.25151686  1
  O2-  O195  1  0.13503294  0.78825541  0.73649832  1
  O2-  O196  1  0.63779164  0.26788404  0.27117282  1
  O2-  O197  1  0.62909932  0.27939285  0.75085495  1
  O2-  O198  1  0.63682897  0.78285755  0.24126410  1
  O2-  O199  1  0.61892799  0.77314125  0.74128458  1
  O2-  O200  1  0.36408915  0.21260477  0.25284795  1
  O2-  O201  1  0.38606909  0.23195128  0.73360765  1
  O2-  O202  1  0.36651392  0.71581061  0.25414610  1
  O2-  O203  1  0.38230560  0.73115639  0.76245726  1
  O2-  O204  1  0.87662065  0.22022636  0.25020591  1
  O2-  O205  1  0.87557284  0.22449896  0.74741185  1
  O2-  O206  1  0.86419864  0.73849426  0.27660998  1
  O2-  O207  1  0.86364630  0.72372792  0.76305419  1
  O2-  O208  1  0.27399686  0.36592993  0.25527533  1
  O2-  O209  1  0.28165442  0.36452576  0.76420241  1
  O2-  O210  1  0.28996341  0.86680964  0.25160245  1
  O2-  O211  1  0.28582952  0.86894533  0.75838567  1
  O2-  O212  1  0.77963276  0.35773908  0.23311902  1
  O2-  O213  1  0.77775187  0.36354537  0.73402217  1
  O2-  O214  1  0.77564234  0.88090676  0.24392581  1
  O2-  O215  1  0.75989505  0.86116802  0.71034087  1
  O2-  O216  1  0.21385398  0.13288269  0.24294150  1
  O2-  O217  1  0.23470098  0.13790576  0.72249895  1
  O2-  O218  1  0.21656639  0.63870221  0.23135134  1
  O2-  O219  1  0.22806480  0.63858490  0.74640149  1
  O2-  O220  1  0.74043477  0.11822685  0.28079799  1
  O2-  O221  1  0.72675656  0.13448440  0.75796562  1
  O2-  O222  1  0.72377446  0.63235094  0.26860736  1
  O2-  O223  1  0.71778231  0.63777873  0.76105907  1
  O2-  O224  1  0.11601954  0.46491566  0.25771193  1
  O2-  O225  1  0.11602217  0.46845638  0.75497803  1
  O2-  O226  1  0.11402228  0.97777293  0.24957067  1
  O2-  O227  1  0.11184736  0.99174845  0.72524534  1
  O2-  O228  1  0.61674661  0.46384082  0.25632847  1
  O2-  O229  1  0.61366536  0.48970602  0.72346964  1
  O2-  O230  1  0.63521744  0.97825152  0.25442280  1
  O2-  O231  1  0.61760852  0.99153514  0.72189698  1
  O2-  O232  1  0.38981375  0.02966863  0.26702684  1
  O2-  O233  1  0.39077298  0.03192730  0.74633205  1
  O2-  O234  1  0.38484846  0.52577160  0.25229997  1
  O2-  O235  1  0.38802112  0.53063222  0.74527327  1
  O2-  O236  1  0.87438446  0.02181656  0.26232792  1
  O2-  O237  1  0.88630520  0.04101691  0.75418348  1
  O2-  O238  1  0.88332798  0.52395295  0.24180185  1
  O2-  O239  1  0.88337000  0.52645993  0.73392459  1
  O2-  O240  1  0.47152281  0.38110659  0.26354666  1
  O2-  O241  1  0.47963770  0.37473936  0.75048472  1
  O2-  O242  1  0.49184088  0.88731689  0.28158685  1
  O2-  O243  1  0.48324584  0.87867387  0.75870905  1
  O2-  O244  1  0.96964164  0.36515935  0.24431078  1
  O2-  O245  1  0.97833369  0.36551860  0.74748872  1
  O2-  O246  1  0.97371419  0.88718835  0.24974213  1
  O2-  O247  1  0.96301664  0.88918460  0.74520624  1
  O2-  O248  1  0.01712085  0.12845983  0.26447811  1
  O2-  O249  1  0.02735826  0.13255373  0.75181135  1
  O2-  O250  1  0.02575249  0.61444443  0.27373729  1
  O2-  O251  1  0.03330928  0.61974450  0.74685659  1
  O2-  O252  1  0.54183430  0.11290049  0.24197711  1
  O2-  O253  1  0.52761283  0.13120937  0.73686882  1
  O2-  O254  1  0.53520084  0.61403645  0.24578567  1
  O2-  O255  1  0.52085456  0.62969458  0.73647205  1
  O2-  O256  1  0.13455209  0.47659297  -0.00868631  1
  O2-  O257  1  0.13520606  0.46098845  0.49721870  1
  O2-  O258  1  0.13467013  0.96691786  0.01880250  1
  O2-  O259  1  0.12427996  0.98114183  0.50182592  1
  O2-  O260  1  0.62955617  0.47140672  -0.00077372  1
  O2-  O261  1  0.62154365  0.47959326  0.50166649  1
  O2-  O262  1  0.63398915  0.97551861  0.00998655  1
  O2-  O263  1  0.62977413  0.97767856  0.50787284  1
  O2-  O264  1  0.36483551  0.02129608  -0.02288514  1
  O2-  O265  1  0.38492027  0.02378221  0.49409517  1
  O2-  O266  1  0.36506219  0.53921831  0.00626423  1
  O2-  O267  1  0.38286373  0.52857470  0.49817439  1
  O2-  O268  1  0.86697173  0.02568551  -0.00484121  1
  O2-  O269  1  0.87559043  0.01952921  0.48733984  1
  O2-  O270  1  0.86606731  0.52928041  0.00985675  1
  O2-  O271  1  0.86529045  0.53289878  0.49834442  1
  O2-  O272  1  0.47517702  0.36407923  -0.01882871  1
  O2-  O273  1  0.48740626  0.36822333  0.48978007  1
  O2-  O274  1  0.47685664  0.86494452  -0.01873543  1
  O2-  O275  1  0.48817272  0.87264935  0.48911101  1
  O2-  O276  1  0.96763578  0.36504871  -0.00461157  1
  O2-  O277  1  0.95946640  0.36119910  0.50520557  1
  O2-  O278  1  0.97691477  0.86568993  0.01499131  1
  O2-  O279  1  0.97932976  0.88439817  0.49946989  1
  O2-  O280  1  0.03605760  0.13607160  -0.00863203  1
  O2-  O281  1  0.01882298  0.12405084  0.49653221  1
  O2-  O282  1  0.03372849  0.63363915  -0.01128055  1
  O2-  O283  1  0.02515038  0.63541948  0.49824201  1
  O2-  O284  1  0.52770243  0.13343560  0.00303155  1
  O2-  O285  1  0.52899419  0.12052842  0.52047868  1
  O2-  O286  1  0.52385021  0.63466052  -0.00290695  1
  O2-  O287  1  0.52602252  0.62172102  0.51724277  1
  O2-  O288  1  0.11264434  0.28563877  0.00086835  1
  O2-  O289  1  0.10869097  0.27318476  0.50171856  1
  O2-  O290  1  0.12998584  0.77566878  0.00779210  1
  O2-  O291  1  0.11613101  0.78177484  0.51372952  1
  O2-  O292  1  0.61591001  0.27590171  -0.00099174  1
  O2-  O293  1  0.63392279  0.26449281  0.49205588  1
  O2-  O294  1  0.61399390  0.77792771  0.01364106  1
  O2-  O295  1  0.62560500  0.76186987  0.52139168  1
  O2-  O296  1  0.38324248  0.21953270  -0.00989104  1
  O2-  O297  1  0.38814131  0.22435447  0.51857468  1
  O2-  O298  1  0.37063707  0.73194373  -0.01369703  1
  O2-  O299  1  0.39048330  0.72320151  0.49671583  1
  O2-  O300  1  0.88320501  0.21542340  0.00358987  1
  O2-  O301  1  0.87172962  0.21456467  0.50348407  1
  O2-  O302  1  0.88389110  0.72432177  -0.02391384  1
  O2-  O303  1  0.86650952  0.73019092  0.48480487  1
  O2-  O304  1  0.28693958  0.38449500  -0.01031518  1
  O2-  O305  1  0.29188347  0.38704044  0.49362257  1
  O2-  O306  1  0.27200641  0.87268757  -0.01121788  1
  O2-  O307  1  0.28147081  0.88571868  0.49189501  1
  O2-  O308  1  0.77576702  0.38201774  0.01518363  1
  O2-  O309  1  0.77476630  0.36546601  0.51264569  1
  O2-  O310  1  0.77479254  0.88312173  0.02931586  1
  O2-  O311  1  0.76602973  0.86883511  0.51241722  1
  O2-  O312  1  0.22296342  0.11768305  0.01608935  1
  O2-  O313  1  0.23595843  0.11758974  0.51377988  1
  O2-  O314  1  0.22591611  0.63564528  0.00999672  1
  O2-  O315  1  0.22280250  0.61701421  0.50857561  1
  O2-  O316  1  0.72518892  0.11209925  -0.01678572  1
  O2-  O317  1  0.72909756  0.11734933  0.48394736  1
  O2-  O318  1  0.71936406  0.61791356  -0.01646517  1
  O2-  O319  1  0.72231039  0.62179423  0.48540202  1
