# generated using pymatgen
data_Sr64Ca21Nb43O192
_symmetry_space_group_name_H-M   'P 1'
_cell_length_a   16.60873013
_cell_length_b   16.63447137
_cell_length_c   16.73484563
_cell_angle_alpha   89.98111149
_cell_angle_beta   90.08391900
_cell_angle_gamma   90.01447202
_symmetry_Int_Tables_number   1
_chemical_formula_structural   Sr64Ca21Nb43O192
_chemical_formula_sum   'Sr64 Ca21 Nb43 O192'
_cell_volume   4623.45505260
_cell_formula_units_Z   1
loop_
 _symmetry_equiv_pos_site_id
 _symmetry_equiv_pos_as_xyz
  1  'x, y, z'
loop_
 _atom_type_symbol
 _atom_type_oxidation_number
  Sr2+  2.0
  Ca2+  2.0
  Nb5+  5.0
  O2-  -2.0
loop_
 _atom_site_type_symbol
 _atom_site_label
 _atom_site_symmetry_multiplicity
 _atom_site_fract_x
 _atom_site_fract_y
 _atom_site_fract_z
 _atom_site_occupancy
  Sr2+  Sr0  1  0.12618945  0.13732948  0.12763280  1
  Sr2+  Sr1  1  0.12848493  0.11520605  0.62074810  1
  Sr2+  Sr2  1  0.13996220  0.60504097  0.12718768  1
  Sr2+  Sr3  1  0.14025220  0.60640683  0.62382899  1
  Sr2+  Sr4  1  0.62123672  0.11201570  0.12308513  1
  Sr2+  Sr5  1  0.62425336  0.11821255  0.61941115  1
  Sr2+  Sr6  1  0.60711260  0.61394721  0.12635952  1
  Sr2+  Sr7  1  0.61325520  0.60191159  0.62140646  1
  Sr2+  Sr8  1  0.36485126  0.36413073  0.12731645  1
  Sr2+  Sr9  1  0.37458239  0.39590544  0.62737221  1
  Sr2+  Sr10  1  0.37280680  0.86361045  0.12306470  1
  Sr2+  Sr11  1  0.37002550  0.85815159  0.62478345  1
  Sr2+  Sr12  1  0.87688094  0.37552987  0.11853563  1
  Sr2+  Sr13  1  0.87169325  0.36734550  0.61844262  1
  Sr2+  Sr14  1  0.87242079  0.86331645  0.12272800  1
  Sr2+  Sr15  1  0.87430761  0.86447369  0.61408648  1
  Sr2+  Sr16  1  0.11549971  0.38465441  0.37337964  1
  Sr2+  Sr17  1  0.11136169  0.39064628  0.87288722  1
  Sr2+  Sr18  1  0.10191242  0.88356206  0.37729571  1
  Sr2+  Sr19  1  0.11643499  0.87711048  0.87699421  1
  Sr2+  Sr20  1  0.63240058  0.37998570  0.38306034  1
  Sr2+  Sr21  1  0.63188722  0.37840186  0.87877251  1
  Sr2+  Sr22  1  0.63531200  0.87519291  0.36503068  1
  Sr2+  Sr23  1  0.63111771  0.88648077  0.86936430  1
  Sr2+  Sr24  1  0.37352610  0.13837032  0.36705702  1
  Sr2+  Sr25  1  0.36252826  0.13186317  0.87312449  1
  Sr2+  Sr26  1  0.38708491  0.63399205  0.37830147  1
  Sr2+  Sr27  1  0.37029311  0.63352580  0.86349966  1
  Sr2+  Sr28  1  0.87506528  0.12117051  0.36295311  1
  Sr2+  Sr29  1  0.86810184  0.12646504  0.87386862  1
  Sr2+  Sr30  1  0.87830261  0.63035450  0.37502772  1
  Sr2+  Sr31  1  0.88230770  0.62713220  0.87113951  1
  Sr2+  Sr32  1  0.12587154  0.13276592  0.36504378  1
  Sr2+  Sr33  1  0.11552792  0.13443975  0.87362635  1
  Sr2+  Sr34  1  0.13080076  0.61708012  0.36596714  1
  Sr2+  Sr35  1  0.13042116  0.63013196  0.87870485  1
  Sr2+  Sr36  1  0.63346221  0.13712106  0.37009516  1
  Sr2+  Sr37  1  0.62806725  0.13394942  0.87509738  1
  Sr2+  Sr38  1  0.62850347  0.61889031  0.37006501  1
  Sr2+  Sr39  1  0.63835696  0.63621238  0.87438224  1
  Sr2+  Sr40  1  0.36246836  0.38340099  0.37595553  1
  Sr2+  Sr41  1  0.38212163  0.37516564  0.86507825  1
  Sr2+  Sr42  1  0.37326468  0.87377816  0.38547072  1
  Sr2+  Sr43  1  0.36363769  0.87995396  0.87795578  1
  Sr2+  Sr44  1  0.87086697  0.40299402  0.37434394  1
  Sr2+  Sr45  1  0.86939143  0.40011137  0.87509072  1
  Sr2+  Sr46  1  0.87256098  0.85101292  0.37588440  1
  Sr2+  Sr47  1  0.87472669  0.85078241  0.87513044  1
  Sr2+  Sr48  1  0.12283815  0.37427680  0.13504498  1
  Sr2+  Sr49  1  0.12468223  0.36730531  0.62784245  1
  Sr2+  Sr50  1  0.13878936  0.86795608  0.12125494  1
  Sr2+  Sr51  1  0.13467235  0.87342301  0.61414984  1
  Sr2+  Sr52  1  0.61555882  0.36685408  0.12117052  1
  Sr2+  Sr53  1  0.61071903  0.36409031  0.62185852  1
  Sr2+  Sr54  1  0.60890539  0.87002843  0.12294694  1
  Sr2+  Sr55  1  0.61350045  0.87435201  0.62515398  1
  Sr2+  Sr56  1  0.36894144  0.11204641  0.12915235  1
  Sr2+  Sr57  1  0.36277085  0.12222497  0.63191448  1
  Sr2+  Sr58  1  0.36795636  0.62393304  0.12205574  1
  Sr2+  Sr59  1  0.37300308  0.62130694  0.61677665  1
  Sr2+  Sr60  1  0.87617952  0.11874958  0.11891877  1
  Sr2+  Sr61  1  0.87437141  0.11964026  0.62206375  1
  Sr2+  Sr62  1  0.88580880  0.61121400  0.13189275  1
  Sr2+  Sr63  1  0.87803453  0.61756750  0.62256128  1
  Ca2+  Ca64  1  0.50050309  0.00189956  0.49785572  1
  Ca2+  Ca65  1  0.00315601  0.50222033  0.00118798  1
  Ca2+  Ca66  1  0.00089547  0.49751309  0.50391740  1
  Ca2+  Ca67  1  0.49918057  0.49717206  0.49421731  1
  Ca2+  Ca68  1  0.49639186  0.49912001  -0.00283941  1
  Ca2+  Ca69  1  0.24941415  0.24923090  0.50291289  1
  Ca2+  Ca70  1  0.24878239  0.25289598  -0.00294540  1
  Ca2+  Ca71  1  0.74765485  0.75189796  0.00341603  1
  Ca2+  Ca72  1  0.24506409  0.74810904  0.49638146  1
  Ca2+  Ca73  1  0.74341243  0.75134958  0.50306955  1
  Ca2+  Ca74  1  0.25676207  0.50060231  0.25115235  1
  Ca2+  Ca75  1  0.24824019  -0.00426161  0.25291647  1
  Ca2+  Ca76  1  0.74902111  0.49934481  0.24388549  1
  Ca2+  Ca77  1  0.50094807  0.75106245  0.75203885  1
  Ca2+  Ca78  1  0.24635412  -0.00197801  0.75027516  1
  Ca2+  Ca79  1  0.24940011  0.49652100  0.75349948  1
  Ca2+  Ca80  1  0.74811049  0.49753487  0.74596691  1
  Ca2+  Ca81  1  0.50127906  0.24620607  0.24788579  1
  Ca2+  Ca82  1  0.00457359  0.75208690  0.24777148  1
  Ca2+  Ca83  1  0.00376866  0.75364212  0.74572900  1
  Ca2+  Ca84  1  -0.00473440  0.25177016  0.25179674  1
  Nb5+  Nb85  1  -0.00620567  0.00173217  -0.00811240  1
  Nb5+  Nb86  1  -0.00486070  0.00629431  0.49507331  1
  Nb5+  Nb87  1  0.49217495  0.00160871  -0.00329283  1
  Nb5+  Nb88  1  0.25144256  0.74938999  0.00003500  1
  Nb5+  Nb89  1  0.75322393  0.25019010  0.49354913  1
  Nb5+  Nb90  1  0.75220953  0.25052845  -0.00378374  1
  Nb5+  Nb91  1  0.49655723  0.24372972  0.74833673  1
  Nb5+  Nb92  1  0.75425477  -0.00067624  0.74509485  1
  Nb5+  Nb93  1  -0.00984170  0.24931458  0.75218853  1
  Nb5+  Nb94  1  0.75063101  -0.00101771  0.24072748  1
  Nb5+  Nb95  1  0.49969990  0.74984991  0.24958137  1
  Nb5+  Nb96  1  -0.00063962  -0.00324803  0.23430430  1
  Nb5+  Nb97  1  -0.00424212  -0.00116674  0.74376006  1
  Nb5+  Nb98  1  0.00110665  0.50194808  0.25057130  1
  Nb5+  Nb99  1  0.00053584  0.50658227  0.74568321  1
  Nb5+  Nb100  1  0.50045949  -0.00271175  0.25414438  1
  Nb5+  Nb101  1  0.49693124  0.00531440  0.74717179  1
  Nb5+  Nb102  1  0.49877677  0.49088775  0.24563851  1
  Nb5+  Nb103  1  0.50369942  0.50304315  0.75614950  1
  Nb5+  Nb104  1  0.24976319  0.25121498  0.25098818  1
  Nb5+  Nb105  1  0.23866808  0.24965803  0.75540325  1
  Nb5+  Nb106  1  0.25114654  0.75488098  0.25484115  1
  Nb5+  Nb107  1  0.24693581  0.74824249  0.74604115  1
  Nb5+  Nb108  1  0.75206912  0.25137542  0.24104117  1
  Nb5+  Nb109  1  0.74526914  0.24936933  0.74603813  1
  Nb5+  Nb110  1  0.74659216  0.74576005  0.24280769  1
  Nb5+  Nb111  1  0.74654712  0.74503281  0.74437504  1
  Nb5+  Nb112  1  -0.00381139  0.24859944  0.49748822  1
  Nb5+  Nb113  1  -0.00090450  0.25360892  0.99641736  1
  Nb5+  Nb114  1  0.00315488  0.74367792  0.50656366  1
  Nb5+  Nb115  1  0.00238167  0.74666022  1.00762976  1
  Nb5+  Nb116  1  0.49359404  0.24435701  0.49768805  1
  Nb5+  Nb117  1  0.49712441  0.24379272  1.00218120  1
  Nb5+  Nb118  1  0.50510674  0.75048637  0.50560252  1
  Nb5+  Nb119  1  0.50134811  0.74960604  0.99415222  1
  Nb5+  Nb120  1  0.23740475  -0.00013253  0.00154430  1
  Nb5+  Nb121  1  0.25258036  0.00421820  0.49409398  1
  Nb5+  Nb122  1  0.25695933  0.49240779  -0.00306777  1
  Nb5+  Nb123  1  0.24837783  0.49784544  0.49814863  1
  Nb5+  Nb124  1  0.74646893  0.00021161  -0.00429834  1
  Nb5+  Nb125  1  0.75097798  0.00223061  0.49236556  1
  Nb5+  Nb126  1  0.74597998  0.50957574  0.00257807  1
  Nb5+  Nb127  1  0.74858794  0.50519400  0.50267763  1
  O2-  O128  1  -0.02530758  -0.01491378  0.12160190  1
  O2-  O129  1  -0.03107742  -0.00739059  0.63212711  1
  O2-  O130  1  -0.02102938  0.48312400  0.13296642  1
  O2-  O131  1  -0.02316802  0.46944846  0.63695793  1
  O2-  O132  1  0.49422900  0.01663435  0.11759639  1
  O2-  O133  1  0.49204210  0.03049262  0.63519340  1
  O2-  O134  1  0.48140524  0.52743379  0.13224601  1
  O2-  O135  1  0.48176751  0.51624438  0.63489072  1
  O2-  O136  1  0.01138086  0.02615722  0.38311752  1
  O2-  O137  1  0.01495936  0.01922430  0.87947556  1
  O2-  O138  1  0.02025228  0.51563315  0.36992121  1
  O2-  O139  1  0.02045408  0.51684059  0.86559180  1
  O2-  O140  1  0.51929651  -0.02829580  0.36356989  1
  O2-  O141  1  0.51534151  -0.01363594  0.87850333  1
  O2-  O142  1  0.53161091  0.48710164  0.36079545  1
  O2-  O143  1  0.51592538  0.46455204  0.86648606  1
  O2-  O144  1  0.22545723  0.25978920  0.13021673  1
  O2-  O145  1  0.23692083  0.22521946  0.63979069  1
  O2-  O146  1  0.24148844  0.75197668  0.12354444  1
  O2-  O147  1  0.22065587  0.74062667  0.63449578  1
  O2-  O148  1  0.73345413  0.25562856  0.12558039  1
  O2-  O149  1  0.73481915  0.25561001  0.63155259  1
  O2-  O150  1  0.73732286  0.78985503  0.13444921  1
  O2-  O151  1  0.73580183  0.78970717  0.63675079  1
  O2-  O152  1  0.27440818  0.24905352  0.36804860  1
  O2-  O153  1  0.28017303  0.25918860  0.86590852  1
  O2-  O154  1  0.28146970  0.74892408  0.36569530  1
  O2-  O155  1  0.27367588  0.75447323  0.88407741  1
  O2-  O156  1  0.76840819  0.23510850  0.38029649  1
  O2-  O157  1  0.76188726  0.23497999  0.87998694  1
  O2-  O158  1  0.75601521  0.73916911  0.36232420  1
  O2-  O159  1  0.76900056  0.73126462  0.86617634  1
  O2-  O160  1  0.01320683  0.26141649  0.11233986  1
  O2-  O161  1  0.00525619  0.26606073  0.63775658  1
  O2-  O162  1  0.01303540  0.79205811  0.11559163  1
  O2-  O163  1  0.00815259  0.79103955  0.61517813  1
  O2-  O164  1  0.53175617  0.23200344  0.11284477  1
  O2-  O165  1  0.52236127  0.22966388  0.63395486  1
  O2-  O166  1  0.51446827  0.74413465  0.11972058  1
  O2-  O167  1  0.52819369  0.73068093  0.61656910  1
  O2-  O168  1  0.21457112  -0.01917567  0.38492256  1
  O2-  O169  1  0.24080923  -0.01912674  0.88687442  1
  O2-  O170  1  0.22572940  0.48567609  0.38242220  1
  O2-  O171  1  0.21961063  0.49840586  0.88564718  1
  O2-  O172  1  0.73382692  0.01725594  0.37844156  1
  O2-  O173  1  0.73523851  0.01869863  0.88119275  1
  O2-  O174  1  0.73220830  0.49575637  0.38214470  1
  O2-  O175  1  0.72828200  0.50062598  0.88278075  1
  O2-  O176  1  -0.01175446  0.21825016  0.38881314  1
  O2-  O177  1  -0.01703466  0.22146957  0.87662576  1
  O2-  O178  1  -0.01451628  0.73794177  0.38677611  1
  O2-  O179  1  -0.01101703  0.73774922  0.88885580  1
  O2-  O180  1  0.47834981  0.26212802  0.38518761  1
  O2-  O181  1  0.49249765  0.25163772  0.87629262  1
  O2-  O182  1  0.48269922  0.76980860  0.36333700  1
  O2-  O183  1  0.46782176  0.76754605  0.88512644  1
  O2-  O184  1  0.27018403  -0.00340016  0.11404333  1
  O2-  O185  1  0.25528552  0.01928908  0.61495236  1
  O2-  O186  1  0.27246629  0.50667106  0.11554730  1
  O2-  O187  1  0.26822536  0.51554208  0.61879753  1
  O2-  O188  1  0.76681464  -0.00659936  0.12477751  1
  O2-  O189  1  0.77282638  -0.00409874  0.63184951  1
  O2-  O190  1  0.78264750  0.49246454  0.11275177  1
  O2-  O191  1  0.78045991  0.48996626  0.61444035  1
  O2-  O192  1  0.13146857  0.27008108  0.27303425  1
  O2-  O193  1  0.12301229  0.26631403  0.77160969  1
  O2-  O194  1  0.13980185  0.78322290  0.26585826  1
  O2-  O195  1  0.13506243  0.76752369  0.78143608  1
  O2-  O196  1  0.63973122  0.26465042  0.27665478  1
  O2-  O197  1  0.63106736  0.26191397  0.76915674  1
  O2-  O198  1  0.62226729  0.77521146  0.25550918  1
  O2-  O199  1  0.63492006  0.77409721  0.77602851  1
  O2-  O200  1  0.36768163  0.22174607  0.22643421  1
  O2-  O201  1  0.38502595  0.21951932  0.74251298  1
  O2-  O202  1  0.38490835  0.73161118  0.22810488  1
  O2-  O203  1  0.36738696  0.72806611  0.72630211  1
  O2-  O204  1  0.86271625  0.21339082  0.23752231  1
  O2-  O205  1  0.87490222  0.22769029  0.74039022  1
  O2-  O206  1  0.86422643  0.73843212  0.23249833  1
  O2-  O207  1  0.86589483  0.73807865  0.73211298  1
  O2-  O208  1  0.27962497  0.36683622  0.24863030  1
  O2-  O209  1  0.27160066  0.36053408  0.73437892  1
  O2-  O210  1  0.28934639  0.86612802  0.24563285  1
  O2-  O211  1  0.27500452  0.86470245  0.74728064  1
  O2-  O212  1  0.78090033  0.36177424  0.25179711  1
  O2-  O213  1  0.77308667  0.35960300  0.76259466  1
  O2-  O214  1  0.76487467  0.88680690  0.27239823  1
  O2-  O215  1  0.76709327  0.88891911  0.77518152  1
  O2-  O216  1  0.22494442  0.13058536  0.24760831  1
  O2-  O217  1  0.23377946  0.13093374  0.77701059  1
  O2-  O218  1  0.23429309  0.63695570  0.24731326  1
  O2-  O219  1  0.23659452  0.63233755  0.77063029  1
  O2-  O220  1  0.72687287  0.11839481  0.24425435  1
  O2-  O221  1  0.73914559  0.12626384  0.74944408  1
  O2-  O222  1  0.72232823  0.63640084  0.22595136  1
  O2-  O223  1  0.72293390  0.63481605  0.72414127  1
  O2-  O224  1  0.11932035  0.48079182  0.23550783  1
  O2-  O225  1  0.11404663  0.47164411  0.73445538  1
  O2-  O226  1  0.11182783  0.97498479  0.22618338  1
  O2-  O227  1  0.10979092  0.98325415  0.73120154  1
  O2-  O228  1  0.61702917  0.48530558  0.21770639  1
  O2-  O229  1  0.61525373  0.47349642  0.72527896  1
  O2-  O230  1  0.63125501  0.97928508  0.22905496  1
  O2-  O231  1  0.63422229  0.99034067  0.73806950  1
  O2-  O232  1  0.38829463  0.02139649  0.26314691  1
  O2-  O233  1  0.38613920  0.02236700  0.76848264  1
  O2-  O234  1  0.38970028  0.52132352  0.27846323  1
  O2-  O235  1  0.38547250  0.50186981  0.77131148  1
  O2-  O236  1  0.86941285  0.02087772  0.25310072  1
  O2-  O237  1  0.87243997  0.02606214  0.76722542  1
  O2-  O238  1  0.88275465  0.53092702  0.26707545  1
  O2-  O239  1  0.88307260  0.51526652  0.77097668  1
  O2-  O240  1  0.48017912  0.37989806  0.22491303  1
  O2-  O241  1  0.48550788  0.35918498  0.73613112  1
  O2-  O242  1  0.49013102  0.87770569  0.22370228  1
  O2-  O243  1  0.49350617  0.89010937  0.72925183  1
  O2-  O244  1  0.97889178  0.38401693  0.27089697  1
  O2-  O245  1  0.98308141  0.36203218  0.77928873  1
  O2-  O246  1  0.97714655  0.89116802  0.27928962  1
  O2-  O247  1  0.97859405  0.89040106  0.77621241  1
  O2-  O248  1  0.01560501  0.11283596  0.23718873  1
  O2-  O249  1  0.01741391  0.12665891  0.74365460  1
  O2-  O250  1  0.02434020  0.62006660  0.22870417  1
  O2-  O251  1  0.01445415  0.61715119  0.71964880  1
  O2-  O252  1  0.53064490  0.11030135  0.26002516  1
  O2-  O253  1  0.52883663  0.12415157  0.76809016  1
  O2-  O254  1  0.52475877  0.63667517  0.26028643  1
  O2-  O255  1  0.52300369  0.61422820  0.77718808  1
  O2-  O256  1  0.13726885  0.47625662  0.02464758  1
  O2-  O257  1  0.13270791  0.46922131  0.52424245  1
  O2-  O258  1  0.12178728  0.98110837  0.01513498  1
  O2-  O259  1  0.10645338  0.98870207  0.52419248  1
  O2-  O260  1  0.63516224  0.46877847  0.01874086  1
  O2-  O261  1  0.63472886  0.47266192  0.52101245  1
  O2-  O262  1  0.63248780  0.98443587  0.01361540  1
  O2-  O263  1  0.64082757  0.98861062  0.52622436  1
  O2-  O264  1  0.37906943  0.02010746  -0.01616146  1
  O2-  O265  1  0.36338152  0.02235100  0.46812845  1
  O2-  O266  1  0.36513142  0.53561541  -0.02535814  1
  O2-  O267  1  0.36653785  0.52314698  0.47817779  1
  O2-  O268  1  0.87801358  0.02243866  -0.01177174  1
  O2-  O269  1  0.87082791  0.03389350  0.49302500  1
  O2-  O270  1  0.86494730  0.52189244  -0.02448201  1
  O2-  O271  1  0.86624296  0.52434509  0.47842582  1
  O2-  O272  1  0.48398724  0.35780118  0.01481968  1
  O2-  O273  1  0.49013619  0.35871882  0.52665150  1
  O2-  O274  1  0.48257704  0.88473586  0.01362021  1
  O2-  O275  1  0.47644185  0.86867823  0.52009374  1
  O2-  O276  1  0.97431084  0.36440461  -0.01963024  1
  O2-  O277  1  0.96812247  0.36062609  0.48585483  1
  O2-  O278  1  0.98656106  0.88490860  -0.02152972  1
  O2-  O279  1  0.96986533  0.89378752  0.48438842  1
  O2-  O280  1  0.01508974  0.11917518  0.01766385  1
  O2-  O281  1  0.00369495  0.12765943  0.53304595  1
  O2-  O282  1  0.02590564  0.63719586  0.02800932  1
  O2-  O283  1  0.01987715  0.63429730  0.53270579  1
  O2-  O284  1  0.52797226  0.11784342  -0.01311302  1
  O2-  O285  1  0.53716277  0.13518472  0.48725690  1
  O2-  O286  1  0.52521768  0.63799156  -0.01754768  1
  O2-  O287  1  0.52112835  0.63647829  0.47283257  1
  O2-  O288  1  0.11204550  0.26246814  -0.02818913  1
  O2-  O289  1  0.10943197  0.27008416  0.49884741  1
  O2-  O290  1  0.12996341  0.77227165  -0.01236928  1
  O2-  O291  1  0.11196484  0.78421641  0.48540327  1
  O2-  O292  1  0.63378765  0.25931247  -0.01723415  1
  O2-  O293  1  0.63551808  0.26838674  0.48917191  1
  O2-  O294  1  0.61214140  0.78353240  -0.01900440  1
  O2-  O295  1  0.61432764  0.78559911  0.47898865  1
  O2-  O296  1  0.38739074  0.21411942  0.01548747  1
  O2-  O297  1  0.38627234  0.21258723  0.51771987  1
  O2-  O298  1  0.37412308  0.73997787  0.02034940  1
  O2-  O299  1  0.38469384  0.73230371  0.51319477  1
  O2-  O300  1  0.87235429  0.22935071  0.01512178  1
  O2-  O301  1  0.86975577  0.23475527  0.52763676  1
  O2-  O302  1  0.88599688  0.73804717  0.02234677  1
  O2-  O303  1  0.88109515  0.73766987  0.51655719  1
  O2-  O304  1  0.29184236  0.38315416  -0.00459045  1
  O2-  O305  1  0.28206952  0.38101510  0.50875515  1
  O2-  O306  1  0.26483230  0.87332145  0.00701700  1
  O2-  O307  1  0.26420132  0.88578711  0.51778623  1
  O2-  O308  1  0.77186578  0.36443943  -0.00515606  1
  O2-  O309  1  0.77206408  0.36737464  0.49292469  1
  O2-  O310  1  0.77654935  0.88947395  -0.01331692  1
  O2-  O311  1  0.77586039  0.89067311  0.48640025  1
  O2-  O312  1  0.22648093  0.11485532  -0.00429625  1
  O2-  O313  1  0.21467962  0.11632752  0.48575560  1
  O2-  O314  1  0.22902837  0.63377838  -0.00021154  1
  O2-  O315  1  0.21683001  0.61540367  0.49125510  1
  O2-  O316  1  0.74257081  0.12297598  0.01605548  1
  O2-  O317  1  0.73589606  0.12944752  0.51298497  1
  O2-  O318  1  0.71559381  0.61950702  0.01179302  1
  O2-  O319  1  0.72017197  0.61703892  0.51167446  1
