# generated using pymatgen
data_Sr64Ca21Nb43O192
_symmetry_space_group_name_H-M   'P 1'
_cell_length_a   16.57053837
_cell_length_b   16.57874409
_cell_length_c   16.71744626
_cell_angle_alpha   89.94739168
_cell_angle_beta   89.94751769
_cell_angle_gamma   89.97191516
_symmetry_Int_Tables_number   1
_chemical_formula_structural   Sr64Ca21Nb43O192
_chemical_formula_sum   'Sr64 Ca21 Nb43 O192'
_cell_volume   4592.59094403
_cell_formula_units_Z   1
loop_
 _symmetry_equiv_pos_site_id
 _symmetry_equiv_pos_as_xyz
  1  'x, y, z'
loop_
 _atom_type_symbol
 _atom_type_oxidation_number
  Sr2+  2.0
  Ca2+  2.0
  Nb5+  5.0
  O2-  -2.0
loop_
 _atom_site_type_symbol
 _atom_site_label
 _atom_site_symmetry_multiplicity
 _atom_site_fract_x
 _atom_site_fract_y
 _atom_site_fract_z
 _atom_site_occupancy
  Sr2+  Sr0  1  0.11740243  0.11950018  0.12501501  1
  Sr2+  Sr1  1  0.11712960  0.11544791  0.61537220  1
  Sr2+  Sr2  1  0.11486943  0.63188034  0.12588171  1
  Sr2+  Sr3  1  0.12253061  0.63916230  0.62585212  1
  Sr2+  Sr4  1  0.61485799  0.12492865  0.13218303  1
  Sr2+  Sr5  1  0.61336141  0.12023668  0.62708863  1
  Sr2+  Sr6  1  0.61814653  0.63847692  0.12324463  1
  Sr2+  Sr7  1  0.61923280  0.63219183  0.62124183  1
  Sr2+  Sr8  1  0.36975262  0.37277286  0.12036565  1
  Sr2+  Sr9  1  0.36724177  0.37872718  0.62847747  1
  Sr2+  Sr10  1  0.37327848  0.87942973  0.13254425  1
  Sr2+  Sr11  1  0.36657815  0.87796485  0.62754971  1
  Sr2+  Sr12  1  0.86845644  0.37199084  0.12226017  1
  Sr2+  Sr13  1  0.86459615  0.37659528  0.62866939  1
  Sr2+  Sr14  1  0.86634991  0.87987126  0.11870302  1
  Sr2+  Sr15  1  0.87638785  0.87739801  0.63455571  1
  Sr2+  Sr16  1  0.11692016  0.36912402  0.37490129  1
  Sr2+  Sr17  1  0.13059264  0.37451228  0.87672556  1
  Sr2+  Sr18  1  0.13285198  0.88103232  0.37105118  1
  Sr2+  Sr19  1  0.12377902  0.86988639  0.86151661  1
  Sr2+  Sr20  1  0.64708707  0.37847284  0.37382571  1
  Sr2+  Sr21  1  0.65240299  0.37148915  0.87103468  1
  Sr2+  Sr22  1  0.63389902  0.87218325  0.37605184  1
  Sr2+  Sr23  1  0.63137960  0.88231599  0.86739283  1
  Sr2+  Sr24  1  0.37795903  0.13365182  0.37467403  1
  Sr2+  Sr25  1  0.38603583  0.13559198  0.87691100  1
  Sr2+  Sr26  1  0.38580948  0.62521868  0.37056607  1
  Sr2+  Sr27  1  0.38364559  0.61639835  0.87111989  1
  Sr2+  Sr28  1  0.87125760  0.12435600  0.37313272  1
  Sr2+  Sr29  1  0.86851915  0.12394670  0.86763780  1
  Sr2+  Sr30  1  0.87367610  0.61430607  0.37058592  1
  Sr2+  Sr31  1  0.88697168  0.61755123  0.87473383  1
  Sr2+  Sr32  1  0.13116557  0.13909721  0.37384761  1
  Sr2+  Sr33  1  0.13694522  0.13170988  0.88165219  1
  Sr2+  Sr34  1  0.13053307  0.63034630  0.37416597  1
  Sr2+  Sr35  1  0.12908582  0.61636127  0.87655684  1
  Sr2+  Sr36  1  0.63750603  0.12587465  0.37795079  1
  Sr2+  Sr37  1  0.62828204  0.12951174  0.86712835  1
  Sr2+  Sr38  1  0.62706124  0.61498976  0.37699373  1
  Sr2+  Sr39  1  0.63084779  0.61604278  0.87662195  1
  Sr2+  Sr40  1  0.37468679  0.38211974  0.37672690  1
  Sr2+  Sr41  1  0.37622120  0.37839051  0.87231103  1
  Sr2+  Sr42  1  0.38319898  0.87353867  0.37418385  1
  Sr2+  Sr43  1  0.38624185  0.88688395  0.86892025  1
  Sr2+  Sr44  1  0.88200816  0.37097376  0.38065954  1
  Sr2+  Sr45  1  0.88667616  0.37101319  0.87472118  1
  Sr2+  Sr46  1  0.88085286  0.87311730  0.36569888  1
  Sr2+  Sr47  1  0.88414061  0.86585243  0.87411572  1
  Sr2+  Sr48  1  0.11163296  0.37203353  0.13222755  1
  Sr2+  Sr49  1  0.11438893  0.36971928  0.62063187  1
  Sr2+  Sr50  1  0.10641294  0.87801189  0.12273651  1
  Sr2+  Sr51  1  0.10687396  0.87460890  0.62456812  1
  Sr2+  Sr52  1  0.62461051  0.36875997  0.12232870  1
  Sr2+  Sr53  1  0.62217899  0.37021098  0.62040138  1
  Sr2+  Sr54  1  0.62662991  0.87751653  0.12720992  1
  Sr2+  Sr55  1  0.60924697  0.88456942  0.62111175  1
  Sr2+  Sr56  1  0.36689513  0.12346890  0.12118967  1
  Sr2+  Sr57  1  0.38038192  0.12762842  0.63309513  1
  Sr2+  Sr58  1  0.37281370  0.62960441  0.11894717  1
  Sr2+  Sr59  1  0.36370023  0.62842394  0.62545432  1
  Sr2+  Sr60  1  0.85505962  0.11787323  0.12232630  1
  Sr2+  Sr61  1  0.86697176  0.11584727  0.62722698  1
  Sr2+  Sr62  1  0.86142992  0.63300858  0.11934839  1
  Sr2+  Sr63  1  0.86073345  0.63753973  0.62760916  1
  Ca2+  Ca64  1  -0.00176765  0.00302472  -0.00214245  1
  Ca2+  Ca65  1  0.49853711  -0.00162184  0.49480253  1
  Ca2+  Ca66  1  0.00380932  0.50120936  0.50531488  1
  Ca2+  Ca67  1  -0.00088773  -0.00275910  0.49511581  1
  Ca2+  Ca68  1  0.50196967  0.00053155  0.00071060  1
  Ca2+  Ca69  1  0.74636238  0.75178130  -0.00376174  1
  Ca2+  Ca70  1  0.74781146  0.24619077  0.50138974  1
  Ca2+  Ca71  1  0.75025452  0.75269244  0.49854242  1
  Ca2+  Ca72  1  0.74936335  0.24560505  -0.00196865  1
  Ca2+  Ca73  1  0.25190184  0.75018554  -0.00070679  1
  Ca2+  Ca74  1  0.75101229  0.50071085  0.24547276  1
  Ca2+  Ca75  1  0.74946603  -0.00155561  0.74651698  1
  Ca2+  Ca76  1  0.24849452  0.00299100  0.74997939  1
  Ca2+  Ca77  1  0.24828484  0.50116956  0.24869155  1
  Ca2+  Ca78  1  -0.00273749  0.24639817  0.24926584  1
  Ca2+  Ca79  1  0.49971381  0.25610168  0.75078415  1
  Ca2+  Ca80  1  0.49816876  0.25275744  0.25355255  1
  Ca2+  Ca81  1  0.75244125  0.50121984  0.74893492  1
  Ca2+  Ca82  1  0.00069968  0.75020865  0.24907626  1
  Ca2+  Ca83  1  0.49663953  0.74996286  0.74898598  1
  Ca2+  Ca84  1  0.00384399  0.24897566  0.74996366  1
  Nb5+  Nb85  1  0.00743024  0.49827410  0.00158215  1
  Nb5+  Nb86  1  0.49771412  0.49654457  0.49579329  1
  Nb5+  Nb87  1  0.50741752  0.49791548  -0.00537961  1
  Nb5+  Nb88  1  0.24894791  0.25413276  0.00702776  1
  Nb5+  Nb89  1  0.25300552  0.25656553  0.50496474  1
  Nb5+  Nb90  1  0.25150973  0.75832540  0.49976883  1
  Nb5+  Nb91  1  0.24402912  0.00244596  0.24821438  1
  Nb5+  Nb92  1  0.49998364  0.75167843  0.25070264  1
  Nb5+  Nb93  1  0.74257148  -0.00096023  0.25028976  1
  Nb5+  Nb94  1  -0.00274172  0.74446755  0.75036021  1
  Nb5+  Nb95  1  0.24935457  0.50030415  0.74900040  1
  Nb5+  Nb96  1  -0.00951047  0.00107121  0.24861763  1
  Nb5+  Nb97  1  0.00484774  0.00509904  0.75579356  1
  Nb5+  Nb98  1  -0.00149261  0.50039093  0.25352767  1
  Nb5+  Nb99  1  0.00260324  0.50064963  0.74634482  1
  Nb5+  Nb100  1  0.49561351  0.00341515  0.25643424  1
  Nb5+  Nb101  1  0.49772231  0.00158931  0.75132245  1
  Nb5+  Nb102  1  0.49778457  0.50141008  0.24044610  1
  Nb5+  Nb103  1  0.50385509  0.50105024  0.74389623  1
  Nb5+  Nb104  1  0.25493629  0.25428753  0.25416467  1
  Nb5+  Nb105  1  0.24490391  0.24871204  0.75251796  1
  Nb5+  Nb106  1  0.25113315  0.75318169  0.24747402  1
  Nb5+  Nb107  1  0.24999929  0.74901173  0.75429824  1
  Nb5+  Nb108  1  0.75353481  0.25351423  0.25044591  1
  Nb5+  Nb109  1  0.75176483  0.24960305  0.74449352  1
  Nb5+  Nb110  1  0.75121297  0.74763783  0.25285724  1
  Nb5+  Nb111  1  0.73987435  0.75317540  0.74626328  1
  Nb5+  Nb112  1  -0.00392039  0.24434082  0.50330082  1
  Nb5+  Nb113  1  0.00150966  0.24597261  0.99905981  1
  Nb5+  Nb114  1  -0.00139417  0.74612244  0.49482073  1
  Nb5+  Nb115  1  -0.00224111  0.74941041  1.00178925  1
  Nb5+  Nb116  1  0.50124906  0.24809112  0.49547872  1
  Nb5+  Nb117  1  0.50454385  0.25155637  0.99926242  1
  Nb5+  Nb118  1  0.49684613  0.74879290  0.50307839  1
  Nb5+  Nb119  1  0.49594304  0.75571740  0.99654435  1
  Nb5+  Nb120  1  0.25229271  -0.00305363  -0.00193700  1
  Nb5+  Nb121  1  0.25215250  0.00950498  0.49860645  1
  Nb5+  Nb122  1  0.25373876  0.49943965  0.00333942  1
  Nb5+  Nb123  1  0.25049769  0.50509587  0.50038558  1
  Nb5+  Nb124  1  0.74689438  0.00131856  -0.00710285  1
  Nb5+  Nb125  1  0.75114361  -0.00477386  0.50119327  1
  Nb5+  Nb126  1  0.76042257  0.49998415  0.00074813  1
  Nb5+  Nb127  1  0.75556867  0.50180030  0.50354752  1
  O2-  O128  1  -0.00817768  0.02891789  0.13348082  1
  O2-  O129  1  -0.00065019  0.01505627  0.63498598  1
  O2-  O130  1  0.02302543  0.51152704  0.11732857  1
  O2-  O131  1  0.03733793  0.51298048  0.63827489  1
  O2-  O132  1  0.50063249  0.01177603  0.13789985  1
  O2-  O133  1  0.48957249  0.02026228  0.62988758  1
  O2-  O134  1  0.51572568  0.51681800  0.12645933  1
  O2-  O135  1  0.51468413  0.51478602  0.62845246  1
  O2-  O136  1  0.00529676  -0.03683912  0.36172777  1
  O2-  O137  1  0.00520815  -0.03581289  0.86755274  1
  O2-  O138  1  -0.02326316  0.49099848  0.36777611  1
  O2-  O139  1  -0.00968496  0.48825296  0.87714795  1
  O2-  O140  1  0.50899804  -0.03688290  0.36428180  1
  O2-  O141  1  0.50898537  -0.02419718  0.86805987  1
  O2-  O142  1  0.47775622  0.49115658  0.38157898  1
  O2-  O143  1  0.48148019  0.48909960  0.88246753  1
  O2-  O144  1  0.24561607  0.26894106  0.12462029  1
  O2-  O145  1  0.24354826  0.26570961  0.62167747  1
  O2-  O146  1  0.27756825  0.76137874  0.13642682  1
  O2-  O147  1  0.26709396  0.75604220  0.62125525  1
  O2-  O148  1  0.74719192  0.26934565  0.13219503  1
  O2-  O149  1  0.74681773  0.28294558  0.62981950  1
  O2-  O150  1  0.76156036  0.77270644  0.13651671  1
  O2-  O151  1  0.77982047  0.76580817  0.63221314  1
  O2-  O152  1  0.26074830  0.23936858  0.37448176  1
  O2-  O153  1  0.25324970  0.23890365  0.87274752  1
  O2-  O154  1  0.23397774  0.74411478  0.38113071  1
  O2-  O155  1  0.22591601  0.73501703  0.86540927  1
  O2-  O156  1  0.75450932  0.22321182  0.36660886  1
  O2-  O157  1  0.74937298  0.22110395  0.86437593  1
  O2-  O158  1  0.71573447  0.73748758  0.36458179  1
  O2-  O159  1  0.72069999  0.73451487  0.86288840  1
  O2-  O160  1  0.02300395  0.24448633  0.11469372  1
  O2-  O161  1  0.02744231  0.23179446  0.61690209  1
  O2-  O162  1  -0.01451128  0.72116240  0.11460364  1
  O2-  O163  1  -0.00901764  0.72450478  0.63190608  1
  O2-  O164  1  0.50424392  0.23736438  0.11697066  1
  O2-  O165  1  0.50353570  0.23541400  0.61322318  1
  O2-  O166  1  0.48006885  0.73194731  0.13566650  1
  O2-  O167  1  0.48282678  0.71852548  0.61468156  1
  O2-  O168  1  0.23136560  0.01680875  0.36671903  1
  O2-  O169  1  0.22812604  0.01150535  0.88678976  1
  O2-  O170  1  0.27199006  0.51389903  0.38801547  1
  O2-  O171  1  0.26253568  0.51508316  0.87626372  1
  O2-  O172  1  0.74562504  0.02037101  0.36700847  1
  O2-  O173  1  0.73624544  0.02404687  0.88045279  1
  O2-  O174  1  0.75377342  0.52326758  0.38313013  1
  O2-  O175  1  0.75699767  0.52863827  0.88515533  1
  O2-  O176  1  -0.00192731  0.27200982  0.38574511  1
  O2-  O177  1  0.00747642  0.27849880  0.88550137  1
  O2-  O178  1  0.02261379  0.76879507  0.38519500  1
  O2-  O179  1  0.01633716  0.76092865  0.87224757  1
  O2-  O180  1  0.46533114  0.26867659  0.38552597  1
  O2-  O181  1  0.47468606  0.26793625  0.88631646  1
  O2-  O182  1  0.50483316  0.76105138  0.37705764  1
  O2-  O183  1  0.51347226  0.77225949  0.88507327  1
  O2-  O184  1  0.27382865  -0.00506336  0.13125982  1
  O2-  O185  1  0.27497087  0.00134295  0.61171550  1
  O2-  O186  1  0.24133131  0.46876491  0.11378174  1
  O2-  O187  1  0.24068977  0.48289159  0.63009456  1
  O2-  O188  1  0.75772945  -0.01766258  0.13193654  1
  O2-  O189  1  0.76117771  -0.02693809  0.61335033  1
  O2-  O190  1  0.74078122  0.46537662  0.11355564  1
  O2-  O191  1  0.73325218  0.47231470  0.61570659  1
  O2-  O192  1  0.13713409  0.26435795  0.26003951  1
  O2-  O193  1  0.13668870  0.29246529  0.75088832  1
  O2-  O194  1  0.13852128  0.78245420  0.23904241  1
  O2-  O195  1  0.12725314  0.76176760  0.73059645  1
  O2-  O196  1  0.63330908  0.27062735  0.25576180  1
  O2-  O197  1  0.63290714  0.27710788  0.75386538  1
  O2-  O198  1  0.61617646  0.76822739  0.23569873  1
  O2-  O199  1  0.62980054  0.77445538  0.72108239  1
  O2-  O200  1  0.36491628  0.21545221  0.23964991  1
  O2-  O201  1  0.36130509  0.23533846  0.73823773  1
  O2-  O202  1  0.37378383  0.74229802  0.27419638  1
  O2-  O203  1  0.36226527  0.71966503  0.76040940  1
  O2-  O204  1  0.86613824  0.21512618  0.23976260  1
  O2-  O205  1  0.87072520  0.22382114  0.74043328  1
  O2-  O206  1  0.86469124  0.73760102  0.27815464  1
  O2-  O207  1  0.88284867  0.72690823  0.76732598  1
  O2-  O208  1  0.28135577  0.36589807  0.26022422  1
  O2-  O209  1  0.27263348  0.38279738  0.76232066  1
  O2-  O210  1  0.27176399  0.88270338  0.26677627  1
  O2-  O211  1  0.27067646  0.86343539  0.76145475  1
  O2-  O212  1  0.77794786  0.36562428  0.27272519  1
  O2-  O213  1  0.77949553  0.36730009  0.77344210  1
  O2-  O214  1  0.76032352  0.87782575  0.26898907  1
  O2-  O215  1  0.77468193  0.86436519  0.77174173  1
  O2-  O216  1  0.23065744  0.12162910  0.23389205  1
  O2-  O217  1  0.21417247  0.13888015  0.73733592  1
  O2-  O218  1  0.22901676  0.63917709  0.24385288  1
  O2-  O219  1  0.23013284  0.62057366  0.73375627  1
  O2-  O220  1  0.72772918  0.11750784  0.23078049  1
  O2-  O221  1  0.73038550  0.13341386  0.71641234  1
  O2-  O222  1  0.73225519  0.63603841  0.22691573  1
  O2-  O223  1  0.73345104  0.63475799  0.72411887  1
  O2-  O224  1  0.11611275  0.46881058  0.26119473  1
  O2-  O225  1  0.13153430  0.48832001  0.77418995  1
  O2-  O226  1  0.13076327  0.98053273  0.23374995  1
  O2-  O227  1  0.11845462  0.96806343  0.74119877  1
  O2-  O228  1  0.61132651  0.48830645  0.27083617  1
  O2-  O229  1  0.61405737  0.47957207  0.76814643  1
  O2-  O230  1  0.62629065  0.97918941  0.24651368  1
  O2-  O231  1  0.61552127  0.97677088  0.73872281  1
  O2-  O232  1  0.37802097  0.01761888  0.26229364  1
  O2-  O233  1  0.37957060  0.02675213  0.77058265  1
  O2-  O234  1  0.38418420  0.53541815  0.24052094  1
  O2-  O235  1  0.36945655  0.52354069  0.74154640  1
  O2-  O236  1  0.87311729  0.01366506  0.25775283  1
  O2-  O237  1  0.88549695  0.01626612  0.75545944  1
  O2-  O238  1  0.88617399  0.53469002  0.22895450  1
  O2-  O239  1  0.89079313  0.52986119  0.73538034  1
  O2-  O240  1  0.47163441  0.38926665  0.23504218  1
  O2-  O241  1  0.46793880  0.38993700  0.74052800  1
  O2-  O242  1  0.48135322  0.86990360  0.23588940  1
  O2-  O243  1  0.46879933  0.88321502  0.73166764  1
  O2-  O244  1  0.97434466  0.38506610  0.22938839  1
  O2-  O245  1  0.98139762  0.38745755  0.73523817  1
  O2-  O246  1  0.98344846  0.88340018  0.21693494  1
  O2-  O247  1  0.98640574  0.86183637  0.73536000  1
  O2-  O248  1  0.02186483  0.11105593  0.27651057  1
  O2-  O249  1  0.02640650  0.11472649  0.78131122  1
  O2-  O250  1  0.03455780  0.61637621  0.26003206  1
  O2-  O251  1  0.02500432  0.62559885  0.77002102  1
  O2-  O252  1  0.52148837  0.11406590  0.27672894  1
  O2-  O253  1  0.51944743  0.12001337  0.76630352  1
  O2-  O254  1  0.51601554  0.63079570  0.26792099  1
  O2-  O255  1  0.51176359  0.61462192  0.77664107  1
  O2-  O256  1  0.12565856  0.48260912  -0.01582607  1
  O2-  O257  1  0.14073352  0.47129137  0.48790794  1
  O2-  O258  1  0.13861578  0.99256738  0.03013682  1
  O2-  O259  1  0.14009799  0.97300319  0.50383541  1
  O2-  O260  1  0.62172353  0.48092682  -0.01537109  1
  O2-  O261  1  0.61324491  0.48051474  0.48895159  1
  O2-  O262  1  0.63377613  0.96209003  0.00374552  1
  O2-  O263  1  0.63220824  0.96672726  0.49740925  1
  O2-  O264  1  0.36480586  0.03690295  -0.00745402  1
  O2-  O265  1  0.36381968  0.01048796  0.46448488  1
  O2-  O266  1  0.37261253  0.51278461  0.01243647  1
  O2-  O267  1  0.37392152  0.51046391  0.52552865  1
  O2-  O268  1  0.86446041  0.03265509  -0.00501065  1
  O2-  O269  1  0.86599446  0.02944364  0.49103451  1
  O2-  O270  1  0.87823007  0.51728895  0.01242651  1
  O2-  O271  1  0.86799993  0.52155874  0.52041889  1
  O2-  O272  1  0.48324425  0.38367687  0.02344959  1
  O2-  O273  1  0.47623530  0.38027097  0.51863641  1
  O2-  O274  1  0.46646077  0.86457030  0.01751279  1
  O2-  O275  1  0.46944750  0.86020021  0.51824404  1
  O2-  O276  1  0.98396785  0.38146486  0.01641689  1
  O2-  O277  1  0.98445786  0.36471985  0.52459162  1
  O2-  O278  1  0.98080706  0.86365285  0.01736644  1
  O2-  O279  1  0.98672320  0.85886928  0.52925507  1
  O2-  O280  1  0.03026950  0.13627918  -0.01861393  1
  O2-  O281  1  0.03141069  0.13180668  0.48228603  1
  O2-  O282  1  0.01755501  0.61796942  -0.01750011  1
  O2-  O283  1  0.03732590  0.63391570  0.49268338  1
  O2-  O284  1  0.52161631  0.13795076  -0.01885239  1
  O2-  O285  1  0.51657383  0.13481929  0.47510445  1
  O2-  O286  1  0.51894782  0.61691127  -0.00813614  1
  O2-  O287  1  0.50838642  0.61850702  0.48329269  1
  O2-  O288  1  0.13324990  0.27747650  -0.00463147  1
  O2-  O289  1  0.13669299  0.26839659  0.48823285  1
  O2-  O290  1  0.11623771  0.76103627  0.01575500  1
  O2-  O291  1  0.13463094  0.76500957  0.51872171  1
  O2-  O292  1  0.61504785  0.28334707  -0.00851804  1
  O2-  O293  1  0.61153322  0.27905864  0.48396436  1
  O2-  O294  1  0.60905503  0.75885335  0.02952763  1
  O2-  O295  1  0.61066200  0.76349352  0.51631046  1
  O2-  O296  1  0.36988905  0.24194302  0.01272145  1
  O2-  O297  1  0.36775316  0.22269438  0.51181912  1
  O2-  O298  1  0.38548909  0.71302434  -0.00996492  1
  O2-  O299  1  0.36787533  0.72422324  0.48634639  1
  O2-  O300  1  0.88704238  0.23140146  0.00410261  1
  O2-  O301  1  0.88391804  0.22052149  0.51025390  1
  O2-  O302  1  0.88327825  0.72639608  -0.02332863  1
  O2-  O303  1  0.88722699  0.71903029  0.48183028  1
  O2-  O304  1  0.26731962  0.37474156  -0.02153420  1
  O2-  O305  1  0.27704269  0.37120030  0.49314554  1
  O2-  O306  1  0.27913118  0.88589795  -0.01029881  1
  O2-  O307  1  0.27246622  0.87137878  0.48921703  1
  O2-  O308  1  0.77121892  0.38380180  -0.02778203  1
  O2-  O309  1  0.76535480  0.38455918  0.47380295  1
  O2-  O310  1  0.78164579  0.88592167  -0.01456068  1
  O2-  O311  1  0.77437636  0.88331212  0.46467962  1
  O2-  O312  1  0.23087076  0.13741701  0.01380658  1
  O2-  O313  1  0.23028838  0.12533977  0.50515190  1
  O2-  O314  1  0.23052096  0.61158609  0.02095147  1
  O2-  O315  1  0.23407996  0.61950351  0.51635157  1
  O2-  O316  1  0.71920951  0.11314157  0.02854585  1
  O2-  O317  1  0.71551950  0.11146280  0.51307142  1
  O2-  O318  1  0.73329159  0.61349958  0.02893820  1
  O2-  O319  1  0.72266625  0.61576073  0.51858791  1
