# generated using pymatgen
data_Sr64Ca21Nb43O192
_symmetry_space_group_name_H-M   'P 1'
_cell_length_a   16.59266051
_cell_length_b   16.57002139
_cell_length_c   16.74191079
_cell_angle_alpha   89.94541694
_cell_angle_beta   90.02003330
_cell_angle_gamma   89.93586491
_symmetry_Int_Tables_number   1
_chemical_formula_structural   Sr64Ca21Nb43O192
_chemical_formula_sum   'Sr64 Ca21 Nb43 O192'
_cell_volume   4603.02807897
_cell_formula_units_Z   1
loop_
 _symmetry_equiv_pos_site_id
 _symmetry_equiv_pos_as_xyz
  1  'x, y, z'
loop_
 _atom_type_symbol
 _atom_type_oxidation_number
  Sr2+  2.0
  Ca2+  2.0
  Nb5+  5.0
  O2-  -2.0
loop_
 _atom_site_type_symbol
 _atom_site_label
 _atom_site_symmetry_multiplicity
 _atom_site_fract_x
 _atom_site_fract_y
 _atom_site_fract_z
 _atom_site_occupancy
  Sr2+  Sr0  1  0.12238002  0.14102711  0.12342651  1
  Sr2+  Sr1  1  0.11505242  0.10426446  0.62916939  1
  Sr2+  Sr2  1  0.11552612  0.63351018  0.12592351  1
  Sr2+  Sr3  1  0.12490747  0.62942105  0.62813050  1
  Sr2+  Sr4  1  0.60573039  0.11537569  0.12723681  1
  Sr2+  Sr5  1  0.61068292  0.13076219  0.62314683  1
  Sr2+  Sr6  1  0.62859807  0.63014592  0.12416789  1
  Sr2+  Sr7  1  0.62884589  0.62713193  0.62355659  1
  Sr2+  Sr8  1  0.36843484  0.36465528  0.12787283  1
  Sr2+  Sr9  1  0.36868515  0.38799537  0.62597685  1
  Sr2+  Sr10  1  0.37440933  0.87608354  0.12563051  1
  Sr2+  Sr11  1  0.36521453  0.85594888  0.62608243  1
  Sr2+  Sr12  1  0.87623808  0.38263285  0.12589538  1
  Sr2+  Sr13  1  0.87319142  0.37534171  0.62853850  1
  Sr2+  Sr14  1  0.87226494  0.87059579  0.12348508  1
  Sr2+  Sr15  1  0.87804623  0.88147324  0.61876405  1
  Sr2+  Sr16  1  0.13158954  0.36744697  0.37947665  1
  Sr2+  Sr17  1  0.14010077  0.37249016  0.87394694  1
  Sr2+  Sr18  1  0.13292418  0.87877820  0.37353974  1
  Sr2+  Sr19  1  0.13852383  0.88341426  0.86920346  1
  Sr2+  Sr20  1  0.62195579  0.36763373  0.37685236  1
  Sr2+  Sr21  1  0.63106200  0.36555075  0.86753684  1
  Sr2+  Sr22  1  0.63616255  0.88593974  0.36347949  1
  Sr2+  Sr23  1  0.61985270  0.88235394  0.87780086  1
  Sr2+  Sr24  1  0.40444251  0.12437727  0.37207536  1
  Sr2+  Sr25  1  0.39960090  0.12672714  0.87762983  1
  Sr2+  Sr26  1  0.38321439  0.63204254  0.37767175  1
  Sr2+  Sr27  1  0.38449438  0.61889720  0.87220874  1
  Sr2+  Sr28  1  0.85101751  0.12541736  0.37682858  1
  Sr2+  Sr29  1  0.85167080  0.13000052  0.87391512  1
  Sr2+  Sr30  1  0.87866185  0.62770819  0.38271671  1
  Sr2+  Sr31  1  0.87736217  0.62873570  0.88370431  1
  Sr2+  Sr32  1  0.12171230  0.12293786  0.37232493  1
  Sr2+  Sr33  1  0.12820855  0.12218952  0.87451404  1
  Sr2+  Sr34  1  0.13093839  0.63107843  0.37670976  1
  Sr2+  Sr35  1  0.12973310  0.62129459  0.87948749  1
  Sr2+  Sr36  1  0.62995405  0.12472676  0.37436281  1
  Sr2+  Sr37  1  0.62747335  0.12267167  0.87673109  1
  Sr2+  Sr38  1  0.63700832  0.61930402  0.38051739  1
  Sr2+  Sr39  1  0.63404686  0.63717719  0.87286015  1
  Sr2+  Sr40  1  0.38161112  0.35800549  0.37999314  1
  Sr2+  Sr41  1  0.37891525  0.36294894  0.87969863  1
  Sr2+  Sr42  1  0.37788910  0.88929810  0.37683814  1
  Sr2+  Sr43  1  0.38612430  0.88769728  0.86557517  1
  Sr2+  Sr44  1  0.87548782  0.36198606  0.37493467  1
  Sr2+  Sr45  1  0.88183126  0.36656857  0.87254737  1
  Sr2+  Sr46  1  0.88330084  0.89070843  0.37595697  1
  Sr2+  Sr47  1  0.87457535  0.89830265  0.87696015  1
  Sr2+  Sr48  1  0.12832651  0.37547076  0.12814402  1
  Sr2+  Sr49  1  0.12099406  0.38220446  0.62592060  1
  Sr2+  Sr50  1  0.12993287  0.87557484  0.12603900  1
  Sr2+  Sr51  1  0.12616390  0.86976202  0.62453160  1
  Sr2+  Sr52  1  0.60971196  0.39316091  0.12862432  1
  Sr2+  Sr53  1  0.60483604  0.38127530  0.62159531  1
  Sr2+  Sr54  1  0.60738071  0.86413492  0.12524116  1
  Sr2+  Sr55  1  0.60081204  0.86778080  0.62855236  1
  Sr2+  Sr56  1  0.36151153  0.11798742  0.12302040  1
  Sr2+  Sr57  1  0.37310180  0.12201380  0.62053343  1
  Sr2+  Sr58  1  0.39558331  0.62150270  0.12379774  1
  Sr2+  Sr59  1  0.40066964  0.62689341  0.62508227  1
  Sr2+  Sr60  1  0.87180275  0.13341889  0.11567704  1
  Sr2+  Sr61  1  0.86781379  0.11905058  0.63340262  1
  Sr2+  Sr62  1  0.86687786  0.62552800  0.12549880  1
  Sr2+  Sr63  1  0.89089425  0.62514106  0.62712372  1
  Ca2+  Ca64  1  0.49961346  0.49916300  0.49683444  1
  Ca2+  Ca65  1  0.49874359  -0.00049945  0.00242715  1
  Ca2+  Ca66  1  0.00033636  0.00202558  0.00096155  1
  Ca2+  Ca67  1  0.50151730  -0.00302273  0.50001247  1
  Ca2+  Ca68  1  0.50218792  0.49926954  -0.00378862  1
  Ca2+  Ca69  1  0.75136469  0.75367033  0.49940470  1
  Ca2+  Ca70  1  0.24829250  0.24874950  0.50378618  1
  Ca2+  Ca71  1  0.25081797  0.74628714  0.00084464  1
  Ca2+  Ca72  1  0.74829759  0.25731168  0.00424703  1
  Ca2+  Ca73  1  0.75077257  0.25394130  0.50373637  1
  Ca2+  Ca74  1  -0.00448765  0.75343859  0.75180680  1
  Ca2+  Ca75  1  0.25273821  0.00036703  0.74669721  1
  Ca2+  Ca76  1  0.00162413  0.25035622  0.75067494  1
  Ca2+  Ca77  1  0.24807351  -0.00148934  0.25251071  1
  Ca2+  Ca78  1  0.50106458  0.25018066  0.24530091  1
  Ca2+  Ca79  1  0.49944151  0.75176140  0.75219772  1
  Ca2+  Ca80  1  0.75325994  -0.00117037  0.24401103  1
  Ca2+  Ca81  1  0.49738228  0.25200003  0.74947664  1
  Ca2+  Ca82  1  0.50166867  0.74650929  0.25447597  1
  Ca2+  Ca83  1  0.24848952  0.50231243  0.25104496  1
  Ca2+  Ca84  1  0.74547136  -0.00369407  0.74678291  1
  Nb5+  Nb85  1  0.00143581  0.50038136  0.00711623  1
  Nb5+  Nb86  1  -0.00182621  0.49635135  0.50101527  1
  Nb5+  Nb87  1  0.00100294  -0.00238654  0.49858895  1
  Nb5+  Nb88  1  0.24768028  0.24685131  -0.00201456  1
  Nb5+  Nb89  1  0.25033412  0.74690592  0.49908990  1
  Nb5+  Nb90  1  0.75326362  0.75295100  -0.00098980  1
  Nb5+  Nb91  1  0.25409720  0.50354419  0.74940413  1
  Nb5+  Nb92  1  0.75590947  0.50401444  0.75668284  1
  Nb5+  Nb93  1  -0.00315686  0.75656684  0.25089598  1
  Nb5+  Nb94  1  0.75276890  0.49730884  0.25574861  1
  Nb5+  Nb95  1  -0.00071340  0.25534380  0.25029616  1
  Nb5+  Nb96  1  -0.00048939  0.00949975  0.24709371  1
  Nb5+  Nb97  1  0.00026451  -0.00055512  0.75549463  1
  Nb5+  Nb98  1  -0.00050829  0.50330940  0.25662465  1
  Nb5+  Nb99  1  0.00324860  0.50026746  0.75811092  1
  Nb5+  Nb100  1  0.50076085  -0.00392836  0.24845679  1
  Nb5+  Nb101  1  0.50012475  0.00361699  0.74578905  1
  Nb5+  Nb102  1  0.49425619  0.50141339  0.25324967  1
  Nb5+  Nb103  1  0.50972895  0.49924964  0.75361545  1
  Nb5+  Nb104  1  0.24961710  0.24648956  0.25580335  1
  Nb5+  Nb105  1  0.24887505  0.24868032  0.74572552  1
  Nb5+  Nb106  1  0.25443205  0.74501044  0.24904055  1
  Nb5+  Nb107  1  0.24893945  0.74618812  0.75738509  1
  Nb5+  Nb108  1  0.74648384  0.25166907  0.24263456  1
  Nb5+  Nb109  1  0.74735123  0.24868402  0.74706308  1
  Nb5+  Nb110  1  0.75465646  0.74845047  0.25249229  1
  Nb5+  Nb111  1  0.75130848  0.75461250  0.74743376  1
  Nb5+  Nb112  1  0.00029057  0.24296044  0.50212875  1
  Nb5+  Nb113  1  0.00308126  0.25120935  0.99586137  1
  Nb5+  Nb114  1  0.00244732  0.74696145  0.49913503  1
  Nb5+  Nb115  1  -0.00197543  0.75353037  0.99877403  1
  Nb5+  Nb116  1  0.49840904  0.24936946  0.50158749  1
  Nb5+  Nb117  1  0.50607667  0.25477745  1.00629312  1
  Nb5+  Nb118  1  0.50605622  0.75361795  0.49187060  1
  Nb5+  Nb119  1  0.49429419  0.74577321  0.99898053  1
  Nb5+  Nb120  1  0.25181693  -0.00840842  -0.00302230  1
  Nb5+  Nb121  1  0.24996800  0.00410902  0.50136378  1
  Nb5+  Nb122  1  0.25112140  0.50132608  0.00199239  1
  Nb5+  Nb123  1  0.25143261  0.50599846  0.49771534  1
  Nb5+  Nb124  1  0.74892790  0.00618115  0.00548153  1
  Nb5+  Nb125  1  0.74544354  -0.00333490  0.50350819  1
  Nb5+  Nb126  1  0.74981081  0.49810720  0.00187164  1
  Nb5+  Nb127  1  0.75123872  0.49822361  0.50954676  1
  O2-  O128  1  -0.02414226  0.00954381  0.13623280  1
  O2-  O129  1  -0.01847358  0.01153989  0.61654160  1
  O2-  O130  1  0.01431342  0.50221919  0.12425242  1
  O2-  O131  1  0.00861321  0.50190505  0.61746663  1
  O2-  O132  1  0.48077806  0.02474274  0.13400173  1
  O2-  O133  1  0.49443705  0.03051158  0.63051742  1
  O2-  O134  1  0.52086985  0.52440032  0.13436900  1
  O2-  O135  1  0.51856067  0.52347550  0.63406914  1
  O2-  O136  1  0.02402446  -0.00486790  0.38061522  1
  O2-  O137  1  0.02268754  -0.01600755  0.86683481  1
  O2-  O138  1  -0.02152955  0.49866761  0.37175080  1
  O2-  O139  1  -0.01498438  0.50267456  0.87296846  1
  O2-  O140  1  0.51879073  -0.02521582  0.36697047  1
  O2-  O141  1  0.50558488  -0.01878488  0.86794272  1
  O2-  O142  1  0.49208409  0.46635964  0.36539017  1
  O2-  O143  1  0.47697677  0.47831229  0.86363268  1
  O2-  O144  1  0.25668804  0.26394234  0.11895739  1
  O2-  O145  1  0.27832087  0.26721920  0.63677444  1
  O2-  O146  1  0.24473276  0.77322906  0.13674087  1
  O2-  O147  1  0.22956230  0.75752618  0.61777700  1
  O2-  O148  1  0.78979090  0.26164025  0.13472939  1
  O2-  O149  1  0.78391790  0.25818405  0.63530446  1
  O2-  O150  1  0.75383595  0.74978799  0.12512311  1
  O2-  O151  1  0.72632573  0.76102063  0.63548910  1
  O2-  O152  1  0.22178278  0.23802163  0.36691896  1
  O2-  O153  1  0.22089540  0.24400791  0.88124157  1
  O2-  O154  1  0.25480960  0.72092322  0.38056378  1
  O2-  O155  1  0.25782933  0.71667049  0.86722407  1
  O2-  O156  1  0.74034081  0.25357995  0.36187604  1
  O2-  O157  1  0.72345499  0.24344800  0.86884850  1
  O2-  O158  1  0.75923877  0.72015823  0.36391095  1
  O2-  O159  1  0.76396433  0.73294228  0.88396040  1
  O2-  O160  1  -0.01068955  0.24569963  0.12858458  1
  O2-  O161  1  -0.02318302  0.24451907  0.61325952  1
  O2-  O162  1  0.00281187  0.74180638  0.13044206  1
  O2-  O163  1  0.01688797  0.74819849  0.61323776  1
  O2-  O164  1  0.47023832  0.22491871  0.11477684  1
  O2-  O165  1  0.48521863  0.22153814  0.61685265  1
  O2-  O166  1  0.51329758  0.72504175  0.11806815  1
  O2-  O167  1  0.51884432  0.73044531  0.61327030  1
  O2-  O168  1  0.21700523  0.00573513  0.38855229  1
  O2-  O169  1  0.22667622  0.01047601  0.88128930  1
  O2-  O170  1  0.25667059  0.52671701  0.38599968  1
  O2-  O171  1  0.24965276  0.51775447  0.86981445  1
  O2-  O172  1  0.73255406  0.00745114  0.38221839  1
  O2-  O173  1  0.72628894  0.00094699  0.88594816  1
  O2-  O174  1  0.76875005  0.51306869  0.36902949  1
  O2-  O175  1  0.76323052  0.51998845  0.87277309  1
  O2-  O176  1  0.02353936  0.25758346  0.36745526  1
  O2-  O177  1  0.02033771  0.27202927  0.88524105  1
  O2-  O178  1  -0.01299483  0.75107413  0.37143326  1
  O2-  O179  1  -0.00990967  0.73946933  0.88634464  1
  O2-  O180  1  0.50964732  0.27166201  0.38043822  1
  O2-  O181  1  0.50922337  0.27414201  0.88719167  1
  O2-  O182  1  0.46354841  0.76665275  0.38396142  1
  O2-  O183  1  0.48961690  0.77559014  0.88500765  1
  O2-  O184  1  0.26534230  -0.01970574  0.11709783  1
  O2-  O185  1  0.26518857  -0.03194234  0.61253574  1
  O2-  O186  1  0.24351564  0.47757246  0.11395988  1
  O2-  O187  1  0.22879211  0.48933962  0.62956253  1
  O2-  O188  1  0.79049791  -0.00653167  0.11506735  1
  O2-  O189  1  0.78387463  -0.00466577  0.61519593  1
  O2-  O190  1  0.74381465  0.48797254  0.11945365  1
  O2-  O191  1  0.74170784  0.48884578  0.62573999  1
  O2-  O192  1  0.12111320  0.26595068  0.23149093  1
  O2-  O193  1  0.13631746  0.28733511  0.73875666  1
  O2-  O194  1  0.11358716  0.76763471  0.25799560  1
  O2-  O195  1  0.13163816  0.76866267  0.75847137  1
  O2-  O196  1  0.63746073  0.27855938  0.22458667  1
  O2-  O197  1  0.63520942  0.28172703  0.72772871  1
  O2-  O198  1  0.63986888  0.76605507  0.25338627  1
  O2-  O199  1  0.63710766  0.76305090  0.78002517  1
  O2-  O200  1  0.36399566  0.23119197  0.26669854  1
  O2-  O201  1  0.36020211  0.24221116  0.78433964  1
  O2-  O202  1  0.36451542  0.71500844  0.24246190  1
  O2-  O203  1  0.36159597  0.72654152  0.72660318  1
  O2-  O204  1  0.88572857  0.22928779  0.26790295  1
  O2-  O205  1  0.86499941  0.24607574  0.77983941  1
  O2-  O206  1  0.87973645  0.71962102  0.24395128  1
  O2-  O207  1  0.86053375  0.71100440  0.74502515  1
  O2-  O208  1  0.26498037  0.36549136  0.26065195  1
  O2-  O209  1  0.26622339  0.38663783  0.76539797  1
  O2-  O210  1  0.26028077  0.85825876  0.28182837  1
  O2-  O211  1  0.26891481  0.86127577  0.76984661  1
  O2-  O212  1  0.78003597  0.38046443  0.25366021  1
  O2-  O213  1  0.76514986  0.38605259  0.76469229  1
  O2-  O214  1  0.78150251  0.86012317  0.26140070  1
  O2-  O215  1  0.78315504  0.86327438  0.76124541  1
  O2-  O216  1  0.22920627  0.13298141  0.22651314  1
  O2-  O217  1  0.22300290  0.13740926  0.73482810  1
  O2-  O218  1  0.20951392  0.63522734  0.24122930  1
  O2-  O219  1  0.21928420  0.62020085  0.73995773  1
  O2-  O220  1  0.73499796  0.13623953  0.23859815  1
  O2-  O221  1  0.73067684  0.13434064  0.73813742  1
  O2-  O222  1  0.74124366  0.61519900  0.23153011  1
  O2-  O223  1  0.72098663  0.61744855  0.74116289  1
  O2-  O224  1  0.11053987  0.47204097  0.26169120  1
  O2-  O225  1  0.11796280  0.48252776  0.76141136  1
  O2-  O226  1  0.10996337  0.97001886  0.24038939  1
  O2-  O227  1  0.11566738  0.97689619  0.72533875  1
  O2-  O228  1  0.63877261  0.47621120  0.26161946  1
  O2-  O229  1  0.62520629  0.48209549  0.76606189  1
  O2-  O230  1  0.62047864  0.97689221  0.22710429  1
  O2-  O231  1  0.61541533  0.96599230  0.73723903  1
  O2-  O232  1  0.38258700  0.01046989  0.27350008  1
  O2-  O233  1  0.38283182  0.03181695  0.76021090  1
  O2-  O234  1  0.38345717  0.52852436  0.24363866  1
  O2-  O235  1  0.36661329  0.52240796  0.73462042  1
  O2-  O236  1  0.88870571  0.01235645  0.28417994  1
  O2-  O237  1  0.88376589  0.02894113  0.76736341  1
  O2-  O238  1  0.88004914  0.51016874  0.22829328  1
  O2-  O239  1  0.87012031  0.51944099  0.73818738  1
  O2-  O240  1  0.48743320  0.38584209  0.21976415  1
  O2-  O241  1  0.48146522  0.38770295  0.72214354  1
  O2-  O242  1  0.48351322  0.87836949  0.22551567  1
  O2-  O243  1  0.47000990  0.88466069  0.72725803  1
  O2-  O244  1  0.97909323  0.37238010  0.24535320  1
  O2-  O245  1  0.97512063  0.38855878  0.73776322  1
  O2-  O246  1  0.97356583  0.86954808  0.24546044  1
  O2-  O247  1  0.96920415  0.88542949  0.73691453  1
  O2-  O248  1  0.02439416  0.12448916  0.25262466  1
  O2-  O249  1  0.02748888  0.11750112  0.75124917  1
  O2-  O250  1  0.01702392  0.61878982  0.25537729  1
  O2-  O251  1  0.01102759  0.61466403  0.73758260  1
  O2-  O252  1  0.52613721  0.11607919  0.26820852  1
  O2-  O253  1  0.53123312  0.11928512  0.76873897  1
  O2-  O254  1  0.52984030  0.61211869  0.27947717  1
  O2-  O255  1  0.50733893  0.61644260  0.77474822  1
  O2-  O256  1  0.11614424  0.47981005  -0.01676264  1
  O2-  O257  1  0.11512772  0.48624314  0.48361780  1
  O2-  O258  1  0.13385494  0.97714135  0.01623868  1
  O2-  O259  1  0.12045487  0.98461313  0.52312034  1
  O2-  O260  1  0.63892932  0.47363269  -0.01631621  1
  O2-  O261  1  0.63963763  0.47774913  0.48409791  1
  O2-  O262  1  0.63703786  0.97598515  0.02822317  1
  O2-  O263  1  0.63655213  0.96998340  0.52348559  1
  O2-  O264  1  0.36307975  0.03239616  -0.01076377  1
  O2-  O265  1  0.36299526  0.01516667  0.47636688  1
  O2-  O266  1  0.36276218  0.52773007  0.00119108  1
  O2-  O267  1  0.36192363  0.52239556  0.52220712  1
  O2-  O268  1  0.86665352  0.01744296  -0.02966923  1
  O2-  O269  1  0.88710937  0.01952742  0.47816321  1
  O2-  O270  1  0.88136831  0.52249254  0.00904431  1
  O2-  O271  1  0.87939405  0.52808319  0.50866403  1
  O2-  O272  1  0.47052654  0.36868365  0.02163381  1
  O2-  O273  1  0.47416457  0.36744631  0.52322457  1
  O2-  O274  1  0.48760196  0.86300527  0.02616261  1
  O2-  O275  1  0.47399102  0.86350879  0.52445483  1
  O2-  O276  1  0.97953473  0.38099496  0.00929111  1
  O2-  O277  1  0.97750162  0.38173030  0.49947136  1
  O2-  O278  1  0.96961961  0.86458720  0.00700216  1
  O2-  O279  1  0.98716815  0.87663703  0.50073383  1
  O2-  O280  1  0.02844078  0.13803822  -0.00212857  1
  O2-  O281  1  0.02636234  0.12789432  0.49427686  1
  O2-  O282  1  0.01846802  0.62053287  0.00142797  1
  O2-  O283  1  0.01634269  0.62636533  0.49090220  1
  O2-  O284  1  0.52197222  0.13648249  -0.01799556  1
  O2-  O285  1  0.52538896  0.13210444  0.47841629  1
  O2-  O286  1  0.52806008  0.63317924  -0.02429644  1
  O2-  O287  1  0.51048319  0.63372763  0.47530658  1
  O2-  O288  1  0.12318343  0.27554304  0.01957256  1
  O2-  O289  1  0.11150207  0.28195422  0.51019278  1
  O2-  O290  1  0.11329901  0.77064673  0.00214456  1
  O2-  O291  1  0.12144366  0.76345084  0.47850670  1
  O2-  O292  1  0.61574043  0.27699336  0.03062656  1
  O2-  O293  1  0.61710385  0.27588275  0.51545099  1
  O2-  O294  1  0.63609607  0.76517224  -0.00373052  1
  O2-  O295  1  0.61633521  0.77460324  0.46997802  1
  O2-  O296  1  0.36239126  0.23826111  -0.01758592  1
  O2-  O297  1  0.38052058  0.22995295  0.47806879  1
  O2-  O298  1  0.38315367  0.71712591  0.00806573  1
  O2-  O299  1  0.36335403  0.72625530  0.51544576  1
  O2-  O300  1  0.88760462  0.23239083  -0.01395547  1
  O2-  O301  1  0.88935251  0.23951210  0.46671279  1
  O2-  O302  1  0.87571251  0.72360205  0.01233712  1
  O2-  O303  1  0.88686539  0.73166810  0.50915533  1
  O2-  O304  1  0.25885860  0.37917276  -0.02075004  1
  O2-  O305  1  0.25925072  0.38941088  0.48645695  1
  O2-  O306  1  0.27774134  0.88021949  -0.02388608  1
  O2-  O307  1  0.25886156  0.86355061  0.48110933  1
  O2-  O308  1  0.78560765  0.38885835  -0.01536804  1
  O2-  O309  1  0.78704062  0.38833106  0.49272826  1
  O2-  O310  1  0.77572477  0.86681299  -0.00487600  1
  O2-  O311  1  0.78467225  0.88450896  0.48607351  1
  O2-  O312  1  0.22553530  0.13269259  0.01224533  1
  O2-  O313  1  0.23211370  0.11431164  0.52986100  1
  O2-  O314  1  0.21184919  0.61142068  0.01065427  1
  O2-  O315  1  0.21625868  0.62425111  0.51294918  1
  O2-  O316  1  0.73134786  0.12006051  0.01575616  1
  O2-  O317  1  0.73858908  0.11700401  0.50565400  1
  O2-  O318  1  0.73784467  0.62080763  0.00927656  1
  O2-  O319  1  0.73250295  0.61585103  0.50779888  1
