# generated using pymatgen
data_Sr64Ca21Nb43O192
_symmetry_space_group_name_H-M   'P 1'
_cell_length_a   16.58551041
_cell_length_b   16.59533801
_cell_length_c   16.73132873
_cell_angle_alpha   89.99307551
_cell_angle_beta   89.92402645
_cell_angle_gamma   90.02831698
_symmetry_Int_Tables_number   1
_chemical_formula_structural   Sr64Ca21Nb43O192
_chemical_formula_sum   'Sr64 Ca21 Nb43 O192'
_cell_volume   4605.16227029
_cell_formula_units_Z   1
loop_
 _symmetry_equiv_pos_site_id
 _symmetry_equiv_pos_as_xyz
  1  'x, y, z'
loop_
 _atom_type_symbol
 _atom_type_oxidation_number
  Sr2+  2.0
  Ca2+  2.0
  Nb5+  5.0
  O2-  -2.0
loop_
 _atom_site_type_symbol
 _atom_site_label
 _atom_site_symmetry_multiplicity
 _atom_site_fract_x
 _atom_site_fract_y
 _atom_site_fract_z
 _atom_site_occupancy
  Sr2+  Sr0  1  0.13065446  0.13541171  0.12852090  1
  Sr2+  Sr1  1  0.12939601  0.12761877  0.62554379  1
  Sr2+  Sr2  1  0.12563090  0.63679750  0.11710183  1
  Sr2+  Sr3  1  0.13908844  0.63772788  0.62585416  1
  Sr2+  Sr4  1  0.63566660  0.12779493  0.11448823  1
  Sr2+  Sr5  1  0.62606968  0.13441281  0.62083766  1
  Sr2+  Sr6  1  0.63116158  0.63630323  0.12634444  1
  Sr2+  Sr7  1  0.63503458  0.63358525  0.63124180  1
  Sr2+  Sr8  1  0.37805423  0.38787328  0.11711273  1
  Sr2+  Sr9  1  0.38101043  0.38092813  0.63706195  1
  Sr2+  Sr10  1  0.38671041  0.87534896  0.12273069  1
  Sr2+  Sr11  1  0.37969394  0.88903766  0.62120123  1
  Sr2+  Sr12  1  0.88465247  0.39221267  0.12484255  1
  Sr2+  Sr13  1  0.87990007  0.38511958  0.61334858  1
  Sr2+  Sr14  1  0.88031823  0.87186227  0.12901549  1
  Sr2+  Sr15  1  0.88176884  0.88423709  0.62761904  1
  Sr2+  Sr16  1  0.10743915  0.37227258  0.37199780  1
  Sr2+  Sr17  1  0.11895475  0.37121687  0.87023598  1
  Sr2+  Sr18  1  0.12043974  0.86610564  0.37762792  1
  Sr2+  Sr19  1  0.11814040  0.87437019  0.87109183  1
  Sr2+  Sr20  1  0.61847900  0.36388206  0.37221371  1
  Sr2+  Sr21  1  0.60118927  0.36753470  0.87540909  1
  Sr2+  Sr22  1  0.61066259  0.87096442  0.37431867  1
  Sr2+  Sr23  1  0.61409973  0.87147238  0.87394575  1
  Sr2+  Sr24  1  0.36869004  0.10920910  0.37403358  1
  Sr2+  Sr25  1  0.36828257  0.11931166  0.88500853  1
  Sr2+  Sr26  1  0.36737057  0.62309510  0.37483956  1
  Sr2+  Sr27  1  0.36325784  0.61647054  0.87614419  1
  Sr2+  Sr28  1  0.86416754  0.12005974  0.37573727  1
  Sr2+  Sr29  1  0.86385772  0.12101965  0.87178646  1
  Sr2+  Sr30  1  0.86505734  0.61577945  0.37888014  1
  Sr2+  Sr31  1  0.85922617  0.61339176  0.87132219  1
  Sr2+  Sr32  1  0.11454846  0.11858341  0.36670108  1
  Sr2+  Sr33  1  0.12191904  0.11937395  0.87781518  1
  Sr2+  Sr34  1  0.12579120  0.62109423  0.38355089  1
  Sr2+  Sr35  1  0.11380677  0.61313702  0.86998827  1
  Sr2+  Sr36  1  0.62316895  0.11573723  0.37288164  1
  Sr2+  Sr37  1  0.61891679  0.11681547  0.87229062  1
  Sr2+  Sr38  1  0.60895568  0.61277738  0.37187001  1
  Sr2+  Sr39  1  0.62294181  0.61447714  0.87583023  1
  Sr2+  Sr40  1  0.36793646  0.36461061  0.37375468  1
  Sr2+  Sr41  1  0.36273594  0.36297292  0.87914058  1
  Sr2+  Sr42  1  0.37206687  0.86229556  0.37208461  1
  Sr2+  Sr43  1  0.36842512  0.87138522  0.87910841  1
  Sr2+  Sr44  1  0.86639590  0.36073908  0.37374338  1
  Sr2+  Sr45  1  0.87426379  0.36882963  0.87309812  1
  Sr2+  Sr46  1  0.86337537  0.86976722  0.37791424  1
  Sr2+  Sr47  1  0.86680473  0.85337122  0.87219877  1
  Sr2+  Sr48  1  0.13419777  0.38015191  0.12561930  1
  Sr2+  Sr49  1  0.13800554  0.38127818  0.62841791  1
  Sr2+  Sr50  1  0.13260182  0.88503550  0.12221406  1
  Sr2+  Sr51  1  0.12698068  0.87793728  0.62254541  1
  Sr2+  Sr52  1  0.63635943  0.39059875  0.12900756  1
  Sr2+  Sr53  1  0.63039658  0.38117497  0.61502894  1
  Sr2+  Sr54  1  0.64302313  0.87729941  0.12458245  1
  Sr2+  Sr55  1  0.63288732  0.88422634  0.63358155  1
  Sr2+  Sr56  1  0.37529638  0.13710576  0.11933747  1
  Sr2+  Sr57  1  0.38683140  0.12736558  0.62158869  1
  Sr2+  Sr58  1  0.39446635  0.62945173  0.12315262  1
  Sr2+  Sr59  1  0.38147506  0.63170155  0.63124195  1
  Sr2+  Sr60  1  0.88494168  0.12197722  0.12953956  1
  Sr2+  Sr61  1  0.87579639  0.13054347  0.62111395  1
  Sr2+  Sr62  1  0.86864035  0.62877772  0.10984006  1
  Sr2+  Sr63  1  0.88273036  0.63213071  0.63243440  1
  Ca2+  Ca64  1  0.00019406  0.50088866  0.50209709  1
  Ca2+  Ca65  1  0.49792687  0.50086994  -0.00174556  1
  Ca2+  Ca66  1  0.49878974  0.49891399  0.50173013  1
  Ca2+  Ca67  1  0.50017216  -0.00114209  0.00468357  1
  Ca2+  Ca68  1  -0.00227631  0.00231680  0.00009456  1
  Ca2+  Ca69  1  0.74848842  0.75147764  -0.00227346  1
  Ca2+  Ca70  1  0.74787524  0.75239260  0.50175814  1
  Ca2+  Ca71  1  0.24877159  0.74714904  -0.00046938  1
  Ca2+  Ca72  1  0.75070042  0.25192908  -0.00086618  1
  Ca2+  Ca73  1  0.24689568  0.24850668  0.49833826  1
  Ca2+  Ca74  1  0.24955744  0.50222094  0.24910412  1
  Ca2+  Ca75  1  0.49713329  0.74931710  0.74762091  1
  Ca2+  Ca76  1  0.00249063  0.74971182  0.75122950  1
  Ca2+  Ca77  1  0.74968961  0.49453375  0.74803226  1
  Ca2+  Ca78  1  0.25070204  -0.00145236  0.24861368  1
  Ca2+  Ca79  1  0.75138772  0.00063014  0.74760541  1
  Ca2+  Ca80  1  0.49620371  0.24873333  0.75143223  1
  Ca2+  Ca81  1  0.75364141  0.49960267  0.25165697  1
  Ca2+  Ca82  1  0.50078015  0.24472485  0.24654475  1
  Ca2+  Ca83  1  0.25170548  0.00351782  0.74832749  1
  Ca2+  Ca84  1  0.00037464  0.74765180  0.25169943  1
  Nb5+  Nb85  1  -0.00552777  0.00055346  0.49960494  1
  Nb5+  Nb86  1  0.49645322  -0.00046849  0.49916016  1
  Nb5+  Nb87  1  0.00171979  0.50003014  -0.00068774  1
  Nb5+  Nb88  1  0.25299562  0.75227577  0.49990865  1
  Nb5+  Nb89  1  0.24437290  0.24904809  -0.00003567  1
  Nb5+  Nb90  1  0.74741652  0.24881188  0.50089541  1
  Nb5+  Nb91  1  -0.00445497  0.25219767  0.24201383  1
  Nb5+  Nb92  1  0.75071867  0.00034889  0.25021354  1
  Nb5+  Nb93  1  -0.00126545  0.25071146  0.74202430  1
  Nb5+  Nb94  1  0.50150791  0.74939663  0.25060076  1
  Nb5+  Nb95  1  0.24854596  0.50190350  0.75024579  1
  Nb5+  Nb96  1  -0.00209609  -0.00515351  0.25413346  1
  Nb5+  Nb97  1  -0.00198533  0.00159128  0.75459708  1
  Nb5+  Nb98  1  0.00567195  0.50836314  0.25104209  1
  Nb5+  Nb99  1  0.00119872  0.49764800  0.74535115  1
  Nb5+  Nb100  1  0.50201234  -0.00013326  0.24598052  1
  Nb5+  Nb101  1  0.49758651  0.00336270  0.75619926  1
  Nb5+  Nb102  1  0.49649396  0.49090093  0.25329170  1
  Nb5+  Nb103  1  0.50384610  0.49823143  0.75070602  1
  Nb5+  Nb104  1  0.25061182  0.25202876  0.25393797  1
  Nb5+  Nb105  1  0.24841534  0.24642230  0.74919358  1
  Nb5+  Nb106  1  0.25004839  0.74929745  0.24587774  1
  Nb5+  Nb107  1  0.25356114  0.75909358  0.75043057  1
  Nb5+  Nb108  1  0.75197575  0.24763695  0.24452688  1
  Nb5+  Nb109  1  0.74339389  0.25696393  0.75259783  1
  Nb5+  Nb110  1  0.75048216  0.74537656  0.25915765  1
  Nb5+  Nb111  1  0.74787982  0.74987670  0.74858010  1
  Nb5+  Nb112  1  -0.00036998  0.24862490  0.49506199  1
  Nb5+  Nb113  1  0.00016973  0.24895656  0.99089629  1
  Nb5+  Nb114  1  -0.00006300  0.74677399  0.50047957  1
  Nb5+  Nb115  1  -0.00133097  0.75424058  0.99845675  1
  Nb5+  Nb116  1  0.49229949  0.24810386  0.49277858  1
  Nb5+  Nb117  1  0.50396180  0.25210925  1.00729296  1
  Nb5+  Nb118  1  0.50320360  0.75054127  0.50364951  1
  Nb5+  Nb119  1  0.50312150  0.74677484  0.99296312  1
  Nb5+  Nb120  1  0.24959042  -0.00524083  0.00280200  1
  Nb5+  Nb121  1  0.24169692  0.00054081  0.49468126  1
  Nb5+  Nb122  1  0.24403788  0.50212078  0.00027839  1
  Nb5+  Nb123  1  0.25590968  0.49513598  0.49962838  1
  Nb5+  Nb124  1  0.75468629  -0.00224932  -0.00863500  1
  Nb5+  Nb125  1  0.74466546  0.00015886  0.49950809  1
  Nb5+  Nb126  1  0.74464888  0.49476172  -0.00308684  1
  Nb5+  Nb127  1  0.74666346  0.50628229  0.49675698  1
  O2-  O128  1  0.00425393  -0.01875155  0.13937688  1
  O2-  O129  1  0.01071972  -0.01461414  0.61625573  1
  O2-  O130  1  0.01813604  0.48267150  0.11747695  1
  O2-  O131  1  0.01323899  0.46557679  0.63524096  1
  O2-  O132  1  0.51694189  -0.03439487  0.13803018  1
  O2-  O133  1  0.51157933  -0.01946288  0.61477705  1
  O2-  O134  1  0.51414787  0.47935498  0.13493891  1
  O2-  O135  1  0.50582226  0.46325621  0.63462137  1
  O2-  O136  1  -0.01008921  0.02542105  0.37995265  1
  O2-  O137  1  -0.00801075  0.03421642  0.86406028  1
  O2-  O138  1  -0.01111342  0.52044195  0.36475132  1
  O2-  O139  1  -0.00827368  0.50722047  0.87495652  1
  O2-  O140  1  0.49720916  0.01697786  0.37621321  1
  O2-  O141  1  0.48960361  0.02642712  0.86866687  1
  O2-  O142  1  0.48359567  0.52710253  0.36647029  1
  O2-  O143  1  0.48672811  0.53436616  0.86383312  1
  O2-  O144  1  0.25185397  0.23230217  0.12046708  1
  O2-  O145  1  0.26472146  0.22801719  0.63582492  1
  O2-  O146  1  0.26507757  0.71577505  0.13718245  1
  O2-  O147  1  0.26759714  0.73408662  0.61975183  1
  O2-  O148  1  0.76851946  0.21760019  0.13556320  1
  O2-  O149  1  0.75832031  0.22479453  0.61883049  1
  O2-  O150  1  0.76012691  0.73807917  0.14047305  1
  O2-  O151  1  0.76462390  0.71827658  0.63114411  1
  O2-  O152  1  0.22992271  0.28304174  0.36397698  1
  O2-  O153  1  0.22773962  0.26680747  0.87991181  1
  O2-  O154  1  0.24166616  0.77460111  0.38188542  1
  O2-  O155  1  0.23851765  0.78041016  0.86382294  1
  O2-  O156  1  0.74338804  0.26230505  0.37897509  1
  O2-  O157  1  0.73481707  0.28528591  0.86400166  1
  O2-  O158  1  0.73365310  0.78642696  0.36801454  1
  O2-  O159  1  0.73302733  0.78111862  0.86483936  1
  O2-  O160  1  -0.02410891  0.26310250  0.12912795  1
  O2-  O161  1  -0.02336917  0.26139317  0.62848880  1
  O2-  O162  1  -0.03004811  0.74609325  0.11661269  1
  O2-  O163  1  -0.00961815  0.77943940  0.61386632  1
  O2-  O164  1  0.46139093  0.26548465  0.11802801  1
  O2-  O165  1  0.47912443  0.25591376  0.61122961  1
  O2-  O166  1  0.48168987  0.76295264  0.13624956  1
  O2-  O167  1  0.46893521  0.76845521  0.61207254  1
  O2-  O168  1  0.27521083  -0.01987264  0.38350224  1
  O2-  O169  1  0.27035365  -0.00877343  0.88390017  1
  O2-  O170  1  0.27816146  0.48583787  0.38659102  1
  O2-  O171  1  0.26166724  0.48095609  0.86920572  1
  O2-  O172  1  0.76767515  -0.00767523  0.37828015  1
  O2-  O173  1  0.77647930  -0.02033510  0.88098721  1
  O2-  O174  1  0.78449487  0.48326878  0.38519474  1
  O2-  O175  1  0.77750099  0.48140245  0.88424328  1
  O2-  O176  1  0.01586454  0.23555264  0.38034548  1
  O2-  O177  1  0.02615039  0.23980713  0.87801580  1
  O2-  O178  1  0.03329054  0.74205292  0.38725698  1
  O2-  O179  1  0.03631871  0.74271956  0.88542433  1
  O2-  O180  1  0.52839347  0.22955330  0.38190298  1
  O2-  O181  1  0.51932402  0.22993524  0.88896225  1
  O2-  O182  1  0.51564861  0.74177083  0.37757717  1
  O2-  O183  1  0.52779046  0.73423888  0.88222050  1
  O2-  O184  1  0.21991454  0.01523657  0.11685325  1
  O2-  O185  1  0.24163594  0.02108680  0.60991396  1
  O2-  O186  1  0.21935680  0.51438132  0.11156887  1
  O2-  O187  1  0.22697064  0.51150051  0.63051479  1
  O2-  O188  1  0.73962882  0.01977839  0.13683302  1
  O2-  O189  1  0.73619123  0.02573147  0.61194532  1
  O2-  O190  1  0.73481141  0.52155693  0.11622047  1
  O2-  O191  1  0.71987904  0.50551658  0.61360436  1
  O2-  O192  1  0.11383342  0.26802497  0.23674816  1
  O2-  O193  1  0.12104345  0.27195049  0.73388201  1
  O2-  O194  1  0.13782033  0.77909742  0.23633259  1
  O2-  O195  1  0.13822322  0.76142539  0.72424578  1
  O2-  O196  1  0.63868012  0.26935619  0.23531399  1
  O2-  O197  1  0.63284248  0.27429624  0.72797138  1
  O2-  O198  1  0.62264113  0.77141242  0.24009990  1
  O2-  O199  1  0.63060404  0.76642198  0.72486469  1
  O2-  O200  1  0.36209237  0.22577897  0.27088710  1
  O2-  O201  1  0.35964606  0.23567696  0.77864114  1
  O2-  O202  1  0.38257342  0.73490208  0.27074607  1
  O2-  O203  1  0.36277585  0.71767210  0.76455321  1
  O2-  O204  1  0.87913903  0.22933243  0.27189057  1
  O2-  O205  1  0.88591933  0.23307463  0.77158116  1
  O2-  O206  1  0.86515506  0.73390944  0.27860156  1
  O2-  O207  1  0.86853056  0.73028826  0.76884122  1
  O2-  O208  1  0.26712408  0.36420598  0.21932792  1
  O2-  O209  1  0.25850327  0.37279414  0.73407532  1
  O2-  O210  1  0.28312458  0.86356532  0.23326291  1
  O2-  O211  1  0.27618299  0.86834077  0.72683223  1
  O2-  O212  1  0.77920992  0.36104530  0.23616108  1
  O2-  O213  1  0.78526820  0.36128558  0.72149406  1
  O2-  O214  1  0.77230325  0.88437629  0.23659314  1
  O2-  O215  1  0.76962672  0.86668704  0.71950211  1
  O2-  O216  1  0.21987619  0.13675007  0.26045489  1
  O2-  O217  1  0.21750368  0.13627313  0.76724742  1
  O2-  O218  1  0.23795826  0.63755447  0.28588848  1
  O2-  O219  1  0.22857802  0.61766725  0.76545945  1
  O2-  O220  1  0.73933495  0.12431670  0.27394850  1
  O2-  O221  1  0.74146618  0.13939087  0.77326655  1
  O2-  O222  1  0.72803088  0.63472611  0.27858809  1
  O2-  O223  1  0.72861872  0.63096293  0.77271191  1
  O2-  O224  1  0.11530140  0.46399973  0.25904517  1
  O2-  O225  1  0.12563311  0.47907456  0.76475997  1
  O2-  O226  1  0.11248455  0.98393441  0.27373002  1
  O2-  O227  1  0.11521617  0.97994107  0.75022566  1
  O2-  O228  1  0.61726288  0.48107973  0.26870923  1
  O2-  O229  1  0.61550962  0.47751976  0.77060827  1
  O2-  O230  1  0.63463724  0.98161953  0.27038421  1
  O2-  O231  1  0.61619344  0.97721966  0.76110674  1
  O2-  O232  1  0.38947706  0.02509974  0.23782409  1
  O2-  O233  1  0.38440355  0.02712194  0.72821227  1
  O2-  O234  1  0.38349838  0.52088010  0.22712063  1
  O2-  O235  1  0.36458142  0.51336495  0.73376821  1
  O2-  O236  1  0.87451905  0.02326023  0.24886018  1
  O2-  O237  1  0.88684320  0.02451053  0.72424305  1
  O2-  O238  1  0.89155784  0.51967771  0.22161970  1
  O2-  O239  1  0.88686677  0.51696915  0.73713195  1
  O2-  O240  1  0.47805206  0.37926048  0.27563091  1
  O2-  O241  1  0.47115130  0.38391591  0.77754784  1
  O2-  O242  1  0.48956885  0.87584307  0.27387982  1
  O2-  O243  1  0.47244095  0.88598169  0.76659063  1
  O2-  O244  1  0.97795883  0.36781901  0.26772801  1
  O2-  O245  1  0.98931637  0.36952175  0.77094033  1
  O2-  O246  1  0.97278330  0.88437630  0.27384800  1
  O2-  O247  1  0.97740487  0.88823572  0.77153468  1
  O2-  O248  1  0.01288849  0.12902015  0.23768575  1
  O2-  O249  1  0.02247885  0.13317714  0.73192376  1
  O2-  O250  1  0.04066087  0.61609209  0.23764229  1
  O2-  O251  1  0.02505407  0.61122353  0.73118459  1
  O2-  O252  1  0.53672683  0.11003965  0.23204793  1
  O2-  O253  1  0.52547229  0.11699341  0.72639690  1
  O2-  O254  1  0.52181697  0.63349224  0.23793529  1
  O2-  O255  1  0.51113165  0.61211165  0.71455256  1
  O2-  O256  1  0.12237832  0.47586284  -0.02139589  1
  O2-  O257  1  0.13716501  0.49008106  0.48135909  1
  O2-  O258  1  0.13131813  0.97750352  -0.02106919  1
  O2-  O259  1  0.12509314  0.98133571  0.48539962  1
  O2-  O260  1  0.63254497  0.47376459  -0.02119013  1
  O2-  O261  1  0.63468605  0.46982641  0.47528729  1
  O2-  O262  1  0.63584552  0.97592269  -0.00945212  1
  O2-  O263  1  0.62834613  0.98636299  0.48471370  1
  O2-  O264  1  0.36300850  0.02905149  0.01805543  1
  O2-  O265  1  0.38013130  0.01761270  0.50964173  1
  O2-  O266  1  0.35956330  0.51495170  0.01342250  1
  O2-  O267  1  0.36510656  0.53002828  0.52460912  1
  O2-  O268  1  0.86569318  0.03299835  0.01601799  1
  O2-  O269  1  0.87884419  0.01981738  0.50993269  1
  O2-  O270  1  0.88475635  0.51267388  0.01269219  1
  O2-  O271  1  0.86444721  0.51966607  0.52843709  1
  O2-  O272  1  0.47494402  0.36541768  -0.02090769  1
  O2-  O273  1  0.48283405  0.36207099  0.47505217  1
  O2-  O274  1  0.47433672  0.86401074  -0.01516714  1
  O2-  O275  1  0.48292298  0.88242141  0.47836316  1
  O2-  O276  1  0.98428218  0.37230120  -0.01024114  1
  O2-  O277  1  0.97873948  0.36314142  0.48169255  1
  O2-  O278  1  0.97405862  0.86644911  -0.01251493  1
  O2-  O279  1  0.98606192  0.88370905  0.47910827  1
  O2-  O280  1  0.01925790  0.13910905  0.02338247  1
  O2-  O281  1  0.01660843  0.12351665  0.51609643  1
  O2-  O282  1  0.02359126  0.61526471  0.00685198  1
  O2-  O283  1  0.02023171  0.63606710  0.52563798  1
  O2-  O284  1  0.50936849  0.13412213  0.02837238  1
  O2-  O285  1  0.51745308  0.11940478  0.51334875  1
  O2-  O286  1  0.52012923  0.63303375  0.02742926  1
  O2-  O287  1  0.52426484  0.63781653  0.51486111  1
  O2-  O288  1  0.12183105  0.27155100  0.01740078  1
  O2-  O289  1  0.11130053  0.26408371  0.52531914  1
  O2-  O290  1  0.11476741  0.76557740  0.03374047  1
  O2-  O291  1  0.13286167  0.76959661  0.51598816  1
  O2-  O292  1  0.61477002  0.27301130  0.03145629  1
  O2-  O293  1  0.62970022  0.25994297  0.51445960  1
  O2-  O294  1  0.61536832  0.77125137  0.02566849  1
  O2-  O295  1  0.61295475  0.78378878  0.51814774  1
  O2-  O296  1  0.36108864  0.23363857  -0.01572301  1
  O2-  O297  1  0.38127285  0.22364350  0.47240339  1
  O2-  O298  1  0.38417604  0.72268431  -0.01181935  1
  O2-  O299  1  0.37372617  0.74212681  0.47906248  1
  O2-  O300  1  0.88602021  0.23522904  -0.02741643  1
  O2-  O301  1  0.87660905  0.22737414  0.49204471  1
  O2-  O302  1  0.88623591  0.72080101  -0.02627569  1
  O2-  O303  1  0.88686678  0.73456745  0.47812534  1
  O2-  O304  1  0.26016631  0.37379444  0.01235040  1
  O2-  O305  1  0.27165811  0.38354801  0.52583724  1
  O2-  O306  1  0.27152701  0.88234779  0.02278912  1
  O2-  O307  1  0.26367512  0.87685190  0.51972510  1
  O2-  O308  1  0.77097695  0.38350742  0.03074635  1
  O2-  O309  1  0.76900473  0.36366728  0.51334368  1
  O2-  O310  1  0.77414116  0.88625627  0.02872693  1
  O2-  O311  1  0.77397769  0.88950943  0.51688710  1
  O2-  O312  1  0.22408037  0.13169144  -0.01334709  1
  O2-  O313  1  0.23040615  0.11477381  0.46914616  1
  O2-  O314  1  0.22553103  0.61291339  -0.03013384  1
  O2-  O315  1  0.23530129  0.63361789  0.48755910  1
  O2-  O316  1  0.72322685  0.11634672  -0.01927408  1
  O2-  O317  1  0.73922294  0.12539403  0.47834653  1
  O2-  O318  1  0.73817874  0.61486703  -0.01986144  1
  O2-  O319  1  0.72698803  0.61739360  0.47434236  1
