# generated using pymatgen
data_Sr64Ca21Nb43O192
_symmetry_space_group_name_H-M   'P 1'
_cell_length_a   16.56920993
_cell_length_b   16.58996511
_cell_length_c   16.71039234
_cell_angle_alpha   89.99825518
_cell_angle_beta   89.94064888
_cell_angle_gamma   90.04978779
_symmetry_Int_Tables_number   1
_chemical_formula_structural   Sr64Ca21Nb43O192
_chemical_formula_sum   'Sr64 Ca21 Nb43 O192'
_cell_volume   4593.39213986
_cell_formula_units_Z   1
loop_
 _symmetry_equiv_pos_site_id
 _symmetry_equiv_pos_as_xyz
  1  'x, y, z'
loop_
 _atom_type_symbol
 _atom_type_oxidation_number
  Sr2+  2.0
  Ca2+  2.0
  Nb5+  5.0
  O2-  -2.0
loop_
 _atom_site_type_symbol
 _atom_site_label
 _atom_site_symmetry_multiplicity
 _atom_site_fract_x
 _atom_site_fract_y
 _atom_site_fract_z
 _atom_site_occupancy
  Sr2+  Sr0  1  0.12699825  0.13310415  0.12531612  1
  Sr2+  Sr1  1  0.13584313  0.13368834  0.63325455  1
  Sr2+  Sr2  1  0.12671722  0.62260244  0.12540191  1
  Sr2+  Sr3  1  0.11949977  0.61440063  0.61588697  1
  Sr2+  Sr4  1  0.61891552  0.14362879  0.12049847  1
  Sr2+  Sr5  1  0.60855126  0.14050499  0.62477230  1
  Sr2+  Sr6  1  0.61514886  0.63069621  0.12629359  1
  Sr2+  Sr7  1  0.62321443  0.63555220  0.63047145  1
  Sr2+  Sr8  1  0.37589043  0.40399990  0.12615302  1
  Sr2+  Sr9  1  0.36999360  0.36820737  0.62125312  1
  Sr2+  Sr10  1  0.36613375  0.88223568  0.12647893  1
  Sr2+  Sr11  1  0.37363695  0.88417222  0.62441301  1
  Sr2+  Sr12  1  0.87237842  0.37148843  0.13092093  1
  Sr2+  Sr13  1  0.87364828  0.38472645  0.62878297  1
  Sr2+  Sr14  1  0.87481408  0.88193894  0.12575385  1
  Sr2+  Sr15  1  0.87091756  0.88233511  0.62396846  1
  Sr2+  Sr16  1  0.12550802  0.36774968  0.38108867  1
  Sr2+  Sr17  1  0.12781964  0.36802740  0.87814303  1
  Sr2+  Sr18  1  0.11714998  0.86917772  0.36792669  1
  Sr2+  Sr19  1  0.11759459  0.87114107  0.87065148  1
  Sr2+  Sr20  1  0.63922447  0.36567700  0.37867041  1
  Sr2+  Sr21  1  0.62620402  0.37192561  0.86986510  1
  Sr2+  Sr22  1  0.63643419  0.87433913  0.38941995  1
  Sr2+  Sr23  1  0.63607252  0.86475092  0.87640821  1
  Sr2+  Sr24  1  0.38396139  0.11516242  0.37918817  1
  Sr2+  Sr25  1  0.37923993  0.11871303  0.87884894  1
  Sr2+  Sr26  1  0.37529818  0.61443628  0.36624568  1
  Sr2+  Sr27  1  0.38679634  0.61664773  0.87825052  1
  Sr2+  Sr28  1  0.86222928  0.12083481  0.36614618  1
  Sr2+  Sr29  1  0.88447096  0.11982215  0.87427925  1
  Sr2+  Sr30  1  0.88327494  0.61885860  0.37676562  1
  Sr2+  Sr31  1  0.87006504  0.62072051  0.88022536  1
  Sr2+  Sr32  1  0.12612226  0.12347904  0.37308970  1
  Sr2+  Sr33  1  0.12414175  0.12414857  0.87186932  1
  Sr2+  Sr34  1  0.12325442  0.60819033  0.37815311  1
  Sr2+  Sr35  1  0.13199248  0.61707163  0.87735267  1
  Sr2+  Sr36  1  0.62512243  0.12657996  0.37945467  1
  Sr2+  Sr37  1  0.62077978  0.13675710  0.87218574  1
  Sr2+  Sr38  1  0.63451624  0.61306113  0.37575151  1
  Sr2+  Sr39  1  0.63214488  0.60991904  0.87465960  1
  Sr2+  Sr40  1  0.37544147  0.37615220  0.37625368  1
  Sr2+  Sr41  1  0.38690274  0.36066218  0.88027785  1
  Sr2+  Sr42  1  0.38163516  0.87024204  0.37925418  1
  Sr2+  Sr43  1  0.36875903  0.86326192  0.87161346  1
  Sr2+  Sr44  1  0.88119776  0.35264928  0.37442011  1
  Sr2+  Sr45  1  0.87406478  0.37161312  0.86460561  1
  Sr2+  Sr46  1  0.87711101  0.86098479  0.37488665  1
  Sr2+  Sr47  1  0.88156059  0.88543247  0.88175049  1
  Sr2+  Sr48  1  0.13164942  0.37769276  0.12725779  1
  Sr2+  Sr49  1  0.11838038  0.38032618  0.62542148  1
  Sr2+  Sr50  1  0.12366706  0.88034838  0.12866834  1
  Sr2+  Sr51  1  0.13666612  0.88001794  0.62791755  1
  Sr2+  Sr52  1  0.60519425  0.38204115  0.12943426  1
  Sr2+  Sr53  1  0.61725855  0.38625895  0.62874436  1
  Sr2+  Sr54  1  0.61567557  0.88194214  0.11961030  1
  Sr2+  Sr55  1  0.60649807  0.87760647  0.62556676  1
  Sr2+  Sr56  1  0.37562487  0.13333517  0.12483737  1
  Sr2+  Sr57  1  0.37550582  0.12432268  0.62905080  1
  Sr2+  Sr58  1  0.36937777  0.63345444  0.12364722  1
  Sr2+  Sr59  1  0.37787704  0.63868495  0.62528877  1
  Sr2+  Sr60  1  0.86840020  0.13253034  0.12146360  1
  Sr2+  Sr61  1  0.86626046  0.13550036  0.62955575  1
  Sr2+  Sr62  1  0.86812341  0.63356555  0.13023062  1
  Sr2+  Sr63  1  0.87092348  0.62608118  0.62997293  1
  Ca2+  Ca64  1  0.49931592  -0.00000406  0.00080080  1
  Ca2+  Ca65  1  -0.00207275  0.50174649  0.00275391  1
  Ca2+  Ca66  1  0.50176933  0.50452000  0.50052973  1
  Ca2+  Ca67  1  0.00024642  -0.00054405  0.49876881  1
  Ca2+  Ca68  1  0.50272987  0.50223793  -0.00242220  1
  Ca2+  Ca69  1  0.75136039  0.25240661  -0.00140234  1
  Ca2+  Ca70  1  0.24889971  0.74980814  0.49693800  1
  Ca2+  Ca71  1  0.25105969  0.24845982  0.49630872  1
  Ca2+  Ca72  1  0.24946322  0.24767060  -0.00082099  1
  Ca2+  Ca73  1  0.75170922  0.25062802  0.50484949  1
  Ca2+  Ca74  1  0.49620124  0.25137804  0.25446163  1
  Ca2+  Ca75  1  0.00050951  0.74829709  0.74933071  1
  Ca2+  Ca76  1  0.24816999  0.50191579  0.24970739  1
  Ca2+  Ca77  1  0.74965789  -0.00456568  0.24769151  1
  Ca2+  Ca78  1  0.49711194  0.25257900  0.74788236  1
  Ca2+  Ca79  1  0.50074135  0.75166402  0.75529172  1
  Ca2+  Ca80  1  0.50141333  0.75384650  0.25152224  1
  Ca2+  Ca81  1  0.00075535  0.24936805  0.74959912  1
  Ca2+  Ca82  1  0.75036106  0.49854472  0.25073921  1
  Ca2+  Ca83  1  0.74841646  -0.00272950  0.74956751  1
  Ca2+  Ca84  1  0.24986744  0.50174733  0.74885946  1
  Nb5+  Nb85  1  0.49999113  0.00159484  0.50235772  1
  Nb5+  Nb86  1  0.00403331  0.00279213  0.00363535  1
  Nb5+  Nb87  1  -0.00461058  0.49347164  0.49782778  1
  Nb5+  Nb88  1  0.24079513  0.75338489  0.00083780  1
  Nb5+  Nb89  1  0.74625243  0.75049786  0.00589847  1
  Nb5+  Nb90  1  0.75245828  0.75033327  0.50855064  1
  Nb5+  Nb91  1  0.00067886  0.74187347  0.24967586  1
  Nb5+  Nb92  1  0.75052750  0.49963801  0.74946275  1
  Nb5+  Nb93  1  0.25032841  0.00159325  0.25451637  1
  Nb5+  Nb94  1  0.25244206  -0.00080582  0.75825175  1
  Nb5+  Nb95  1  0.00159167  0.24243592  0.24899127  1
  Nb5+  Nb96  1  -0.00216686  -0.00273284  0.25016143  1
  Nb5+  Nb97  1  0.00167327  -0.00205043  0.74284143  1
  Nb5+  Nb98  1  -0.00010701  0.48963121  0.24880018  1
  Nb5+  Nb99  1  0.00013455  0.49978765  0.75519006  1
  Nb5+  Nb100  1  0.50715193  -0.00197491  0.25168517  1
  Nb5+  Nb101  1  0.50052057  -0.00390819  0.75796010  1
  Nb5+  Nb102  1  0.50108629  0.50330084  0.25463085  1
  Nb5+  Nb103  1  0.49340409  0.50410736  0.74550327  1
  Nb5+  Nb104  1  0.25193636  0.24969667  0.24953252  1
  Nb5+  Nb105  1  0.25314519  0.25438124  0.75150389  1
  Nb5+  Nb106  1  0.24728513  0.75118887  0.25136464  1
  Nb5+  Nb107  1  0.24704644  0.74724423  0.74591303  1
  Nb5+  Nb108  1  0.74590944  0.25029954  0.24652371  1
  Nb5+  Nb109  1  0.74850453  0.24692286  0.74740166  1
  Nb5+  Nb110  1  0.74534917  0.75190578  0.25425037  1
  Nb5+  Nb111  1  0.75487774  0.74951959  0.75809751  1
  Nb5+  Nb112  1  0.00214862  0.24107814  0.50371093  1
  Nb5+  Nb113  1  -0.00220555  0.25516387  0.99987843  1
  Nb5+  Nb114  1  -0.00211357  0.75011437  0.50384462  1
  Nb5+  Nb115  1  -0.00311751  0.74931725  1.00041939  1
  Nb5+  Nb116  1  0.49862777  0.25756700  0.49788411  1
  Nb5+  Nb117  1  0.50053281  0.25128060  1.00297797  1
  Nb5+  Nb118  1  0.50001610  0.74709870  0.49520669  1
  Nb5+  Nb119  1  0.49062863  0.75294000  1.00023445  1
  Nb5+  Nb120  1  0.24635442  0.00083141  0.00602925  1
  Nb5+  Nb121  1  0.24871820  -0.00347813  0.50238082  1
  Nb5+  Nb122  1  0.25143344  0.49870433  -0.00494384  1
  Nb5+  Nb123  1  0.25632843  0.50336681  0.50289156  1
  Nb5+  Nb124  1  0.74504581  0.00015472  -0.00180822  1
  Nb5+  Nb125  1  0.75049525  0.00314401  0.50899343  1
  Nb5+  Nb126  1  0.75259335  0.49487086  0.00449713  1
  Nb5+  Nb127  1  0.75271908  0.49822043  0.49789013  1
  O2-  O128  1  0.02524297  -0.00376658  0.12511449  1
  O2-  O129  1  0.02446613  -0.01862316  0.63243327  1
  O2-  O130  1  0.02962221  0.49237308  0.13708756  1
  O2-  O131  1  0.01216095  0.49668626  0.61626684  1
  O2-  O132  1  0.52597737  0.01860905  0.13936593  1
  O2-  O133  1  0.51089258  0.01500383  0.62295109  1
  O2-  O134  1  0.52367815  0.51148687  0.13375471  1
  O2-  O135  1  0.52956040  0.52057075  0.63293183  1
  O2-  O136  1  -0.02254327  0.00980430  0.36326049  1
  O2-  O137  1  -0.00786245  0.00478239  0.88389108  1
  O2-  O138  1  -0.02424604  0.49772883  0.37625966  1
  O2-  O139  1  -0.02645747  0.50711523  0.86646410  1
  O2-  O140  1  0.47865962  -0.01415259  0.38338923  1
  O2-  O141  1  0.46507588  -0.01380081  0.86692221  1
  O2-  O142  1  0.46672281  0.49578693  0.36947554  1
  O2-  O143  1  0.48318485  0.47887198  0.86236922  1
  O2-  O144  1  0.25299080  0.22453086  0.13383012  1
  O2-  O145  1  0.27421321  0.23787482  0.63259369  1
  O2-  O146  1  0.26526135  0.75597585  0.12275750  1
  O2-  O147  1  0.27417232  0.75368986  0.63397094  1
  O2-  O148  1  0.77973403  0.25704367  0.13307274  1
  O2-  O149  1  0.78503458  0.26403375  0.63513915  1
  O2-  O150  1  0.77447270  0.76049090  0.11702873  1
  O2-  O151  1  0.77562453  0.75770862  0.62111339  1
  O2-  O152  1  0.21644020  0.24846778  0.36115445  1
  O2-  O153  1  0.21843766  0.24727193  0.86504735  1
  O2-  O154  1  0.22696456  0.76786205  0.36297457  1
  O2-  O155  1  0.22719633  0.75651246  0.88287229  1
  O2-  O156  1  0.73736030  0.23506188  0.36699861  1
  O2-  O157  1  0.72320185  0.25118567  0.86532444  1
  O2-  O158  1  0.72881815  0.74002226  0.36871635  1
  O2-  O159  1  0.73369969  0.73424859  0.87237206  1
  O2-  O160  1  -0.02127398  0.24819433  0.12952618  1
  O2-  O161  1  -0.02406366  0.24546182  0.61441068  1
  O2-  O162  1  -0.02067530  0.75366359  0.13082806  1
  O2-  O163  1  -0.03268989  0.74861645  0.61360649  1
  O2-  O164  1  0.48959377  0.22602209  0.12053728  1
  O2-  O165  1  0.47773426  0.22950560  0.61251199  1
  O2-  O166  1  0.49190240  0.72198432  0.11619996  1
  O2-  O167  1  0.49061931  0.73937515  0.61460316  1
  O2-  O168  1  0.27139952  -0.00677426  0.36822847  1
  O2-  O169  1  0.26502974  -0.00443254  0.87420198  1
  O2-  O170  1  0.26630294  0.50599762  0.38347640  1
  O2-  O171  1  0.26545381  0.52802808  0.88156423  1
  O2-  O172  1  0.75831763  0.00918251  0.38983384  1
  O2-  O173  1  0.78247438  0.00723620  0.88589220  1
  O2-  O174  1  0.76454970  0.52856514  0.38565272  1
  O2-  O175  1  0.76896510  0.51166567  0.86674588  1
  O2-  O176  1  0.01921456  0.25194485  0.36805329  1
  O2-  O177  1  0.02279982  0.24875075  0.88652900  1
  O2-  O178  1  0.01481025  0.74988169  0.36891872  1
  O2-  O179  1  0.02130708  0.74681640  0.88845552  1
  O2-  O180  1  0.53536588  0.25866152  0.38470644  1
  O2-  O181  1  0.51704176  0.26904098  0.88292305  1
  O2-  O182  1  0.51815677  0.78476108  0.38540606  1
  O2-  O183  1  0.50889666  0.79033177  0.88878595  1
  O2-  O184  1  0.22489850  0.00038501  0.12173812  1
  O2-  O185  1  0.23664955  0.00054922  0.62072487  1
  O2-  O186  1  0.22605201  0.50127967  0.11299814  1
  O2-  O187  1  0.21733166  0.49420834  0.61550808  1
  O2-  O188  1  0.74392400  -0.03443582  0.11044979  1
  O2-  O189  1  0.73428798  -0.04125296  0.61703765  1
  O2-  O190  1  0.72799603  0.48446197  0.11522334  1
  O2-  O191  1  0.74259175  0.49134811  0.62312004  1
  O2-  O192  1  0.11756724  0.26632202  0.22808400  1
  O2-  O193  1  0.13552174  0.26318677  0.72021839  1
  O2-  O194  1  0.11748421  0.76926641  0.23048890  1
  O2-  O195  1  0.13494717  0.78489034  0.74050028  1
  O2-  O196  1  0.63389412  0.26916526  0.22807075  1
  O2-  O197  1  0.63355219  0.27152362  0.72527774  1
  O2-  O198  1  0.63761569  0.77769025  0.22512325  1
  O2-  O199  1  0.64040387  0.76634941  0.72898521  1
  O2-  O200  1  0.36104575  0.22223197  0.26868408  1
  O2-  O201  1  0.36527561  0.22325539  0.77651932  1
  O2-  O202  1  0.36132496  0.73626302  0.26520333  1
  O2-  O203  1  0.36094109  0.73321795  0.78065800  1
  O2-  O204  1  0.88356177  0.23027993  0.26695227  1
  O2-  O205  1  0.86623807  0.23272400  0.77913245  1
  O2-  O206  1  0.88149123  0.72948379  0.26630944  1
  O2-  O207  1  0.86694790  0.71424913  0.76192679  1
  O2-  O208  1  0.26515074  0.36434602  0.23739087  1
  O2-  O209  1  0.27877747  0.36723321  0.75435951  1
  O2-  O210  1  0.25110248  0.88027325  0.23608370  1
  O2-  O211  1  0.27187600  0.87975595  0.74745183  1
  O2-  O212  1  0.77799595  0.36485873  0.26489883  1
  O2-  O213  1  0.76926038  0.38112373  0.75591435  1
  O2-  O214  1  0.78559200  0.86237621  0.25633407  1
  O2-  O215  1  0.78210210  0.86153104  0.76537473  1
  O2-  O216  1  0.22140708  0.11590356  0.25363186  1
  O2-  O217  1  0.23028670  0.11586604  0.75189282  1
  O2-  O218  1  0.22121063  0.63888728  0.24750299  1
  O2-  O219  1  0.21489132  0.63704207  0.74444735  1
  O2-  O220  1  0.73921453  0.13013434  0.23560507  1
  O2-  O221  1  0.73045614  0.13221751  0.73193299  1
  O2-  O222  1  0.73968273  0.63745937  0.22589687  1
  O2-  O223  1  0.73269582  0.62113670  0.73674882  1
  O2-  O224  1  0.11359988  0.48518087  0.28208497  1
  O2-  O225  1  0.11339206  0.47322727  0.76975289  1
  O2-  O226  1  0.12193920  0.98542007  0.26861118  1
  O2-  O227  1  0.13254299  0.97782110  0.76172481  1
  O2-  O228  1  0.61600037  0.47363776  0.27772972  1
  O2-  O229  1  0.63332472  0.48209850  0.76277827  1
  O2-  O230  1  0.61571377  0.97095746  0.27410639  1
  O2-  O231  1  0.61383178  0.97390994  0.77311383  1
  O2-  O232  1  0.36223381  0.01912840  0.22679570  1
  O2-  O233  1  0.36885940  0.01685180  0.73337871  1
  O2-  O234  1  0.38152612  0.53128996  0.22877219  1
  O2-  O235  1  0.38282048  0.53286178  0.72914999  1
  O2-  O236  1  0.88725344  0.01626771  0.22107413  1
  O2-  O237  1  0.88778787  0.02007115  0.72991419  1
  O2-  O238  1  0.88777000  0.52105017  0.23094946  1
  O2-  O239  1  0.87284971  0.51575053  0.73049732  1
  O2-  O240  1  0.47211649  0.38495064  0.23794472  1
  O2-  O241  1  0.48317445  0.38658638  0.72122548  1
  O2-  O242  1  0.46370615  0.88887393  0.24066788  1
  O2-  O243  1  0.47961142  0.88443152  0.72556733  1
  O2-  O244  1  0.98080757  0.37314960  0.25002068  1
  O2-  O245  1  0.97574317  0.38340957  0.74085683  1
  O2-  O246  1  0.98807185  0.87781337  0.25290165  1
  O2-  O247  1  0.98483530  0.88408886  0.77020301  1
  O2-  O248  1  0.02116849  0.12537774  0.24522149  1
  O2-  O249  1  0.02889487  0.11268463  0.75245475  1
  O2-  O250  1  0.02012026  0.62686248  0.24958137  1
  O2-  O251  1  0.02171531  0.61384409  0.73570248  1
  O2-  O252  1  0.50563371  0.11194778  0.28060647  1
  O2-  O253  1  0.51727552  0.11432419  0.76031911  1
  O2-  O254  1  0.52901179  0.62060636  0.26897804  1
  O2-  O255  1  0.52386733  0.61843890  0.77189205  1
  O2-  O256  1  0.13225408  0.48830262  -0.02814469  1
  O2-  O257  1  0.11220994  0.48424040  0.47986048  1
  O2-  O258  1  0.12385738  0.97207464  -0.01328120  1
  O2-  O259  1  0.13800147  0.96869312  0.48026625  1
  O2-  O260  1  0.63927018  0.48858474  -0.03031663  1
  O2-  O261  1  0.63819451  0.48001393  0.48496272  1
  O2-  O262  1  0.63508821  0.97537019  -0.02356082  1
  O2-  O263  1  0.62022882  0.98323289  0.49072017  1
  O2-  O264  1  0.36102524  0.01640207  0.02230467  1
  O2-  O265  1  0.37748747  0.02077431  0.51476509  1
  O2-  O266  1  0.36603514  0.52933789  0.01752840  1
  O2-  O267  1  0.36571653  0.52913608  0.52632579  1
  O2-  O268  1  0.88566610  0.00788205  0.01990857  1
  O2-  O269  1  0.86529667  0.01650758  0.52865548  1
  O2-  O270  1  0.86380422  0.53623838  0.01490852  1
  O2-  O271  1  0.87654829  0.52329963  0.51621944  1
  O2-  O272  1  0.47394612  0.36815272  0.01915907  1
  O2-  O273  1  0.47529738  0.37038794  0.51062694  1
  O2-  O274  1  0.48803669  0.86723799  0.03734895  1
  O2-  O275  1  0.48564546  0.87984718  0.51870518  1
  O2-  O276  1  0.96935733  0.36615459  0.00087156  1
  O2-  O277  1  0.97386354  0.37773794  0.49775787  1
  O2-  O278  1  0.98689401  0.87304901  0.00568835  1
  O2-  O279  1  0.97491740  0.86350083  0.48807445  1
  O2-  O280  1  0.02554888  0.11782677  0.00662989  1
  O2-  O281  1  0.03785456  0.13184461  0.50297490  1
  O2-  O282  1  0.02290762  0.63766662  0.01561295  1
  O2-  O283  1  0.01041834  0.62589682  0.49087307  1
  O2-  O284  1  0.52732706  0.13193936  -0.01563149  1
  O2-  O285  1  0.51756360  0.11963137  0.48654030  1
  O2-  O286  1  0.51813252  0.64035946  -0.02762822  1
  O2-  O287  1  0.53439195  0.63848739  0.48218961  1
  O2-  O288  1  0.11301252  0.26894190  0.02673331  1
  O2-  O289  1  0.11295774  0.28321536  0.51117857  1
  O2-  O290  1  0.12617602  0.77290509  0.02193041  1
  O2-  O291  1  0.11098170  0.76658088  0.52213039  1
  O2-  O292  1  0.61865287  0.27412600  0.02367523  1
  O2-  O293  1  0.61761288  0.26915190  0.52657700  1
  O2-  O294  1  0.63158013  0.76911775  0.01594048  1
  O2-  O295  1  0.63438170  0.77214812  0.51604982  1
  O2-  O296  1  0.38263579  0.22444306  -0.01642177  1
  O2-  O297  1  0.38540686  0.23661129  0.46428837  1
  O2-  O298  1  0.37252764  0.74002999  -0.01448939  1
  O2-  O299  1  0.38693303  0.72582058  0.47691995  1
  O2-  O300  1  0.88727335  0.21257749  -0.01050687  1
  O2-  O301  1  0.88860158  0.22453863  0.47116642  1
  O2-  O302  1  0.87947485  0.73565149  -0.01445566  1
  O2-  O303  1  0.86854941  0.73158666  0.47358585  1
  O2-  O304  1  0.27250540  0.38509551  -0.01038583  1
  O2-  O305  1  0.27056717  0.38476885  0.49591673  1
  O2-  O306  1  0.26622472  0.87581000  -0.00077350  1
  O2-  O307  1  0.28399727  0.88343003  0.49978736  1
  O2-  O308  1  0.78530333  0.38626201  -0.01202589  1
  O2-  O309  1  0.77845789  0.38645015  0.48422922  1
  O2-  O310  1  0.76633140  0.86439930  -0.02414855  1
  O2-  O311  1  0.76930672  0.86704964  0.48206822  1
  O2-  O312  1  0.22149977  0.11141864  -0.01065124  1
  O2-  O313  1  0.23364633  0.11212665  0.48694065  1
  O2-  O314  1  0.22812220  0.63714907  0.00636650  1
  O2-  O315  1  0.21776167  0.61781216  0.49808696  1
  O2-  O316  1  0.73223299  0.11245165  0.01754456  1
  O2-  O317  1  0.72738989  0.11413444  0.52868501  1
  O2-  O318  1  0.73247668  0.63219964  0.00426321  1
  O2-  O319  1  0.73359134  0.63088703  0.51500091  1
