# generated using pymatgen
data_Sr64Ca21Nb43O192
_symmetry_space_group_name_H-M   'P 1'
_cell_length_a   16.57199364
_cell_length_b   16.60652037
_cell_length_c   16.76435741
_cell_angle_alpha   90.07532435
_cell_angle_beta   90.00740927
_cell_angle_gamma   89.98739161
_symmetry_Int_Tables_number   1
_chemical_formula_structural   Sr64Ca21Nb43O192
_chemical_formula_sum   'Sr64 Ca21 Nb43 O192'
_cell_volume   4613.59982868
_cell_formula_units_Z   1
loop_
 _symmetry_equiv_pos_site_id
 _symmetry_equiv_pos_as_xyz
  1  'x, y, z'
loop_
 _atom_type_symbol
 _atom_type_oxidation_number
  Sr2+  2.0
  Ca2+  2.0
  Nb5+  5.0
  O2-  -2.0
loop_
 _atom_site_type_symbol
 _atom_site_label
 _atom_site_symmetry_multiplicity
 _atom_site_fract_x
 _atom_site_fract_y
 _atom_site_fract_z
 _atom_site_occupancy
  Sr2+  Sr0  1  0.11465741  0.10486396  0.12290190  1
  Sr2+  Sr1  1  0.11690123  0.12400819  0.63042298  1
  Sr2+  Sr2  1  0.11162328  0.62431427  0.12726102  1
  Sr2+  Sr3  1  0.11253157  0.63463550  0.62059859  1
  Sr2+  Sr4  1  0.63808202  0.11635638  0.12348903  1
  Sr2+  Sr5  1  0.62522395  0.11452696  0.61937804  1
  Sr2+  Sr6  1  0.63118488  0.62984151  0.12526890  1
  Sr2+  Sr7  1  0.63504679  0.63617764  0.62864532  1
  Sr2+  Sr8  1  0.37315264  0.37021836  0.12691898  1
  Sr2+  Sr9  1  0.37988462  0.36250823  0.61445617  1
  Sr2+  Sr10  1  0.37621671  0.87186124  0.13355325  1
  Sr2+  Sr11  1  0.37572871  0.88033930  0.61077879  1
  Sr2+  Sr12  1  0.87657068  0.36103128  0.12128620  1
  Sr2+  Sr13  1  0.88249582  0.35191321  0.62705911  1
  Sr2+  Sr14  1  0.88118367  0.87868056  0.12981902  1
  Sr2+  Sr15  1  0.87460995  0.85380997  0.62699481  1
  Sr2+  Sr16  1  0.14326794  0.38330135  0.37548435  1
  Sr2+  Sr17  1  0.13119644  0.38203428  0.87256041  1
  Sr2+  Sr18  1  0.12680439  0.88554202  0.37098461  1
  Sr2+  Sr19  1  0.13328371  0.86921662  0.86820752  1
  Sr2+  Sr20  1  0.61792915  0.38050013  0.37365559  1
  Sr2+  Sr21  1  0.61500574  0.38322779  0.86972794  1
  Sr2+  Sr22  1  0.61585573  0.87367284  0.38000166  1
  Sr2+  Sr23  1  0.61548675  0.88514962  0.87513113  1
  Sr2+  Sr24  1  0.37346676  0.11836640  0.38868500  1
  Sr2+  Sr25  1  0.37027814  0.12493995  0.86487277  1
  Sr2+  Sr26  1  0.36374726  0.62271234  0.37158135  1
  Sr2+  Sr27  1  0.37503798  0.62054307  0.87737668  1
  Sr2+  Sr28  1  0.86996755  0.13609182  0.38374842  1
  Sr2+  Sr29  1  0.86963073  0.13747052  0.86847325  1
  Sr2+  Sr30  1  0.85668049  0.62471912  0.37657343  1
  Sr2+  Sr31  1  0.86029071  0.62246002  0.87407158  1
  Sr2+  Sr32  1  0.11875910  0.13530728  0.37250491  1
  Sr2+  Sr33  1  0.13655244  0.12611104  0.87219674  1
  Sr2+  Sr34  1  0.12251830  0.62342782  0.38427585  1
  Sr2+  Sr35  1  0.12252298  0.62895984  0.87643328  1
  Sr2+  Sr36  1  0.61023203  0.13218378  0.38064633  1
  Sr2+  Sr37  1  0.62490526  0.13652419  0.87263546  1
  Sr2+  Sr38  1  0.62603148  0.63380845  0.36860684  1
  Sr2+  Sr39  1  0.61760116  0.62448601  0.87428768  1
  Sr2+  Sr40  1  0.37358751  0.35064923  0.36322751  1
  Sr2+  Sr41  1  0.37782874  0.36077041  0.88132774  1
  Sr2+  Sr42  1  0.38158284  0.86636686  0.37416548  1
  Sr2+  Sr43  1  0.37522382  0.85715464  0.87487060  1
  Sr2+  Sr44  1  0.87640197  0.37685102  0.39526394  1
  Sr2+  Sr45  1  0.87348042  0.38064536  0.87359283  1
  Sr2+  Sr46  1  0.88747167  0.87242955  0.38066372  1
  Sr2+  Sr47  1  0.86546198  0.87758867  0.86577871  1
  Sr2+  Sr48  1  0.11342399  0.37308653  0.12694828  1
  Sr2+  Sr49  1  0.11250403  0.37646388  0.61323026  1
  Sr2+  Sr50  1  0.10796993  0.87461221  0.12318361  1
  Sr2+  Sr51  1  0.10053543  0.87600044  0.63052401  1
  Sr2+  Sr52  1  0.63120077  0.37342397  0.12508345  1
  Sr2+  Sr53  1  0.63250226  0.37629739  0.62265951  1
  Sr2+  Sr54  1  0.61673683  0.87371554  0.13256558  1
  Sr2+  Sr55  1  0.63176144  0.88071115  0.62096589  1
  Sr2+  Sr56  1  0.37093687  0.11978630  0.11785115  1
  Sr2+  Sr57  1  0.37273708  0.11846302  0.62463859  1
  Sr2+  Sr58  1  0.37558067  0.62733284  0.12607900  1
  Sr2+  Sr59  1  0.37588376  0.62130505  0.62491040  1
  Sr2+  Sr60  1  0.88337779  0.12082192  0.12691103  1
  Sr2+  Sr61  1  0.87459221  0.11723361  0.62830618  1
  Sr2+  Sr62  1  0.87326741  0.62155184  0.12699759  1
  Sr2+  Sr63  1  0.88065429  0.61918704  0.61691778  1
  Ca2+  Ca64  1  0.49966747  0.00411628  -0.00088466  1
  Ca2+  Ca65  1  0.49986191  0.50198989  0.49336173  1
  Ca2+  Ca66  1  -0.00188195  -0.00216988  -0.00675323  1
  Ca2+  Ca67  1  0.00017217  0.49785877  0.49434556  1
  Ca2+  Ca68  1  0.00020413  0.00386838  0.50396419  1
  Ca2+  Ca69  1  0.24844199  0.75022860  0.49870878  1
  Ca2+  Ca70  1  0.24704375  0.24914563  0.50064013  1
  Ca2+  Ca71  1  0.74761148  0.75363930  -0.00088064  1
  Ca2+  Ca72  1  0.74770319  0.24806649  0.50125578  1
  Ca2+  Ca73  1  0.75007702  0.75213196  0.49781334  1
  Ca2+  Ca74  1  0.25060993  -0.00109465  0.25027590  1
  Ca2+  Ca75  1  -0.00236793  0.25158125  0.25044040  1
  Ca2+  Ca76  1  0.50141023  0.25041034  0.24461186  1
  Ca2+  Ca77  1  0.75089372  0.00086591  0.25515042  1
  Ca2+  Ca78  1  0.00061642  0.25027466  0.75729990  1
  Ca2+  Ca79  1  -0.00240686  0.74660980  0.75582564  1
  Ca2+  Ca80  1  0.50019518  0.25144975  0.74740308  1
  Ca2+  Ca81  1  0.50083227  0.74948598  0.74958337  1
  Ca2+  Ca82  1  0.24908030  0.49893296  0.75055572  1
  Ca2+  Ca83  1  0.75167265  0.49922893  0.74930044  1
  Ca2+  Ca84  1  0.00088913  0.74782521  0.25542479  1
  Nb5+  Nb85  1  0.49534889  0.50048903  0.00013353  1
  Nb5+  Nb86  1  0.50101524  -0.00074775  0.50145925  1
  Nb5+  Nb87  1  -0.00386657  0.50091932  -0.00024952  1
  Nb5+  Nb88  1  0.75334595  0.24801168  0.00046356  1
  Nb5+  Nb89  1  0.25215246  0.24648235  0.00421124  1
  Nb5+  Nb90  1  0.24943009  0.74141970  0.00472535  1
  Nb5+  Nb91  1  0.24630256  0.50203517  0.24463835  1
  Nb5+  Nb92  1  0.74408408  0.00050062  0.75076016  1
  Nb5+  Nb93  1  0.74614169  0.49576181  0.24838937  1
  Nb5+  Nb94  1  0.24614855  -0.00315253  0.74922193  1
  Nb5+  Nb95  1  0.49894628  0.74657566  0.24826641  1
  Nb5+  Nb96  1  -0.00116186  0.00245750  0.25478933  1
  Nb5+  Nb97  1  -0.00924129  -0.00061994  0.75670750  1
  Nb5+  Nb98  1  -0.00663519  0.49786802  0.24991695  1
  Nb5+  Nb99  1  0.00114893  0.49967374  0.74510628  1
  Nb5+  Nb100  1  0.50034193  0.00404312  0.24844467  1
  Nb5+  Nb101  1  0.49581060  0.00314719  0.75236865  1
  Nb5+  Nb102  1  0.49561722  0.50246779  0.24777636  1
  Nb5+  Nb103  1  0.49764123  0.49778412  0.74004699  1
  Nb5+  Nb104  1  0.24646672  0.24394349  0.24333018  1
  Nb5+  Nb105  1  0.24803588  0.25743274  0.74847872  1
  Nb5+  Nb106  1  0.24775134  0.74774833  0.24667653  1
  Nb5+  Nb107  1  0.25299730  0.74750250  0.74307064  1
  Nb5+  Nb108  1  0.74679714  0.25010643  0.25301174  1
  Nb5+  Nb109  1  0.74645720  0.25055126  0.74649754  1
  Nb5+  Nb110  1  0.75298256  0.75401144  0.24707613  1
  Nb5+  Nb111  1  0.74520050  0.74767806  0.75475725  1
  Nb5+  Nb112  1  0.00187177  0.24784443  0.50080347  1
  Nb5+  Nb113  1  0.01114819  0.24654323  0.99629870  1
  Nb5+  Nb114  1  0.00234619  0.75186722  0.49805797  1
  Nb5+  Nb115  1  -0.00566183  0.74776484  1.00048674  1
  Nb5+  Nb116  1  0.49805721  0.25581791  0.49688835  1
  Nb5+  Nb117  1  0.50814083  0.25080944  1.00306641  1
  Nb5+  Nb118  1  0.49879132  0.74635395  0.50513258  1
  Nb5+  Nb119  1  0.50033464  0.75141468  1.00229814  1
  Nb5+  Nb120  1  0.25624990  -0.01018011  0.00069623  1
  Nb5+  Nb121  1  0.24421882  0.00017848  0.50091804  1
  Nb5+  Nb122  1  0.24696760  0.49582706  0.00186112  1
  Nb5+  Nb123  1  0.25412955  0.49799602  0.50812497  1
  Nb5+  Nb124  1  0.75576099  -0.00155748  0.00169933  1
  Nb5+  Nb125  1  0.75312494  -0.00243729  0.49480875  1
  Nb5+  Nb126  1  0.74391380  0.49852425  -0.00009610  1
  Nb5+  Nb127  1  0.74853085  0.49992651  0.50532447  1
  O2-  O128  1  -0.01489815  0.00573649  0.13143400  1
  O2-  O129  1  -0.00192251  0.02520399  0.64055503  1
  O2-  O130  1  -0.00465577  0.52050371  0.12036072  1
  O2-  O131  1  -0.00368853  0.50808661  0.63110730  1
  O2-  O132  1  0.48167452  -0.01304137  0.13624389  1
  O2-  O133  1  0.49640509  -0.01952153  0.62445185  1
  O2-  O134  1  0.49330731  0.48470151  0.12196302  1
  O2-  O135  1  0.48520814  0.47652088  0.62883975  1
  O2-  O136  1  0.02189255  -0.00626776  0.37042885  1
  O2-  O137  1  0.01101633  -0.03909918  0.86580346  1
  O2-  O138  1  0.01281971  0.47048650  0.35868459  1
  O2-  O139  1  0.01316970  0.49056802  0.88437497  1
  O2-  O140  1  0.51200251  0.00884244  0.38270214  1
  O2-  O141  1  0.51643902  0.02809896  0.86400699  1
  O2-  O142  1  0.51553923  0.52860513  0.35763952  1
  O2-  O143  1  0.50957238  0.52021556  0.88460514  1
  O2-  O144  1  0.23282651  0.27978620  0.11833637  1
  O2-  O145  1  0.23008810  0.27865123  0.63790782  1
  O2-  O146  1  0.27704289  0.75999253  0.12156716  1
  O2-  O147  1  0.28248267  0.76127410  0.63458774  1
  O2-  O148  1  0.72265248  0.24164077  0.11688403  1
  O2-  O149  1  0.71871078  0.23411714  0.63618875  1
  O2-  O150  1  0.76118051  0.72238867  0.13291619  1
  O2-  O151  1  0.77512204  0.73041423  0.63707129  1
  O2-  O152  1  0.26565360  0.22866732  0.35835661  1
  O2-  O153  1  0.26686803  0.23376690  0.88786199  1
  O2-  O154  1  0.23727649  0.72290596  0.35859565  1
  O2-  O155  1  0.23545917  0.73957529  0.88769468  1
  O2-  O156  1  0.77228711  0.26777140  0.36344435  1
  O2-  O157  1  0.76862330  0.26129172  0.88234150  1
  O2-  O158  1  0.72045890  0.76185512  0.35969828  1
  O2-  O159  1  0.71563337  0.77712917  0.86715621  1
  O2-  O160  1  0.00640506  0.24138633  0.11144909  1
  O2-  O161  1  0.02295618  0.24855420  0.62255593  1
  O2-  O162  1  -0.01136682  0.72658847  0.11811935  1
  O2-  O163  1  -0.02247466  0.73229756  0.61862121  1
  O2-  O164  1  0.50645326  0.28774339  0.11276985  1
  O2-  O165  1  0.51685579  0.27885905  0.61270234  1
  O2-  O166  1  0.47759350  0.75986584  0.12547078  1
  O2-  O167  1  0.46986480  0.75852891  0.61486894  1
  O2-  O168  1  0.23346274  0.02613372  0.38857099  1
  O2-  O169  1  0.23994684  0.01156662  0.87551337  1
  O2-  O170  1  0.23997237  0.52416281  0.35800933  1
  O2-  O171  1  0.24080150  0.52356474  0.88944885  1
  O2-  O172  1  0.74859895  -0.03747466  0.38659585  1
  O2-  O173  1  0.73706517  -0.01397131  0.87336197  1
  O2-  O174  1  0.74545759  0.47439252  0.36142520  1
  O2-  O175  1  0.74783674  0.47619569  0.88578177  1
  O2-  O176  1  -0.02893451  0.24806083  0.38369999  1
  O2-  O177  1  -0.03450722  0.26365410  0.89161795  1
  O2-  O178  1  0.03722324  0.76818400  0.38459922  1
  O2-  O179  1  0.03231945  0.75592879  0.89043188  1
  O2-  O180  1  0.47736487  0.22484420  0.37952688  1
  O2-  O181  1  0.47603845  0.23505187  0.89021991  1
  O2-  O182  1  0.51788305  0.74135127  0.36460357  1
  O2-  O183  1  0.51641284  0.73462025  0.88854197  1
  O2-  O184  1  0.27899941  -0.00944130  0.11453478  1
  O2-  O185  1  0.26753241  -0.01515217  0.63472681  1
  O2-  O186  1  0.26955318  0.48863940  0.12039522  1
  O2-  O187  1  0.26795775  0.47238341  0.61729008  1
  O2-  O188  1  0.76424571  0.02345327  0.11591251  1
  O2-  O189  1  0.75335922  0.02303715  0.63390092  1
  O2-  O190  1  0.76009119  0.51527634  0.11995581  1
  O2-  O191  1  0.74900381  0.52796211  0.61560008  1
  O2-  O192  1  0.13548038  0.27850122  0.26068900  1
  O2-  O193  1  0.13555019  0.25225555  0.78466019  1
  O2-  O194  1  0.13697739  0.76177906  0.22199522  1
  O2-  O195  1  0.13883578  0.77851810  0.74407058  1
  O2-  O196  1  0.63404665  0.28703441  0.25634661  1
  O2-  O197  1  0.63353537  0.26022289  0.78296004  1
  O2-  O198  1  0.61911867  0.75361351  0.22616684  1
  O2-  O199  1  0.63382228  0.76906650  0.71723716  1
  O2-  O200  1  0.36394251  0.24896542  0.22086618  1
  O2-  O201  1  0.36299203  0.23027385  0.73733033  1
  O2-  O202  1  0.38017754  0.72633140  0.25888384  1
  O2-  O203  1  0.36490274  0.73771447  0.78254447  1
  O2-  O204  1  0.85960813  0.23759400  0.21946839  1
  O2-  O205  1  0.86279598  0.22313161  0.73694088  1
  O2-  O206  1  0.86419803  0.73600008  0.27188960  1
  O2-  O207  1  0.86237174  0.74732983  0.78641327  1
  O2-  O208  1  0.26805174  0.38630461  0.25811682  1
  O2-  O209  1  0.26490702  0.36534652  0.78377805  1
  O2-  O210  1  0.27506926  0.86040689  0.26166237  1
  O2-  O211  1  0.26765413  0.88098372  0.77223430  1
  O2-  O212  1  0.76521487  0.38172863  0.22078575  1
  O2-  O213  1  0.76738130  0.36328121  0.73313695  1
  O2-  O214  1  0.76008164  0.86577512  0.22139882  1
  O2-  O215  1  0.76832699  0.88414027  0.73925583  1
  O2-  O216  1  0.23144909  0.13425831  0.21638433  1
  O2-  O217  1  0.23797090  0.11949596  0.74475792  1
  O2-  O218  1  0.24701393  0.62352884  0.21805239  1
  O2-  O219  1  0.22971699  0.63540995  0.73365310  1
  O2-  O220  1  0.71808845  0.13785328  0.26355033  1
  O2-  O221  1  0.73585717  0.12103317  0.77153057  1
  O2-  O222  1  0.73883713  0.61641720  0.26164058  1
  O2-  O223  1  0.72816387  0.63467570  0.77414144  1
  O2-  O224  1  0.13185937  0.48884319  0.22788912  1
  O2-  O225  1  0.11541994  0.45987190  0.74487628  1
  O2-  O226  1  0.11900522  0.97001402  0.23468896  1
  O2-  O227  1  0.13081172  0.98468705  0.74202354  1
  O2-  O228  1  0.62841948  0.48981241  0.23190178  1
  O2-  O229  1  0.61632190  0.47097386  0.74447782  1
  O2-  O230  1  0.61387205  0.96949105  0.25154075  1
  O2-  O231  1  0.62749604  0.98504149  0.74059589  1
  O2-  O232  1  0.38615200  0.01161582  0.27841572  1
  O2-  O233  1  0.37836339  0.01665209  0.75673478  1
  O2-  O234  1  0.37889763  0.51932340  0.24895263  1
  O2-  O235  1  0.38418469  0.53392896  0.75580388  1
  O2-  O236  1  0.88383629  0.03439927  0.27050924  1
  O2-  O237  1  0.87338328  0.01614485  0.76659147  1
  O2-  O238  1  0.87654734  0.51582363  0.25321789  1
  O2-  O239  1  0.88553512  0.53482897  0.75952547  1
  O2-  O240  1  0.48875011  0.38911882  0.26834512  1
  O2-  O241  1  0.47673555  0.38600830  0.77626607  1
  O2-  O242  1  0.48374776  0.86570043  0.25616271  1
  O2-  O243  1  0.49188582  0.88619337  0.77358227  1
  O2-  O244  1  0.99088377  0.38580961  0.21582170  1
  O2-  O245  1  0.96413450  0.38484574  0.75349270  1
  O2-  O246  1  0.96956328  0.88327703  0.24949342  1
  O2-  O247  1  0.98230631  0.88268065  0.72727928  1
  O2-  O248  1  0.03302334  0.11848940  0.25061798  1
  O2-  O249  1  0.01570877  0.11263547  0.78333242  1
  O2-  O250  1  0.02333463  0.61175430  0.26131640  1
  O2-  O251  1  0.03683376  0.61347262  0.75941652  1
  O2-  O252  1  0.52587878  0.11552759  0.23660018  1
  O2-  O253  1  0.51488418  0.11647305  0.72210328  1
  O2-  O254  1  0.51288201  0.62574554  0.22267227  1
  O2-  O255  1  0.53016668  0.61443409  0.73542271  1
  O2-  O256  1  0.13008801  0.48815885  0.01642224  1
  O2-  O257  1  0.13635720  0.47532081  0.49806259  1
  O2-  O258  1  0.13939993  0.98988727  0.01554527  1
  O2-  O259  1  0.13583989  0.97308667  0.52084675  1
  O2-  O260  1  0.62589285  0.48767721  0.01014411  1
  O2-  O261  1  0.63430893  0.46749146  0.49764424  1
  O2-  O262  1  0.63648995  0.98200707  0.01317181  1
  O2-  O263  1  0.62153975  0.98365652  0.50971647  1
  O2-  O264  1  0.36567069  0.03247545  -0.01754730  1
  O2-  O265  1  0.38031260  0.01646947  0.50221062  1
  O2-  O266  1  0.37662635  0.50860478  -0.00566146  1
  O2-  O267  1  0.36692199  0.53587698  0.49227436  1
  O2-  O268  1  0.86538686  0.03667455  -0.02137861  1
  O2-  O269  1  0.86489191  0.02767685  0.49395595  1
  O2-  O270  1  0.87817302  0.51089975  -0.00754973  1
  O2-  O271  1  0.86449621  0.51745522  0.47893949  1
  O2-  O272  1  0.49216478  0.38226769  -0.01999371  1
  O2-  O273  1  0.47636240  0.36688789  0.47166088  1
  O2-  O274  1  0.48434420  0.86655290  -0.01102436  1
  O2-  O275  1  0.48312512  0.87878352  0.48736508  1
  O2-  O276  1  0.99440390  0.38127628  0.01455319  1
  O2-  O277  1  0.97464708  0.36558215  0.51225835  1
  O2-  O278  1  0.99052024  0.86161208  0.02213739  1
  O2-  O279  1  0.97813367  0.86971372  0.51507583  1
  O2-  O280  1  0.02836753  0.13370689  -0.01506309  1
  O2-  O281  1  0.03729745  0.13380905  0.49663468  1
  O2-  O282  1  0.02260357  0.61978212  -0.00800312  1
  O2-  O283  1  0.01654958  0.63209091  0.48944109  1
  O2-  O284  1  0.51626801  0.13937250  0.03120372  1
  O2-  O285  1  0.51520411  0.11934689  0.51408573  1
  O2-  O286  1  0.50750257  0.62117038  0.01965192  1
  O2-  O287  1  0.52692055  0.63510411  0.51578519  1
  O2-  O288  1  0.12571725  0.27124516  -0.01779621  1
  O2-  O289  1  0.11685353  0.27863395  0.47690986  1
  O2-  O290  1  0.13517235  0.75719639  0.02566919  1
  O2-  O291  1  0.11786497  0.76616653  0.53255718  1
  O2-  O292  1  0.62140516  0.26915232  -0.02017006  1
  O2-  O293  1  0.61404257  0.26081660  0.47125991  1
  O2-  O294  1  0.61355612  0.75812195  0.02998569  1
  O2-  O295  1  0.61308773  0.77850184  0.50769839  1
  O2-  O296  1  0.36899805  0.24717460  0.02186982  1
  O2-  O297  1  0.38204822  0.23121228  0.52236790  1
  O2-  O298  1  0.37506136  0.73326228  -0.01171226  1
  O2-  O299  1  0.38687337  0.73798013  0.46725493  1
  O2-  O300  1  0.86703824  0.23372173  0.01988402  1
  O2-  O301  1  0.88255168  0.22080022  0.52366217  1
  O2-  O302  1  0.88356382  0.72939115  -0.02030727  1
  O2-  O303  1  0.88318863  0.74295548  0.46546013  1
  O2-  O304  1  0.25920688  0.38004118  -0.01699352  1
  O2-  O305  1  0.27615210  0.38705936  0.46729082  1
  O2-  O306  1  0.26903760  0.87448391  -0.01255052  1
  O2-  O307  1  0.27757750  0.88673677  0.48415296  1
  O2-  O308  1  0.76062785  0.37305069  0.01663943  1
  O2-  O309  1  0.77531956  0.38232583  0.52005358  1
  O2-  O310  1  0.78607465  0.88745677  0.00862032  1
  O2-  O311  1  0.76108267  0.88700066  0.53461763  1
  O2-  O312  1  0.23375553  0.13421792  0.02152340  1
  O2-  O313  1  0.24068310  0.11439033  0.53428328  1
  O2-  O314  1  0.24443057  0.62509831  0.02022161  1
  O2-  O315  1  0.22351660  0.61465943  0.51487442  1
  O2-  O316  1  0.72387119  0.13305821  -0.01302749  1
  O2-  O317  1  0.72118413  0.11218084  0.48163874  1
  O2-  O318  1  0.73728263  0.61350506  -0.01980805  1
  O2-  O319  1  0.72881930  0.61469907  0.47235513  1
