# generated using pymatgen
data_Sr64Ca21Nb43O192
_symmetry_space_group_name_H-M   'P 1'
_cell_length_a   16.52849482
_cell_length_b   16.53564036
_cell_length_c   16.69396645
_cell_angle_alpha   89.97119600
_cell_angle_beta   89.99952255
_cell_angle_gamma   90.03510656
_symmetry_Int_Tables_number   1
_chemical_formula_structural   Sr64Ca21Nb43O192
_chemical_formula_sum   'Sr64 Ca21 Nb43 O192'
_cell_volume   4562.61395165
_cell_formula_units_Z   1
loop_
 _symmetry_equiv_pos_site_id
 _symmetry_equiv_pos_as_xyz
  1  'x, y, z'
loop_
 _atom_type_symbol
 _atom_type_oxidation_number
  Sr2+  2.0
  Ca2+  2.0
  Nb5+  5.0
  O2-  -2.0
loop_
 _atom_site_type_symbol
 _atom_site_label
 _atom_site_symmetry_multiplicity
 _atom_site_fract_x
 _atom_site_fract_y
 _atom_site_fract_z
 _atom_site_occupancy
  Sr2+  Sr0  1  0.12220234  0.11559558  0.12358327  1
  Sr2+  Sr1  1  0.11931585  0.12780823  0.63050857  1
  Sr2+  Sr2  1  0.12318959  0.60912170  0.12437267  1
  Sr2+  Sr3  1  0.11827513  0.62362984  0.62176190  1
  Sr2+  Sr4  1  0.61787312  0.12736387  0.13070794  1
  Sr2+  Sr5  1  0.62114623  0.11604724  0.63042766  1
  Sr2+  Sr6  1  0.62094588  0.61411882  0.11370364  1
  Sr2+  Sr7  1  0.61264252  0.61893913  0.62495523  1
  Sr2+  Sr8  1  0.36954404  0.36884765  0.12389200  1
  Sr2+  Sr9  1  0.36486230  0.38237468  0.63396222  1
  Sr2+  Sr10  1  0.36722176  0.86874060  0.13039154  1
  Sr2+  Sr11  1  0.37225421  0.86607392  0.62126448  1
  Sr2+  Sr12  1  0.88871229  0.36527131  0.12660350  1
  Sr2+  Sr13  1  0.87000253  0.35893195  0.61751447  1
  Sr2+  Sr14  1  0.87701868  0.87068645  0.12523188  1
  Sr2+  Sr15  1  0.87491885  0.87972020  0.63689934  1
  Sr2+  Sr16  1  0.10949944  0.38345613  0.37307746  1
  Sr2+  Sr17  1  0.11497809  0.37699241  0.87921144  1
  Sr2+  Sr18  1  0.12853392  0.87898451  0.37453059  1
  Sr2+  Sr19  1  0.11905894  0.87523169  0.86812272  1
  Sr2+  Sr20  1  0.62440436  0.37277049  0.37178298  1
  Sr2+  Sr21  1  0.63038690  0.38717377  0.87072741  1
  Sr2+  Sr22  1  0.62611919  0.87540289  0.38373989  1
  Sr2+  Sr23  1  0.63353230  0.87024236  0.88110245  1
  Sr2+  Sr24  1  0.38595368  0.12849988  0.37926755  1
  Sr2+  Sr25  1  0.37134743  0.13394973  0.87015681  1
  Sr2+  Sr26  1  0.37522064  0.62839180  0.37146371  1
  Sr2+  Sr27  1  0.39086314  0.61925783  0.87154026  1
  Sr2+  Sr28  1  0.86897332  0.13527376  0.38109882  1
  Sr2+  Sr29  1  0.89073754  0.12702951  0.86826813  1
  Sr2+  Sr30  1  0.87632987  0.62461209  0.37814855  1
  Sr2+  Sr31  1  0.88205727  0.63258529  0.87334008  1
  Sr2+  Sr32  1  0.12567482  0.12129665  0.37410284  1
  Sr2+  Sr33  1  0.12188224  0.13753033  0.86876022  1
  Sr2+  Sr34  1  0.12418898  0.62640843  0.37939252  1
  Sr2+  Sr35  1  0.11973439  0.62595166  0.87737480  1
  Sr2+  Sr36  1  0.62567987  0.13666401  0.37789358  1
  Sr2+  Sr37  1  0.63449456  0.13885176  0.87542692  1
  Sr2+  Sr38  1  0.63787274  0.62135709  0.37744862  1
  Sr2+  Sr39  1  0.63028560  0.63348570  0.87881955  1
  Sr2+  Sr40  1  0.37685966  0.36879864  0.36997480  1
  Sr2+  Sr41  1  0.37215348  0.37486253  0.87503167  1
  Sr2+  Sr42  1  0.38351176  0.87786515  0.37984083  1
  Sr2+  Sr43  1  0.38348927  0.86288598  0.86606117  1
  Sr2+  Sr44  1  0.88231856  0.37898034  0.37704759  1
  Sr2+  Sr45  1  0.88747301  0.36835433  0.87539800  1
  Sr2+  Sr46  1  0.87857627  0.86559702  0.36884777  1
  Sr2+  Sr47  1  0.87969803  0.87452577  0.87402199  1
  Sr2+  Sr48  1  0.12767936  0.37398457  0.12065655  1
  Sr2+  Sr49  1  0.11660559  0.38270712  0.62087580  1
  Sr2+  Sr50  1  0.11348223  0.87101473  0.13532494  1
  Sr2+  Sr51  1  0.13162843  0.86180531  0.61816305  1
  Sr2+  Sr52  1  0.61432770  0.37455143  0.12308088  1
  Sr2+  Sr53  1  0.61790846  0.37199435  0.63048154  1
  Sr2+  Sr54  1  0.62569338  0.86947676  0.12138817  1
  Sr2+  Sr55  1  0.61549404  0.87300372  0.62972838  1
  Sr2+  Sr56  1  0.37035209  0.12382075  0.12132679  1
  Sr2+  Sr57  1  0.37147367  0.11656640  0.62815393  1
  Sr2+  Sr58  1  0.37736373  0.61998762  0.12436869  1
  Sr2+  Sr59  1  0.35999921  0.63191985  0.62934522  1
  Sr2+  Sr60  1  0.86711205  0.11089926  0.12720928  1
  Sr2+  Sr61  1  0.86317361  0.11898761  0.63335626  1
  Sr2+  Sr62  1  0.87107480  0.64064000  0.12071872  1
  Sr2+  Sr63  1  0.85314304  0.61685747  0.62260278  1
  Ca2+  Ca64  1  0.49351428  0.49745845  0.49636034  1
  Ca2+  Ca65  1  0.00385302  -0.00029900  -0.00057250  1
  Ca2+  Ca66  1  -0.00212451  -0.00206213  0.50114703  1
  Ca2+  Ca67  1  -0.00050182  0.50239335  0.00147046  1
  Ca2+  Ca68  1  0.49840574  -0.00028545  0.00059020  1
  Ca2+  Ca69  1  0.75012869  0.25020865  0.00094044  1
  Ca2+  Ca70  1  0.74570161  0.24894222  0.50232618  1
  Ca2+  Ca71  1  0.24917828  0.75161621  0.00193730  1
  Ca2+  Ca72  1  0.24913201  0.25131421  0.49605613  1
  Ca2+  Ca73  1  0.74826493  0.75066066  0.50240678  1
  Ca2+  Ca74  1  0.00256634  0.24814604  0.25286351  1
  Ca2+  Ca75  1  0.49829901  0.24701835  0.75283235  1
  Ca2+  Ca76  1  0.24967723  -0.00186046  0.74913360  1
  Ca2+  Ca77  1  -0.00015281  0.25574801  0.74625607  1
  Ca2+  Ca78  1  0.75084066  0.50082845  0.24706222  1
  Ca2+  Ca79  1  0.24395099  0.50183627  0.75098696  1
  Ca2+  Ca80  1  0.00152942  0.74746113  0.74571662  1
  Ca2+  Ca81  1  0.50119932  0.74766234  0.75018697  1
  Ca2+  Ca82  1  0.00287930  0.74661112  0.25067501  1
  Ca2+  Ca83  1  0.50497498  0.74915454  0.25006106  1
  Ca2+  Ca84  1  0.75291280  0.50005412  0.75207346  1
  Nb5+  Nb85  1  0.49969368  0.49580407  -0.00181079  1
  Nb5+  Nb86  1  0.50070320  -0.00005882  0.50135742  1
  Nb5+  Nb87  1  -0.00307513  0.50407085  0.50078130  1
  Nb5+  Nb88  1  0.25005603  0.25062468  0.00069994  1
  Nb5+  Nb89  1  0.75215582  0.75034562  -0.00155432  1
  Nb5+  Nb90  1  0.24993899  0.74906346  0.49472573  1
  Nb5+  Nb91  1  0.74184173  -0.00046594  0.25505028  1
  Nb5+  Nb92  1  0.25170225  0.49407213  0.25075194  1
  Nb5+  Nb93  1  0.74703543  0.00090824  0.76080490  1
  Nb5+  Nb94  1  0.25175461  -0.00579496  0.25002292  1
  Nb5+  Nb95  1  0.49877413  0.25055669  0.24915485  1
  Nb5+  Nb96  1  -0.01006006  0.00378990  0.25512172  1
  Nb5+  Nb97  1  0.00613774  -0.00149668  0.74430312  1
  Nb5+  Nb98  1  -0.00394879  0.50547405  0.24775164  1
  Nb5+  Nb99  1  -0.00258524  0.50105960  0.75180398  1
  Nb5+  Nb100  1  0.49479555  0.00031033  0.24959764  1
  Nb5+  Nb101  1  0.50004906  -0.00371166  0.75839798  1
  Nb5+  Nb102  1  0.50272089  0.49939645  0.25250878  1
  Nb5+  Nb103  1  0.49766160  0.49897767  0.74386427  1
  Nb5+  Nb104  1  0.25011387  0.24331208  0.25124570  1
  Nb5+  Nb105  1  0.24613871  0.25324471  0.74353143  1
  Nb5+  Nb106  1  0.24897649  0.74255601  0.24739743  1
  Nb5+  Nb107  1  0.24691744  0.74914025  0.75759760  1
  Nb5+  Nb108  1  0.75540286  0.25283342  0.24433008  1
  Nb5+  Nb109  1  0.75085670  0.25509847  0.75634911  1
  Nb5+  Nb110  1  0.74503691  0.74676398  0.25004098  1
  Nb5+  Nb111  1  0.74773485  0.75079152  0.74444231  1
  Nb5+  Nb112  1  0.00441860  0.24373568  0.49934962  1
  Nb5+  Nb113  1  -0.00289034  0.24677074  1.00690324  1
  Nb5+  Nb114  1  -0.00710366  0.74904470  0.50062313  1
  Nb5+  Nb115  1  0.00732795  0.75601983  0.99951505  1
  Nb5+  Nb116  1  0.49648763  0.25013594  0.50643139  1
  Nb5+  Nb117  1  0.50069670  0.24975786  0.99771807  1
  Nb5+  Nb118  1  0.50241701  0.74415924  0.49769503  1
  Nb5+  Nb119  1  0.49738953  0.75103457  1.00521367  1
  Nb5+  Nb120  1  0.25258187  -0.00290821  -0.00478404  1
  Nb5+  Nb121  1  0.24951700  -0.00062606  0.50019404  1
  Nb5+  Nb122  1  0.25204786  0.50181438  -0.00115695  1
  Nb5+  Nb123  1  0.25128876  0.50027076  0.49756175  1
  Nb5+  Nb124  1  0.74786712  0.00183228  0.00659140  1
  Nb5+  Nb125  1  0.75111516  -0.00141422  0.50404437  1
  Nb5+  Nb126  1  0.75763119  0.49900384  0.00025352  1
  Nb5+  Nb127  1  0.74390965  0.49270742  0.50144718  1
  O2-  O128  1  -0.02089682  0.00155302  0.13560626  1
  O2-  O129  1  -0.03453126  0.00641781  0.63225129  1
  O2-  O130  1  0.01420318  0.49174323  0.13440484  1
  O2-  O131  1  0.01030375  0.50552536  0.61786006  1
  O2-  O132  1  0.49303940  0.02742394  0.13693817  1
  O2-  O133  1  0.49267286  0.02232742  0.61600377  1
  O2-  O134  1  0.50221499  0.51236008  0.12803064  1
  O2-  O135  1  0.50374196  0.51228361  0.62976048  1
  O2-  O136  1  0.02699271  -0.00157562  0.36733370  1
  O2-  O137  1  0.02271432  -0.00276773  0.86381790  1
  O2-  O138  1  -0.00467067  0.50512458  0.37489291  1
  O2-  O139  1  -0.00558243  0.49368073  0.86770558  1
  O2-  O140  1  0.51728055  -0.01380519  0.37115304  1
  O2-  O141  1  0.50710075  -0.03788813  0.86721549  1
  O2-  O142  1  0.49076554  0.46861991  0.36443292  1
  O2-  O143  1  0.48832948  0.47931515  0.88237990  1
  O2-  O144  1  0.24119147  0.26551451  0.13009863  1
  O2-  O145  1  0.22752467  0.26933401  0.63128447  1
  O2-  O146  1  0.24590519  0.77396239  0.13559668  1
  O2-  O147  1  0.25615980  0.76278071  0.61365349  1
  O2-  O148  1  0.71703313  0.26058227  0.13418472  1
  O2-  O149  1  0.72783952  0.26896364  0.63864908  1
  O2-  O150  1  0.75709187  0.76590225  0.12212161  1
  O2-  O151  1  0.75614268  0.77997801  0.63371103  1
  O2-  O152  1  0.28116172  0.23905478  0.36221115  1
  O2-  O153  1  0.26839448  0.24345891  0.88619062  1
  O2-  O154  1  0.25486072  0.73289882  0.37251026  1
  O2-  O155  1  0.22970207  0.73406686  0.86980132  1
  O2-  O156  1  0.75328610  0.22698021  0.36028257  1
  O2-  O157  1  0.76979920  0.21598938  0.86962474  1
  O2-  O158  1  0.74539027  0.73276958  0.36663145  1
  O2-  O159  1  0.74449899  0.74155193  0.87856241  1
  O2-  O160  1  0.02766084  0.26095926  0.12036427  1
  O2-  O161  1  0.03175349  0.25824985  0.61410057  1
  O2-  O162  1  -0.01263354  0.75037093  0.11692657  1
  O2-  O163  1  0.02522245  0.74643010  0.61284690  1
  O2-  O164  1  0.51386356  0.23991840  0.12697645  1
  O2-  O165  1  0.52487449  0.23598760  0.61664518  1
  O2-  O166  1  0.50864802  0.71484179  0.11776085  1
  O2-  O167  1  0.48615704  0.72832471  0.61467217  1
  O2-  O168  1  0.23947172  0.01071597  0.37074174  1
  O2-  O169  1  0.21898761  0.00738504  0.88638564  1
  O2-  O170  1  0.25379165  0.52263624  0.36793788  1
  O2-  O171  1  0.26454133  0.51503530  0.88592093  1
  O2-  O172  1  0.72447193  0.01376513  0.36712749  1
  O2-  O173  1  0.72537930  0.00981085  0.87347797  1
  O2-  O174  1  0.75392187  0.52297192  0.38410845  1
  O2-  O175  1  0.73323864  0.52139276  0.88706346  1
  O2-  O176  1  -0.03300790  0.25253257  0.38464888  1
  O2-  O177  1  -0.01250762  0.25161522  0.88596411  1
  O2-  O178  1  -0.00494228  0.74244864  0.38361093  1
  O2-  O179  1  0.00249838  0.74470220  0.88167024  1
  O2-  O180  1  0.47908859  0.25876794  0.36770907  1
  O2-  O181  1  0.46717919  0.25723199  0.88782423  1
  O2-  O182  1  0.49616299  0.77361964  0.38366633  1
  O2-  O183  1  0.50729040  0.76669570  0.88817414  1
  O2-  O184  1  0.28257838  -0.00474175  0.13575824  1
  O2-  O185  1  0.27971122  -0.01131075  0.61115984  1
  O2-  O186  1  0.24944287  0.49037765  0.13110287  1
  O2-  O187  1  0.24230713  0.48581862  0.61187820  1
  O2-  O188  1  0.76911916  -0.01445185  0.12193839  1
  O2-  O189  1  0.76227444  -0.01480012  0.61926156  1
  O2-  O190  1  0.73278847  0.49156123  0.11370953  1
  O2-  O191  1  0.76492052  0.47588333  0.61673497  1
  O2-  O192  1  0.13992559  0.26843362  0.27232265  1
  O2-  O193  1  0.13468827  0.26766220  0.78210202  1
  O2-  O194  1  0.13732689  0.77914138  0.26152988  1
  O2-  O195  1  0.13474860  0.78753093  0.74634764  1
  O2-  O196  1  0.61808793  0.26476444  0.26437116  1
  O2-  O197  1  0.63225603  0.26206580  0.78106485  1
  O2-  O198  1  0.63653555  0.79370319  0.25063442  1
  O2-  O199  1  0.63362831  0.78039048  0.75621529  1
  O2-  O200  1  0.37792360  0.23527361  0.22865117  1
  O2-  O201  1  0.36293568  0.22009619  0.73714794  1
  O2-  O202  1  0.36774252  0.73197290  0.24605223  1
  O2-  O203  1  0.36730916  0.72592729  0.76575700  1
  O2-  O204  1  0.86653279  0.22901190  0.22114010  1
  O2-  O205  1  0.86531750  0.23078806  0.73014183  1
  O2-  O206  1  0.86374648  0.73574980  0.25157925  1
  O2-  O207  1  0.86431381  0.73470725  0.76004529  1
  O2-  O208  1  0.27389690  0.37869693  0.25860816  1
  O2-  O209  1  0.27863340  0.36690831  0.76091181  1
  O2-  O210  1  0.27620415  0.88071010  0.26573467  1
  O2-  O211  1  0.28250303  0.86543691  0.75524703  1
  O2-  O212  1  0.77834180  0.36577010  0.25934720  1
  O2-  O213  1  0.76746265  0.36628988  0.78327079  1
  O2-  O214  1  0.77706580  0.88582261  0.25725238  1
  O2-  O215  1  0.76990299  0.88216831  0.76467324  1
  O2-  O216  1  0.23821919  0.12629128  0.23818264  1
  O2-  O217  1  0.22240346  0.13281165  0.74417293  1
  O2-  O218  1  0.23221078  0.62664939  0.23425166  1
  O2-  O219  1  0.22794755  0.63719877  0.72347710  1
  O2-  O220  1  0.73982806  0.11661724  0.22719727  1
  O2-  O221  1  0.73137052  0.11678522  0.73214997  1
  O2-  O222  1  0.71461100  0.63724139  0.23142299  1
  O2-  O223  1  0.72390988  0.63758500  0.72727782  1
  O2-  O224  1  0.13417102  0.47825923  0.25442807  1
  O2-  O225  1  0.11321000  0.46134333  0.75066559  1
  O2-  O226  1  0.13772494  0.98335515  0.23375922  1
  O2-  O227  1  0.11602766  0.98050570  0.71317254  1
  O2-  O228  1  0.61556369  0.46996802  0.25067356  1
  O2-  O229  1  0.61666000  0.47098033  0.74539670  1
  O2-  O230  1  0.62777972  0.98523100  0.23152095  1
  O2-  O231  1  0.62860851  0.97976558  0.73389698  1
  O2-  O232  1  0.38020459  0.02062361  0.27035444  1
  O2-  O233  1  0.38659275  0.02392072  0.76249256  1
  O2-  O234  1  0.37424691  0.51957497  0.24520367  1
  O2-  O235  1  0.38075203  0.52652401  0.74295089  1
  O2-  O236  1  0.87517154  0.02405133  0.27323998  1
  O2-  O237  1  0.86519277  0.01942944  0.76643756  1
  O2-  O238  1  0.88501525  0.53785362  0.24100767  1
  O2-  O239  1  0.88474635  0.54339016  0.74773188  1
  O2-  O240  1  0.48007869  0.36963760  0.23221822  1
  O2-  O241  1  0.47186686  0.38163320  0.74162559  1
  O2-  O242  1  0.47956399  0.88735734  0.23271205  1
  O2-  O243  1  0.48540172  0.88520090  0.71712842  1
  O2-  O244  1  0.98223193  0.38652658  0.25899502  1
  O2-  O245  1  0.95907936  0.38787236  0.73628593  1
  O2-  O246  1  0.98675228  0.88455589  0.25212806  1
  O2-  O247  1  0.97242032  0.88357030  0.75114771  1
  O2-  O248  1  0.03080205  0.11547951  0.24913027  1
  O2-  O249  1  0.01472740  0.11873480  0.75096860  1
  O2-  O250  1  0.04024754  0.61514456  0.25120382  1
  O2-  O251  1  0.03908654  0.61452852  0.75190697  1
  O2-  O252  1  0.51609199  0.12868236  0.26555591  1
  O2-  O253  1  0.53091634  0.11037923  0.76456568  1
  O2-  O254  1  0.51988092  0.61161116  0.27643279  1
  O2-  O255  1  0.52451773  0.61217126  0.77520289  1
  O2-  O256  1  0.13774914  0.47633911  -0.00223965  1
  O2-  O257  1  0.12644267  0.48831493  0.48578848  1
  O2-  O258  1  0.14380404  0.98558381  0.04018436  1
  O2-  O259  1  0.13795036  0.96859129  0.50857623  1
  O2-  O260  1  0.61695363  0.47797643  0.00112243  1
  O2-  O261  1  0.63083975  0.46660477  0.50063383  1
  O2-  O262  1  0.63397548  0.96731649  0.00818841  1
  O2-  O263  1  0.61964536  0.97704355  0.51022239  1
  O2-  O264  1  0.36402275  0.03939338  -0.01088086  1
  O2-  O265  1  0.37912656  0.01103689  0.47668912  1
  O2-  O266  1  0.37778965  0.51444533  0.01347935  1
  O2-  O267  1  0.36222882  0.53737941  0.50090309  1
  O2-  O268  1  0.86154057  0.02128375  -0.02237258  1
  O2-  O269  1  0.86119554  0.02476193  0.48029770  1
  O2-  O270  1  0.86655713  0.53568141  0.00636030  1
  O2-  O271  1  0.88129573  0.52497936  0.49989251  1
  O2-  O272  1  0.48060370  0.37660802  0.02115955  1
  O2-  O273  1  0.46560571  0.36180968  0.51485413  1
  O2-  O274  1  0.48367554  0.86245822  0.03373776  1
  O2-  O275  1  0.47888763  0.88068087  0.51199896  1
  O2-  O276  1  0.97925564  0.36751260  0.00148364  1
  O2-  O277  1  0.98530402  0.38421498  0.49882969  1
  O2-  O278  1  0.96655977  0.86852101  -0.00230572  1
  O2-  O279  1  0.96921310  0.86340495  0.50095705  1
  O2-  O280  1  0.03319269  0.13409738  -0.00108247  1
  O2-  O281  1  0.03020651  0.13137645  0.49636065  1
  O2-  O282  1  0.03304615  0.63610444  0.00218567  1
  O2-  O283  1  0.02545018  0.62255263  0.49574164  1
  O2-  O284  1  0.52502527  0.13625916  -0.00854374  1
  O2-  O285  1  0.51583276  0.11883397  0.47981308  1
  O2-  O286  1  0.51796778  0.61505549  -0.01703232  1
  O2-  O287  1  0.52705318  0.63215326  0.47859713  1
  O2-  O288  1  0.13457194  0.27586585  -0.00888158  1
  O2-  O289  1  0.11650551  0.27316611  0.46766374  1
  O2-  O290  1  0.11699273  0.79370330  0.00190861  1
  O2-  O291  1  0.13130960  0.77117104  0.48569132  1
  O2-  O292  1  0.61236122  0.28108257  -0.01791967  1
  O2-  O293  1  0.60974664  0.26503022  0.47237684  1
  O2-  O294  1  0.62829725  0.76448012  0.00346855  1
  O2-  O295  1  0.61376528  0.77645638  0.50860584  1
  O2-  O296  1  0.37350994  0.23945528  0.02391755  1
  O2-  O297  1  0.38373485  0.21279092  0.51148579  1
  O2-  O298  1  0.38465875  0.72257538  -0.00302359  1
  O2-  O299  1  0.37231650  0.73151697  0.49164092  1
  O2-  O300  1  0.88492158  0.22523246  0.03000591  1
  O2-  O301  1  0.88507171  0.23089055  0.52723163  1
  O2-  O302  1  0.86987445  0.72772037  -0.00558895  1
  O2-  O303  1  0.88212294  0.71613602  0.50888208  1
  O2-  O304  1  0.27419591  0.37633168  0.00069131  1
  O2-  O305  1  0.27376234  0.38859446  0.47860364  1
  O2-  O306  1  0.28879139  0.88732835  -0.01138281  1
  O2-  O307  1  0.27091956  0.87105316  0.48055836  1
  O2-  O308  1  0.78196440  0.38605096  -0.01319428  1
  O2-  O309  1  0.77757901  0.38063716  0.47878339  1
  O2-  O310  1  0.76841395  0.87138003  -0.01217027  1
  O2-  O311  1  0.76106331  0.88602954  0.46827574  1
  O2-  O312  1  0.23251200  0.13439217  0.01617471  1
  O2-  O313  1  0.22733040  0.11302733  0.50735288  1
  O2-  O314  1  0.23436881  0.61512769  0.02191260  1
  O2-  O315  1  0.22571545  0.63052564  0.50706997  1
  O2-  O316  1  0.72034428  0.11360815  0.01834481  1
  O2-  O317  1  0.71914480  0.11308219  0.50795165  1
  O2-  O318  1  0.73004896  0.63200671  0.01397669  1
  O2-  O319  1  0.72532317  0.61287058  0.52483535  1
