# generated using pymatgen
data_Sr64Ca21Nb43O192
_symmetry_space_group_name_H-M   'P 1'
_cell_length_a   16.60378273
_cell_length_b   16.57945983
_cell_length_c   16.73833654
_cell_angle_alpha   89.99985663
_cell_angle_beta   89.89672162
_cell_angle_gamma   89.90876941
_symmetry_Int_Tables_number   1
_chemical_formula_structural   Sr64Ca21Nb43O192
_chemical_formula_sum   'Sr64 Ca21 Nb43 O192'
_cell_volume   4607.74522748
_cell_formula_units_Z   1
loop_
 _symmetry_equiv_pos_site_id
 _symmetry_equiv_pos_as_xyz
  1  'x, y, z'
loop_
 _atom_type_symbol
 _atom_type_oxidation_number
  Sr2+  2.0
  Ca2+  2.0
  Nb5+  5.0
  O2-  -2.0
loop_
 _atom_site_type_symbol
 _atom_site_label
 _atom_site_symmetry_multiplicity
 _atom_site_fract_x
 _atom_site_fract_y
 _atom_site_fract_z
 _atom_site_occupancy
  Sr2+  Sr0  1  0.13092549  0.14175512  0.12370455  1
  Sr2+  Sr1  1  0.13118782  0.13352874  0.61865511  1
  Sr2+  Sr2  1  0.13184441  0.64114600  0.12376548  1
  Sr2+  Sr3  1  0.12944037  0.63708824  0.62021131  1
  Sr2+  Sr4  1  0.62210189  0.13251292  0.12408561  1
  Sr2+  Sr5  1  0.62626891  0.13465630  0.62669551  1
  Sr2+  Sr6  1  0.62330606  0.62449086  0.13722359  1
  Sr2+  Sr7  1  0.63098361  0.62941972  0.62623948  1
  Sr2+  Sr8  1  0.38114112  0.39359254  0.12347810  1
  Sr2+  Sr9  1  0.38393622  0.38302154  0.62439068  1
  Sr2+  Sr10  1  0.37916374  0.87666384  0.12193436  1
  Sr2+  Sr11  1  0.37877255  0.87272536  0.62500205  1
  Sr2+  Sr12  1  0.88247922  0.38294507  0.12331402  1
  Sr2+  Sr13  1  0.87914240  0.38165806  0.62962892  1
  Sr2+  Sr14  1  0.87996498  0.88045152  0.11915168  1
  Sr2+  Sr15  1  0.88147516  0.88197524  0.62264501  1
  Sr2+  Sr16  1  0.11028242  0.37604862  0.38167001  1
  Sr2+  Sr17  1  0.11819847  0.35975189  0.87992895  1
  Sr2+  Sr18  1  0.11578326  0.87371332  0.37204498  1
  Sr2+  Sr19  1  0.11004884  0.86709824  0.87529539  1
  Sr2+  Sr20  1  0.61910627  0.36609545  0.36884603  1
  Sr2+  Sr21  1  0.61595434  0.37652052  0.86959270  1
  Sr2+  Sr22  1  0.63166187  0.86524458  0.37021475  1
  Sr2+  Sr23  1  0.62428826  0.87100660  0.88362874  1
  Sr2+  Sr24  1  0.36263499  0.11805872  0.36764986  1
  Sr2+  Sr25  1  0.37216190  0.12122078  0.87291634  1
  Sr2+  Sr26  1  0.36685999  0.61557643  0.36779222  1
  Sr2+  Sr27  1  0.37054776  0.61995784  0.87549293  1
  Sr2+  Sr28  1  0.86980451  0.11820348  0.37692241  1
  Sr2+  Sr29  1  0.85726005  0.11541276  0.87167661  1
  Sr2+  Sr30  1  0.87184757  0.61974279  0.37364390  1
  Sr2+  Sr31  1  0.86290277  0.61618780  0.88227796  1
  Sr2+  Sr32  1  0.11620089  0.11410358  0.37063397  1
  Sr2+  Sr33  1  0.12275125  0.11763421  0.87307213  1
  Sr2+  Sr34  1  0.11443251  0.61018118  0.37423245  1
  Sr2+  Sr35  1  0.11308537  0.61365933  0.88162385  1
  Sr2+  Sr36  1  0.62136081  0.12284235  0.37887671  1
  Sr2+  Sr37  1  0.61461117  0.11630942  0.87630353  1
  Sr2+  Sr38  1  0.61588133  0.61211946  0.37457816  1
  Sr2+  Sr39  1  0.62254964  0.62028245  0.87014069  1
  Sr2+  Sr40  1  0.37600639  0.38177211  0.37393180  1
  Sr2+  Sr41  1  0.37017500  0.36588092  0.87510809  1
  Sr2+  Sr42  1  0.36805907  0.87215687  0.35592711  1
  Sr2+  Sr43  1  0.37799770  0.86785033  0.87144064  1
  Sr2+  Sr44  1  0.86766721  0.36057091  0.37070888  1
  Sr2+  Sr45  1  0.86876354  0.36855339  0.87973363  1
  Sr2+  Sr46  1  0.86954831  0.86049488  0.36996838  1
  Sr2+  Sr47  1  0.87096132  0.85826334  0.87707273  1
  Sr2+  Sr48  1  0.13692818  0.37724172  0.11576598  1
  Sr2+  Sr49  1  0.13679125  0.39092258  0.62502774  1
  Sr2+  Sr50  1  0.14040423  0.87798982  0.12328320  1
  Sr2+  Sr51  1  0.13571451  0.88483273  0.62611204  1
  Sr2+  Sr52  1  0.62976760  0.38603873  0.13196169  1
  Sr2+  Sr53  1  0.63412125  0.37750086  0.62467827  1
  Sr2+  Sr54  1  0.63004665  0.88573170  0.12280996  1
  Sr2+  Sr55  1  0.62828784  0.87533658  0.62216989  1
  Sr2+  Sr56  1  0.37860154  0.12736491  0.12470227  1
  Sr2+  Sr57  1  0.38270579  0.12795370  0.62894883  1
  Sr2+  Sr58  1  0.37740814  0.63166942  0.13261624  1
  Sr2+  Sr59  1  0.38003799  0.63503287  0.62602788  1
  Sr2+  Sr60  1  0.89458473  0.13407090  0.13104930  1
  Sr2+  Sr61  1  0.87260620  0.13161723  0.61675416  1
  Sr2+  Sr62  1  0.89456143  0.63120265  0.12412880  1
  Sr2+  Sr63  1  0.88216601  0.62875323  0.62811275  1
  Ca2+  Ca64  1  0.50194324  -0.00050372  0.49978898  1
  Ca2+  Ca65  1  0.50084316  0.50004764  -0.00096491  1
  Ca2+  Ca66  1  0.00166201  0.49869421  -0.00026785  1
  Ca2+  Ca67  1  0.00063863  0.00124816  -0.00205891  1
  Ca2+  Ca68  1  0.50327240  0.50051599  0.50205420  1
  Ca2+  Ca69  1  0.74702119  0.24986493  -0.00132828  1
  Ca2+  Ca70  1  0.25055015  0.75312718  0.49769607  1
  Ca2+  Ca71  1  0.74727959  0.74563285  -0.00031017  1
  Ca2+  Ca72  1  0.24833890  0.25233806  0.50163609  1
  Ca2+  Ca73  1  0.25174277  0.75581003  -0.00339890  1
  Ca2+  Ca74  1  0.49662369  0.25075321  0.24740306  1
  Ca2+  Ca75  1  -0.00118999  0.24677612  0.74887863  1
  Ca2+  Ca76  1  0.24481197  0.49976019  0.24954999  1
  Ca2+  Ca77  1  0.75384328  0.49998517  0.25405574  1
  Ca2+  Ca78  1  0.75148583  0.00046249  0.24782432  1
  Ca2+  Ca79  1  0.25097253  0.50065866  0.75361089  1
  Ca2+  Ca80  1  0.00019900  0.74592046  0.75015269  1
  Ca2+  Ca81  1  0.50249753  0.75369292  0.24999525  1
  Ca2+  Ca82  1  0.00226439  0.25159638  0.25160986  1
  Ca2+  Ca83  1  0.00139029  0.74983750  0.25088658  1
  Ca2+  Ca84  1  0.74668387  -0.00302442  0.74976839  1
  Nb5+  Nb85  1  0.49722847  -0.00004354  -0.00177651  1
  Nb5+  Nb86  1  0.00046090  0.00412609  0.50293520  1
  Nb5+  Nb87  1  -0.00208109  0.50527694  0.50521745  1
  Nb5+  Nb88  1  0.25365466  0.25071362  0.00132510  1
  Nb5+  Nb89  1  0.74957778  0.74091965  0.49916954  1
  Nb5+  Nb90  1  0.74745046  0.24691376  0.49795630  1
  Nb5+  Nb91  1  0.50149840  0.75335762  0.74892250  1
  Nb5+  Nb92  1  0.75102654  0.49853135  0.74940180  1
  Nb5+  Nb93  1  0.24739812  0.00547644  0.23959584  1
  Nb5+  Nb94  1  0.25007787  0.00067859  0.74613588  1
  Nb5+  Nb95  1  0.49855585  0.25400622  0.75020911  1
  Nb5+  Nb96  1  0.00101612  -0.00369193  0.24419569  1
  Nb5+  Nb97  1  -0.00669056  0.00438694  0.74971500  1
  Nb5+  Nb98  1  0.00328076  0.49633675  0.24472370  1
  Nb5+  Nb99  1  0.00192718  0.49568037  0.75253925  1
  Nb5+  Nb100  1  0.50161644  0.00053884  0.25358306  1
  Nb5+  Nb101  1  0.50176013  0.00209927  0.74996691  1
  Nb5+  Nb102  1  0.49873745  0.50058990  0.25148619  1
  Nb5+  Nb103  1  0.50033117  0.50600527  0.74637969  1
  Nb5+  Nb104  1  0.24999865  0.25724292  0.25395975  1
  Nb5+  Nb105  1  0.24971737  0.25110842  0.74838033  1
  Nb5+  Nb106  1  0.24763659  0.74933769  0.25479968  1
  Nb5+  Nb107  1  0.24719976  0.75033135  0.75323225  1
  Nb5+  Nb108  1  0.75204276  0.24395816  0.24169613  1
  Nb5+  Nb109  1  0.74737002  0.24827548  0.75169423  1
  Nb5+  Nb110  1  0.75284310  0.74520283  0.24111986  1
  Nb5+  Nb111  1  0.75115634  0.74835492  0.74768146  1
  Nb5+  Nb112  1  -0.00158886  0.25820952  0.50422629  1
  Nb5+  Nb113  1  -0.00674330  0.24558952  0.99433347  1
  Nb5+  Nb114  1  -0.00014914  0.75733852  0.50375810  1
  Nb5+  Nb115  1  0.00103189  0.75135347  0.99915346  1
  Nb5+  Nb116  1  0.49490891  0.24620148  0.49592671  1
  Nb5+  Nb117  1  0.49678637  0.25289681  1.00209205  1
  Nb5+  Nb118  1  0.50108636  0.74859736  0.49646764  1
  Nb5+  Nb119  1  0.50143986  0.74670654  1.00069619  1
  Nb5+  Nb120  1  0.25202250  0.00098270  -0.01169986  1
  Nb5+  Nb121  1  0.25351895  0.00185804  0.49516325  1
  Nb5+  Nb122  1  0.24959232  0.50817719  -0.00236514  1
  Nb5+  Nb123  1  0.25472604  0.50581637  0.50518731  1
  Nb5+  Nb124  1  0.75541154  0.00297461  0.00357988  1
  Nb5+  Nb125  1  0.74935658  -0.00860564  0.49795528  1
  Nb5+  Nb126  1  0.74762207  0.49970658  0.00807417  1
  Nb5+  Nb127  1  0.75249683  0.49166320  0.49977545  1
  O2-  O128  1  0.01957586  -0.03028899  0.13494452  1
  O2-  O129  1  0.01403784  -0.02507408  0.62216873  1
  O2-  O130  1  0.01610952  0.46767333  0.13488142  1
  O2-  O131  1  0.00674957  0.47109980  0.62311149  1
  O2-  O132  1  0.50892757  -0.00117709  0.11666419  1
  O2-  O133  1  0.52348793  -0.00304223  0.63730632  1
  O2-  O134  1  0.52108657  0.49380842  0.13308582  1
  O2-  O135  1  0.52760482  0.48492834  0.63443220  1
  O2-  O136  1  -0.00917913  0.01914817  0.38608063  1
  O2-  O137  1  -0.01487709  0.02981135  0.86235111  1
  O2-  O138  1  -0.01579364  0.51887779  0.38997504  1
  O2-  O139  1  -0.01805442  0.52395514  0.86266765  1
  O2-  O140  1  0.47410196  0.00894744  0.36508470  1
  O2-  O141  1  0.47457020  0.00436028  0.87468633  1
  O2-  O142  1  0.47727349  0.50830363  0.37079904  1
  O2-  O143  1  0.48855036  0.50327774  0.86248740  1
  O2-  O144  1  0.26631590  0.22822790  0.11580808  1
  O2-  O145  1  0.26636486  0.22057391  0.63754799  1
  O2-  O146  1  0.26804780  0.74053298  0.13594052  1
  O2-  O147  1  0.27645297  0.74117796  0.63774750  1
  O2-  O148  1  0.76586483  0.21663560  0.13150056  1
  O2-  O149  1  0.75615305  0.23664090  0.62310112  1
  O2-  O150  1  0.76382595  0.71568247  0.13163570  1
  O2-  O151  1  0.76087016  0.72617042  0.62368850  1
  O2-  O152  1  0.23193123  0.27630324  0.36552485  1
  O2-  O153  1  0.24062596  0.26115466  0.87353896  1
  O2-  O154  1  0.23988230  0.78967826  0.36725498  1
  O2-  O155  1  0.24487549  0.79068041  0.86267738  1
  O2-  O156  1  0.73450200  0.26923925  0.38389343  1
  O2-  O157  1  0.73035378  0.27824305  0.86135806  1
  O2-  O158  1  0.74034529  0.76721973  0.38590669  1
  O2-  O159  1  0.72521224  0.75962758  0.85991035  1
  O2-  O160  1  -0.02401539  0.26446405  0.11390660  1
  O2-  O161  1  -0.03643683  0.25247772  0.61583114  1
  O2-  O162  1  -0.02577480  0.76505499  0.11640088  1
  O2-  O163  1  -0.03222716  0.75778787  0.61707748  1
  O2-  O164  1  0.46855015  0.24922585  0.11228221  1
  O2-  O165  1  0.48112791  0.25041457  0.63059766  1
  O2-  O166  1  0.47626155  0.74985830  0.11269145  1
  O2-  O167  1  0.48229605  0.74768324  0.63120135  1
  O2-  O168  1  0.26646774  -0.01112869  0.38043759  1
  O2-  O169  1  0.27864523  -0.00934879  0.87565138  1
  O2-  O170  1  0.26805126  0.48559541  0.38834057  1
  O2-  O171  1  0.28683622  0.48819331  0.88513752  1
  O2-  O172  1  0.78524089  -0.01107182  0.38588256  1
  O2-  O173  1  0.77604740  -0.02032960  0.88463955  1
  O2-  O174  1  0.78439586  0.48978327  0.38902252  1
  O2-  O175  1  0.76992112  0.48439141  0.86263451  1
  O2-  O176  1  0.01840761  0.23139408  0.39150041  1
  O2-  O177  1  0.03092733  0.23307755  0.88173847  1
  O2-  O178  1  0.01200239  0.72722810  0.39157658  1
  O2-  O179  1  0.02862925  0.73431237  0.88115117  1
  O2-  O180  1  0.52176152  0.24569602  0.38411342  1
  O2-  O181  1  0.51947298  0.24750541  0.86938216  1
  O2-  O182  1  0.52954206  0.75528336  0.38582578  1
  O2-  O183  1  0.52448355  0.75248336  0.86635298  1
  O2-  O184  1  0.23007665  0.02021219  0.12669087  1
  O2-  O185  1  0.23357645  0.02004139  0.63319569  1
  O2-  O186  1  0.21852740  0.50986683  0.11402697  1
  O2-  O187  1  0.22274296  0.52126413  0.62114662  1
  O2-  O188  1  0.71142130  0.01528213  0.11371863  1
  O2-  O189  1  0.72564872  0.01438365  0.61194914  1
  O2-  O190  1  0.72287610  0.51168974  0.11898122  1
  O2-  O191  1  0.73092163  0.50864820  0.62118274  1
  O2-  O192  1  0.13682771  0.26168838  0.21899211  1
  O2-  O193  1  0.13725881  0.27005601  0.73415308  1
  O2-  O194  1  0.13460493  0.77981952  0.23465544  1
  O2-  O195  1  0.13665918  0.76928968  0.72754741  1
  O2-  O196  1  0.63435710  0.27257894  0.23295424  1
  O2-  O197  1  0.61823647  0.26393400  0.72858191  1
  O2-  O198  1  0.63709366  0.78039867  0.23487450  1
  O2-  O199  1  0.62153025  0.75992780  0.72461710  1
  O2-  O200  1  0.36193187  0.22151926  0.26272238  1
  O2-  O201  1  0.38175848  0.23204411  0.76775445  1
  O2-  O202  1  0.36717729  0.73802266  0.27358611  1
  O2-  O203  1  0.38391490  0.73386563  0.76870557  1
  O2-  O204  1  0.86685339  0.22483178  0.27307712  1
  O2-  O205  1  0.86023426  0.22879436  0.76414204  1
  O2-  O206  1  0.86672228  0.72847283  0.27301975  1
  O2-  O207  1  0.86265806  0.72604995  0.76865928  1
  O2-  O208  1  0.27304381  0.36596602  0.22479956  1
  O2-  O209  1  0.27970356  0.36272703  0.73652597  1
  O2-  O210  1  0.27140638  0.88881892  0.23224606  1
  O2-  O211  1  0.27335501  0.88469978  0.73277643  1
  O2-  O212  1  0.77669587  0.36259311  0.23572761  1
  O2-  O213  1  0.75682218  0.37675773  0.72637756  1
  O2-  O214  1  0.77930588  0.86458435  0.23553143  1
  O2-  O215  1  0.76399214  0.86188780  0.72505667  1
  O2-  O216  1  0.22952478  0.12260434  0.26943917  1
  O2-  O217  1  0.24481508  0.12132577  0.77326795  1
  O2-  O218  1  0.22743871  0.63739843  0.27284731  1
  O2-  O219  1  0.23768182  0.63826598  0.78058037  1
  O2-  O220  1  0.72471638  0.13282934  0.27694424  1
  O2-  O221  1  0.72199800  0.13508958  0.76323965  1
  O2-  O222  1  0.72140732  0.63502075  0.27484686  1
  O2-  O223  1  0.72884029  0.61922534  0.75503217  1
  O2-  O224  1  0.11539335  0.48307295  0.28459058  1
  O2-  O225  1  0.11428765  0.47043345  0.76691539  1
  O2-  O226  1  0.13226809  0.98363069  0.27022059  1
  O2-  O227  1  0.13680803  0.98180456  0.76953968  1
  O2-  O228  1  0.61688980  0.47683306  0.27222797  1
  O2-  O229  1  0.62806675  0.48608657  0.76509826  1
  O2-  O230  1  0.61297023  0.97438408  0.26654656  1
  O2-  O231  1  0.61240817  0.98408588  0.78127943  1
  O2-  O232  1  0.36607363  0.02664443  0.23816607  1
  O2-  O233  1  0.37828589  0.01380231  0.73309312  1
  O2-  O234  1  0.37991597  0.52639479  0.23383887  1
  O2-  O235  1  0.38712131  0.51751680  0.72312255  1
  O2-  O236  1  0.88815822  0.01800859  0.23115153  1
  O2-  O237  1  0.88255154  0.02218514  0.72452248  1
  O2-  O238  1  0.88784923  0.52562361  0.23703846  1
  O2-  O239  1  0.86658354  0.51581147  0.72840562  1
  O2-  O240  1  0.47030040  0.38301122  0.25508376  1
  O2-  O241  1  0.48484119  0.37191690  0.75503715  1
  O2-  O242  1  0.46800135  0.88802415  0.24066190  1
  O2-  O243  1  0.48413913  0.87326900  0.74977740  1
  O2-  O244  1  0.98146740  0.38375159  0.28084643  1
  O2-  O245  1  0.96545170  0.38233360  0.76188108  1
  O2-  O246  1  0.99021944  0.88578131  0.28452174  1
  O2-  O247  1  0.98762784  0.88622209  0.76748243  1
  O2-  O248  1  0.02665756  0.11253347  0.24012897  1
  O2-  O249  1  0.03397232  0.11242627  0.72624762  1
  O2-  O250  1  0.02865665  0.61472464  0.23298834  1
  O2-  O251  1  0.01666952  0.60955676  0.71968386  1
  O2-  O252  1  0.51921153  0.11567046  0.23576165  1
  O2-  O253  1  0.51217575  0.12319253  0.74851407  1
  O2-  O254  1  0.52352615  0.62005493  0.24834475  1
  O2-  O255  1  0.51907736  0.62450196  0.74437101  1
  O2-  O256  1  0.13748101  0.47557231  -0.02925970  1
  O2-  O257  1  0.11413111  0.48093837  0.49153094  1
  O2-  O258  1  0.13768162  0.98782346  -0.02769391  1
  O2-  O259  1  0.11863090  0.98017548  0.49018162  1
  O2-  O260  1  0.63568059  0.46881619  -0.01986422  1
  O2-  O261  1  0.63958990  0.47926993  0.47638703  1
  O2-  O262  1  0.61291749  0.98855689  -0.02256418  1
  O2-  O263  1  0.63819828  0.98686450  0.46544824  1
  O2-  O264  1  0.37402457  0.02197874  0.01453141  1
  O2-  O265  1  0.36429967  0.02347519  0.51818216  1
  O2-  O266  1  0.36557760  0.52080063  0.03006710  1
  O2-  O267  1  0.36686006  0.52612907  0.52316588  1
  O2-  O268  1  0.86499837  0.02163042  0.03270602  1
  O2-  O269  1  0.87869457  0.00942796  0.52348847  1
  O2-  O270  1  0.86643144  0.52435086  0.01734679  1
  O2-  O271  1  0.87551513  0.51247354  0.52694629  1
  O2-  O272  1  0.47150122  0.36487191  -0.01263330  1
  O2-  O273  1  0.47757487  0.36372133  0.50125890  1
  O2-  O274  1  0.47710634  0.88253014  -0.00729561  1
  O2-  O275  1  0.49644309  0.86497404  0.51801086  1
  O2-  O276  1  0.98875532  0.36417439  -0.02230435  1
  O2-  O277  1  0.97770460  0.37215002  0.48569392  1
  O2-  O278  1  0.97978311  0.86953953  -0.02499900  1
  O2-  O279  1  0.98038670  0.87235961  0.48563613  1
  O2-  O280  1  0.02088828  0.13315776  0.02463782  1
  O2-  O281  1  0.01029061  0.11915290  0.52172480  1
  O2-  O282  1  0.02465479  0.63295143  0.01991399  1
  O2-  O283  1  0.01046942  0.62027449  0.52457936  1
  O2-  O284  1  0.50958491  0.12575281  -0.00532699  1
  O2-  O285  1  0.52836519  0.13366408  0.51432306  1
  O2-  O286  1  0.52784071  0.63509156  -0.00365082  1
  O2-  O287  1  0.53138257  0.63522610  0.51276463  1
  O2-  O288  1  0.13522232  0.26394447  0.01300450  1
  O2-  O289  1  0.11063893  0.27001532  0.53080834  1
  O2-  O290  1  0.11833085  0.77729669  0.01873524  1
  O2-  O291  1  0.11258699  0.76695043  0.52743570  1
  O2-  O292  1  0.61028666  0.26592353  0.02312019  1
  O2-  O293  1  0.62980355  0.26762086  0.51672727  1
  O2-  O294  1  0.61238636  0.78420230  0.01096463  1
  O2-  O295  1  0.63492075  0.76565890  0.52142023  1
  O2-  O296  1  0.37201900  0.23050286  -0.02561872  1
  O2-  O297  1  0.38304333  0.22099589  0.48409250  1
  O2-  O298  1  0.38755397  0.74012694  -0.03283422  1
  O2-  O299  1  0.38823644  0.72868623  0.48233288  1
  O2-  O300  1  0.88248816  0.22724576  -0.03181044  1
  O2-  O301  1  0.86876112  0.23551694  0.48294426  1
  O2-  O302  1  0.88254147  0.73204144  -0.02583050  1
  O2-  O303  1  0.86943558  0.73627949  0.48756636  1
  O2-  O304  1  0.27112748  0.36724492  0.01270613  1
  O2-  O305  1  0.26191738  0.38664608  0.52867302  1
  O2-  O306  1  0.26770818  0.89164816  0.02269569  1
  O2-  O307  1  0.25758634  0.88963068  0.52959290  1
  O2-  O308  1  0.78011533  0.38297386  0.01159745  1
  O2-  O309  1  0.76836456  0.37447121  0.51781813  1
  O2-  O310  1  0.75972132  0.88353223  0.01955598  1
  O2-  O311  1  0.76386109  0.87558002  0.51892514  1
  O2-  O312  1  0.23776859  0.12393864  -0.01481946  1
  O2-  O313  1  0.21808898  0.11493149  0.48844111  1
  O2-  O314  1  0.23050694  0.62077330  -0.02083240  1
  O2-  O315  1  0.22089574  0.61899985  0.48306513  1
  O2-  O316  1  0.73034655  0.11539089  -0.03082793  1
  O2-  O317  1  0.73997027  0.12823202  0.48659293  1
  O2-  O318  1  0.73011763  0.61125407  -0.02996559  1
  O2-  O319  1  0.73636464  0.62389547  0.48801799  1
