# generated using pymatgen
data_Sr64Ca21Nb43O192
_symmetry_space_group_name_H-M   'P 1'
_cell_length_a   16.63298564
_cell_length_b   16.59112985
_cell_length_c   16.75390754
_cell_angle_alpha   89.94653297
_cell_angle_beta   90.05336153
_cell_angle_gamma   90.07806136
_symmetry_Int_Tables_number   1
_chemical_formula_structural   Sr64Ca21Nb43O192
_chemical_formula_sum   'Sr64 Ca21 Nb43 O192'
_cell_volume   4623.40043130
_cell_formula_units_Z   1
loop_
 _symmetry_equiv_pos_site_id
 _symmetry_equiv_pos_as_xyz
  1  'x, y, z'
loop_
 _atom_type_symbol
 _atom_type_oxidation_number
  Sr2+  2.0
  Ca2+  2.0
  Nb5+  5.0
  O2-  -2.0
loop_
 _atom_site_type_symbol
 _atom_site_label
 _atom_site_symmetry_multiplicity
 _atom_site_fract_x
 _atom_site_fract_y
 _atom_site_fract_z
 _atom_site_occupancy
  Sr2+  Sr0  1  0.11771128  0.14144949  0.12642854  1
  Sr2+  Sr1  1  0.11622327  0.13454538  0.62901686  1
  Sr2+  Sr2  1  0.12075013  0.64012458  0.12458572  1
  Sr2+  Sr3  1  0.11628265  0.63208418  0.62466619  1
  Sr2+  Sr4  1  0.61694841  0.12957197  0.12729901  1
  Sr2+  Sr5  1  0.61907076  0.13618453  0.61827387  1
  Sr2+  Sr6  1  0.62468717  0.63716293  0.12997292  1
  Sr2+  Sr7  1  0.61736243  0.63036882  0.62365046  1
  Sr2+  Sr8  1  0.36160960  0.38766096  0.12608538  1
  Sr2+  Sr9  1  0.37338557  0.39182401  0.62835007  1
  Sr2+  Sr10  1  0.37267404  0.88393245  0.12977179  1
  Sr2+  Sr11  1  0.36632232  0.89356827  0.61522947  1
  Sr2+  Sr12  1  0.87299010  0.39234563  0.12590694  1
  Sr2+  Sr13  1  0.86399351  0.36738846  0.61853410  1
  Sr2+  Sr14  1  0.87642046  0.88485387  0.12399151  1
  Sr2+  Sr15  1  0.86931807  0.88198000  0.63209782  1
  Sr2+  Sr16  1  0.13933635  0.36916900  0.37440046  1
  Sr2+  Sr17  1  0.13376904  0.37513292  0.87958979  1
  Sr2+  Sr18  1  0.13747583  0.87099289  0.38131425  1
  Sr2+  Sr19  1  0.13286965  0.86813083  0.87278152  1
  Sr2+  Sr20  1  0.63970128  0.37018883  0.36796114  1
  Sr2+  Sr21  1  0.62413130  0.36055144  0.86982914  1
  Sr2+  Sr22  1  0.63402881  0.86454009  0.37611832  1
  Sr2+  Sr23  1  0.64276374  0.86943795  0.87786727  1
  Sr2+  Sr24  1  0.38638897  0.12322616  0.37255636  1
  Sr2+  Sr25  1  0.38291099  0.11987078  0.87559084  1
  Sr2+  Sr26  1  0.38827390  0.61900032  0.37668115  1
  Sr2+  Sr27  1  0.38360538  0.61923816  0.87842018  1
  Sr2+  Sr28  1  0.87927402  0.12069303  0.38727068  1
  Sr2+  Sr29  1  0.88602332  0.11261706  0.87195479  1
  Sr2+  Sr30  1  0.86691365  0.61603243  0.38226896  1
  Sr2+  Sr31  1  0.87544691  0.62166296  0.87114112  1
  Sr2+  Sr32  1  0.11644953  0.12200288  0.37588022  1
  Sr2+  Sr33  1  0.13308868  0.12273285  0.87422927  1
  Sr2+  Sr34  1  0.13166412  0.61206588  0.39441998  1
  Sr2+  Sr35  1  0.12773273  0.62083320  0.87366180  1
  Sr2+  Sr36  1  0.63850615  0.11152458  0.37724578  1
  Sr2+  Sr37  1  0.62582417  0.11841652  0.87196681  1
  Sr2+  Sr38  1  0.62535543  0.60843315  0.37011083  1
  Sr2+  Sr39  1  0.63825714  0.60955939  0.87145916  1
  Sr2+  Sr40  1  0.38036261  0.37239716  0.36685174  1
  Sr2+  Sr41  1  0.38381631  0.36303360  0.87490169  1
  Sr2+  Sr42  1  0.38365322  0.85865519  0.37901908  1
  Sr2+  Sr43  1  0.38156363  0.87311975  0.87467100  1
  Sr2+  Sr44  1  0.87734808  0.36219770  0.37755669  1
  Sr2+  Sr45  1  0.87199166  0.38510508  0.87620538  1
  Sr2+  Sr46  1  0.88576332  0.86688611  0.37592984  1
  Sr2+  Sr47  1  0.88305785  0.86467876  0.87027944  1
  Sr2+  Sr48  1  0.12033841  0.37630796  0.12531031  1
  Sr2+  Sr49  1  0.11906946  0.38655054  0.62249690  1
  Sr2+  Sr50  1  0.11910224  0.87935740  0.12609529  1
  Sr2+  Sr51  1  0.11960878  0.87766441  0.63023252  1
  Sr2+  Sr52  1  0.61947693  0.38591267  0.12889918  1
  Sr2+  Sr53  1  0.61392963  0.37340507  0.63087549  1
  Sr2+  Sr54  1  0.61678691  0.88151813  0.13183870  1
  Sr2+  Sr55  1  0.61322012  0.88743754  0.61447009  1
  Sr2+  Sr56  1  0.36401916  0.13332932  0.12508484  1
  Sr2+  Sr57  1  0.36310603  0.12904284  0.62694927  1
  Sr2+  Sr58  1  0.36768089  0.64182149  0.12613251  1
  Sr2+  Sr59  1  0.35431323  0.62441102  0.62160274  1
  Sr2+  Sr60  1  0.87836691  0.13017301  0.11780676  1
  Sr2+  Sr61  1  0.85978031  0.13340129  0.62090509  1
  Sr2+  Sr62  1  0.86870294  0.63012972  0.13102437  1
  Sr2+  Sr63  1  0.87073468  0.63425193  0.62032658  1
  Ca2+  Ca64  1  -0.00118705  -0.00102636  0.50466473  1
  Ca2+  Ca65  1  -0.00270873  0.50012714  0.50029530  1
  Ca2+  Ca66  1  0.49998943  0.50076653  -0.00062372  1
  Ca2+  Ca67  1  0.49857049  0.00254636  0.49797687  1
  Ca2+  Ca68  1  0.50252561  0.49668125  0.50027672  1
  Ca2+  Ca69  1  0.25272646  0.25046984  0.50323898  1
  Ca2+  Ca70  1  0.75272117  0.75053674  0.00066730  1
  Ca2+  Ca71  1  0.25015297  0.75229583  0.50286432  1
  Ca2+  Ca72  1  0.75270282  0.24848684  0.00185203  1
  Ca2+  Ca73  1  0.74863247  0.74681395  0.50121381  1
  Ca2+  Ca74  1  0.24883423  0.50483693  0.24857091  1
  Ca2+  Ca75  1  -0.00176252  0.25097596  0.75185656  1
  Ca2+  Ca76  1  0.74990473  0.49824974  0.74755536  1
  Ca2+  Ca77  1  -0.00229126  0.25160474  0.25111260  1
  Ca2+  Ca78  1  0.49638106  0.75405477  0.75124609  1
  Ca2+  Ca79  1  -0.00016456  0.74903374  0.25004719  1
  Ca2+  Ca80  1  0.24877287  0.50057523  0.75153940  1
  Ca2+  Ca81  1  0.50264994  0.25075216  0.24775395  1
  Ca2+  Ca82  1  0.75340027  -0.00119165  0.24693828  1
  Ca2+  Ca83  1  0.24851749  0.00047491  0.24684909  1
  Ca2+  Ca84  1  0.74742825  -0.00053694  0.75015488  1
  Nb5+  Nb85  1  0.00970344  0.00097663  -0.00370821  1
  Nb5+  Nb86  1  0.50666288  -0.00122157  -0.00122515  1
  Nb5+  Nb87  1  0.00139608  0.50784741  0.00031171  1
  Nb5+  Nb88  1  0.25290354  0.75899791  -0.00192461  1
  Nb5+  Nb89  1  0.25251762  0.25726887  -0.00119273  1
  Nb5+  Nb90  1  0.74497939  0.24769308  0.49819893  1
  Nb5+  Nb91  1  0.75045124  0.49811645  0.25098577  1
  Nb5+  Nb92  1  0.50113698  0.75121295  0.25040477  1
  Nb5+  Nb93  1  0.00218141  0.74734239  0.75156782  1
  Nb5+  Nb94  1  0.24850131  -0.00045224  0.75104678  1
  Nb5+  Nb95  1  0.49555603  0.24603025  0.74784652  1
  Nb5+  Nb96  1  -0.00295375  -0.00231744  0.25408251  1
  Nb5+  Nb97  1  0.00313076  0.00152042  0.74992792  1
  Nb5+  Nb98  1  0.00066292  0.50112529  0.25309666  1
  Nb5+  Nb99  1  -0.00289392  0.49855066  0.74917725  1
  Nb5+  Nb100  1  0.49856278  0.00034631  0.25416947  1
  Nb5+  Nb101  1  0.49993561  -0.00132242  0.75055685  1
  Nb5+  Nb102  1  0.49550655  0.50054590  0.24026033  1
  Nb5+  Nb103  1  0.50162333  0.50678222  0.75378796  1
  Nb5+  Nb104  1  0.24870262  0.24671826  0.25566410  1
  Nb5+  Nb105  1  0.25044096  0.25469500  0.75060563  1
  Nb5+  Nb106  1  0.24684572  0.75040563  0.25376886  1
  Nb5+  Nb107  1  0.25219258  0.75099746  0.75112286  1
  Nb5+  Nb108  1  0.75391488  0.24674916  0.24386148  1
  Nb5+  Nb109  1  0.75091518  0.24312609  0.75486989  1
  Nb5+  Nb110  1  0.75490687  0.74935567  0.25560081  1
  Nb5+  Nb111  1  0.74031147  0.75197440  0.74567216  1
  Nb5+  Nb112  1  0.00453120  0.25360096  0.50367703  1
  Nb5+  Nb113  1  -0.00108891  0.25552635  0.99241034  1
  Nb5+  Nb114  1  0.00198134  0.75316575  0.49640994  1
  Nb5+  Nb115  1  0.00064194  0.75393502  0.99774340  1
  Nb5+  Nb116  1  0.49977557  0.25238673  0.49256784  1
  Nb5+  Nb117  1  0.50009225  0.25090007  1.00398738  1
  Nb5+  Nb118  1  0.49690054  0.74451373  0.50959562  1
  Nb5+  Nb119  1  0.50608102  0.75398947  0.99771694  1
  Nb5+  Nb120  1  0.25442116  0.00619478  0.00023266  1
  Nb5+  Nb121  1  0.24959841  0.01006578  0.48959617  1
  Nb5+  Nb122  1  0.24992017  0.51335952  0.00272200  1
  Nb5+  Nb123  1  0.25200751  0.49719725  0.49810268  1
  Nb5+  Nb124  1  0.76006343  0.00066490  0.00026127  1
  Nb5+  Nb125  1  0.75313176  -0.00858790  0.49697594  1
  Nb5+  Nb126  1  0.74673996  0.49672886  0.00073286  1
  Nb5+  Nb127  1  0.74414782  0.49645006  0.50602169  1
  O2-  O128  1  0.01827693  -0.00312889  0.11197383  1
  O2-  O129  1  0.03168031  0.00387465  0.63884978  1
  O2-  O130  1  0.01791359  0.48775790  0.11385905  1
  O2-  O131  1  0.02245413  0.50703312  0.63760054  1
  O2-  O132  1  0.52047980  0.00981478  0.11661314  1
  O2-  O133  1  0.51686914  0.01788186  0.63811648  1
  O2-  O134  1  0.53552863  0.51710462  0.12968949  1
  O2-  O135  1  0.53222182  0.50485901  0.63829107  1
  O2-  O136  1  -0.02516561  -0.00369984  0.36627427  1
  O2-  O137  1  -0.01666260  -0.01156680  0.87735499  1
  O2-  O138  1  -0.01890931  0.51877365  0.36361289  1
  O2-  O139  1  -0.02308911  0.50098565  0.88189521  1
  O2-  O140  1  0.46856432  -0.01397083  0.36378079  1
  O2-  O141  1  0.47679535  -0.00817748  0.87965985  1
  O2-  O142  1  0.48113755  0.49302445  0.35775090  1
  O2-  O143  1  0.46770927  0.48534463  0.86723683  1
  O2-  O144  1  0.27209476  0.26519006  0.11418473  1
  O2-  O145  1  0.28269350  0.26425338  0.64069975  1
  O2-  O146  1  0.27108796  0.76924658  0.11413888  1
  O2-  O147  1  0.27275202  0.77461834  0.64033674  1
  O2-  O148  1  0.79034378  0.25999675  0.13636814  1
  O2-  O149  1  0.75929211  0.25830257  0.62420320  1
  O2-  O150  1  0.77266170  0.75644349  0.13778703  1
  O2-  O151  1  0.78483606  0.75870708  0.63646596  1
  O2-  O152  1  0.22363582  0.23082656  0.36659177  1
  O2-  O153  1  0.23715074  0.23224607  0.87848880  1
  O2-  O154  1  0.22572079  0.73433593  0.36475670  1
  O2-  O155  1  0.22720557  0.73765748  0.88130385  1
  O2-  O156  1  0.72298418  0.24020537  0.38165645  1
  O2-  O157  1  0.72217725  0.23774563  0.86723871  1
  O2-  O158  1  0.71817617  0.72683354  0.36583463  1
  O2-  O159  1  0.73212005  0.72860845  0.86375490  1
  O2-  O160  1  -0.00718745  0.23643373  0.10888390  1
  O2-  O161  1  -0.02448990  0.23464451  0.61920123  1
  O2-  O162  1  -0.01088015  0.75037100  0.11171663  1
  O2-  O163  1  -0.00725823  0.73735355  0.63651617  1
  O2-  O164  1  0.48696182  0.21841214  0.11428236  1
  O2-  O165  1  0.48733824  0.22236774  0.63515014  1
  O2-  O166  1  0.48322896  0.74118674  0.11911111  1
  O2-  O167  1  0.47918729  0.71528913  0.61853831  1
  O2-  O168  1  0.25910370  0.04259017  0.38095102  1
  O2-  O169  1  0.26073740  0.01666328  0.87994009  1
  O2-  O170  1  0.26301851  0.53198905  0.38186954  1
  O2-  O171  1  0.26092188  0.52380073  0.88662783  1
  O2-  O172  1  0.76391511  0.02505783  0.38213309  1
  O2-  O173  1  0.75599258  0.03497607  0.88587108  1
  O2-  O174  1  0.76220443  0.50962274  0.36839176  1
  O2-  O175  1  0.77131461  0.51318698  0.88686848  1
  O2-  O176  1  0.01923176  0.26828475  0.38552447  1
  O2-  O177  1  0.03832384  0.25108723  0.88346920  1
  O2-  O178  1  0.01933171  0.77047412  0.38410162  1
  O2-  O179  1  0.02654757  0.75564281  0.87738160  1
  O2-  O180  1  0.51169456  0.28361189  0.38369506  1
  O2-  O181  1  0.50787928  0.25809574  0.87982927  1
  O2-  O182  1  0.51332352  0.76949846  0.36362143  1
  O2-  O183  1  0.51128970  0.78642308  0.88637961  1
  O2-  O184  1  0.23683851  -0.02734440  0.10919327  1
  O2-  O185  1  0.23701742  -0.02308427  0.63899616  1
  O2-  O186  1  0.22946015  0.47455724  0.11146005  1
  O2-  O187  1  0.23834718  0.47040085  0.61679750  1
  O2-  O188  1  0.74231387  -0.03777201  0.11118788  1
  O2-  O189  1  0.73561327  -0.02424272  0.61514543  1
  O2-  O190  1  0.74021282  0.47907095  0.12702885  1
  O2-  O191  1  0.73311663  0.46780585  0.61578427  1
  O2-  O192  1  0.13456772  0.27049330  0.22721431  1
  O2-  O193  1  0.13710815  0.26639311  0.72808209  1
  O2-  O194  1  0.13639902  0.76958785  0.22505125  1
  O2-  O195  1  0.12832079  0.77348288  0.74314761  1
  O2-  O196  1  0.63833650  0.27689880  0.23090579  1
  O2-  O197  1  0.61413493  0.26296190  0.74060563  1
  O2-  O198  1  0.62038210  0.76259978  0.22710986  1
  O2-  O199  1  0.63124260  0.77859408  0.72305519  1
  O2-  O200  1  0.36805727  0.22884854  0.26808380  1
  O2-  O201  1  0.37581963  0.22950667  0.77222587  1
  O2-  O202  1  0.38032465  0.72973944  0.26096649  1
  O2-  O203  1  0.36254752  0.73533456  0.78304811  1
  O2-  O204  1  0.86294363  0.23334279  0.28759598  1
  O2-  O205  1  0.86261937  0.21708643  0.76591940  1
  O2-  O206  1  0.86516007  0.72324320  0.27657634  1
  O2-  O207  1  0.88837753  0.73672354  0.77381667  1
  O2-  O208  1  0.27216202  0.36590156  0.26103664  1
  O2-  O209  1  0.26589837  0.36473187  0.78043075  1
  O2-  O210  1  0.27886262  0.86421573  0.26385062  1
  O2-  O211  1  0.26265394  0.87985152  0.77715521  1
  O2-  O212  1  0.76789622  0.37707956  0.26448250  1
  O2-  O213  1  0.76685450  0.36130662  0.76072342  1
  O2-  O214  1  0.76501187  0.86235979  0.27611665  1
  O2-  O215  1  0.77169564  0.86511739  0.77122693  1
  O2-  O216  1  0.23683303  0.13490811  0.21572323  1
  O2-  O217  1  0.23028399  0.12152254  0.74180142  1
  O2-  O218  1  0.24238069  0.63849715  0.21589149  1
  O2-  O219  1  0.23039757  0.63814336  0.73212608  1
  O2-  O220  1  0.72513426  0.13471883  0.23581653  1
  O2-  O221  1  0.71959988  0.13162216  0.72894897  1
  O2-  O222  1  0.73143826  0.61784298  0.23527761  1
  O2-  O223  1  0.72475686  0.63243684  0.73066948  1
  O2-  O224  1  0.11360291  0.48064686  0.26606080  1
  O2-  O225  1  0.11200089  0.48389130  0.77845049  1
  O2-  O226  1  0.11335429  0.96563502  0.25978686  1
  O2-  O227  1  0.12929403  0.98348109  0.77559835  1
  O2-  O228  1  0.62929714  0.48255954  0.26266107  1
  O2-  O229  1  0.61512511  0.47623915  0.78096756  1
  O2-  O230  1  0.61367379  0.97002390  0.25987873  1
  O2-  O231  1  0.61000433  0.97808205  0.77584782  1
  O2-  O232  1  0.38672428  0.01486089  0.21756437  1
  O2-  O233  1  0.36696369  0.02117763  0.74373880  1
  O2-  O234  1  0.38463922  0.52178281  0.21787585  1
  O2-  O235  1  0.38520381  0.51565839  0.72296223  1
  O2-  O236  1  0.88605487  0.02334459  0.21624239  1
  O2-  O237  1  0.88822997  0.01445346  0.73525624  1
  O2-  O238  1  0.86749050  0.51676165  0.23034663  1
  O2-  O239  1  0.88576914  0.53824847  0.74079384  1
  O2-  O240  1  0.48298914  0.38574348  0.22272794  1
  O2-  O241  1  0.47917056  0.36359318  0.74178578  1
  O2-  O242  1  0.48264698  0.87009691  0.23127857  1
  O2-  O243  1  0.46630623  0.88847454  0.73387110  1
  O2-  O244  1  0.97029871  0.38736557  0.24175845  1
  O2-  O245  1  0.96705986  0.38641653  0.74895861  1
  O2-  O246  1  0.96725656  0.88138047  0.23943625  1
  O2-  O247  1  0.99111078  0.87315791  0.74711178  1
  O2-  O248  1  0.02889826  0.11429112  0.25078290  1
  O2-  O249  1  0.02319689  0.11419371  0.76845191  1
  O2-  O250  1  0.00565770  0.61377617  0.21935354  1
  O2-  O251  1  0.02648831  0.63096975  0.76309275  1
  O2-  O252  1  0.52404636  0.11347138  0.26681151  1
  O2-  O253  1  0.50757151  0.12289146  0.77357365  1
  O2-  O254  1  0.51791078  0.63001025  0.25655228  1
  O2-  O255  1  0.52019961  0.61885558  0.77458186  1
  O2-  O256  1  0.12283795  0.49019875  -0.02087782  1
  O2-  O257  1  0.13193951  0.47674109  0.47974430  1
  O2-  O258  1  0.12491868  0.98402132  -0.02095916  1
  O2-  O259  1  0.13331281  0.98565535  0.48108083  1
  O2-  O260  1  0.63598802  0.47226395  -0.01916241  1
  O2-  O261  1  0.63395113  0.47797318  0.46906540  1
  O2-  O262  1  0.61978670  0.98228297  -0.01834424  1
  O2-  O263  1  0.63330833  0.97984398  0.48015126  1
  O2-  O264  1  0.37001041  0.01771880  0.01266473  1
  O2-  O265  1  0.36474695  0.02124753  0.52351042  1
  O2-  O266  1  0.36386135  0.51954877  0.02278286  1
  O2-  O267  1  0.36880680  0.51740735  0.51867632  1
  O2-  O268  1  0.87837431  0.01423495  0.01074679  1
  O2-  O269  1  0.86479196  0.02568374  0.52000789  1
  O2-  O270  1  0.88443663  0.52100700  0.02083894  1
  O2-  O271  1  0.86139690  0.51812063  0.50912933  1
  O2-  O272  1  0.47129457  0.36222428  0.01601784  1
  O2-  O273  1  0.48531386  0.36117914  0.53497808  1
  O2-  O274  1  0.47458418  0.88281029  0.01461779  1
  O2-  O275  1  0.47823049  0.86487052  0.51688461  1
  O2-  O276  1  0.98936953  0.37255741  -0.00536824  1
  O2-  O277  1  0.96803967  0.36689408  0.51134208  1
  O2-  O278  1  0.98957324  0.87346839  -0.00163068  1
  O2-  O279  1  0.96839390  0.86534974  0.52059318  1
  O2-  O280  1  0.01806673  0.11786600  -0.01153810  1
  O2-  O281  1  0.01243725  0.13537633  0.48575373  1
  O2-  O282  1  0.02326471  0.62510900  -0.00238334  1
  O2-  O283  1  0.02858278  0.63622814  0.50219125  1
  O2-  O284  1  0.51283680  0.11904631  -0.01708948  1
  O2-  O285  1  0.52970591  0.13700327  0.48290767  1
  O2-  O286  1  0.51742833  0.64044989  -0.02388254  1
  O2-  O287  1  0.52098017  0.63376872  0.47404472  1
  O2-  O288  1  0.13343853  0.26219929  0.01708973  1
  O2-  O289  1  0.11643140  0.27115517  0.52854819  1
  O2-  O290  1  0.13005856  0.76502172  0.01671950  1
  O2-  O291  1  0.11736145  0.77985919  0.52122920  1
  O2-  O292  1  0.61437064  0.26759521  0.01673987  1
  O2-  O293  1  0.62560589  0.26848973  0.52149406  1
  O2-  O294  1  0.61627020  0.77624912  0.02020522  1
  O2-  O295  1  0.61366843  0.77084397  0.51988695  1
  O2-  O296  1  0.36982459  0.22797247  -0.01575911  1
  O2-  O297  1  0.38697432  0.22434364  0.48484794  1
  O2-  O298  1  0.36983378  0.73520149  -0.01829268  1
  O2-  O299  1  0.38298410  0.73317329  0.47317536  1
  O2-  O300  1  0.88940495  0.22950058  -0.03059901  1
  O2-  O301  1  0.86397316  0.23226793  0.48796948  1
  O2-  O302  1  0.88934257  0.73391431  -0.02467845  1
  O2-  O303  1  0.88574519  0.72154847  0.48644077  1
  O2-  O304  1  0.26362130  0.37171858  -0.02176046  1
  O2-  O305  1  0.27150568  0.38188410  0.46781398  1
  O2-  O306  1  0.26376223  0.87429517  -0.02311758  1
  O2-  O307  1  0.27038313  0.89075888  0.47855409  1
  O2-  O308  1  0.78500786  0.38356004  -0.00327091  1
  O2-  O309  1  0.76636447  0.36914867  0.48458857  1
  O2-  O310  1  0.76746804  0.88545008  -0.03391966  1
  O2-  O311  1  0.77432810  0.88012477  0.47546222  1
  O2-  O312  1  0.23243069  0.12046169  0.01521202  1
  O2-  O313  1  0.22941967  0.11717295  0.53756363  1
  O2-  O314  1  0.23305445  0.62827869  0.01919590  1
  O2-  O315  1  0.22687106  0.61684671  0.52495427  1
  O2-  O316  1  0.73607489  0.11317701  0.03461736  1
  O2-  O317  1  0.72857135  0.12958117  0.51376529  1
  O2-  O318  1  0.73474987  0.61304962  0.02173967  1
  O2-  O319  1  0.72483427  0.61122441  0.51884239  1
