# generated using pymatgen
data_Sr64Ca21Nb43O192
_symmetry_space_group_name_H-M   'P 1'
_cell_length_a   16.59135084
_cell_length_b   16.58040199
_cell_length_c   16.74051890
_cell_angle_alpha   90.01004244
_cell_angle_beta   89.96563060
_cell_angle_gamma   90.04566874
_symmetry_Int_Tables_number   1
_chemical_formula_structural   Sr64Ca21Nb43O192
_chemical_formula_sum   'Sr64 Ca21 Nb43 O192'
_cell_volume   4605.16818459
_cell_formula_units_Z   1
loop_
 _symmetry_equiv_pos_site_id
 _symmetry_equiv_pos_as_xyz
  1  'x, y, z'
loop_
 _atom_type_symbol
 _atom_type_oxidation_number
  Sr2+  2.0
  Ca2+  2.0
  Nb5+  5.0
  O2-  -2.0
loop_
 _atom_site_type_symbol
 _atom_site_label
 _atom_site_symmetry_multiplicity
 _atom_site_fract_x
 _atom_site_fract_y
 _atom_site_fract_z
 _atom_site_occupancy
  Sr2+  Sr0  1  0.12351103  0.10655397  0.12410275  1
  Sr2+  Sr1  1  0.12542836  0.11882210  0.62342345  1
  Sr2+  Sr2  1  0.12128695  0.61365445  0.12204575  1
  Sr2+  Sr3  1  0.12383711  0.61198192  0.62634164  1
  Sr2+  Sr4  1  0.62245591  0.10907339  0.12902345  1
  Sr2+  Sr5  1  0.62974449  0.11591563  0.62592654  1
  Sr2+  Sr6  1  0.63775492  0.61397876  0.12642915  1
  Sr2+  Sr7  1  0.62703689  0.60710092  0.62042450  1
  Sr2+  Sr8  1  0.37901861  0.35848947  0.12603814  1
  Sr2+  Sr9  1  0.37272212  0.36918232  0.62317177  1
  Sr2+  Sr10  1  0.37545156  0.86542519  0.11978112  1
  Sr2+  Sr11  1  0.37895485  0.86662822  0.62072860  1
  Sr2+  Sr12  1  0.88568807  0.35958733  0.12493782  1
  Sr2+  Sr13  1  0.87765134  0.35991579  0.61915137  1
  Sr2+  Sr14  1  0.88410537  0.87481465  0.12293295  1
  Sr2+  Sr15  1  0.88637280  0.86078711  0.62624659  1
  Sr2+  Sr16  1  0.13693816  0.38335200  0.37169873  1
  Sr2+  Sr17  1  0.12705801  0.38340192  0.87505385  1
  Sr2+  Sr18  1  0.13010957  0.88374539  0.36273617  1
  Sr2+  Sr19  1  0.13371463  0.88066688  0.87635085  1
  Sr2+  Sr20  1  0.62003910  0.37693587  0.37080597  1
  Sr2+  Sr21  1  0.62869174  0.37946913  0.87071282  1
  Sr2+  Sr22  1  0.61414560  0.88319024  0.37787647  1
  Sr2+  Sr23  1  0.62102863  0.87931086  0.88463328  1
  Sr2+  Sr24  1  0.38072192  0.12801809  0.37976037  1
  Sr2+  Sr25  1  0.37192854  0.12260849  0.87596240  1
  Sr2+  Sr26  1  0.37836614  0.62209105  0.37937944  1
  Sr2+  Sr27  1  0.37364599  0.63255850  0.87041062  1
  Sr2+  Sr28  1  0.85833926  0.13113410  0.37568213  1
  Sr2+  Sr29  1  0.85713681  0.13467181  0.87665892  1
  Sr2+  Sr30  1  0.86500645  0.63578709  0.37075414  1
  Sr2+  Sr31  1  0.86322966  0.63324869  0.87696664  1
  Sr2+  Sr32  1  0.12197480  0.13579146  0.37088106  1
  Sr2+  Sr33  1  0.12865683  0.12819417  0.87456124  1
  Sr2+  Sr34  1  0.12430593  0.63297520  0.36191243  1
  Sr2+  Sr35  1  0.12525249  0.62940568  0.87432813  1
  Sr2+  Sr36  1  0.61857099  0.13235209  0.37551961  1
  Sr2+  Sr37  1  0.61268276  0.13957619  0.86783105  1
  Sr2+  Sr38  1  0.61768063  0.62747970  0.36818483  1
  Sr2+  Sr39  1  0.62528456  0.62800074  0.88448157  1
  Sr2+  Sr40  1  0.37692486  0.35707785  0.37434830  1
  Sr2+  Sr41  1  0.37112000  0.36379141  0.87171622  1
  Sr2+  Sr42  1  0.37328344  0.85465094  0.38196568  1
  Sr2+  Sr43  1  0.37366885  0.88399247  0.87302517  1
  Sr2+  Sr44  1  0.86770737  0.37150954  0.37998473  1
  Sr2+  Sr45  1  0.87660453  0.38122489  0.87845974  1
  Sr2+  Sr46  1  0.87620421  0.89154331  0.36974356  1
  Sr2+  Sr47  1  0.86674585  0.88447147  0.87437418  1
  Sr2+  Sr48  1  0.12314501  0.37349123  0.11142176  1
  Sr2+  Sr49  1  0.11720776  0.37478904  0.63626052  1
  Sr2+  Sr50  1  0.12564483  0.86883056  0.12554863  1
  Sr2+  Sr51  1  0.12004648  0.87441996  0.62469319  1
  Sr2+  Sr52  1  0.63072212  0.36646050  0.12754227  1
  Sr2+  Sr53  1  0.64087626  0.37143838  0.62222773  1
  Sr2+  Sr54  1  0.64200240  0.87060605  0.12699147  1
  Sr2+  Sr55  1  0.62701415  0.86916745  0.61811888  1
  Sr2+  Sr56  1  0.37365196  0.12056753  0.13755823  1
  Sr2+  Sr57  1  0.37557079  0.11186546  0.62745783  1
  Sr2+  Sr58  1  0.38845224  0.61444847  0.12179654  1
  Sr2+  Sr59  1  0.37629134  0.61165512  0.62194527  1
  Sr2+  Sr60  1  0.88077378  0.11252606  0.12167414  1
  Sr2+  Sr61  1  0.88321289  0.12345071  0.61868446  1
  Sr2+  Sr62  1  0.88249547  0.62189797  0.12906001  1
  Sr2+  Sr63  1  0.87612218  0.61948460  0.62910243  1
  Ca2+  Ca64  1  0.00045741  -0.00302861  0.50062307  1
  Ca2+  Ca65  1  0.49778041  0.49562998  -0.00129599  1
  Ca2+  Ca66  1  0.00047621  -0.00350322  -0.00551450  1
  Ca2+  Ca67  1  0.49963216  -0.00091361  0.00081577  1
  Ca2+  Ca68  1  0.00323530  0.50286879  0.49637499  1
  Ca2+  Ca69  1  0.74557359  0.24979859  0.00293244  1
  Ca2+  Ca70  1  0.24983921  0.25083980  0.00127045  1
  Ca2+  Ca71  1  0.75307905  0.74952728  0.50054707  1
  Ca2+  Ca72  1  0.24953013  0.24915478  0.50296023  1
  Ca2+  Ca73  1  0.24445276  0.75000581  0.50298847  1
  Ca2+  Ca74  1  -0.00273431  0.25033913  0.75269762  1
  Ca2+  Ca75  1  -0.00321000  0.24980866  0.25089640  1
  Ca2+  Ca76  1  0.25246210  0.49918185  0.24729233  1
  Ca2+  Ca77  1  0.25360284  0.00063344  0.25078760  1
  Ca2+  Ca78  1  0.75511874  0.49769620  0.24949651  1
  Ca2+  Ca79  1  0.50264331  0.74936049  0.24642235  1
  Ca2+  Ca80  1  0.74932564  -0.00001486  0.25158200  1
  Ca2+  Ca81  1  0.49578131  0.25290663  0.74339032  1
  Ca2+  Ca82  1  0.75117553  -0.00125213  0.74959993  1
  Ca2+  Ca83  1  0.50038812  0.74881775  0.74937003  1
  Ca2+  Ca84  1  0.75201305  0.50114875  0.74997348  1
  Nb5+  Nb85  1  0.49989104  0.49145580  0.49788322  1
  Nb5+  Nb86  1  -0.00311810  0.50075755  -0.00031275  1
  Nb5+  Nb87  1  0.49843182  -0.00358990  0.49953937  1
  Nb5+  Nb88  1  0.25475146  0.74770425  0.00015033  1
  Nb5+  Nb89  1  0.74685655  0.24760222  0.50004329  1
  Nb5+  Nb90  1  0.75777340  0.74976650  0.00427530  1
  Nb5+  Nb91  1  0.50254333  0.24908385  0.24907583  1
  Nb5+  Nb92  1  0.25093960  -0.00672088  0.74939836  1
  Nb5+  Nb93  1  0.25176185  0.49696687  0.75155274  1
  Nb5+  Nb94  1  0.00091885  0.75059616  0.24362046  1
  Nb5+  Nb95  1  0.00124522  0.74975129  0.74876273  1
  Nb5+  Nb96  1  0.00426445  0.00384332  0.25158193  1
  Nb5+  Nb97  1  0.00001447  0.00393675  0.75374764  1
  Nb5+  Nb98  1  0.00085178  0.49648350  0.25336727  1
  Nb5+  Nb99  1  -0.00201588  0.50510715  0.75332364  1
  Nb5+  Nb100  1  0.49359902  -0.00595346  0.25093011  1
  Nb5+  Nb101  1  0.50443890  -0.00255332  0.74917712  1
  Nb5+  Nb102  1  0.50033273  0.49792067  0.24495754  1
  Nb5+  Nb103  1  0.50191262  0.49944139  0.74919309  1
  Nb5+  Nb104  1  0.24375871  0.25175052  0.25092487  1
  Nb5+  Nb105  1  0.24570132  0.24141390  0.74818933  1
  Nb5+  Nb106  1  0.25510247  0.74442637  0.24869752  1
  Nb5+  Nb107  1  0.24629631  0.74642249  0.74829066  1
  Nb5+  Nb108  1  0.74911803  0.24382515  0.24418786  1
  Nb5+  Nb109  1  0.74984362  0.25278283  0.75321533  1
  Nb5+  Nb110  1  0.75063704  0.75581045  0.25589140  1
  Nb5+  Nb111  1  0.74489521  0.75126067  0.75035600  1
  Nb5+  Nb112  1  0.00383331  0.25316266  0.49592155  1
  Nb5+  Nb113  1  0.00022867  0.24281742  0.99881992  1
  Nb5+  Nb114  1  0.00116924  0.74951955  0.48729796  1
  Nb5+  Nb115  1  0.00196907  0.74910788  0.99394374  1
  Nb5+  Nb116  1  0.50401295  0.24611089  0.50364901  1
  Nb5+  Nb117  1  0.49648350  0.24897237  0.99656719  1
  Nb5+  Nb118  1  0.50312626  0.74144499  0.50196675  1
  Nb5+  Nb119  1  0.51046517  0.74988749  1.00150009  1
  Nb5+  Nb120  1  0.25061301  0.00048607  0.00158962  1
  Nb5+  Nb121  1  0.24818618  0.00226925  0.49967006  1
  Nb5+  Nb122  1  0.25357115  0.50318245  -0.00296057  1
  Nb5+  Nb123  1  0.24783523  0.49998820  0.49886301  1
  Nb5+  Nb124  1  0.74485246  0.00680471  -0.00411505  1
  Nb5+  Nb125  1  0.75338599  -0.00339756  0.50465874  1
  Nb5+  Nb126  1  0.75137563  0.49513639  0.00402110  1
  Nb5+  Nb127  1  0.75382306  0.50330976  0.49364262  1
  O2-  O128  1  -0.01713524  -0.00678204  0.13253538  1
  O2-  O129  1  -0.01316356  -0.02431818  0.63947969  1
  O2-  O130  1  -0.01925809  0.49781346  0.11794057  1
  O2-  O131  1  -0.01043123  0.50749133  0.63656216  1
  O2-  O132  1  0.47242521  -0.00936921  0.13694518  1
  O2-  O133  1  0.48054582  -0.01067175  0.61762743  1
  O2-  O134  1  0.47538261  0.48165285  0.13435169  1
  O2-  O135  1  0.47822658  0.48636030  0.61572862  1
  O2-  O136  1  0.02883271  -0.00333168  0.36775405  1
  O2-  O137  1  0.03869508  -0.00133350  0.86373251  1
  O2-  O138  1  0.03553446  0.50555323  0.36235226  1
  O2-  O139  1  0.02137399  0.51139752  0.87831673  1
  O2-  O140  1  0.51736712  0.01686746  0.38098981  1
  O2-  O141  1  0.52208748  0.01212366  0.86223643  1
  O2-  O142  1  0.51793338  0.51321751  0.38015049  1
  O2-  O143  1  0.51990228  0.51364323  0.86252066  1
  O2-  O144  1  0.24339589  0.28659916  0.13592613  1
  O2-  O145  1  0.21592696  0.26666874  0.63641883  1
  O2-  O146  1  0.23759764  0.76580317  0.11790061  1
  O2-  O147  1  0.23145653  0.77212104  0.63851046  1
  O2-  O148  1  0.71478591  0.22850152  0.13549668  1
  O2-  O149  1  0.72144176  0.23743121  0.61700771  1
  O2-  O150  1  0.73574335  0.73319935  0.12210096  1
  O2-  O151  1  0.73624931  0.72561427  0.63809921  1
  O2-  O152  1  0.26642780  0.22075491  0.36589449  1
  O2-  O153  1  0.27832884  0.23910164  0.86448271  1
  O2-  O154  1  0.26220978  0.72941735  0.36476615  1
  O2-  O155  1  0.25397617  0.73582605  0.87852498  1
  O2-  O156  1  0.76342246  0.26409072  0.37960293  1
  O2-  O157  1  0.76944345  0.27405188  0.86607623  1
  O2-  O158  1  0.78075968  0.77162608  0.36603229  1
  O2-  O159  1  0.76721210  0.76604699  0.88467321  1
  O2-  O160  1  0.01425103  0.26971590  0.11537477  1
  O2-  O161  1  0.00862836  0.27111043  0.61560188  1
  O2-  O162  1  0.00938062  0.75942316  0.12464825  1
  O2-  O163  1  0.01433791  0.75942271  0.63381044  1
  O2-  O164  1  0.51489968  0.26760591  0.13374921  1
  O2-  O165  1  0.52199862  0.27527182  0.61164147  1
  O2-  O166  1  0.50719072  0.78453062  0.11496274  1
  O2-  O167  1  0.51234709  0.77359200  0.61482430  1
  O2-  O168  1  0.22855437  0.02051560  0.38799949  1
  O2-  O169  1  0.23110141  0.00845454  0.87019759  1
  O2-  O170  1  0.22983538  0.52060715  0.38725846  1
  O2-  O171  1  0.23095136  0.52037410  0.87003110  1
  O2-  O172  1  0.73530340  -0.02621124  0.38930666  1
  O2-  O173  1  0.73818505  -0.03282092  0.88367193  1
  O2-  O174  1  0.73574849  0.47006381  0.38272466  1
  O2-  O175  1  0.74340280  0.47912057  0.88574623  1
  O2-  O176  1  -0.03241837  0.23421087  0.38465634  1
  O2-  O177  1  -0.03534543  0.24601906  0.88598359  1
  O2-  O178  1  -0.01013770  0.73687081  0.37154738  1
  O2-  O179  1  -0.01162796  0.73165657  0.87991601  1
  O2-  O180  1  0.48994677  0.23807735  0.37562357  1
  O2-  O181  1  0.47902818  0.23400681  0.88244698  1
  O2-  O182  1  0.48476550  0.73425590  0.38254810  1
  O2-  O183  1  0.49805746  0.71751583  0.88561663  1
  O2-  O184  1  0.27670147  -0.01438888  0.11270892  1
  O2-  O185  1  0.27658274  -0.01578667  0.63469943  1
  O2-  O186  1  0.26939150  0.49288891  0.11006230  1
  O2-  O187  1  0.26962380  0.48902025  0.63442628  1
  O2-  O188  1  0.75802346  0.02504428  0.11441675  1
  O2-  O189  1  0.75749329  0.03487484  0.61688764  1
  O2-  O190  1  0.76781449  0.52965537  0.11529842  1
  O2-  O191  1  0.75820049  0.52159965  0.61251883  1
  O2-  O192  1  0.13110093  0.26379662  0.27467981  1
  O2-  O193  1  0.13266575  0.26388123  0.78160732  1
  O2-  O194  1  0.12067968  0.77082425  0.25977588  1
  O2-  O195  1  0.12305055  0.76582207  0.77320037  1
  O2-  O196  1  0.62141902  0.26649963  0.26922397  1
  O2-  O197  1  0.62985015  0.27019686  0.76730511  1
  O2-  O198  1  0.63716297  0.77797709  0.26745311  1
  O2-  O199  1  0.63547877  0.78070005  0.76707431  1
  O2-  O200  1  0.38219838  0.24125446  0.23908633  1
  O2-  O201  1  0.36047969  0.24233084  0.71579297  1
  O2-  O202  1  0.36614933  0.72504364  0.22522564  1
  O2-  O203  1  0.36110400  0.73466030  0.74407814  1
  O2-  O204  1  0.86226313  0.22121422  0.22806452  1
  O2-  O205  1  0.86271032  0.22975681  0.72233927  1
  O2-  O206  1  0.88184160  0.73101447  0.23639305  1
  O2-  O207  1  0.88479000  0.72502342  0.74150100  1
  O2-  O208  1  0.26358256  0.36788592  0.28164143  1
  O2-  O209  1  0.25938439  0.38221698  0.76640803  1
  O2-  O210  1  0.26773081  0.86299392  0.26220528  1
  O2-  O211  1  0.25935810  0.87562169  0.77012618  1
  O2-  O212  1  0.76760689  0.36084280  0.23294419  1
  O2-  O213  1  0.76463314  0.36789245  0.72209852  1
  O2-  O214  1  0.77383445  0.86651294  0.22059973  1
  O2-  O215  1  0.78608207  0.86136894  0.73926351  1
  O2-  O216  1  0.23831934  0.13652160  0.21585341  1
  O2-  O217  1  0.23246458  0.12370514  0.74110782  1
  O2-  O218  1  0.21760712  0.63412745  0.23289603  1
  O2-  O219  1  0.22805673  0.63018758  0.73959648  1
  O2-  O220  1  0.73021611  0.13203668  0.28065916  1
  O2-  O221  1  0.73028883  0.13450665  0.77215909  1
  O2-  O222  1  0.73466385  0.63772016  0.26647961  1
  O2-  O223  1  0.73706570  0.63689707  0.78279172  1
  O2-  O224  1  0.11367427  0.48118477  0.21707936  1
  O2-  O225  1  0.12878627  0.49136530  0.73684897  1
  O2-  O226  1  0.12035400  0.97395074  0.22892463  1
  O2-  O227  1  0.13381111  0.98480695  0.72773288  1
  O2-  O228  1  0.61806610  0.47587098  0.23547221  1
  O2-  O229  1  0.61396798  0.47938137  0.72804773  1
  O2-  O230  1  0.61180478  0.98566482  0.23605444  1
  O2-  O231  1  0.61531786  0.97612716  0.72460873  1
  O2-  O232  1  0.38402624  0.03254743  0.27118601  1
  O2-  O233  1  0.36901773  0.01970433  0.76698611  1
  O2-  O234  1  0.38619900  0.52265319  0.27010978  1
  O2-  O235  1  0.36685281  0.52645590  0.76387692  1
  O2-  O236  1  0.88697838  0.01599866  0.27277766  1
  O2-  O237  1  0.88847442  0.01755238  0.77936245  1
  O2-  O238  1  0.88975247  0.53562971  0.26264034  1
  O2-  O239  1  0.88670541  0.52869480  0.76992250  1
  O2-  O240  1  0.48678632  0.37351183  0.26902254  1
  O2-  O241  1  0.46328895  0.38854382  0.75460033  1
  O2-  O242  1  0.47627779  0.88385877  0.27647115  1
  O2-  O243  1  0.46800906  0.88522385  0.75438675  1
  O2-  O244  1  0.96793629  0.38587250  0.25749643  1
  O2-  O245  1  0.98861078  0.38962086  0.76285388  1
  O2-  O246  1  0.98190327  0.86858393  0.25752614  1
  O2-  O247  1  0.98599117  0.86584296  0.76789892  1
  O2-  O248  1  0.02961422  0.11660340  0.24291452  1
  O2-  O249  1  0.02323896  0.11531905  0.73669510  1
  O2-  O250  1  0.02366911  0.63146331  0.23977985  1
  O2-  O251  1  0.02807277  0.62932969  0.75028813  1
  O2-  O252  1  0.51743466  0.13089923  0.24130979  1
  O2-  O253  1  0.50805579  0.11521233  0.72651224  1
  O2-  O254  1  0.52668769  0.61415656  0.23406734  1
  O2-  O255  1  0.50591258  0.61385775  0.71754922  1
  O2-  O256  1  0.12051950  0.49346060  0.01238644  1
  O2-  O257  1  0.13774913  0.47404615  0.52400349  1
  O2-  O258  1  0.13650749  0.96810199  0.01359295  1
  O2-  O259  1  0.13745154  0.98775346  0.52875305  1
  O2-  O260  1  0.63552882  0.48705620  0.01700925  1
  O2-  O261  1  0.61851578  0.48735202  0.51794228  1
  O2-  O262  1  0.63248714  0.97027111  0.01754360  1
  O2-  O263  1  0.62013943  0.98882923  0.51764765  1
  O2-  O264  1  0.36500912  0.00563384  -0.03031606  1
  O2-  O265  1  0.38241939  0.02374708  0.48909494  1
  O2-  O266  1  0.36366816  0.53230333  -0.02062659  1
  O2-  O267  1  0.38185526  0.52093359  0.48827599  1
  O2-  O268  1  0.86463685  0.01761492  -0.01740842  1
  O2-  O269  1  0.86445652  0.02274475  0.48430295  1
  O2-  O270  1  0.87974894  0.51953986  -0.02092479  1
  O2-  O271  1  0.86715461  0.51781105  0.47791561  1
  O2-  O272  1  0.45988089  0.36515881  -0.00600290  1
  O2-  O273  1  0.48930863  0.37716200  0.47950031  1
  O2-  O274  1  0.48192376  0.86155693  -0.02848567  1
  O2-  O275  1  0.48604089  0.88225681  0.48238401  1
  O2-  O276  1  0.98152990  0.38439779  -0.00850862  1
  O2-  O277  1  0.97168048  0.36878501  0.48915102  1
  O2-  O278  1  0.97329976  0.86108486  -0.00881995  1
  O2-  O279  1  0.96005174  0.86238086  0.49315699  1
  O2-  O280  1  0.02751346  0.13102621  0.00552265  1
  O2-  O281  1  0.01193972  0.13451982  0.51956736  1
  O2-  O282  1  0.00995899  0.62741988  0.01240097  1
  O2-  O283  1  0.04352259  0.63860542  0.50164015  1
  O2-  O284  1  0.52962925  0.13502261  0.01326613  1
  O2-  O285  1  0.51956958  0.12956690  0.51303812  1
  O2-  O286  1  0.51496926  0.63393752  0.03190007  1
  O2-  O287  1  0.51810637  0.62589229  0.51355662  1
  O2-  O288  1  0.11358397  0.27411741  -0.02325954  1
  O2-  O289  1  0.11542800  0.26631144  0.46797045  1
  O2-  O290  1  0.11866012  0.76476366  -0.01104653  1
  O2-  O291  1  0.11244318  0.79321157  0.48671463  1
  O2-  O292  1  0.61095489  0.28687295  -0.01328636  1
  O2-  O293  1  0.62389834  0.26701307  0.47749111  1
  O2-  O294  1  0.62770011  0.76352738  -0.01000458  1
  O2-  O295  1  0.61727117  0.77322334  0.48301069  1
  O2-  O296  1  0.38335401  0.22312016  0.02978671  1
  O2-  O297  1  0.38833714  0.24115447  0.51338388  1
  O2-  O298  1  0.36895166  0.73017949  0.01245161  1
  O2-  O299  1  0.38382832  0.74232831  0.51433665  1
  O2-  O300  1  0.88076017  0.22927801  0.02661400  1
  O2-  O301  1  0.86284510  0.23476131  0.51913217  1
  O2-  O302  1  0.87442447  0.72897115  0.01569482  1
  O2-  O303  1  0.88930736  0.71367767  0.51681487  1
  O2-  O304  1  0.25566460  0.39036564  -0.02714644  1
  O2-  O305  1  0.28031445  0.38608204  0.49095059  1
  O2-  O306  1  0.26408870  0.86567868  -0.01741073  1
  O2-  O307  1  0.27858186  0.88825110  0.49309620  1
  O2-  O308  1  0.77481199  0.38431452  0.02624606  1
  O2-  O309  1  0.76009189  0.37302364  0.51726721  1
  O2-  O310  1  0.76825666  0.86664947  0.02219125  1
  O2-  O311  1  0.76323280  0.88525807  0.53621519  1
  O2-  O312  1  0.22600909  0.11375413  0.00586883  1
  O2-  O313  1  0.25020844  0.11548941  0.53479912  1
  O2-  O314  1  0.22341811  0.63005350  0.00594945  1
  O2-  O315  1  0.24556198  0.61467465  0.53075479  1
  O2-  O316  1  0.72274480  0.11712043  -0.03136774  1
  O2-  O317  1  0.72891855  0.12996373  0.48116038  1
  O2-  O318  1  0.73750963  0.62926996  -0.01678832  1
  O2-  O319  1  0.72671854  0.61524110  0.47185697  1
