# generated using pymatgen
data_Sr64Ca21Nb43O192
_symmetry_space_group_name_H-M   'P 1'
_cell_length_a   16.59077729
_cell_length_b   16.56780958
_cell_length_c   16.70827824
_cell_angle_alpha   90.02718448
_cell_angle_beta   90.02612598
_cell_angle_gamma   90.06719233
_symmetry_Int_Tables_number   1
_chemical_formula_structural   Sr64Ca21Nb43O192
_chemical_formula_sum   'Sr64 Ca21 Nb43 O192'
_cell_volume   4592.64771949
_cell_formula_units_Z   1
loop_
 _symmetry_equiv_pos_site_id
 _symmetry_equiv_pos_as_xyz
  1  'x, y, z'
loop_
 _atom_type_symbol
 _atom_type_oxidation_number
  Sr2+  2.0
  Ca2+  2.0
  Nb5+  5.0
  O2-  -2.0
loop_
 _atom_site_type_symbol
 _atom_site_label
 _atom_site_symmetry_multiplicity
 _atom_site_fract_x
 _atom_site_fract_y
 _atom_site_fract_z
 _atom_site_occupancy
  Sr2+  Sr0  1  0.13151370  0.10869876  0.12086847  1
  Sr2+  Sr1  1  0.13771520  0.11829851  0.62721940  1
  Sr2+  Sr2  1  0.13195901  0.62016290  0.11847263  1
  Sr2+  Sr3  1  0.13033672  0.61504640  0.62483737  1
  Sr2+  Sr4  1  0.62462246  0.12857043  0.13331728  1
  Sr2+  Sr5  1  0.63053839  0.11108651  0.62148253  1
  Sr2+  Sr6  1  0.63299225  0.61712681  0.12292595  1
  Sr2+  Sr7  1  0.63512737  0.61177321  0.62589013  1
  Sr2+  Sr8  1  0.38275820  0.36032164  0.12513977  1
  Sr2+  Sr9  1  0.37721423  0.36222311  0.62523907  1
  Sr2+  Sr10  1  0.37917896  0.85969374  0.12921751  1
  Sr2+  Sr11  1  0.38824911  0.86800006  0.62716503  1
  Sr2+  Sr12  1  0.88041529  0.36507850  0.13238857  1
  Sr2+  Sr13  1  0.88357094  0.36184049  0.62790184  1
  Sr2+  Sr14  1  0.88282027  0.86900382  0.12600506  1
  Sr2+  Sr15  1  0.87676921  0.86713560  0.62436858  1
  Sr2+  Sr16  1  0.11716320  0.38070167  0.38180583  1
  Sr2+  Sr17  1  0.11418495  0.37771029  0.87158867  1
  Sr2+  Sr18  1  0.11827648  0.88963079  0.37297805  1
  Sr2+  Sr19  1  0.11760619  0.87470611  0.87362523  1
  Sr2+  Sr20  1  0.62475327  0.38432595  0.36786867  1
  Sr2+  Sr21  1  0.60935197  0.38338259  0.87508165  1
  Sr2+  Sr22  1  0.60657529  0.87544435  0.37700485  1
  Sr2+  Sr23  1  0.61231514  0.88211656  0.87942992  1
  Sr2+  Sr24  1  0.36353204  0.12895318  0.37326100  1
  Sr2+  Sr25  1  0.36251976  0.13258497  0.88823089  1
  Sr2+  Sr26  1  0.38096510  0.63446551  0.36512212  1
  Sr2+  Sr27  1  0.37065562  0.63302880  0.87098215  1
  Sr2+  Sr28  1  0.86226174  0.13781811  0.37083959  1
  Sr2+  Sr29  1  0.87308416  0.12616876  0.87035506  1
  Sr2+  Sr30  1  0.85677563  0.62809448  0.37309774  1
  Sr2+  Sr31  1  0.86515197  0.62843925  0.87584739  1
  Sr2+  Sr32  1  0.12172667  0.13631279  0.37542153  1
  Sr2+  Sr33  1  0.11868377  0.13793042  0.87732882  1
  Sr2+  Sr34  1  0.11874266  0.63652665  0.37608371  1
  Sr2+  Sr35  1  0.12003513  0.63436200  0.87897034  1
  Sr2+  Sr36  1  0.61257889  0.13427463  0.37172579  1
  Sr2+  Sr37  1  0.61946279  0.13996510  0.87682598  1
  Sr2+  Sr38  1  0.62146917  0.63599724  0.37670956  1
  Sr2+  Sr39  1  0.61911553  0.63071716  0.88021537  1
  Sr2+  Sr40  1  0.36152024  0.38512910  0.37136863  1
  Sr2+  Sr41  1  0.37287364  0.38843219  0.87052941  1
  Sr2+  Sr42  1  0.36986405  0.88783499  0.37816975  1
  Sr2+  Sr43  1  0.36910076  0.88208005  0.87357132  1
  Sr2+  Sr44  1  0.86863286  0.38473888  0.37257809  1
  Sr2+  Sr45  1  0.86982673  0.37136366  0.88045571  1
  Sr2+  Sr46  1  0.86811410  0.88397225  0.36765308  1
  Sr2+  Sr47  1  0.86688713  0.88662271  0.87092862  1
  Sr2+  Sr48  1  0.13695025  0.38244849  0.12719425  1
  Sr2+  Sr49  1  0.13696854  0.37053420  0.62244955  1
  Sr2+  Sr50  1  0.13060158  0.87416657  0.13043880  1
  Sr2+  Sr51  1  0.13502335  0.86048206  0.62692026  1
  Sr2+  Sr52  1  0.63246936  0.36003607  0.12420318  1
  Sr2+  Sr53  1  0.62458667  0.36434118  0.62836825  1
  Sr2+  Sr54  1  0.63679914  0.86625314  0.12208564  1
  Sr2+  Sr55  1  0.63690108  0.87454217  0.62159906  1
  Sr2+  Sr56  1  0.38779018  0.11710982  0.12263791  1
  Sr2+  Sr57  1  0.39386862  0.12182276  0.61991836  1
  Sr2+  Sr58  1  0.38474542  0.61109698  0.12844661  1
  Sr2+  Sr59  1  0.39019323  0.61051441  0.62941071  1
  Sr2+  Sr60  1  0.88803658  0.12038339  0.12587273  1
  Sr2+  Sr61  1  0.87250712  0.11414747  0.63020956  1
  Sr2+  Sr62  1  0.89151621  0.62302850  0.12513442  1
  Sr2+  Sr63  1  0.88467845  0.62410123  0.62697727  1
  Ca2+  Ca64  1  0.50201470  -0.00247865  0.00201097  1
  Ca2+  Ca65  1  0.50013732  0.49786991  0.49813103  1
  Ca2+  Ca66  1  0.50076909  0.49881502  0.00126685  1
  Ca2+  Ca67  1  0.00021491  -0.00026628  -0.00229422  1
  Ca2+  Ca68  1  -0.00051862  0.00123713  0.50046589  1
  Ca2+  Ca69  1  0.25234496  0.74782191  0.50074583  1
  Ca2+  Ca70  1  0.74993274  0.24965237  0.50075479  1
  Ca2+  Ca71  1  0.24700578  0.25207628  0.00284016  1
  Ca2+  Ca72  1  0.75028615  0.24752329  -0.00044339  1
  Ca2+  Ca73  1  0.24818435  0.75045259  0.00313407  1
  Ca2+  Ca74  1  0.75248055  0.50274362  0.24534436  1
  Ca2+  Ca75  1  0.50502979  0.74970245  0.74919855  1
  Ca2+  Ca76  1  0.74751539  -0.00063847  0.25139701  1
  Ca2+  Ca77  1  0.24913860  0.50187366  0.74920664  1
  Ca2+  Ca78  1  0.75096386  0.50027104  0.74990067  1
  Ca2+  Ca79  1  0.49573432  0.25126007  0.25352670  1
  Ca2+  Ca80  1  0.00218031  0.25044853  0.25088734  1
  Ca2+  Ca81  1  0.25079046  0.00161822  0.74798223  1
  Ca2+  Ca82  1  0.00282571  0.74857859  0.25251112  1
  Ca2+  Ca83  1  0.50279886  0.74986957  0.24719548  1
  Ca2+  Ca84  1  0.49742155  0.24626772  0.75249174  1
  Nb5+  Nb85  1  0.49985975  0.00052825  0.49927894  1
  Nb5+  Nb86  1  -0.00143292  0.49805733  0.00352732  1
  Nb5+  Nb87  1  -0.00304735  0.49944010  0.50768267  1
  Nb5+  Nb88  1  0.75220650  0.75130538  -0.00835555  1
  Nb5+  Nb89  1  0.75176316  0.75189101  0.49447452  1
  Nb5+  Nb90  1  0.24954538  0.24959026  0.49965315  1
  Nb5+  Nb91  1  0.00066548  0.24376027  0.74568635  1
  Nb5+  Nb92  1  0.74624556  -0.00170097  0.75202221  1
  Nb5+  Nb93  1  0.25040999  0.00734459  0.25055568  1
  Nb5+  Nb94  1  0.24718781  0.50887644  0.25331748  1
  Nb5+  Nb95  1  0.00057259  0.74511067  0.74867917  1
  Nb5+  Nb96  1  -0.00357479  0.00352919  0.25415758  1
  Nb5+  Nb97  1  0.00089953  -0.00733921  0.74564089  1
  Nb5+  Nb98  1  0.00128941  0.50447264  0.26132242  1
  Nb5+  Nb99  1  -0.00091575  0.49603278  0.75503678  1
  Nb5+  Nb100  1  0.50005734  -0.00568684  0.24547271  1
  Nb5+  Nb101  1  0.49688585  0.00506231  0.75641728  1
  Nb5+  Nb102  1  0.50613830  0.49569770  0.24677099  1
  Nb5+  Nb103  1  0.50205132  0.49891860  0.74817380  1
  Nb5+  Nb104  1  0.24434727  0.25567629  0.24759821  1
  Nb5+  Nb105  1  0.25290787  0.24968170  0.75076017  1
  Nb5+  Nb106  1  0.25077315  0.75828508  0.25444666  1
  Nb5+  Nb107  1  0.25637732  0.74754012  0.74683422  1
  Nb5+  Nb108  1  0.75044778  0.25024759  0.25154146  1
  Nb5+  Nb109  1  0.74852555  0.25319292  0.75041107  1
  Nb5+  Nb110  1  0.75150566  0.74917060  0.23957470  1
  Nb5+  Nb111  1  0.74818989  0.75145235  0.74688903  1
  Nb5+  Nb112  1  -0.00011970  0.24500166  0.50382502  1
  Nb5+  Nb113  1  0.00480595  0.25279749  1.00652498  1
  Nb5+  Nb114  1  -0.00320406  0.75154428  0.49651980  1
  Nb5+  Nb115  1  -0.00187519  0.75374615  0.99683310  1
  Nb5+  Nb116  1  0.50065418  0.25650387  0.49480666  1
  Nb5+  Nb117  1  0.49890648  0.24852965  0.99974720  1
  Nb5+  Nb118  1  0.50002632  0.74536308  0.50747417  1
  Nb5+  Nb119  1  0.49447620  0.74628323  1.00083200  1
  Nb5+  Nb120  1  0.24865733  -0.00519522  -0.00498113  1
  Nb5+  Nb121  1  0.25173377  -0.00225260  0.50463984  1
  Nb5+  Nb122  1  0.25098634  0.49955824  -0.00504464  1
  Nb5+  Nb123  1  0.25196819  0.50524005  0.49693929  1
  Nb5+  Nb124  1  0.75034132  0.00284457  0.00331298  1
  Nb5+  Nb125  1  0.74834764  0.00006576  0.49433092  1
  Nb5+  Nb126  1  0.75143487  0.49486824  0.00286161  1
  Nb5+  Nb127  1  0.75111022  0.49471411  0.50459441  1
  O2-  O128  1  -0.01904709  -0.01698349  0.13486938  1
  O2-  O129  1  -0.03426634  -0.00781837  0.63342337  1
  O2-  O130  1  -0.01798952  0.48475834  0.11647607  1
  O2-  O131  1  -0.02390134  0.48793091  0.62120585  1
  O2-  O132  1  0.46855944  -0.02005174  0.13602165  1
  O2-  O133  1  0.48112590  -0.01287350  0.61883236  1
  O2-  O134  1  0.46782803  0.48128735  0.13438785  1
  O2-  O135  1  0.47004899  0.47916886  0.63090519  1
  O2-  O136  1  0.03066255  0.01709489  0.36816773  1
  O2-  O137  1  0.01619983  0.02348025  0.85866908  1
  O2-  O138  1  0.01978061  0.51634270  0.37523973  1
  O2-  O139  1  0.02437579  0.51217167  0.86749233  1
  O2-  O140  1  0.51826562  0.01204317  0.37971075  1
  O2-  O141  1  0.53049474  0.01614854  0.86506924  1
  O2-  O142  1  0.52213493  0.52220289  0.36370575  1
  O2-  O143  1  0.52880057  0.51362023  0.86553546  1
  O2-  O144  1  0.21200806  0.24094755  0.13851636  1
  O2-  O145  1  0.22643497  0.24177515  0.61784632  1
  O2-  O146  1  0.21453706  0.74433316  0.14093413  1
  O2-  O147  1  0.21933580  0.73465553  0.63378205  1
  O2-  O148  1  0.72625108  0.23759138  0.13357745  1
  O2-  O149  1  0.72728267  0.23091067  0.63589033  1
  O2-  O150  1  0.73551587  0.73758400  0.12330912  1
  O2-  O151  1  0.73463828  0.73999566  0.63126942  1
  O2-  O152  1  0.26861502  0.26059703  0.38081791  1
  O2-  O153  1  0.27199868  0.26508000  0.86364764  1
  O2-  O154  1  0.28741304  0.75644706  0.36856681  1
  O2-  O155  1  0.26775646  0.76799943  0.86546942  1
  O2-  O156  1  0.77890816  0.26610886  0.36958189  1
  O2-  O157  1  0.78191167  0.24667438  0.86342810  1
  O2-  O158  1  0.77338325  0.76425023  0.38228303  1
  O2-  O159  1  0.77539176  0.76440591  0.87721808  1
  O2-  O160  1  0.01977838  0.28494527  0.11438425  1
  O2-  O161  1  0.01476191  0.28015529  0.62751759  1
  O2-  O162  1  0.00980108  0.77066109  0.11089093  1
  O2-  O163  1  0.00536157  0.76897489  0.62827273  1
  O2-  O164  1  0.51322232  0.27316335  0.11884176  1
  O2-  O165  1  0.50522054  0.26722420  0.61310812  1
  O2-  O166  1  0.51850005  0.77896420  0.11325143  1
  O2-  O167  1  0.52189872  0.78321076  0.61598580  1
  O2-  O168  1  0.24038680  -0.01044965  0.37957504  1
  O2-  O169  1  0.23503161  -0.03013146  0.88326141  1
  O2-  O170  1  0.23168972  0.47924736  0.37285741  1
  O2-  O171  1  0.23378837  0.47222958  0.88494139  1
  O2-  O172  1  0.73145381  -0.03515881  0.38603998  1
  O2-  O173  1  0.73563447  -0.02343394  0.86685549  1
  O2-  O174  1  0.74429464  0.48692748  0.38576818  1
  O2-  O175  1  0.73705304  0.48600963  0.88576131  1
  O2-  O176  1  -0.01475565  0.23286047  0.38981137  1
  O2-  O177  1  -0.01687262  0.23679478  0.86208343  1
  O2-  O178  1  -0.01953723  0.71667240  0.38862224  1
  O2-  O179  1  -0.01544708  0.72552008  0.86686277  1
  O2-  O180  1  0.48112266  0.21638872  0.38675602  1
  O2-  O181  1  0.48450730  0.21382644  0.88453637  1
  O2-  O182  1  0.49920659  0.73259984  0.38832199  1
  O2-  O183  1  0.49359296  0.72063157  0.88261106  1
  O2-  O184  1  0.26338656  0.02191482  0.13595902  1
  O2-  O185  1  0.27122604  0.03144239  0.61365158  1
  O2-  O186  1  0.25257123  0.52039177  0.13507081  1
  O2-  O187  1  0.26196593  0.51748639  0.61124789  1
  O2-  O188  1  0.77151319  0.01598700  0.11513368  1
  O2-  O189  1  0.75672704  0.00987375  0.62284695  1
  O2-  O190  1  0.77766983  0.53113731  0.11239696  1
  O2-  O191  1  0.76938083  0.53282435  0.61437077  1
  O2-  O192  1  0.13357544  0.26366770  0.28765606  1
  O2-  O193  1  0.11680179  0.27065985  0.76162664  1
  O2-  O194  1  0.13642402  0.76460905  0.28985869  1
  O2-  O195  1  0.11389058  0.77277738  0.76426714  1
  O2-  O196  1  0.63217697  0.27091204  0.27234209  1
  O2-  O197  1  0.63631509  0.26721448  0.77533396  1
  O2-  O198  1  0.63872073  0.77668948  0.26549950  1
  O2-  O199  1  0.63950654  0.77782241  0.77162107  1
  O2-  O200  1  0.35820992  0.22764052  0.23530148  1
  O2-  O201  1  0.36192571  0.22808915  0.72337189  1
  O2-  O202  1  0.36331339  0.72795428  0.22391812  1
  O2-  O203  1  0.36772674  0.72508398  0.72880068  1
  O2-  O204  1  0.86901340  0.22549718  0.22791846  1
  O2-  O205  1  0.88089751  0.23416212  0.72452097  1
  O2-  O206  1  0.86862473  0.72376937  0.23704511  1
  O2-  O207  1  0.87696158  0.74262114  0.73604942  1
  O2-  O208  1  0.26355488  0.37279455  0.23828438  1
  O2-  O209  1  0.25709568  0.36590050  0.72569367  1
  O2-  O210  1  0.26716451  0.87595095  0.24285418  1
  O2-  O211  1  0.26409527  0.86663011  0.72586454  1
  O2-  O212  1  0.77321628  0.36896219  0.23540577  1
  O2-  O213  1  0.77451311  0.36484453  0.73540274  1
  O2-  O214  1  0.78078312  0.86538748  0.23514450  1
  O2-  O215  1  0.77232627  0.87672590  0.73495377  1
  O2-  O216  1  0.23063139  0.12238257  0.26935868  1
  O2-  O217  1  0.21606007  0.13653614  0.76144188  1
  O2-  O218  1  0.22965986  0.62196763  0.27053172  1
  O2-  O219  1  0.22352726  0.63491822  0.77171823  1
  O2-  O220  1  0.72973600  0.13207476  0.27492691  1
  O2-  O221  1  0.73707549  0.11699250  0.76132285  1
  O2-  O222  1  0.72796990  0.63616713  0.27140134  1
  O2-  O223  1  0.73745273  0.63884586  0.77060496  1
  O2-  O224  1  0.12637918  0.47983376  0.24139172  1
  O2-  O225  1  0.11093833  0.48964442  0.71983452  1
  O2-  O226  1  0.13421797  0.97984929  0.23865617  1
  O2-  O227  1  0.11287461  0.98262666  0.72013331  1
  O2-  O228  1  0.61743281  0.47332584  0.22654681  1
  O2-  O229  1  0.61903485  0.47736212  0.72169205  1
  O2-  O230  1  0.61345036  0.97765755  0.22745510  1
  O2-  O231  1  0.62988937  0.98029186  0.73146187  1
  O2-  O232  1  0.36878289  0.01391184  0.27200016  1
  O2-  O233  1  0.38465730  0.02853537  0.77433313  1
  O2-  O234  1  0.36363574  0.51649519  0.26952913  1
  O2-  O235  1  0.38285813  0.52158007  0.77309457  1
  O2-  O236  1  0.88426758  0.02128500  0.27668648  1
  O2-  O237  1  0.87010031  0.01447756  0.76404908  1
  O2-  O238  1  0.88784799  0.52635017  0.26446175  1
  O2-  O239  1  0.88768024  0.53032653  0.75964498  1
  O2-  O240  1  0.47447821  0.38463973  0.27580130  1
  O2-  O241  1  0.48315657  0.37993042  0.77079331  1
  O2-  O242  1  0.47777518  0.88230194  0.27811916  1
  O2-  O243  1  0.47711327  0.88721497  0.76130740  1
  O2-  O244  1  0.98252052  0.38755756  0.26304445  1
  O2-  O245  1  0.97876394  0.38092239  0.76427080  1
  O2-  O246  1  0.99069058  0.88340169  0.27203358  1
  O2-  O247  1  0.98364139  0.87801459  0.76728444  1
  O2-  O248  1  0.02354659  0.11646911  0.22578022  1
  O2-  O249  1  0.01421614  0.13009819  0.72643870  1
  O2-  O250  1  0.02633659  0.61388973  0.22340582  1
  O2-  O251  1  0.01647032  0.63072441  0.72957159  1
  O2-  O252  1  0.51085248  0.11288154  0.23805840  1
  O2-  O253  1  0.52276905  0.11439558  0.72029239  1
  O2-  O254  1  0.51064595  0.61474812  0.22421502  1
  O2-  O255  1  0.52012670  0.61606019  0.72194720  1
  O2-  O256  1  0.11790770  0.48242393  0.01244022  1
  O2-  O257  1  0.11692793  0.48273672  0.51255054  1
  O2-  O258  1  0.13247988  0.97857553  0.02468582  1
  O2-  O259  1  0.13765638  0.97990123  0.52021164  1
  O2-  O260  1  0.63892830  0.48293278  0.02757458  1
  O2-  O261  1  0.63693574  0.47869844  0.51983939  1
  O2-  O262  1  0.63915244  0.96380448  0.01010663  1
  O2-  O263  1  0.62029439  0.98136952  0.51618827  1
  O2-  O264  1  0.36558098  0.01873569  -0.01393483  1
  O2-  O265  1  0.37888063  0.02016799  0.48134852  1
  O2-  O266  1  0.36342398  0.52429629  -0.01683503  1
  O2-  O267  1  0.36304248  0.52250371  0.47289478  1
  O2-  O268  1  0.86450836  0.01029637  -0.02991447  1
  O2-  O269  1  0.86198731  0.01919755  0.48040330  1
  O2-  O270  1  0.88387400  0.51361270  -0.02734153  1
  O2-  O271  1  0.88205802  0.51945648  0.47943580  1
  O2-  O272  1  0.47581076  0.36529920  -0.02509934  1
  O2-  O273  1  0.46985250  0.36529791  0.47490441  1
  O2-  O274  1  0.48424246  0.86227036  -0.03058090  1
  O2-  O275  1  0.48349386  0.87934377  0.48287594  1
  O2-  O276  1  0.98737993  0.37941820  -0.02647384  1
  O2-  O277  1  0.98308583  0.38074685  0.48499090  1
  O2-  O278  1  0.98114497  0.86388656  -0.03147355  1
  O2-  O279  1  0.97185608  0.86384242  0.48183710  1
  O2-  O280  1  0.02015341  0.13704839  0.01853030  1
  O2-  O281  1  0.02777479  0.13602906  0.52507761  1
  O2-  O282  1  0.01318690  0.61994572  0.00962418  1
  O2-  O283  1  0.01299484  0.62213736  0.52437518  1
  O2-  O284  1  0.52219007  0.13043071  0.02823953  1
  O2-  O285  1  0.51639064  0.12061263  0.51765832  1
  O2-  O286  1  0.53269168  0.63378064  0.01898462  1
  O2-  O287  1  0.52537227  0.63371179  0.52564029  1
  O2-  O288  1  0.11494785  0.26612993  -0.03521603  1
  O2-  O289  1  0.12489915  0.27161213  0.48736532  1
  O2-  O290  1  0.11248190  0.75801719  -0.02718557  1
  O2-  O291  1  0.11106850  0.76922203  0.48776370  1
  O2-  O292  1  0.61701898  0.27115523  -0.02185820  1
  O2-  O293  1  0.61422975  0.27478340  0.47966947  1
  O2-  O294  1  0.63765647  0.76866998  -0.01716270  1
  O2-  O295  1  0.63397932  0.76875387  0.48807996  1
  O2-  O296  1  0.37958633  0.22888665  0.02238310  1
  O2-  O297  1  0.36606700  0.23507585  0.51897516  1
  O2-  O298  1  0.38321079  0.72391906  0.02090007  1
  O2-  O299  1  0.38731828  0.73145987  0.52705446  1
  O2-  O300  1  0.88821185  0.23734850  0.01220319  1
  O2-  O301  1  0.88670468  0.23199312  0.52805341  1
  O2-  O302  1  0.87796136  0.72721959  0.01054938  1
  O2-  O303  1  0.87027531  0.73449720  0.52409396  1
  O2-  O304  1  0.26149789  0.38794015  0.03370048  1
  O2-  O305  1  0.26044696  0.37630092  0.50959581  1
  O2-  O306  1  0.27091479  0.88294482  0.03077059  1
  O2-  O307  1  0.27744132  0.88593287  0.51706956  1
  O2-  O308  1  0.78013794  0.38396464  0.01756084  1
  O2-  O309  1  0.77860884  0.38480255  0.52298069  1
  O2-  O310  1  0.77775964  0.86665137  0.01555965  1
  O2-  O311  1  0.76499227  0.87125298  0.52211204  1
  O2-  O312  1  0.22615964  0.11398368  -0.01450144  1
  O2-  O313  1  0.23080998  0.13106872  0.48321528  1
  O2-  O314  1  0.22012085  0.61385647  -0.00722244  1
  O2-  O315  1  0.21827473  0.61473482  0.48134553  1
  O2-  O316  1  0.72459023  0.11199419  -0.01838359  1
  O2-  O317  1  0.72250751  0.11270851  0.48200864  1
  O2-  O318  1  0.74008632  0.63102660  -0.01828429  1
  O2-  O319  1  0.73548184  0.63240867  0.48421787  1
