# generated using pymatgen
data_Sr64Ca21Nb43O192
_symmetry_space_group_name_H-M   'P 1'
_cell_length_a   16.57549325
_cell_length_b   16.56372508
_cell_length_c   16.72399098
_cell_angle_alpha   89.95549843
_cell_angle_beta   89.98009816
_cell_angle_gamma   90.01563646
_symmetry_Int_Tables_number   1
_chemical_formula_structural   Sr64Ca21Nb43O192
_chemical_formula_sum   'Sr64 Ca21 Nb43 O192'
_cell_volume   4591.60188722
_cell_formula_units_Z   1
loop_
 _symmetry_equiv_pos_site_id
 _symmetry_equiv_pos_as_xyz
  1  'x, y, z'
loop_
 _atom_type_symbol
 _atom_type_oxidation_number
  Sr2+  2.0
  Ca2+  2.0
  Nb5+  5.0
  O2-  -2.0
loop_
 _atom_site_type_symbol
 _atom_site_label
 _atom_site_symmetry_multiplicity
 _atom_site_fract_x
 _atom_site_fract_y
 _atom_site_fract_z
 _atom_site_occupancy
  Sr2+  Sr0  1  0.11709433  0.12155871  0.12815619  1
  Sr2+  Sr1  1  0.11133884  0.11582680  0.62720527  1
  Sr2+  Sr2  1  0.11919824  0.63710499  0.12533412  1
  Sr2+  Sr3  1  0.12137582  0.63621256  0.62370300  1
  Sr2+  Sr4  1  0.61450731  0.11975211  0.12663887  1
  Sr2+  Sr5  1  0.62214647  0.12301516  0.62889109  1
  Sr2+  Sr6  1  0.62068525  0.64125854  0.12055573  1
  Sr2+  Sr7  1  0.60987653  0.63454291  0.62910306  1
  Sr2+  Sr8  1  0.37021583  0.37717950  0.12300411  1
  Sr2+  Sr9  1  0.36857209  0.38345240  0.62492481  1
  Sr2+  Sr10  1  0.37388490  0.88205453  0.12590247  1
  Sr2+  Sr11  1  0.36713293  0.87028347  0.62644221  1
  Sr2+  Sr12  1  0.86878182  0.38921299  0.12202137  1
  Sr2+  Sr13  1  0.86658511  0.37941371  0.62977032  1
  Sr2+  Sr14  1  0.87035043  0.87725851  0.11538192  1
  Sr2+  Sr15  1  0.87093416  0.88138771  0.63008060  1
  Sr2+  Sr16  1  0.13665163  0.36346461  0.37375979  1
  Sr2+  Sr17  1  0.13395123  0.37082165  0.87596208  1
  Sr2+  Sr18  1  0.13951924  0.88007752  0.37504831  1
  Sr2+  Sr19  1  0.13748040  0.87376956  0.89146087  1
  Sr2+  Sr20  1  0.64736863  0.38047919  0.37818493  1
  Sr2+  Sr21  1  0.62738383  0.36125249  0.87793884  1
  Sr2+  Sr22  1  0.62519742  0.86535288  0.36480475  1
  Sr2+  Sr23  1  0.64061571  0.88452214  0.87961264  1
  Sr2+  Sr24  1  0.38591799  0.13380013  0.37499811  1
  Sr2+  Sr25  1  0.39889544  0.12209934  0.88048432  1
  Sr2+  Sr26  1  0.38657473  0.62230383  0.37076452  1
  Sr2+  Sr27  1  0.38653061  0.61528883  0.87526333  1
  Sr2+  Sr28  1  0.88228287  0.12231658  0.37716574  1
  Sr2+  Sr29  1  0.86892349  0.12310328  0.87446903  1
  Sr2+  Sr30  1  0.87468277  0.61286933  0.37928682  1
  Sr2+  Sr31  1  0.88847480  0.61561598  0.87449103  1
  Sr2+  Sr32  1  0.12358114  0.12092649  0.37180764  1
  Sr2+  Sr33  1  0.13436511  0.11971406  0.87616833  1
  Sr2+  Sr34  1  0.13760571  0.61485481  0.37085946  1
  Sr2+  Sr35  1  0.12829013  0.60977068  0.87881031  1
  Sr2+  Sr36  1  0.64218366  0.12601749  0.37597301  1
  Sr2+  Sr37  1  0.62562572  0.12003978  0.88463567  1
  Sr2+  Sr38  1  0.62201766  0.61350631  0.37297874  1
  Sr2+  Sr39  1  0.63421219  0.62025030  0.87222203  1
  Sr2+  Sr40  1  0.37877969  0.38653081  0.37805837  1
  Sr2+  Sr41  1  0.37789429  0.36157238  0.87236987  1
  Sr2+  Sr42  1  0.38407806  0.86824797  0.36784267  1
  Sr2+  Sr43  1  0.38413301  0.88892283  0.88283854  1
  Sr2+  Sr44  1  0.87867299  0.36095601  0.37964477  1
  Sr2+  Sr45  1  0.88738584  0.37008607  0.87845546  1
  Sr2+  Sr46  1  0.88491920  0.86617160  0.37314308  1
  Sr2+  Sr47  1  0.88149414  0.85646544  0.87427311  1
  Sr2+  Sr48  1  0.11329513  0.37559955  0.13093140  1
  Sr2+  Sr49  1  0.12666421  0.37806358  0.62643196  1
  Sr2+  Sr50  1  0.13323351  0.88428383  0.12490372  1
  Sr2+  Sr51  1  0.12164284  0.87619691  0.62292491  1
  Sr2+  Sr52  1  0.61470079  0.37704665  0.11987685  1
  Sr2+  Sr53  1  0.61520730  0.38053330  0.62338565  1
  Sr2+  Sr54  1  0.64148212  0.87873855  0.13095225  1
  Sr2+  Sr55  1  0.61631053  0.89126665  0.62215678  1
  Sr2+  Sr56  1  0.37732148  0.12236011  0.11575311  1
  Sr2+  Sr57  1  0.38714189  0.12422899  0.62979945  1
  Sr2+  Sr58  1  0.36826478  0.63146278  0.12188029  1
  Sr2+  Sr59  1  0.36656968  0.62730513  0.62448077  1
  Sr2+  Sr60  1  0.85767075  0.12326855  0.13170826  1
  Sr2+  Sr61  1  0.86757250  0.12110809  0.62657323  1
  Sr2+  Sr62  1  0.85429293  0.62704529  0.11904894  1
  Sr2+  Sr63  1  0.86577410  0.63996584  0.63223926  1
  Ca2+  Ca64  1  0.49893628  0.50112341  -0.00225495  1
  Ca2+  Ca65  1  -0.00082869  0.00049277  -0.00224964  1
  Ca2+  Ca66  1  0.50304287  -0.00483608  0.00664102  1
  Ca2+  Ca67  1  0.00128560  0.49766773  0.50173932  1
  Ca2+  Ca68  1  0.49961442  0.00003939  0.49477953  1
  Ca2+  Ca69  1  0.75150244  0.25199709  0.00079405  1
  Ca2+  Ca70  1  0.74795855  0.74995789  0.49992221  1
  Ca2+  Ca71  1  0.24668097  0.25010170  -0.00073156  1
  Ca2+  Ca72  1  0.25468752  0.74642325  -0.00353747  1
  Ca2+  Ca73  1  0.74853645  0.75143465  -0.00318918  1
  Ca2+  Ca74  1  0.49550478  0.75375165  0.75054189  1
  Ca2+  Ca75  1  0.75139423  0.00176103  0.75146340  1
  Ca2+  Ca76  1  0.50286864  0.24965083  0.74833451  1
  Ca2+  Ca77  1  0.24970941  0.49642401  0.25055064  1
  Ca2+  Ca78  1  0.49938887  0.25379552  0.25386357  1
  Ca2+  Ca79  1  0.25364669  0.00052164  0.74780610  1
  Ca2+  Ca80  1  0.74775788  0.49982841  0.24643003  1
  Ca2+  Ca81  1  0.75196813  -0.00013750  0.25498115  1
  Ca2+  Ca82  1  0.25098286  0.00335712  0.25454591  1
  Ca2+  Ca83  1  0.75253326  0.49948084  0.75149068  1
  Ca2+  Ca84  1  0.00092765  0.74943266  0.25228668  1
  Nb5+  Nb85  1  -0.00395619  -0.00365206  0.50127517  1
  Nb5+  Nb86  1  0.50031770  0.50047806  0.50243152  1
  Nb5+  Nb87  1  0.00244641  0.50022253  0.00419855  1
  Nb5+  Nb88  1  0.25521937  0.25075210  0.50239230  1
  Nb5+  Nb89  1  0.75625516  0.25062798  0.50144776  1
  Nb5+  Nb90  1  0.25072720  0.75523796  0.49644797  1
  Nb5+  Nb91  1  0.25197352  0.50090952  0.75192116  1
  Nb5+  Nb92  1  0.00596841  0.74398338  0.75222736  1
  Nb5+  Nb93  1  0.49753219  0.74906085  0.24492943  1
  Nb5+  Nb94  1  0.00410105  0.24416078  0.75539906  1
  Nb5+  Nb95  1  -0.00205529  0.24968699  0.25450947  1
  Nb5+  Nb96  1  -0.00500388  -0.00423763  0.24614569  1
  Nb5+  Nb97  1  0.00183303  -0.01027354  0.75129860  1
  Nb5+  Nb98  1  -0.00260510  0.49943270  0.25636154  1
  Nb5+  Nb99  1  0.00353512  0.49439368  0.74594421  1
  Nb5+  Nb100  1  0.50122623  0.00540244  0.25894046  1
  Nb5+  Nb101  1  0.50285977  -0.00058785  0.75124119  1
  Nb5+  Nb102  1  0.49996067  0.50195605  0.24297574  1
  Nb5+  Nb103  1  0.50249933  0.49542443  0.75326999  1
  Nb5+  Nb104  1  0.25100849  0.24819496  0.24540147  1
  Nb5+  Nb105  1  0.24827346  0.24520532  0.74535622  1
  Nb5+  Nb106  1  0.24930074  0.75041781  0.24528474  1
  Nb5+  Nb107  1  0.24857526  0.74652665  0.75372096  1
  Nb5+  Nb108  1  0.74763989  0.25807861  0.24665415  1
  Nb5+  Nb109  1  0.74849764  0.25264570  0.75041264  1
  Nb5+  Nb110  1  0.75623562  0.74594420  0.25769133  1
  Nb5+  Nb111  1  0.73932172  0.75576144  0.74314538  1
  Nb5+  Nb112  1  0.00328477  0.24768496  0.50710250  1
  Nb5+  Nb113  1  0.00193370  0.24601964  1.00609679  1
  Nb5+  Nb114  1  0.00270800  0.74482980  0.49538687  1
  Nb5+  Nb115  1  -0.00257865  0.74825723  1.00640159  1
  Nb5+  Nb116  1  0.50982371  0.25071053  0.49743283  1
  Nb5+  Nb117  1  0.50016416  0.25064370  1.00460888  1
  Nb5+  Nb118  1  0.49765159  0.75347452  0.50129591  1
  Nb5+  Nb119  1  0.50321705  0.75271373  0.99019097  1
  Nb5+  Nb120  1  0.24944447  0.00190539  0.00011253  1
  Nb5+  Nb121  1  0.25092444  0.01314298  0.50429562  1
  Nb5+  Nb122  1  0.24887550  0.49631925  0.00629341  1
  Nb5+  Nb123  1  0.24839229  0.50436964  0.50128046  1
  Nb5+  Nb124  1  0.75404172  0.00447163  0.00256586  1
  Nb5+  Nb125  1  0.75156104  -0.00653968  0.49556505  1
  Nb5+  Nb126  1  0.74295532  0.49816031  -0.00626972  1
  Nb5+  Nb127  1  0.75160549  0.50685580  0.50879157  1
  O2-  O128  1  0.00472586  0.01526313  0.13396029  1
  O2-  O129  1  -0.00919054  0.01699724  0.62080271  1
  O2-  O130  1  0.02675246  0.51022991  0.11798938  1
  O2-  O131  1  0.03312983  0.50913884  0.63428832  1
  O2-  O132  1  0.48664646  0.01635794  0.14075116  1
  O2-  O133  1  0.50998446  0.01714370  0.62902627  1
  O2-  O134  1  0.52732032  0.51496028  0.13300682  1
  O2-  O135  1  0.51218547  0.51636183  0.62335356  1
  O2-  O136  1  -0.00688478  -0.01055069  0.38152701  1
  O2-  O137  1  0.01194389  -0.02403302  0.86331465  1
  O2-  O138  1  -0.03247347  0.48366542  0.36603676  1
  O2-  O139  1  -0.00836604  0.49107823  0.86956648  1
  O2-  O140  1  0.50556061  -0.03927661  0.36791799  1
  O2-  O141  1  0.50100371  -0.01135071  0.86971592  1
  O2-  O142  1  0.48144941  0.49577041  0.38495956  1
  O2-  O143  1  0.46862472  0.48205039  0.86298527  1
  O2-  O144  1  0.25018451  0.27735838  0.13563217  1
  O2-  O145  1  0.24789780  0.27478724  0.62175159  1
  O2-  O146  1  0.27751121  0.76057814  0.13427809  1
  O2-  O147  1  0.26421385  0.75507338  0.61844268  1
  O2-  O148  1  0.76908470  0.27393844  0.13557967  1
  O2-  O149  1  0.76140685  0.27133198  0.61794992  1
  O2-  O150  1  0.76882259  0.77076177  0.13882021  1
  O2-  O151  1  0.78257439  0.76586389  0.63084271  1
  O2-  O152  1  0.23922211  0.22583742  0.38829484  1
  O2-  O153  1  0.22924148  0.24072410  0.85933016  1
  O2-  O154  1  0.22772239  0.73292144  0.38207422  1
  O2-  O155  1  0.21926708  0.72989919  0.86219358  1
  O2-  O156  1  0.74654641  0.23857720  0.38108188  1
  O2-  O157  1  0.73993947  0.22789680  0.86250087  1
  O2-  O158  1  0.71826879  0.72603083  0.36889182  1
  O2-  O159  1  0.72194884  0.74438624  0.86076496  1
  O2-  O160  1  -0.00776665  0.23196522  0.12271450  1
  O2-  O161  1  -0.00409935  0.22738604  0.62202535  1
  O2-  O162  1  -0.02361782  0.72470703  0.11618562  1
  O2-  O163  1  -0.00749856  0.73573430  0.62074242  1
  O2-  O164  1  0.50179848  0.22716299  0.12237142  1
  O2-  O165  1  0.49954907  0.22830065  0.61187102  1
  O2-  O166  1  0.48229279  0.72623235  0.13297404  1
  O2-  O167  1  0.47741787  0.72855960  0.61398704  1
  O2-  O168  1  0.22784372  0.01103060  0.39163186  1
  O2-  O169  1  0.23558814  0.01299181  0.88008785  1
  O2-  O170  1  0.27080347  0.51580843  0.38743825  1
  O2-  O171  1  0.26114479  0.52378049  0.86551950  1
  O2-  O172  1  0.75869850  0.03482059  0.38663951  1
  O2-  O173  1  0.74532548  0.02907141  0.88414071  1
  O2-  O174  1  0.75258428  0.51844314  0.38993235  1
  O2-  O175  1  0.76673472  0.53359242  0.88175958  1
  O2-  O176  1  0.00389385  0.26233640  0.37430725  1
  O2-  O177  1  0.01324102  0.26915777  0.86731039  1
  O2-  O178  1  0.02093573  0.78222387  0.38726315  1
  O2-  O179  1  0.02341236  0.76617826  0.86463322  1
  O2-  O180  1  0.47647054  0.27345139  0.38819870  1
  O2-  O181  1  0.50021764  0.26871981  0.88248692  1
  O2-  O182  1  0.50391203  0.75728302  0.37839292  1
  O2-  O183  1  0.52348635  0.77968124  0.88135486  1
  O2-  O184  1  0.25825414  -0.01810103  0.12058512  1
  O2-  O185  1  0.25019754  -0.03296705  0.61118667  1
  O2-  O186  1  0.23687286  0.46591593  0.11591906  1
  O2-  O187  1  0.24069581  0.47931496  0.62132510  1
  O2-  O188  1  0.76532784  -0.01944406  0.12157065  1
  O2-  O189  1  0.75431877  -0.01081733  0.61375731  1
  O2-  O190  1  0.73837143  0.46998796  0.11150560  1
  O2-  O191  1  0.73684901  0.46670194  0.61804155  1
  O2-  O192  1  0.11699737  0.27295347  0.24677093  1
  O2-  O193  1  0.11961056  0.27250107  0.73219668  1
  O2-  O194  1  0.13341696  0.76851687  0.22472352  1
  O2-  O195  1  0.12577030  0.75944120  0.72105624  1
  O2-  O196  1  0.63440428  0.28471747  0.24968189  1
  O2-  O197  1  0.63807309  0.28204285  0.73810494  1
  O2-  O198  1  0.61446977  0.76597914  0.23801109  1
  O2-  O199  1  0.63008229  0.77180677  0.71340907  1
  O2-  O200  1  0.36215463  0.21823098  0.24972178  1
  O2-  O201  1  0.36315889  0.23356123  0.74899883  1
  O2-  O202  1  0.37320439  0.73160800  0.26984193  1
  O2-  O203  1  0.36001238  0.71530252  0.75987883  1
  O2-  O204  1  0.87919073  0.23187728  0.26145819  1
  O2-  O205  1  0.88680236  0.23143792  0.75214841  1
  O2-  O206  1  0.86753867  0.72800323  0.28333530  1
  O2-  O207  1  0.89037682  0.73079067  0.76347209  1
  O2-  O208  1  0.26247426  0.35946978  0.28626793  1
  O2-  O209  1  0.26461375  0.37925976  0.75958391  1
  O2-  O210  1  0.26211263  0.86371358  0.27769842  1
  O2-  O211  1  0.26633620  0.86009824  0.76217965  1
  O2-  O212  1  0.77517699  0.36949997  0.27932920  1
  O2-  O213  1  0.78895307  0.36391765  0.76214092  1
  O2-  O214  1  0.75828422  0.86416068  0.28109363  1
  O2-  O215  1  0.78068040  0.86662546  0.76375121  1
  O2-  O216  1  0.21257623  0.13695890  0.24245416  1
  O2-  O217  1  0.22466459  0.13608786  0.72293054  1
  O2-  O218  1  0.22636522  0.63213660  0.24196637  1
  O2-  O219  1  0.22784248  0.61677138  0.72555560  1
  O2-  O220  1  0.72826603  0.14074780  0.23805324  1
  O2-  O221  1  0.74472452  0.13899208  0.71779768  1
  O2-  O222  1  0.73118626  0.63330699  0.22555359  1
  O2-  O223  1  0.73755570  0.63652358  0.72779165  1
  O2-  O224  1  0.11251059  0.46966608  0.26520577  1
  O2-  O225  1  0.12941052  0.48086701  0.76539108  1
  O2-  O226  1  0.11179677  0.97909128  0.25889527  1
  O2-  O227  1  0.11579220  0.99302714  0.72588924  1
  O2-  O228  1  0.61211419  0.48518950  0.27772859  1
  O2-  O229  1  0.61539571  0.47530095  0.76787037  1
  O2-  O230  1  0.61701151  0.97651240  0.24474699  1
  O2-  O231  1  0.61950396  0.96533687  0.75055429  1
  O2-  O232  1  0.38237959  0.01912534  0.27408687  1
  O2-  O233  1  0.38540802  0.03664200  0.75144178  1
  O2-  O234  1  0.38289022  0.52832053  0.23688987  1
  O2-  O235  1  0.36818367  0.51555830  0.72985946  1
  O2-  O236  1  0.88488315  0.03621304  0.25508897  1
  O2-  O237  1  0.88987287  0.02513933  0.75003376  1
  O2-  O238  1  0.88681291  0.51527453  0.21716337  1
  O2-  O239  1  0.89182238  0.52123117  0.73051801  1
  O2-  O240  1  0.47004907  0.38835941  0.23749240  1
  O2-  O241  1  0.47922092  0.38369196  0.72151320  1
  O2-  O242  1  0.47454886  0.86480342  0.23786115  1
  O2-  O243  1  0.46455976  0.88580165  0.73429084  1
  O2-  O244  1  0.97932117  0.36877094  0.22990170  1
  O2-  O245  1  0.98748452  0.37675575  0.73419578  1
  O2-  O246  1  0.96427032  0.88420943  0.23814060  1
  O2-  O247  1  0.98880372  0.87320921  0.72955426  1
  O2-  O248  1  0.02078257  0.13221712  0.26109509  1
  O2-  O249  1  0.02460468  0.12959769  0.76532126  1
  O2-  O250  1  0.02190014  0.61251413  0.26967484  1
  O2-  O251  1  0.02510840  0.62665156  0.76064848  1
  O2-  O252  1  0.52388044  0.11721728  0.28192138  1
  O2-  O253  1  0.53677329  0.11813481  0.76297374  1
  O2-  O254  1  0.51346212  0.62691041  0.26872436  1
  O2-  O255  1  0.51678837  0.61461545  0.76367987  1
  O2-  O256  1  0.12207475  0.48206977  -0.02174195  1
  O2-  O257  1  0.13712733  0.47579776  0.48089242  1
  O2-  O258  1  0.13097039  0.97166896  0.00666550  1
  O2-  O259  1  0.11567542  0.99011279  0.50920135  1
  O2-  O260  1  0.63187508  0.47943609  -0.02851869  1
  O2-  O261  1  0.61820621  0.48293829  0.49217506  1
  O2-  O262  1  0.63622374  0.97468548  0.00786138  1
  O2-  O263  1  0.63641994  0.97914090  0.49247936  1
  O2-  O264  1  0.36695307  0.02538429  -0.00798618  1
  O2-  O265  1  0.36374953  0.03294504  0.49720828  1
  O2-  O266  1  0.36246847  0.52090510  0.01473434  1
  O2-  O267  1  0.37410796  0.50626036  0.51962269  1
  O2-  O268  1  0.87039718  0.03852839  0.00093915  1
  O2-  O269  1  0.87784632  0.02453694  0.50293753  1
  O2-  O270  1  0.88542973  0.51985198  0.01105177  1
  O2-  O271  1  0.86618205  0.52494448  0.52005616  1
  O2-  O272  1  0.47631846  0.36862097  0.02516413  1
  O2-  O273  1  0.48517133  0.37820441  0.51978220  1
  O2-  O274  1  0.46510263  0.86302404  0.01499712  1
  O2-  O275  1  0.46395944  0.86374236  0.51152146  1
  O2-  O276  1  0.98088720  0.38200274  0.01176055  1
  O2-  O277  1  0.97709118  0.36121764  0.51559102  1
  O2-  O278  1  0.97703683  0.86280588  0.00837576  1
  O2-  O279  1  0.98211885  0.87994081  0.51843921  1
  O2-  O280  1  0.02822705  0.13745957  -0.01856623  1
  O2-  O281  1  0.01293726  0.12751624  0.48360963  1
  O2-  O282  1  0.01880560  0.62161689  -0.01830945  1
  O2-  O283  1  0.02829702  0.63360749  0.47871232  1
  O2-  O284  1  0.52237835  0.13216841  -0.01222006  1
  O2-  O285  1  0.52203420  0.13767442  0.47272252  1
  O2-  O286  1  0.52925105  0.63375336  -0.02143680  1
  O2-  O287  1  0.51113006  0.62201424  0.48914755  1
  O2-  O288  1  0.11244216  0.28481956  0.00639532  1
  O2-  O289  1  0.12012872  0.26523941  0.50617121  1
  O2-  O290  1  0.11464126  0.76473687  0.01768901  1
  O2-  O291  1  0.12927860  0.76556896  0.51814232  1
  O2-  O292  1  0.61840817  0.27995622  0.00496479  1
  O2-  O293  1  0.62495118  0.27546168  0.49893847  1
  O2-  O294  1  0.61382042  0.77000082  0.03148501  1
  O2-  O295  1  0.61019094  0.77350320  0.51624332  1
  O2-  O296  1  0.38022941  0.22742363  -0.00180221  1
  O2-  O297  1  0.36768877  0.22730582  0.50689109  1
  O2-  O298  1  0.38724050  0.71592766  -0.01565023  1
  O2-  O299  1  0.36559576  0.72539569  0.48408015  1
  O2-  O300  1  0.88892266  0.24232313  -0.02451106  1
  O2-  O301  1  0.87446067  0.23111167  0.49374871  1
  O2-  O302  1  0.88571023  0.72952373  -0.03248539  1
  O2-  O303  1  0.88827229  0.72901448  0.48020601  1
  O2-  O304  1  0.26416073  0.38622987  -0.03467728  1
  O2-  O305  1  0.26613953  0.36726642  0.48442066  1
  O2-  O306  1  0.26972556  0.88073257  -0.01976884  1
  O2-  O307  1  0.26546832  0.86921567  0.48056252  1
  O2-  O308  1  0.77581744  0.38641407  -0.02954324  1
  O2-  O309  1  0.76703505  0.37279833  0.48291910  1
  O2-  O310  1  0.77934436  0.88666231  -0.02102659  1
  O2-  O311  1  0.77825587  0.88390482  0.47719387  1
  O2-  O312  1  0.21961789  0.11760910  0.01819055  1
  O2-  O313  1  0.22632532  0.12610330  0.52727130  1
  O2-  O314  1  0.22015520  0.61150356  0.01598102  1
  O2-  O315  1  0.23174714  0.61880733  0.51678595  1
  O2-  O316  1  0.72634764  0.12056203  0.03031961  1
  O2-  O317  1  0.72910279  0.13600936  0.51790476  1
  O2-  O318  1  0.73555370  0.61583654  0.02422659  1
  O2-  O319  1  0.72352001  0.61627717  0.53074220  1
