# generated using pymatgen
data_Sr64Ca21Nb43O192
_symmetry_space_group_name_H-M   'P 1'
_cell_length_a   16.54082180
_cell_length_b   16.53755610
_cell_length_c   16.70082766
_cell_angle_alpha   90.00736547
_cell_angle_beta   89.99490897
_cell_angle_gamma   90.01873056
_symmetry_Int_Tables_number   1
_chemical_formula_structural   Sr64Ca21Nb43O192
_chemical_formula_sum   'Sr64 Ca21 Nb43 O192'
_cell_volume   4568.42373474
_cell_formula_units_Z   1
loop_
 _symmetry_equiv_pos_site_id
 _symmetry_equiv_pos_as_xyz
  1  'x, y, z'
loop_
 _atom_type_symbol
 _atom_type_oxidation_number
  Sr2+  2.0
  Ca2+  2.0
  Nb5+  5.0
  O2-  -2.0
loop_
 _atom_site_type_symbol
 _atom_site_label
 _atom_site_symmetry_multiplicity
 _atom_site_fract_x
 _atom_site_fract_y
 _atom_site_fract_z
 _atom_site_occupancy
  Sr2+  Sr0  1  0.13651255  0.12729531  0.12720315  1
  Sr2+  Sr1  1  0.14184157  0.12854230  0.62077470  1
  Sr2+  Sr2  1  0.13097698  0.63104213  0.12365909  1
  Sr2+  Sr3  1  0.12485297  0.62515424  0.61684038  1
  Sr2+  Sr4  1  0.62743769  0.12555455  0.13049943  1
  Sr2+  Sr5  1  0.62472247  0.13326500  0.62143669  1
  Sr2+  Sr6  1  0.62960562  0.62028899  0.14511604  1
  Sr2+  Sr7  1  0.62878476  0.62762639  0.62564786  1
  Sr2+  Sr8  1  0.37766456  0.39304137  0.12434045  1
  Sr2+  Sr9  1  0.37505449  0.38434867  0.62598338  1
  Sr2+  Sr10  1  0.36439178  0.87164659  0.12206936  1
  Sr2+  Sr11  1  0.37219035  0.89441947  0.62206185  1
  Sr2+  Sr12  1  0.87605471  0.37860457  0.12279302  1
  Sr2+  Sr13  1  0.87382595  0.38494213  0.62178978  1
  Sr2+  Sr14  1  0.87917496  0.87306603  0.12904704  1
  Sr2+  Sr15  1  0.88672841  0.87547273  0.63060170  1
  Sr2+  Sr16  1  0.12504819  0.37384117  0.37857993  1
  Sr2+  Sr17  1  0.12059374  0.37130842  0.87968753  1
  Sr2+  Sr18  1  0.09901845  0.87677080  0.37099129  1
  Sr2+  Sr19  1  0.12024288  0.87958729  0.87794526  1
  Sr2+  Sr20  1  0.62465327  0.37070701  0.36936630  1
  Sr2+  Sr21  1  0.62039226  0.37428613  0.87101551  1
  Sr2+  Sr22  1  0.62310832  0.88307226  0.37530249  1
  Sr2+  Sr23  1  0.61618243  0.87975388  0.87603231  1
  Sr2+  Sr24  1  0.36959792  0.11933033  0.37465183  1
  Sr2+  Sr25  1  0.37672005  0.12171276  0.87967599  1
  Sr2+  Sr26  1  0.38344281  0.63114535  0.36666397  1
  Sr2+  Sr27  1  0.37279494  0.63575139  0.87591807  1
  Sr2+  Sr28  1  0.88446659  0.12372670  0.37760664  1
  Sr2+  Sr29  1  0.86893820  0.11507406  0.87544676  1
  Sr2+  Sr30  1  0.87394063  0.62947029  0.36292460  1
  Sr2+  Sr31  1  0.86583584  0.62290329  0.87722111  1
  Sr2+  Sr32  1  0.12181403  0.12340459  0.36436995  1
  Sr2+  Sr33  1  0.12150785  0.12784554  0.87810333  1
  Sr2+  Sr34  1  0.11901479  0.61416803  0.36660101  1
  Sr2+  Sr35  1  0.11745721  0.62568537  0.87371799  1
  Sr2+  Sr36  1  0.62926185  0.11702752  0.37730977  1
  Sr2+  Sr37  1  0.62739868  0.13757185  0.87760038  1
  Sr2+  Sr38  1  0.63076827  0.65777633  0.37824243  1
  Sr2+  Sr39  1  0.63067619  0.64110935  0.87487678  1
  Sr2+  Sr40  1  0.37185546  0.37728660  0.36481171  1
  Sr2+  Sr41  1  0.37396659  0.37304581  0.87848281  1
  Sr2+  Sr42  1  0.37026204  0.88124544  0.37791671  1
  Sr2+  Sr43  1  0.37342969  0.87757816  0.87521416  1
  Sr2+  Sr44  1  0.87049981  0.36587905  0.38016062  1
  Sr2+  Sr45  1  0.86690443  0.37128823  0.87324752  1
  Sr2+  Sr46  1  0.86224688  0.88334852  0.36840647  1
  Sr2+  Sr47  1  0.86944050  0.89098129  0.87665865  1
  Sr2+  Sr48  1  0.12737693  0.37953221  0.12079707  1
  Sr2+  Sr49  1  0.13686837  0.39058830  0.62045233  1
  Sr2+  Sr50  1  0.13159644  0.88209337  0.13339741  1
  Sr2+  Sr51  1  0.12274977  0.87064665  0.63011335  1
  Sr2+  Sr52  1  0.61630986  0.37692998  0.13305868  1
  Sr2+  Sr53  1  0.63145924  0.38053764  0.62410326  1
  Sr2+  Sr54  1  0.64522041  0.87887601  0.13406154  1
  Sr2+  Sr55  1  0.61459718  0.88576834  0.61609480  1
  Sr2+  Sr56  1  0.37349934  0.12486203  0.12754172  1
  Sr2+  Sr57  1  0.37557493  0.12355627  0.62633623  1
  Sr2+  Sr58  1  0.37729495  0.61797694  0.12305724  1
  Sr2+  Sr59  1  0.36470658  0.62723894  0.62667520  1
  Sr2+  Sr60  1  0.88126828  0.11258047  0.12857719  1
  Sr2+  Sr61  1  0.87798658  0.13820968  0.62418802  1
  Sr2+  Sr62  1  0.85906172  0.62440011  0.12403389  1
  Sr2+  Sr63  1  0.87936111  0.62516692  0.62600682  1
  Ca2+  Ca64  1  -0.00063431  0.00123189  0.50365845  1
  Ca2+  Ca65  1  0.50529917  0.50136940  0.49679235  1
  Ca2+  Ca66  1  0.50129718  0.50156192  -0.00583425  1
  Ca2+  Ca67  1  -0.00026270  -0.00063106  0.00081626  1
  Ca2+  Ca68  1  0.50109313  -0.00288346  0.00063060  1
  Ca2+  Ca69  1  0.24910741  0.75044369  0.50276878  1
  Ca2+  Ca70  1  0.25171867  0.25028513  0.50038929  1
  Ca2+  Ca71  1  0.75169958  0.75264810  0.00040022  1
  Ca2+  Ca72  1  0.74893953  0.25167550  0.00106397  1
  Ca2+  Ca73  1  0.75358287  0.75456907  0.50492333  1
  Ca2+  Ca74  1  0.75207823  0.49889126  0.25726339  1
  Ca2+  Ca75  1  0.25229007  -0.00158477  0.25188814  1
  Ca2+  Ca76  1  0.00400483  0.74889331  0.24494930  1
  Ca2+  Ca77  1  0.25184734  0.49843437  0.75491916  1
  Ca2+  Ca78  1  0.24560385  0.49933495  0.24960710  1
  Ca2+  Ca79  1  -0.00130733  0.25441946  0.24705515  1
  Ca2+  Ca80  1  0.74934806  0.00607215  0.25341111  1
  Ca2+  Ca81  1  0.00125169  0.25464268  0.74771460  1
  Ca2+  Ca82  1  0.49669762  0.75414800  0.24565855  1
  Ca2+  Ca83  1  0.24948170  -0.00060984  0.75089210  1
  Ca2+  Ca84  1  0.74720459  0.00088505  0.74630934  1
  Nb5+  Nb85  1  -0.00212816  0.50160387  -0.00714035  1
  Nb5+  Nb86  1  -0.00306012  0.50056708  0.49448553  1
  Nb5+  Nb87  1  0.49987217  0.00456795  0.49783936  1
  Nb5+  Nb88  1  0.74839080  0.24940590  0.49840551  1
  Nb5+  Nb89  1  0.25250491  0.25522441  0.00167776  1
  Nb5+  Nb90  1  0.24983661  0.75394350  -0.00231739  1
  Nb5+  Nb91  1  0.49847603  0.24816139  0.25700850  1
  Nb5+  Nb92  1  0.74988782  0.50040359  0.75081715  1
  Nb5+  Nb93  1  0.49863892  0.25568749  0.75039026  1
  Nb5+  Nb94  1  0.49601426  0.75708427  0.74503513  1
  Nb5+  Nb95  1  -0.00829173  0.74680978  0.75423485  1
  Nb5+  Nb96  1  -0.00049708  0.00184310  0.25006567  1
  Nb5+  Nb97  1  0.00489657  0.00878398  0.74480533  1
  Nb5+  Nb98  1  -0.00269823  0.49821224  0.23847425  1
  Nb5+  Nb99  1  0.00077063  0.49828291  0.74730449  1
  Nb5+  Nb100  1  0.49741805  0.00049369  0.24326667  1
  Nb5+  Nb101  1  0.50470935  0.00762551  0.74986506  1
  Nb5+  Nb102  1  0.50232501  0.50323784  0.25553420  1
  Nb5+  Nb103  1  0.50351176  0.50932439  0.74928213  1
  Nb5+  Nb104  1  0.24858658  0.25412767  0.25075027  1
  Nb5+  Nb105  1  0.24940800  0.25153724  0.74973611  1
  Nb5+  Nb106  1  0.25287423  0.74946033  0.25820489  1
  Nb5+  Nb107  1  0.24260204  0.74730353  0.75329546  1
  Nb5+  Nb108  1  0.75097320  0.24978284  0.24862032  1
  Nb5+  Nb109  1  0.74972995  0.24867056  0.74971162  1
  Nb5+  Nb110  1  0.75082915  0.75222627  0.25024325  1
  Nb5+  Nb111  1  0.74801603  0.75432020  0.74970991  1
  Nb5+  Nb112  1  0.00436487  0.25150904  0.50622803  1
  Nb5+  Nb113  1  -0.00121789  0.24652174  1.00014771  1
  Nb5+  Nb114  1  -0.00346840  0.74877884  0.49416740  1
  Nb5+  Nb115  1  0.00109749  0.74826977  0.99780239  1
  Nb5+  Nb116  1  0.49613206  0.25058516  0.50462407  1
  Nb5+  Nb117  1  0.49957295  0.24888628  1.00744029  1
  Nb5+  Nb118  1  0.49875099  0.75206276  0.49943124  1
  Nb5+  Nb119  1  0.50305147  0.74662518  1.00147448  1
  Nb5+  Nb120  1  0.24893044  0.00589415  -0.00210682  1
  Nb5+  Nb121  1  0.24158452  -0.00265141  0.49750641  1
  Nb5+  Nb122  1  0.24816720  0.50527311  -0.00468382  1
  Nb5+  Nb123  1  0.25505496  0.50490541  0.49777288  1
  Nb5+  Nb124  1  0.74790956  0.00212210  0.00201948  1
  Nb5+  Nb125  1  0.75343589  0.00146588  0.50780304  1
  Nb5+  Nb126  1  0.74509052  0.49459130  0.00217283  1
  Nb5+  Nb127  1  0.75017159  0.50272491  0.49817136  1
  O2-  O128  1  -0.00821624  -0.02583051  0.13324775  1
  O2-  O129  1  0.00623437  -0.03580737  0.63382691  1
  O2-  O130  1  0.00222004  0.48147308  0.12157206  1
  O2-  O131  1  0.00578815  0.48656407  0.63011169  1
  O2-  O132  1  0.50811543  0.02828350  0.13252210  1
  O2-  O133  1  0.51234854  0.01384105  0.62150399  1
  O2-  O134  1  0.50257011  0.50925352  0.13257220  1
  O2-  O135  1  0.52328002  0.50119990  0.63332514  1
  O2-  O136  1  0.00432129  0.02668002  0.37086098  1
  O2-  O137  1  -0.00761976  0.01865452  0.86334528  1
  O2-  O138  1  -0.01065933  0.51881626  0.38071377  1
  O2-  O139  1  -0.00676256  0.52111532  0.87530992  1
  O2-  O140  1  0.49141791  -0.00893292  0.37873515  1
  O2-  O141  1  0.49240398  -0.01643231  0.86282416  1
  O2-  O142  1  0.49382888  0.46706034  0.36656076  1
  O2-  O143  1  0.49904774  0.47252206  0.85953075  1
  O2-  O144  1  0.25695786  0.23209701  0.12022399  1
  O2-  O145  1  0.26212541  0.22946264  0.63656962  1
  O2-  O146  1  0.23253309  0.74820576  0.11385969  1
  O2-  O147  1  0.24125062  0.72105880  0.64050572  1
  O2-  O148  1  0.75078523  0.26564747  0.13509722  1
  O2-  O149  1  0.75403732  0.24586141  0.62476215  1
  O2-  O150  1  0.73088739  0.73536251  0.13166514  1
  O2-  O151  1  0.75091565  0.72556992  0.63739827  1
  O2-  O152  1  0.25069800  0.26758210  0.36605914  1
  O2-  O153  1  0.24865166  0.26208517  0.88077245  1
  O2-  O154  1  0.27900436  0.74768147  0.36956291  1
  O2-  O155  1  0.27155116  0.76212187  0.87493972  1
  O2-  O156  1  0.73221654  0.24988933  0.38195105  1
  O2-  O157  1  0.73143486  0.26559349  0.86421404  1
  O2-  O158  1  0.76412172  0.76262579  0.36967221  1
  O2-  O159  1  0.76057022  0.74098909  0.86540026  1
  O2-  O160  1  -0.00473696  0.28486468  0.11118404  1
  O2-  O161  1  -0.03353431  0.26856701  0.61672565  1
  O2-  O162  1  0.02675285  0.76583885  0.10872436  1
  O2-  O163  1  -0.00193606  0.76031309  0.63542488  1
  O2-  O164  1  0.49547870  0.22958845  0.12286156  1
  O2-  O165  1  0.49384224  0.23189185  0.62322151  1
  O2-  O166  1  0.51065354  0.71625579  0.11160902  1
  O2-  O167  1  0.52356396  0.73966489  0.63011009  1
  O2-  O168  1  0.27168286  -0.00020353  0.38447186  1
  O2-  O169  1  0.25886691  -0.01784748  0.88321039  1
  O2-  O170  1  0.24616505  0.47694842  0.38410385  1
  O2-  O171  1  0.24718091  0.46599992  0.88603779  1
  O2-  O172  1  0.74906440  -0.00685591  0.38894375  1
  O2-  O173  1  0.75656547  0.00000995  0.88055648  1
  O2-  O174  1  0.78434985  0.49701331  0.38994349  1
  O2-  O175  1  0.76123318  0.48920642  0.87015627  1
  O2-  O176  1  0.00652984  0.23758949  0.38737763  1
  O2-  O177  1  0.02261076  0.24480304  0.88328017  1
  O2-  O178  1  0.00708016  0.72300203  0.38315339  1
  O2-  O179  1  -0.00412626  0.71875822  0.87213724  1
  O2-  O180  1  0.50275390  0.26374799  0.37476026  1
  O2-  O181  1  0.50760760  0.26369247  0.86659338  1
  O2-  O182  1  0.47806461  0.76440167  0.38526801  1
  O2-  O183  1  0.49555764  0.77039481  0.86248778  1
  O2-  O184  1  0.24899813  -0.00367823  0.11639908  1
  O2-  O185  1  0.24927533  0.01657338  0.61557185  1
  O2-  O186  1  0.23936144  0.50257310  0.11297569  1
  O2-  O187  1  0.23682896  0.51531765  0.61924014  1
  O2-  O188  1  0.74637226  0.01232616  0.12038261  1
  O2-  O189  1  0.71839873  0.01431158  0.61726985  1
  O2-  O190  1  0.74595226  0.50475619  0.11779013  1
  O2-  O191  1  0.74403260  0.50194929  0.62770446  1
  O2-  O192  1  0.13517926  0.27837914  0.24108783  1
  O2-  O193  1  0.13850891  0.28442648  0.74105136  1
  O2-  O194  1  0.13798333  0.78246054  0.25882417  1
  O2-  O195  1  0.12570534  0.76350720  0.76309538  1
  O2-  O196  1  0.61624634  0.27334343  0.24342895  1
  O2-  O197  1  0.61948612  0.27065927  0.73485993  1
  O2-  O198  1  0.63016431  0.77615251  0.26371140  1
  O2-  O199  1  0.63022413  0.76766509  0.75818006  1
  O2-  O200  1  0.37992473  0.22482763  0.25420458  1
  O2-  O201  1  0.38498926  0.22026684  0.75769111  1
  O2-  O202  1  0.36578304  0.71777195  0.22711944  1
  O2-  O203  1  0.38456348  0.72404382  0.74232133  1
  O2-  O204  1  0.86290493  0.22145653  0.25882537  1
  O2-  O205  1  0.86333264  0.22641955  0.76287158  1
  O2-  O206  1  0.86878672  0.72831210  0.23534954  1
  O2-  O207  1  0.87767511  0.72085285  0.74930479  1
  O2-  O208  1  0.28381683  0.36534114  0.23236619  1
  O2-  O209  1  0.29142330  0.36284073  0.74660494  1
  O2-  O210  1  0.28354685  0.86459534  0.24394944  1
  O2-  O211  1  0.27426153  0.85952935  0.73712860  1
  O2-  O212  1  0.76106597  0.36480273  0.27247703  1
  O2-  O213  1  0.76898052  0.37609294  0.73906623  1
  O2-  O214  1  0.77105021  0.87041814  0.23363990  1
  O2-  O215  1  0.78126809  0.86375916  0.74337052  1
  O2-  O216  1  0.22921024  0.13578496  0.25460704  1
  O2-  O217  1  0.23100923  0.13572756  0.77368407  1
  O2-  O218  1  0.21856178  0.63353659  0.25141082  1
  O2-  O219  1  0.24338612  0.63152165  0.78410562  1
  O2-  O220  1  0.71298485  0.13812105  0.25373435  1
  O2-  O221  1  0.71940895  0.13674319  0.75323325  1
  O2-  O222  1  0.72543779  0.63282129  0.26502416  1
  O2-  O223  1  0.72725127  0.61655209  0.75719326  1
  O2-  O224  1  0.11049711  0.46538734  0.26061054  1
  O2-  O225  1  0.11403497  0.47872959  0.76088995  1
  O2-  O226  1  0.11788922  0.97684595  0.25643486  1
  O2-  O227  1  0.11642015  0.96713347  0.75660076  1
  O2-  O228  1  0.61734059  0.47139524  0.24935079  1
  O2-  O229  1  0.63140259  0.47597366  0.75630190  1
  O2-  O230  1  0.61393081  0.98072492  0.25951617  1
  O2-  O231  1  0.61382232  0.96370920  0.74986072  1
  O2-  O232  1  0.38523906  0.03488178  0.25110665  1
  O2-  O233  1  0.38742667  0.01467243  0.73485947  1
  O2-  O234  1  0.38245562  0.52083437  0.25057650  1
  O2-  O235  1  0.38914964  0.52270166  0.73823975  1
  O2-  O236  1  0.88179642  0.02940497  0.25611426  1
  O2-  O237  1  0.88479950  0.02043350  0.73414924  1
  O2-  O238  1  0.88401079  0.53539859  0.24033771  1
  O2-  O239  1  0.87186159  0.52315601  0.74484710  1
  O2-  O240  1  0.47817310  0.36572647  0.23301083  1
  O2-  O241  1  0.48173632  0.36826780  0.73234070  1
  O2-  O242  1  0.47244497  0.88796540  0.23010038  1
  O2-  O243  1  0.48075949  0.87016594  0.72722736  1
  O2-  O244  1  0.95980040  0.38722243  0.26340851  1
  O2-  O245  1  0.96974865  0.38786456  0.76540830  1
  O2-  O246  1  0.97552967  0.88298657  0.27523733  1
  O2-  O247  1  0.97852776  0.86130785  0.77198684  1
  O2-  O248  1  0.02326113  0.11933651  0.22372177  1
  O2-  O249  1  0.03192591  0.11876283  0.72578524  1
  O2-  O250  1  0.03228060  0.61321160  0.23694508  1
  O2-  O251  1  0.01940975  0.62250900  0.73591829  1
  O2-  O252  1  0.52387725  0.13127341  0.26558270  1
  O2-  O253  1  0.52678166  0.12289134  0.75804210  1
  O2-  O254  1  0.52420632  0.61604232  0.27712674  1
  O2-  O255  1  0.52829790  0.62392762  0.76018174  1
  O2-  O256  1  0.12035699  0.47895325  -0.00556683  1
  O2-  O257  1  0.11334223  0.47643027  0.49602683  1
  O2-  O258  1  0.13302426  0.97402393  -0.00206260  1
  O2-  O259  1  0.13195483  0.96249599  0.49481103  1
  O2-  O260  1  0.63451878  0.46407712  -0.00600892  1
  O2-  O261  1  0.64030692  0.46677794  0.49040873  1
  O2-  O262  1  0.63353956  0.96086557  0.00152446  1
  O2-  O263  1  0.62085541  0.98368935  0.49009484  1
  O2-  O264  1  0.36690283  0.02292071  0.00332386  1
  O2-  O265  1  0.38314806  0.02586105  0.50883459  1
  O2-  O266  1  0.36398931  0.51918142  -0.00276498  1
  O2-  O267  1  0.36769021  0.53359046  0.49999401  1
  O2-  O268  1  0.86717830  0.03409910  0.00160443  1
  O2-  O269  1  0.86477142  0.03545746  0.51273349  1
  O2-  O270  1  0.88207159  0.52403553  0.00628898  1
  O2-  O271  1  0.87696959  0.51039118  0.52491893  1
  O2-  O272  1  0.46524498  0.36196433  0.00365701  1
  O2-  O273  1  0.47569432  0.36345579  0.51288371  1
  O2-  O274  1  0.46412953  0.85782288  0.00570520  1
  O2-  O275  1  0.48391144  0.88317963  0.51592551  1
  O2-  O276  1  0.98396057  0.38318249  -0.02357668  1
  O2-  O277  1  0.97582018  0.37903810  0.48879182  1
  O2-  O278  1  0.98756380  0.85987489  -0.03068333  1
  O2-  O279  1  0.96940640  0.86183790  0.47998914  1
  O2-  O280  1  0.02831406  0.13665976  0.02013280  1
  O2-  O281  1  0.01748190  0.13759617  0.52875438  1
  O2-  O282  1  0.02753263  0.61972441  0.00955086  1
  O2-  O283  1  0.01523597  0.61695877  0.51828496  1
  O2-  O284  1  0.51052655  0.13632591  -0.02724326  1
  O2-  O285  1  0.52559489  0.12483798  0.48908804  1
  O2-  O286  1  0.50475888  0.63546063  -0.04157670  1
  O2-  O287  1  0.52565576  0.63809362  0.48943985  1
  O2-  O288  1  0.13303732  0.27172382  0.00752210  1
  O2-  O289  1  0.11492834  0.28053398  0.51860843  1
  O2-  O290  1  0.13116970  0.75501052  -0.02876926  1
  O2-  O291  1  0.11193412  0.76784534  0.51510165  1
  O2-  O292  1  0.61151281  0.27645877  0.00570251  1
  O2-  O293  1  0.62227974  0.26840231  0.51032614  1
  O2-  O294  1  0.61447125  0.76920368  -0.01614730  1
  O2-  O295  1  0.61700759  0.78129072  0.49206359  1
  O2-  O296  1  0.36984712  0.22379782  -0.00724337  1
  O2-  O297  1  0.38572842  0.21814910  0.49336908  1
  O2-  O298  1  0.36556490  0.71997877  0.00636159  1
  O2-  O299  1  0.38660084  0.73718172  0.52939245  1
  O2-  O300  1  0.88558518  0.22631280  -0.01267882  1
  O2-  O301  1  0.86628883  0.23145327  0.48741690  1
  O2-  O302  1  0.88946528  0.72240559  0.01102626  1
  O2-  O303  1  0.88456645  0.71581342  0.50818149  1
  O2-  O304  1  0.27124863  0.36907787  0.01548331  1
  O2-  O305  1  0.26649336  0.38584349  0.52250908  1
  O2-  O306  1  0.26868984  0.86837431  0.00349867  1
  O2-  O307  1  0.28114633  0.88445513  0.50658440  1
  O2-  O308  1  0.78986786  0.38508382  0.00025316  1
  O2-  O309  1  0.76970955  0.36897226  0.50848263  1
  O2-  O310  1  0.78655227  0.88415754  0.00924369  1
  O2-  O311  1  0.77753740  0.88835110  0.52352315  1
  O2-  O312  1  0.22562594  0.12306023  -0.01039149  1
  O2-  O313  1  0.21458375  0.11713477  0.48611591  1
  O2-  O314  1  0.22782679  0.62026399  -0.01646226  1
  O2-  O315  1  0.21448546  0.61533719  0.48526516  1
  O2-  O316  1  0.71252373  0.11945546  -0.00254818  1
  O2-  O317  1  0.72537545  0.13114332  0.50022679  1
  O2-  O318  1  0.73495593  0.61127055  -0.01449337  1
  O2-  O319  1  0.72363002  0.61493811  0.49729389  1
