# generated using pymatgen
data_Sr64Ca21Nb43O192
_symmetry_space_group_name_H-M   'P 1'
_cell_length_a   16.61485753
_cell_length_b   16.58314912
_cell_length_c   16.75189431
_cell_angle_alpha   89.97169290
_cell_angle_beta   89.99461503
_cell_angle_gamma   90.02925512
_symmetry_Int_Tables_number   1
_chemical_formula_structural   Sr64Ca21Nb43O192
_chemical_formula_sum   'Sr64 Ca21 Nb43 O192'
_cell_volume   4615.59230328
_cell_formula_units_Z   1
loop_
 _symmetry_equiv_pos_site_id
 _symmetry_equiv_pos_as_xyz
  1  'x, y, z'
loop_
 _atom_type_symbol
 _atom_type_oxidation_number
  Sr2+  2.0
  Ca2+  2.0
  Nb5+  5.0
  O2-  -2.0
loop_
 _atom_site_type_symbol
 _atom_site_label
 _atom_site_symmetry_multiplicity
 _atom_site_fract_x
 _atom_site_fract_y
 _atom_site_fract_z
 _atom_site_occupancy
  Sr2+  Sr0  1  0.11294928  0.13348606  0.12946784  1
  Sr2+  Sr1  1  0.12348758  0.13937166  0.61584576  1
  Sr2+  Sr2  1  0.12010021  0.63679720  0.12324665  1
  Sr2+  Sr3  1  0.11269477  0.63213259  0.63755545  1
  Sr2+  Sr4  1  0.62125668  0.14149425  0.12725637  1
  Sr2+  Sr5  1  0.62024769  0.12841709  0.62878175  1
  Sr2+  Sr6  1  0.61968425  0.62525168  0.11861862  1
  Sr2+  Sr7  1  0.62717925  0.63716520  0.61933603  1
  Sr2+  Sr8  1  0.37560977  0.38865483  0.12567222  1
  Sr2+  Sr9  1  0.36183028  0.38382684  0.62658840  1
  Sr2+  Sr10  1  0.35920273  0.87445787  0.12661347  1
  Sr2+  Sr11  1  0.37492658  0.88448367  0.61757797  1
  Sr2+  Sr12  1  0.86858458  0.35815798  0.12310509  1
  Sr2+  Sr13  1  0.87373168  0.39192229  0.62510825  1
  Sr2+  Sr14  1  0.87408747  0.86740339  0.12342561  1
  Sr2+  Sr15  1  0.86423315  0.88194150  0.62513186  1
  Sr2+  Sr16  1  0.13890822  0.37176666  0.37973269  1
  Sr2+  Sr17  1  0.14317020  0.36643420  0.86711404  1
  Sr2+  Sr18  1  0.13311863  0.87088403  0.36940775  1
  Sr2+  Sr19  1  0.14192119  0.87032314  0.87868500  1
  Sr2+  Sr20  1  0.61733552  0.37306083  0.37817788  1
  Sr2+  Sr21  1  0.62946105  0.37753926  0.87868931  1
  Sr2+  Sr22  1  0.63212456  0.87430412  0.38145973  1
  Sr2+  Sr23  1  0.62105015  0.87296354  0.86975457  1
  Sr2+  Sr24  1  0.38094747  0.11820194  0.37642002  1
  Sr2+  Sr25  1  0.37731074  0.11715298  0.87643599  1
  Sr2+  Sr26  1  0.38403303  0.61264197  0.37732211  1
  Sr2+  Sr27  1  0.38850130  0.62186345  0.87697393  1
  Sr2+  Sr28  1  0.87820279  0.11352366  0.36704446  1
  Sr2+  Sr29  1  0.87827367  0.11612988  0.88029160  1
  Sr2+  Sr30  1  0.88139718  0.61853033  0.36964067  1
  Sr2+  Sr31  1  0.87982976  0.61294468  0.87023457  1
  Sr2+  Sr32  1  0.13757600  0.12106302  0.37235345  1
  Sr2+  Sr33  1  0.12285829  0.10845101  0.87831018  1
  Sr2+  Sr34  1  0.12729538  0.60590973  0.37131918  1
  Sr2+  Sr35  1  0.13791475  0.61740281  0.87286069  1
  Sr2+  Sr36  1  0.62609013  0.12016967  0.37567985  1
  Sr2+  Sr37  1  0.63408959  0.12663723  0.87216202  1
  Sr2+  Sr38  1  0.63864137  0.62296333  0.37624568  1
  Sr2+  Sr39  1  0.62808261  0.61679379  0.87879314  1
  Sr2+  Sr40  1  0.37758120  0.36298311  0.37872518  1
  Sr2+  Sr41  1  0.38812534  0.36373162  0.86842515  1
  Sr2+  Sr42  1  0.38695302  0.86928608  0.37230128  1
  Sr2+  Sr43  1  0.37722209  0.85672100  0.87931534  1
  Sr2+  Sr44  1  0.87048532  0.36529812  0.37395715  1
  Sr2+  Sr45  1  0.87452130  0.36964229  0.86790924  1
  Sr2+  Sr46  1  0.87303840  0.86164315  0.37666688  1
  Sr2+  Sr47  1  0.87733579  0.87861645  0.87326630  1
  Sr2+  Sr48  1  0.11431794  0.38408467  0.12571195  1
  Sr2+  Sr49  1  0.11303526  0.38038073  0.61605436  1
  Sr2+  Sr50  1  0.11727749  0.87896117  0.12301927  1
  Sr2+  Sr51  1  0.12679135  0.88539850  0.62849760  1
  Sr2+  Sr52  1  0.61169962  0.38363415  0.12626554  1
  Sr2+  Sr53  1  0.62333522  0.38636525  0.62336475  1
  Sr2+  Sr54  1  0.61552347  0.88648509  0.12578505  1
  Sr2+  Sr55  1  0.61463574  0.88074445  0.61967816  1
  Sr2+  Sr56  1  0.36582371  0.13709472  0.12781929  1
  Sr2+  Sr57  1  0.35909028  0.12557313  0.62273837  1
  Sr2+  Sr58  1  0.35820461  0.62436543  0.12168350  1
  Sr2+  Sr59  1  0.36423477  0.63666216  0.62688764  1
  Sr2+  Sr60  1  0.87490582  0.12670685  0.11627330  1
  Sr2+  Sr61  1  0.87618726  0.12704441  0.64089420  1
  Sr2+  Sr62  1  0.88046022  0.63225290  0.12630836  1
  Sr2+  Sr63  1  0.87144302  0.62998405  0.63009580  1
  Ca2+  Ca64  1  -0.00289879  0.50310415  0.49755498  1
  Ca2+  Ca65  1  -0.00182648  -0.00034581  0.49813821  1
  Ca2+  Ca66  1  0.49973322  0.00059345  0.00215322  1
  Ca2+  Ca67  1  0.49784653  0.50009812  0.50202578  1
  Ca2+  Ca68  1  0.00046273  0.50042343  -0.00084588  1
  Ca2+  Ca69  1  0.24699383  0.75109270  0.49731865  1
  Ca2+  Ca70  1  0.74930500  0.24926056  -0.00343511  1
  Ca2+  Ca71  1  0.74978638  0.74970462  -0.00164780  1
  Ca2+  Ca72  1  0.24945204  0.24891197  0.00280629  1
  Ca2+  Ca73  1  0.75071061  0.24891142  0.50278564  1
  Ca2+  Ca74  1  0.25108018  -0.00032657  0.75138488  1
  Ca2+  Ca75  1  0.00050314  0.24976459  0.75049107  1
  Ca2+  Ca76  1  -0.00211301  0.75301034  0.75340321  1
  Ca2+  Ca77  1  0.25271398  0.50021842  0.75013063  1
  Ca2+  Ca78  1  0.50162706  0.24699301  0.74578754  1
  Ca2+  Ca79  1  0.75228774  0.00135281  0.25143236  1
  Ca2+  Ca80  1  0.75281089  0.49780001  0.24769448  1
  Ca2+  Ca81  1  0.25266391  0.00113392  0.24873293  1
  Ca2+  Ca82  1  0.49899649  0.74872642  0.24867838  1
  Ca2+  Ca83  1  0.25006775  0.49966963  0.25020885  1
  Ca2+  Ca84  1  0.50011585  0.74831306  0.74765499  1
  Nb5+  Nb85  1  0.00045104  -0.00159669  0.00258542  1
  Nb5+  Nb86  1  0.49952455  0.49893350  -0.00155212  1
  Nb5+  Nb87  1  0.49934698  0.00140205  0.49873393  1
  Nb5+  Nb88  1  0.24893656  0.74781696  0.00045953  1
  Nb5+  Nb89  1  0.75150694  0.74979344  0.49936652  1
  Nb5+  Nb90  1  0.25244560  0.25154838  0.50033545  1
  Nb5+  Nb91  1  0.00323417  0.74722404  0.25251377  1
  Nb5+  Nb92  1  0.74673244  0.00110610  0.74998832  1
  Nb5+  Nb93  1  0.49296532  0.24896033  0.25078082  1
  Nb5+  Nb94  1  -0.00322908  0.24586719  0.25597092  1
  Nb5+  Nb95  1  0.74461624  0.50748924  0.74811844  1
  Nb5+  Nb96  1  -0.00318320  -0.00758241  0.25101806  1
  Nb5+  Nb97  1  0.00254087  -0.00237879  0.74935567  1
  Nb5+  Nb98  1  -0.00319873  0.49038124  0.24804752  1
  Nb5+  Nb99  1  0.00379691  0.49726998  0.75544807  1
  Nb5+  Nb100  1  0.50243386  0.00114821  0.24614542  1
  Nb5+  Nb101  1  0.49651805  -0.00045449  0.75133650  1
  Nb5+  Nb102  1  0.50215694  0.50243367  0.25347495  1
  Nb5+  Nb103  1  0.50005416  0.50294668  0.74294111  1
  Nb5+  Nb104  1  0.24441750  0.25512717  0.24735790  1
  Nb5+  Nb105  1  0.24763417  0.24401897  0.75516466  1
  Nb5+  Nb106  1  0.24961965  0.74477774  0.25651494  1
  Nb5+  Nb107  1  0.25094086  0.75361886  0.74521408  1
  Nb5+  Nb108  1  0.74192005  0.25334885  0.25339011  1
  Nb5+  Nb109  1  0.75117244  0.25962552  0.74646184  1
  Nb5+  Nb110  1  0.74712053  0.75278629  0.24457354  1
  Nb5+  Nb111  1  0.74626049  0.75395359  0.75186161  1
  Nb5+  Nb112  1  -0.00525680  0.24598779  0.49654756  1
  Nb5+  Nb113  1  0.00445208  0.25445805  0.99805717  1
  Nb5+  Nb114  1  0.00163243  0.75405429  0.50186340  1
  Nb5+  Nb115  1  0.00244311  0.75044476  0.99489585  1
  Nb5+  Nb116  1  0.49718848  0.24824264  0.50535948  1
  Nb5+  Nb117  1  0.50428433  0.24757271  0.99631378  1
  Nb5+  Nb118  1  0.49894653  0.74484232  0.49320792  1
  Nb5+  Nb119  1  0.50019542  0.75295010  1.00853683  1
  Nb5+  Nb120  1  0.25093188  0.00485781  0.00592190  1
  Nb5+  Nb121  1  0.24931713  -0.00455399  0.49553014  1
  Nb5+  Nb122  1  0.25025993  0.49200459  -0.00649495  1
  Nb5+  Nb123  1  0.24578185  0.50918118  0.50665245  1
  Nb5+  Nb124  1  0.74583381  -0.00473264  0.00198067  1
  Nb5+  Nb125  1  0.75164218  0.00356422  0.50280528  1
  Nb5+  Nb126  1  0.75277714  0.50238636  0.00368106  1
  Nb5+  Nb127  1  0.75263810  0.49807251  0.49743403  1
  O2-  O128  1  0.01771407  0.01353448  0.12375682  1
  O2-  O129  1  0.01932372  0.01496683  0.63651219  1
  O2-  O130  1  0.02733283  0.51621824  0.13440357  1
  O2-  O131  1  0.01275678  0.51626171  0.63737340  1
  O2-  O132  1  0.53275044  0.01732642  0.13563778  1
  O2-  O133  1  0.51588218  0.01640107  0.61688223  1
  O2-  O134  1  0.51957128  0.50754135  0.12098429  1
  O2-  O135  1  0.53128841  0.51650615  0.63402933  1
  O2-  O136  1  -0.02841063  -0.01466282  0.36340860  1
  O2-  O137  1  -0.01692707  -0.01257956  0.88426421  1
  O2-  O138  1  -0.03056094  0.48999396  0.36336909  1
  O2-  O139  1  -0.03537576  0.48782469  0.86776428  1
  O2-  O140  1  0.48135840  -0.00850303  0.37777206  1
  O2-  O141  1  0.48449301  -0.02321251  0.86460713  1
  O2-  O142  1  0.47744723  0.48029911  0.36477187  1
  O2-  O143  1  0.48450219  0.48331816  0.88049578  1
  O2-  O144  1  0.27826242  0.26931669  0.13784936  1
  O2-  O145  1  0.27558321  0.25859864  0.61620784  1
  O2-  O146  1  0.26376512  0.75915637  0.12206796  1
  O2-  O147  1  0.27313354  0.77039798  0.63275371  1
  O2-  O148  1  0.77015660  0.23521887  0.13667967  1
  O2-  O149  1  0.78874735  0.24623403  0.63506144  1
  O2-  O150  1  0.77587548  0.74461011  0.13312413  1
  O2-  O151  1  0.77074298  0.74803059  0.61812248  1
  O2-  O152  1  0.23632933  0.23735850  0.37594191  1
  O2-  O153  1  0.22079357  0.22701635  0.86669832  1
  O2-  O154  1  0.21453144  0.73435629  0.36528896  1
  O2-  O155  1  0.22886034  0.73839299  0.88313340  1
  O2-  O156  1  0.73017276  0.27339313  0.36967273  1
  O2-  O157  1  0.71498035  0.25333924  0.86082739  1
  O2-  O158  1  0.73504564  0.75559334  0.37699545  1
  O2-  O159  1  0.71828222  0.75232056  0.86332827  1
  O2-  O160  1  -0.01664915  0.23342879  0.13808884  1
  O2-  O161  1  -0.00944980  0.22137985  0.61062482  1
  O2-  O162  1  -0.00943970  0.74058303  0.12694155  1
  O2-  O163  1  -0.01188946  0.72678450  0.61301958  1
  O2-  O164  1  0.48541463  0.23185864  0.13146250  1
  O2-  O165  1  0.48157004  0.21672186  0.61314457  1
  O2-  O166  1  0.47962403  0.71376121  0.11741124  1
  O2-  O167  1  0.48571542  0.73197907  0.61000704  1
  O2-  O168  1  0.26243849  0.02560898  0.38277241  1
  O2-  O169  1  0.25501610  0.02117912  0.88792904  1
  O2-  O170  1  0.26493541  0.52299437  0.38863183  1
  O2-  O171  1  0.26883043  0.53141164  0.88403401  1
  O2-  O172  1  0.77104292  -0.00407891  0.39025977  1
  O2-  O173  1  0.76026606  -0.00990419  0.86688278  1
  O2-  O174  1  0.77184819  0.50432470  0.38458465  1
  O2-  O175  1  0.75587128  0.50962136  0.86845369  1
  O2-  O176  1  0.02135758  0.27658090  0.36999231  1
  O2-  O177  1  0.02702192  0.26937933  0.88778900  1
  O2-  O178  1  0.00994986  0.78106798  0.36534743  1
  O2-  O179  1  0.01436494  0.78402189  0.88673657  1
  O2-  O180  1  0.51028680  0.26481171  0.37054535  1
  O2-  O181  1  0.51907304  0.27010005  0.88427694  1
  O2-  O182  1  0.51512343  0.78171917  0.38114864  1
  O2-  O183  1  0.50894313  0.76764429  0.88961550  1
  O2-  O184  1  0.23840189  -0.03265263  0.11684574  1
  O2-  O185  1  0.24778954  -0.02064218  0.61453887  1
  O2-  O186  1  0.24232059  0.47961402  0.11116380  1
  O2-  O187  1  0.23403895  0.46892944  0.61794531  1
  O2-  O188  1  0.73132238  0.00701993  0.11514704  1
  O2-  O189  1  0.73442694  -0.01503560  0.62868405  1
  O2-  O190  1  0.72843973  0.49082704  0.11390347  1
  O2-  O191  1  0.72716221  0.50140986  0.62901979  1
  O2-  O192  1  0.12807406  0.27270230  0.23457994  1
  O2-  O193  1  0.13538392  0.27391229  0.72232015  1
  O2-  O194  1  0.12040727  0.77456488  0.23247269  1
  O2-  O195  1  0.13229912  0.77683353  0.73337303  1
  O2-  O196  1  0.62715988  0.26724410  0.23189848  1
  O2-  O197  1  0.63747809  0.26134267  0.70991547  1
  O2-  O198  1  0.63532207  0.77695080  0.22939919  1
  O2-  O199  1  0.63472551  0.76254514  0.71508651  1
  O2-  O200  1  0.37935292  0.23143970  0.26818704  1
  O2-  O201  1  0.36601691  0.22211717  0.76936799  1
  O2-  O202  1  0.36272806  0.72207107  0.27216519  1
  O2-  O203  1  0.36549285  0.72668621  0.77085817  1
  O2-  O204  1  0.88464064  0.23687840  0.27772487  1
  O2-  O205  1  0.86267607  0.23212607  0.78332169  1
  O2-  O206  1  0.88390990  0.73404762  0.26340384  1
  O2-  O207  1  0.85941779  0.72125480  0.76244570  1
  O2-  O208  1  0.26954516  0.36682179  0.27622015  1
  O2-  O209  1  0.27329400  0.36261884  0.76883899  1
  O2-  O210  1  0.27077303  0.86316543  0.26350168  1
  O2-  O211  1  0.26971642  0.86680234  0.77811214  1
  O2-  O212  1  0.78463779  0.36450818  0.24512805  1
  O2-  O213  1  0.76691298  0.37677364  0.74813199  1
  O2-  O214  1  0.78121147  0.86700560  0.25299866  1
  O2-  O215  1  0.76975815  0.86895020  0.74948508  1
  O2-  O216  1  0.23265388  0.13777036  0.23465067  1
  O2-  O217  1  0.22737647  0.13146357  0.72237493  1
  O2-  O218  1  0.22458132  0.63301063  0.22684912  1
  O2-  O219  1  0.22374940  0.63615789  0.73640617  1
  O2-  O220  1  0.74306864  0.13718053  0.27523914  1
  O2-  O221  1  0.73160082  0.11679100  0.74554772  1
  O2-  O222  1  0.73335736  0.63575810  0.25737478  1
  O2-  O223  1  0.72307541  0.62320778  0.74467369  1
  O2-  O224  1  0.11382119  0.48262954  0.27507052  1
  O2-  O225  1  0.11566252  0.47921132  0.77467319  1
  O2-  O226  1  0.11392740  0.98905670  0.26739201  1
  O2-  O227  1  0.11369373  0.97600677  0.77086048  1
  O2-  O228  1  0.61603067  0.46878725  0.26002494  1
  O2-  O229  1  0.62739527  0.47459536  0.76479312  1
  O2-  O230  1  0.61651333  0.98697555  0.27996349  1
  O2-  O231  1  0.62980044  0.97335359  0.75858442  1
  O2-  O232  1  0.38946264  0.03552167  0.23843490  1
  O2-  O233  1  0.38614490  0.02715867  0.73646446  1
  O2-  O234  1  0.38721239  0.51444386  0.22495585  1
  O2-  O235  1  0.38678971  0.52427941  0.72766688  1
  O2-  O236  1  0.88772379  0.03215979  0.22990797  1
  O2-  O237  1  0.86696694  0.01348371  0.73949808  1
  O2-  O238  1  0.88658847  0.52814340  0.22733963  1
  O2-  O239  1  0.86207331  0.51846458  0.73404657  1
  O2-  O240  1  0.48494119  0.36729181  0.23332092  1
  O2-  O241  1  0.48095014  0.38422389  0.73784594  1
  O2-  O242  1  0.47766316  0.88797208  0.23000409  1
  O2-  O243  1  0.48955539  0.88530080  0.71912533  1
  O2-  O244  1  0.98294756  0.37487340  0.22950813  1
  O2-  O245  1  0.97231695  0.38310066  0.73614443  1
  O2-  O246  1  0.98366637  0.87928916  0.22769576  1
  O2-  O247  1  0.96602499  0.88558476  0.74010971  1
  O2-  O248  1  0.02245181  0.13259261  0.26857188  1
  O2-  O249  1  0.00208224  0.11304085  0.77735229  1
  O2-  O250  1  0.02151573  0.63400957  0.26434212  1
  O2-  O251  1  0.01283740  0.61728592  0.77298607  1
  O2-  O252  1  0.52683862  0.13335989  0.26270609  1
  O2-  O253  1  0.53487556  0.11124321  0.76186078  1
  O2-  O254  1  0.52644246  0.61408902  0.26950666  1
  O2-  O255  1  0.52081075  0.61383856  0.77811879  1
  O2-  O256  1  0.13627412  0.47702361  -0.02457251  1
  O2-  O257  1  0.13189914  0.47995726  0.48180244  1
  O2-  O258  1  0.12122119  0.98111790  -0.01335687  1
  O2-  O259  1  0.13484716  0.97681127  0.48669259  1
  O2-  O260  1  0.61899423  0.48116717  -0.01465830  1
  O2-  O261  1  0.63414055  0.48443017  0.48361970  1
  O2-  O262  1  0.63477383  0.96715140  -0.01584531  1
  O2-  O263  1  0.62082445  0.98244874  0.48715410  1
  O2-  O264  1  0.36575938  0.02393666  0.01671769  1
  O2-  O265  1  0.38021853  0.01852648  0.51299787  1
  O2-  O266  1  0.37984584  0.51503309  0.01607411  1
  O2-  O267  1  0.36480159  0.52261766  0.52493383  1
  O2-  O268  1  0.88139994  0.01626913  0.01276036  1
  O2-  O269  1  0.86272560  0.02332972  0.52905986  1
  O2-  O270  1  0.86418943  0.53204516  0.01166150  1
  O2-  O271  1  0.86381089  0.52519268  0.52755432  1
  O2-  O272  1  0.48335763  0.37581911  0.01617767  1
  O2-  O273  1  0.47380958  0.36248170  0.51636400  1
  O2-  O274  1  0.47610238  0.86443818  0.02996246  1
  O2-  O275  1  0.48499072  0.88105835  0.51294766  1
  O2-  O276  1  0.98387659  0.36552271  0.02512482  1
  O2-  O277  1  0.98775907  0.36358439  0.51800748  1
  O2-  O278  1  0.98825938  0.87855165  0.02343528  1
  O2-  O279  1  0.95999089  0.86507282  0.50808167  1
  O2-  O280  1  0.01915699  0.12117229  -0.00746675  1
  O2-  O281  1  0.02824554  0.13408468  0.47234581  1
  O2-  O282  1  0.03068758  0.63865177  -0.01458931  1
  O2-  O283  1  0.01224132  0.64230516  0.46461914  1
  O2-  O284  1  0.53009996  0.13335173  -0.01359913  1
  O2-  O285  1  0.51302117  0.12318661  0.47671378  1
  O2-  O286  1  0.51484827  0.61895990  -0.01579502  1
  O2-  O287  1  0.52129451  0.63386617  0.47142887  1
  O2-  O288  1  0.11622069  0.25990946  0.03739593  1
  O2-  O289  1  0.13389373  0.26529546  0.51283436  1
  O2-  O290  1  0.12835289  0.77145405  0.01783541  1
  O2-  O291  1  0.11207614  0.78590820  0.51206943  1
  O2-  O292  1  0.61668764  0.26778941  0.03121201  1
  O2-  O293  1  0.61153249  0.26735034  0.51272401  1
  O2-  O294  1  0.61373636  0.76618540  0.02828815  1
  O2-  O295  1  0.62696759  0.76586367  0.51290324  1
  O2-  O296  1  0.38694680  0.22633435  -0.01229689  1
  O2-  O297  1  0.37396945  0.23124553  0.47665746  1
  O2-  O298  1  0.36941487  0.73240836  -0.01432983  1
  O2-  O299  1  0.38342150  0.73205226  0.47533130  1
  O2-  O300  1  0.88849108  0.22914649  -0.01016280  1
  O2-  O301  1  0.88538988  0.23127373  0.46672738  1
  O2-  O302  1  0.88846353  0.73072734  -0.01416440  1
  O2-  O303  1  0.86718811  0.73224158  0.47765543  1
  O2-  O304  1  0.27519854  0.38138430  -0.02962717  1
  O2-  O305  1  0.26961071  0.36848170  0.48440606  1
  O2-  O306  1  0.26777879  0.87044131  -0.01530144  1
  O2-  O307  1  0.27915069  0.88440545  0.47616986  1
  O2-  O308  1  0.77096200  0.38584679  -0.01662690  1
  O2-  O309  1  0.77180832  0.38485701  0.50971774  1
  O2-  O310  1  0.78464339  0.88356758  -0.00242970  1
  O2-  O311  1  0.75972042  0.87288567  0.50196720  1
  O2-  O312  1  0.22460367  0.11464358  0.02939156  1
  O2-  O313  1  0.23814860  0.12617864  0.51466769  1
  O2-  O314  1  0.23244289  0.62863581  0.01681439  1
  O2-  O315  1  0.22123046  0.61976733  0.53100696  1
  O2-  O316  1  0.74400555  0.11110152  -0.02166689  1
  O2-  O317  1  0.71837232  0.11405680  0.50666150  1
  O2-  O318  1  0.71783821  0.61647672  -0.00118541  1
  O2-  O319  1  0.72827507  0.63024420  0.50090245  1
