# generated using pymatgen
data_Sr64Ca21Nb43O192
_symmetry_space_group_name_H-M   'P 1'
_cell_length_a   16.55926982
_cell_length_b   16.56767295
_cell_length_c   16.74508525
_cell_angle_alpha   90.03066291
_cell_angle_beta   90.04493615
_cell_angle_gamma   90.03709485
_symmetry_Int_Tables_number   1
_chemical_formula_structural   Sr64Ca21Nb43O192
_chemical_formula_sum   'Sr64 Ca21 Nb43 O192'
_cell_volume   4593.98710470
_cell_formula_units_Z   1
loop_
 _symmetry_equiv_pos_site_id
 _symmetry_equiv_pos_as_xyz
  1  'x, y, z'
loop_
 _atom_type_symbol
 _atom_type_oxidation_number
  Sr2+  2.0
  Ca2+  2.0
  Nb5+  5.0
  O2-  -2.0
loop_
 _atom_site_type_symbol
 _atom_site_label
 _atom_site_symmetry_multiplicity
 _atom_site_fract_x
 _atom_site_fract_y
 _atom_site_fract_z
 _atom_site_occupancy
  Sr2+  Sr0  1  0.13309135  0.12658797  0.12991654  1
  Sr2+  Sr1  1  0.13573354  0.11794401  0.60964769  1
  Sr2+  Sr2  1  0.13075535  0.63911703  0.13276607  1
  Sr2+  Sr3  1  0.12929541  0.63545156  0.62436537  1
  Sr2+  Sr4  1  0.63072134  0.12110966  0.12520454  1
  Sr2+  Sr5  1  0.63201378  0.11662528  0.61744348  1
  Sr2+  Sr6  1  0.63359662  0.64243836  0.12624824  1
  Sr2+  Sr7  1  0.63345131  0.63779606  0.62202798  1
  Sr2+  Sr8  1  0.38501323  0.38480168  0.12125919  1
  Sr2+  Sr9  1  0.37523513  0.38515969  0.62959004  1
  Sr2+  Sr10  1  0.38090619  0.87104492  0.12584998  1
  Sr2+  Sr11  1  0.37799852  0.87317389  0.62555623  1
  Sr2+  Sr12  1  0.87230324  0.38887049  0.12662443  1
  Sr2+  Sr13  1  0.87728648  0.38658452  0.62350390  1
  Sr2+  Sr14  1  0.88121243  0.87098281  0.12999814  1
  Sr2+  Sr15  1  0.88774461  0.87370301  0.62944622  1
  Sr2+  Sr16  1  0.10613749  0.37019104  0.37815298  1
  Sr2+  Sr17  1  0.10980114  0.35907396  0.87295076  1
  Sr2+  Sr18  1  0.12136084  0.87700215  0.36198145  1
  Sr2+  Sr19  1  0.10706611  0.87356332  0.87918548  1
  Sr2+  Sr20  1  0.61313986  0.36594782  0.37173224  1
  Sr2+  Sr21  1  0.61200022  0.37015604  0.87230306  1
  Sr2+  Sr22  1  0.61883364  0.87030959  0.39024833  1
  Sr2+  Sr23  1  0.62000071  0.87867403  0.87879946  1
  Sr2+  Sr24  1  0.35971835  0.12670781  0.37349931  1
  Sr2+  Sr25  1  0.36884001  0.12268830  0.87346189  1
  Sr2+  Sr26  1  0.35877202  0.62247193  0.36990480  1
  Sr2+  Sr27  1  0.37046137  0.61470673  0.87757521  1
  Sr2+  Sr28  1  0.88462155  0.12143057  0.37508838  1
  Sr2+  Sr29  1  0.87762856  0.12500664  0.87187272  1
  Sr2+  Sr30  1  0.86829908  0.61667876  0.36963070  1
  Sr2+  Sr31  1  0.86193053  0.61876100  0.87297706  1
  Sr2+  Sr32  1  0.11827805  0.12585548  0.36231574  1
  Sr2+  Sr33  1  0.12316263  0.11470189  0.87978190  1
  Sr2+  Sr34  1  0.12091714  0.60984260  0.37242371  1
  Sr2+  Sr35  1  0.11364067  0.61804658  0.87671753  1
  Sr2+  Sr36  1  0.62248330  0.12514752  0.38141749  1
  Sr2+  Sr37  1  0.62168578  0.11734600  0.87576997  1
  Sr2+  Sr38  1  0.62239414  0.63562304  0.37993785  1
  Sr2+  Sr39  1  0.62057882  0.61949217  0.86919114  1
  Sr2+  Sr40  1  0.37628193  0.37155890  0.36249926  1
  Sr2+  Sr41  1  0.36815748  0.36498769  0.87629997  1
  Sr2+  Sr42  1  0.37084000  0.85094238  0.37512878  1
  Sr2+  Sr43  1  0.36438067  0.87053156  0.87611150  1
  Sr2+  Sr44  1  0.87163020  0.36474482  0.37824044  1
  Sr2+  Sr45  1  0.86421295  0.36627442  0.87035768  1
  Sr2+  Sr46  1  0.86046210  0.87709507  0.36675111  1
  Sr2+  Sr47  1  0.87411442  0.85061585  0.87641509  1
  Sr2+  Sr48  1  0.13261793  0.37446990  0.12337512  1
  Sr2+  Sr49  1  0.12815913  0.38237482  0.62637931  1
  Sr2+  Sr50  1  0.12922589  0.88130083  0.12794022  1
  Sr2+  Sr51  1  0.13666664  0.87820966  0.62736923  1
  Sr2+  Sr52  1  0.62357036  0.37992895  0.12884327  1
  Sr2+  Sr53  1  0.63266946  0.37712369  0.61909711  1
  Sr2+  Sr54  1  0.64794757  0.87998149  0.12551617  1
  Sr2+  Sr55  1  0.60601224  0.87489737  0.61969516  1
  Sr2+  Sr56  1  0.38156735  0.12909431  0.12942111  1
  Sr2+  Sr57  1  0.37844779  0.11705478  0.62676258  1
  Sr2+  Sr58  1  0.38254254  0.63008611  0.12248549  1
  Sr2+  Sr59  1  0.37787418  0.63583095  0.62076121  1
  Sr2+  Sr60  1  0.88542913  0.11865232  0.13099509  1
  Sr2+  Sr61  1  0.87341943  0.12872677  0.61238528  1
  Sr2+  Sr62  1  0.88292353  0.63365848  0.13355326  1
  Sr2+  Sr63  1  0.88922443  0.62816457  0.62303970  1
  Ca2+  Ca64  1  0.49559059  0.00214070  0.49670880  1
  Ca2+  Ca65  1  -0.00020470  -0.00326891  0.49934206  1
  Ca2+  Ca66  1  0.50022898  0.49866276  0.49788415  1
  Ca2+  Ca67  1  -0.00039853  -0.00046045  0.00141284  1
  Ca2+  Ca68  1  -0.00034201  0.49820575  -0.00247123  1
  Ca2+  Ca69  1  0.24841111  0.25164170  0.50058579  1
  Ca2+  Ca70  1  0.24403605  0.75101303  0.49949835  1
  Ca2+  Ca71  1  0.75122281  0.74729194  -0.00023059  1
  Ca2+  Ca72  1  0.75693648  0.74908733  0.50315396  1
  Ca2+  Ca73  1  0.25017509  0.74969529  -0.00247149  1
  Ca2+  Ca74  1  -0.00105379  0.24754729  0.74803221  1
  Ca2+  Ca75  1  0.50161359  0.75181400  0.24711887  1
  Ca2+  Ca76  1  0.00093216  0.74927823  0.25710001  1
  Ca2+  Ca77  1  0.50059748  0.74944414  0.75439908  1
  Ca2+  Ca78  1  0.74590534  0.00347542  0.25211427  1
  Ca2+  Ca79  1  0.25723110  -0.00059930  0.24644396  1
  Ca2+  Ca80  1  -0.00322395  0.25290428  0.24548124  1
  Ca2+  Ca81  1  0.24890410  0.49839042  0.24628599  1
  Ca2+  Ca82  1  0.74555545  0.49988001  0.25188354  1
  Ca2+  Ca83  1  0.75095284  -0.00139795  0.74912846  1
  Ca2+  Ca84  1  0.50214053  0.25010601  0.74937621  1
  Nb5+  Nb85  1  0.49975144  0.00553978  0.00181638  1
  Nb5+  Nb86  1  0.50337205  0.50598241  -0.00077396  1
  Nb5+  Nb87  1  -0.00004536  0.50060031  0.50073713  1
  Nb5+  Nb88  1  0.74163827  0.25139434  -0.00372689  1
  Nb5+  Nb89  1  0.24513832  0.25048442  -0.00045997  1
  Nb5+  Nb90  1  0.74679155  0.25175324  0.49188191  1
  Nb5+  Nb91  1  0.74345779  0.49715139  0.75045513  1
  Nb5+  Nb92  1  0.25225853  -0.00435696  0.75072291  1
  Nb5+  Nb93  1  0.24399077  0.49581395  0.75322667  1
  Nb5+  Nb94  1  0.00152711  0.74889234  0.75104546  1
  Nb5+  Nb95  1  0.50090320  0.24849695  0.24874033  1
  Nb5+  Nb96  1  0.00003850  -0.00035725  0.25064650  1
  Nb5+  Nb97  1  0.00186762  0.00782334  0.74619419  1
  Nb5+  Nb98  1  0.00234291  0.49512382  0.24327726  1
  Nb5+  Nb99  1  -0.00794714  0.50146700  0.75206502  1
  Nb5+  Nb100  1  0.49910591  -0.00072436  0.25144267  1
  Nb5+  Nb101  1  0.50103968  -0.00315974  0.74934092  1
  Nb5+  Nb102  1  0.49991105  0.50510886  0.25046265  1
  Nb5+  Nb103  1  0.49459393  0.49928780  0.74655922  1
  Nb5+  Nb104  1  0.24816382  0.25644687  0.25134367  1
  Nb5+  Nb105  1  0.24755407  0.24175194  0.74924723  1
  Nb5+  Nb106  1  0.24919336  0.75030685  0.24769252  1
  Nb5+  Nb107  1  0.25029655  0.74124836  0.75719079  1
  Nb5+  Nb108  1  0.75074018  0.24691673  0.24116228  1
  Nb5+  Nb109  1  0.74636420  0.24787317  0.74307716  1
  Nb5+  Nb110  1  0.74935511  0.75054152  0.25265748  1
  Nb5+  Nb111  1  0.75128575  0.75367199  0.74583338  1
  Nb5+  Nb112  1  0.00082386  0.24948429  0.50726094  1
  Nb5+  Nb113  1  -0.01234007  0.24909558  1.00101407  1
  Nb5+  Nb114  1  0.00117025  0.75088339  0.49600917  1
  Nb5+  Nb115  1  0.00171182  0.74781926  1.00480511  1
  Nb5+  Nb116  1  0.49487937  0.25248241  0.50365833  1
  Nb5+  Nb117  1  0.49635599  0.25210951  0.99940518  1
  Nb5+  Nb118  1  0.49817363  0.74654969  0.49986203  1
  Nb5+  Nb119  1  0.50173297  0.75973688  0.99705049  1
  Nb5+  Nb120  1  0.25540553  0.00003324  0.00042666  1
  Nb5+  Nb121  1  0.25124544  -0.00385510  0.48983896  1
  Nb5+  Nb122  1  0.24580537  0.49869074  -0.00396432  1
  Nb5+  Nb123  1  0.25367275  0.49818391  0.50110288  1
  Nb5+  Nb124  1  0.75763549  0.00206250  -0.00041118  1
  Nb5+  Nb125  1  0.75301174  -0.00686467  0.50533931  1
  Nb5+  Nb126  1  0.74645819  0.50143799  0.00246437  1
  Nb5+  Nb127  1  0.74944431  0.49735270  0.49695424  1
  O2-  O128  1  -0.00612651  -0.02873502  0.13330726  1
  O2-  O129  1  0.00700994  -0.03347638  0.63663069  1
  O2-  O130  1  0.01639065  0.47212939  0.13229846  1
  O2-  O131  1  0.01111423  0.48256851  0.63080426  1
  O2-  O132  1  0.47697812  -0.00870832  0.11545550  1
  O2-  O133  1  0.48590841  -0.01729151  0.63495906  1
  O2-  O134  1  0.51310135  0.48193149  0.11521443  1
  O2-  O135  1  0.51061868  0.47106819  0.63635168  1
  O2-  O136  1  0.00891475  0.02733883  0.36850954  1
  O2-  O137  1  0.00952737  0.01333370  0.86390421  1
  O2-  O138  1  -0.01267443  0.51994496  0.38730591  1
  O2-  O139  1  -0.01320477  0.52897085  0.86445242  1
  O2-  O140  1  0.52404947  0.01339159  0.36223920  1
  O2-  O141  1  0.50752070  0.01589813  0.87884386  1
  O2-  O142  1  0.47451766  0.51628513  0.36192364  1
  O2-  O143  1  0.49251953  0.51951060  0.87879805  1
  O2-  O144  1  0.25961638  0.23023634  0.11589875  1
  O2-  O145  1  0.25973000  0.22214407  0.63671653  1
  O2-  O146  1  0.26368182  0.71913200  0.12977710  1
  O2-  O147  1  0.26401040  0.73809244  0.64038552  1
  O2-  O148  1  0.75643908  0.23278694  0.12458079  1
  O2-  O149  1  0.75569638  0.23690919  0.62750301  1
  O2-  O150  1  0.76774538  0.72695093  0.13303325  1
  O2-  O151  1  0.77411577  0.71976895  0.63618908  1
  O2-  O152  1  0.24377928  0.28257451  0.36380957  1
  O2-  O153  1  0.24054385  0.26900963  0.87876705  1
  O2-  O154  1  0.23521479  0.77680766  0.36561139  1
  O2-  O155  1  0.22838641  0.78322925  0.86335476  1
  O2-  O156  1  0.73704560  0.26990623  0.37750501  1
  O2-  O157  1  0.73389176  0.26870397  0.88181971  1
  O2-  O158  1  0.73453398  0.77311731  0.37018889  1
  O2-  O159  1  0.73786476  0.76006884  0.86342116  1
  O2-  O160  1  -0.01647222  0.28578142  0.11260739  1
  O2-  O161  1  -0.03375276  0.26940225  0.61802553  1
  O2-  O162  1  -0.02146995  0.75573366  0.11782266  1
  O2-  O163  1  -0.02203917  0.75531164  0.63284588  1
  O2-  O164  1  0.48749145  0.26311916  0.12000433  1
  O2-  O165  1  0.48598744  0.27752035  0.61456452  1
  O2-  O166  1  0.47217970  0.75267526  0.11180166  1
  O2-  O167  1  0.47717325  0.76000740  0.61960070  1
  O2-  O168  1  0.25898600  -0.03017676  0.38014494  1
  O2-  O169  1  0.25791162  -0.00474825  0.87333743  1
  O2-  O170  1  0.27206405  0.48260439  0.38904045  1
  O2-  O171  1  0.27855884  0.48674364  0.86833845  1
  O2-  O172  1  0.73745174  -0.01712354  0.38753437  1
  O2-  O173  1  0.73168624  -0.00578764  0.88512806  1
  O2-  O174  1  0.77930221  0.48525436  0.38749652  1
  O2-  O175  1  0.76610753  0.48483646  0.87285709  1
  O2-  O176  1  0.00841988  0.23725638  0.38773970  1
  O2-  O177  1  0.01227832  0.21881189  0.88559251  1
  O2-  O178  1  0.03567575  0.73286152  0.38923604  1
  O2-  O179  1  0.02199584  0.73634882  0.86851960  1
  O2-  O180  1  0.51357675  0.23398928  0.36418574  1
  O2-  O181  1  0.52182556  0.23453941  0.88748033  1
  O2-  O182  1  0.52161133  0.74422344  0.38194441  1
  O2-  O183  1  0.53808383  0.74293919  0.88565822  1
  O2-  O184  1  0.25917989  0.03007158  0.11114855  1
  O2-  O185  1  0.25131469  0.02336170  0.63652727  1
  O2-  O186  1  0.22524281  0.50994729  0.10802449  1
  O2-  O187  1  0.23492907  0.52134394  0.63941777  1
  O2-  O188  1  0.75078887  0.02635103  0.11383983  1
  O2-  O189  1  0.75603079  0.03087593  0.61891531  1
  O2-  O190  1  0.71926391  0.50419425  0.11378800  1
  O2-  O191  1  0.73380326  0.50460920  0.63109418  1
  O2-  O192  1  0.13367577  0.26869076  0.23185702  1
  O2-  O193  1  0.13583825  0.27932013  0.74329289  1
  O2-  O194  1  0.13180725  0.77030125  0.22669969  1
  O2-  O195  1  0.12277928  0.76071946  0.73225823  1
  O2-  O196  1  0.62005174  0.27366387  0.23715659  1
  O2-  O197  1  0.63583340  0.28782700  0.74228516  1
  O2-  O198  1  0.63382035  0.77323716  0.22815659  1
  O2-  O199  1  0.63820186  0.76378201  0.72223034  1
  O2-  O200  1  0.37796915  0.23451577  0.25774015  1
  O2-  O201  1  0.36470223  0.24444036  0.76989453  1
  O2-  O202  1  0.36778261  0.73089340  0.26928880  1
  O2-  O203  1  0.36442180  0.72989042  0.77573637  1
  O2-  O204  1  0.86195532  0.22285468  0.26046194  1
  O2-  O205  1  0.86055880  0.23967221  0.77449218  1
  O2-  O206  1  0.86798136  0.72649945  0.27003799  1
  O2-  O207  1  0.88227823  0.72660058  0.77033638  1
  O2-  O208  1  0.27391241  0.36586539  0.21701484  1
  O2-  O209  1  0.26699284  0.38248885  0.73514784  1
  O2-  O210  1  0.27033826  0.86656411  0.21999621  1
  O2-  O211  1  0.27166392  0.88176590  0.73671619  1
  O2-  O212  1  0.76751081  0.36399528  0.23721778  1
  O2-  O213  1  0.77486484  0.38037503  0.73979883  1
  O2-  O214  1  0.77495017  0.86917787  0.23201622  1
  O2-  O215  1  0.78421757  0.86410185  0.73780813  1
  O2-  O216  1  0.23656143  0.13808060  0.26530341  1
  O2-  O217  1  0.23150753  0.12889072  0.77370069  1
  O2-  O218  1  0.22890621  0.63083358  0.27206904  1
  O2-  O219  1  0.23190929  0.62570790  0.77460495  1
  O2-  O220  1  0.71413306  0.13827506  0.26596718  1
  O2-  O221  1  0.72052806  0.13791374  0.76396865  1
  O2-  O222  1  0.72358068  0.63243155  0.27103054  1
  O2-  O223  1  0.73829506  0.61582756  0.76662748  1
  O2-  O224  1  0.11697217  0.47515470  0.27528896  1
  O2-  O225  1  0.12919083  0.48544163  0.76991369  1
  O2-  O226  1  0.12138840  0.98255447  0.24749423  1
  O2-  O227  1  0.13381853  0.98040382  0.75596305  1
  O2-  O228  1  0.61151348  0.46823368  0.26230307  1
  O2-  O229  1  0.62945935  0.48025116  0.76622879  1
  O2-  O230  1  0.61062264  0.99271126  0.21598463  1
  O2-  O231  1  0.61437984  0.96680752  0.74756699  1
  O2-  O232  1  0.38849063  0.04048853  0.25275968  1
  O2-  O233  1  0.37221189  0.02771424  0.75481631  1
  O2-  O234  1  0.38443832  0.51198838  0.21904124  1
  O2-  O235  1  0.37843242  0.52114877  0.73605210  1
  O2-  O236  1  0.88111589  0.02500884  0.25440494  1
  O2-  O237  1  0.88797295  0.03104689  0.74677126  1
  O2-  O238  1  0.88328543  0.51810844  0.23216041  1
  O2-  O239  1  0.87685036  0.51656358  0.73511116  1
  O2-  O240  1  0.47909792  0.36981379  0.25340652  1
  O2-  O241  1  0.48393687  0.38667636  0.78081848  1
  O2-  O242  1  0.47033481  0.88825492  0.25756361  1
  O2-  O243  1  0.46980271  0.88416999  0.77325993  1
  O2-  O244  1  0.97771578  0.38410365  0.28085658  1
  O2-  O245  1  0.98661743  0.38659167  0.77082207  1
  O2-  O246  1  0.98184643  0.88350314  0.27996944  1
  O2-  O247  1  0.98512706  0.86680708  0.76775872  1
  O2-  O248  1  0.01918530  0.11925615  0.22548002  1
  O2-  O249  1  0.03385748  0.11544582  0.72362109  1
  O2-  O250  1  0.02368956  0.61228953  0.24099219  1
  O2-  O251  1  0.02024444  0.62287413  0.73278774  1
  O2-  O252  1  0.51711923  0.13433640  0.22344125  1
  O2-  O253  1  0.52215716  0.11488365  0.73545016  1
  O2-  O254  1  0.52635126  0.61486840  0.22972276  1
  O2-  O255  1  0.52821916  0.61232644  0.73954477  1
  O2-  O256  1  0.13775626  0.47259102  -0.03154306  1
  O2-  O257  1  0.11901543  0.47624396  0.49263410  1
  O2-  O258  1  0.13894348  0.98986985  -0.00418750  1
  O2-  O259  1  0.13505303  0.98013678  0.50969945  1
  O2-  O260  1  0.62040782  0.47508098  -0.01982709  1
  O2-  O261  1  0.63742265  0.47025879  0.48630860  1
  O2-  O262  1  0.61809102  0.98697574  0.00879761  1
  O2-  O263  1  0.63261854  0.98433677  0.51783440  1
  O2-  O264  1  0.37899147  0.02432005  -0.01409404  1
  O2-  O265  1  0.36364062  0.03511426  0.50388993  1
  O2-  O266  1  0.38084075  0.51001629  0.00989631  1
  O2-  O267  1  0.36502064  0.51576289  0.52850868  1
  O2-  O268  1  0.86684107  0.03469161  -0.00910195  1
  O2-  O269  1  0.86534265  0.03157941  0.49319205  1
  O2-  O270  1  0.86116944  0.51511871  0.02130208  1
  O2-  O271  1  0.87726942  0.50925563  0.52449819  1
  O2-  O272  1  0.48603078  0.37035730  -0.01545087  1
  O2-  O273  1  0.48726326  0.36459155  0.46387305  1
  O2-  O274  1  0.48466107  0.87802662  -0.01553535  1
  O2-  O275  1  0.47864276  0.86704112  0.48750826  1
  O2-  O276  1  0.98537615  0.36370518  -0.03548931  1
  O2-  O277  1  0.98016748  0.37792563  0.48740718  1
  O2-  O278  1  0.97927355  0.86447049  -0.02206609  1
  O2-  O279  1  0.97027386  0.86113657  0.48476170  1
  O2-  O280  1  0.01484379  0.13772722  0.03339279  1
  O2-  O281  1  0.00781461  0.13506051  0.52712316  1
  O2-  O282  1  0.03455288  0.63193339  0.01187258  1
  O2-  O283  1  0.01959005  0.61498671  0.52369639  1
  O2-  O284  1  0.51554469  0.12560588  0.01612004  1
  O2-  O285  1  0.52686737  0.13903251  0.51094854  1
  O2-  O286  1  0.52007877  0.61988855  0.01247129  1
  O2-  O287  1  0.52547328  0.62980504  0.51604376  1
  O2-  O288  1  0.13017115  0.26821197  0.01047316  1
  O2-  O289  1  0.11302229  0.27118241  0.52262300  1
  O2-  O290  1  0.11740226  0.77991722  0.01315036  1
  O2-  O291  1  0.11181142  0.76206676  0.53673034  1
  O2-  O292  1  0.62561348  0.26749352  0.01795536  1
  O2-  O293  1  0.62724300  0.27391854  0.50693147  1
  O2-  O294  1  0.61726412  0.76904805  0.02823424  1
  O2-  O295  1  0.61928640  0.76905403  0.51838375  1
  O2-  O296  1  0.37957241  0.23588276  -0.01364478  1
  O2-  O297  1  0.38310960  0.22971723  0.48491820  1
  O2-  O298  1  0.38798223  0.73417719  -0.03187038  1
  O2-  O299  1  0.38050217  0.72117200  0.48083374  1
  O2-  O300  1  0.86993817  0.23259230  -0.01144457  1
  O2-  O301  1  0.86615221  0.23618976  0.48497625  1
  O2-  O302  1  0.88631693  0.72351340  -0.02419658  1
  O2-  O303  1  0.89003621  0.70971749  0.48798990  1
  O2-  O304  1  0.27351721  0.37124882  0.00969046  1
  O2-  O305  1  0.25532891  0.38562832  0.53897588  1
  O2-  O306  1  0.27947910  0.88814598  0.01293127  1
  O2-  O307  1  0.27167411  0.88520732  0.52716183  1
  O2-  O308  1  0.76588075  0.37068768  0.01263543  1
  O2-  O309  1  0.76776829  0.37127148  0.52106598  1
  O2-  O310  1  0.77346607  0.88740455  0.01510504  1
  O2-  O311  1  0.77964621  0.88326409  0.52408998  1
  O2-  O312  1  0.24112557  0.13293546  -0.02319741  1
  O2-  O313  1  0.22171321  0.11694585  0.47319457  1
  O2-  O314  1  0.24169566  0.61166324  -0.02914276  1
  O2-  O315  1  0.22257859  0.61186857  0.49276433  1
  O2-  O316  1  0.72667688  0.13399693  -0.01448177  1
  O2-  O317  1  0.72666249  0.13635907  0.48989136  1
  O2-  O318  1  0.72381594  0.61188123  -0.01982603  1
  O2-  O319  1  0.73047122  0.61122777  0.49128168  1
