# generated using pymatgen
data_Sr64Ca21Nb43O192
_symmetry_space_group_name_H-M   'P 1'
_cell_length_a   16.58435857
_cell_length_b   16.63267502
_cell_length_c   16.71899401
_cell_angle_alpha   90.01688429
_cell_angle_beta   90.08698026
_cell_angle_gamma   90.01925047
_symmetry_Int_Tables_number   1
_chemical_formula_structural   Sr64Ca21Nb43O192
_chemical_formula_sum   'Sr64 Ca21 Nb43 O192'
_cell_volume   4611.79909303
_cell_formula_units_Z   1
loop_
 _symmetry_equiv_pos_site_id
 _symmetry_equiv_pos_as_xyz
  1  'x, y, z'
loop_
 _atom_type_symbol
 _atom_type_oxidation_number
  Sr2+  2.0
  Ca2+  2.0
  Nb5+  5.0
  O2-  -2.0
loop_
 _atom_site_type_symbol
 _atom_site_label
 _atom_site_symmetry_multiplicity
 _atom_site_fract_x
 _atom_site_fract_y
 _atom_site_fract_z
 _atom_site_occupancy
  Sr2+  Sr0  1  0.12582604  0.10399674  0.12946761  1
  Sr2+  Sr1  1  0.14042929  0.11962432  0.62124199  1
  Sr2+  Sr2  1  0.13536388  0.61956963  0.12125633  1
  Sr2+  Sr3  1  0.12667208  0.61730875  0.62597477  1
  Sr2+  Sr4  1  0.63559752  0.11097959  0.12218682  1
  Sr2+  Sr5  1  0.62509889  0.11256710  0.62615239  1
  Sr2+  Sr6  1  0.62414439  0.61058337  0.13001737  1
  Sr2+  Sr7  1  0.64185712  0.61817057  0.62541858  1
  Sr2+  Sr8  1  0.38110799  0.37161915  0.12982940  1
  Sr2+  Sr9  1  0.37730746  0.36156514  0.62504026  1
  Sr2+  Sr10  1  0.37820793  0.86079178  0.11836643  1
  Sr2+  Sr11  1  0.39051421  0.87128824  0.62592545  1
  Sr2+  Sr12  1  0.88107445  0.35937948  0.12139148  1
  Sr2+  Sr13  1  0.88323252  0.37023041  0.62503231  1
  Sr2+  Sr14  1  0.87957392  0.88036354  0.12737879  1
  Sr2+  Sr15  1  0.88420885  0.86109901  0.62303088  1
  Sr2+  Sr16  1  0.11475154  0.37614776  0.37183800  1
  Sr2+  Sr17  1  0.12039373  0.38402017  0.87570225  1
  Sr2+  Sr18  1  0.11910354  0.88858805  0.37198403  1
  Sr2+  Sr19  1  0.11737093  0.87669380  0.87415688  1
  Sr2+  Sr20  1  0.61410787  0.39069548  0.37031991  1
  Sr2+  Sr21  1  0.62496541  0.37738083  0.87346008  1
  Sr2+  Sr22  1  0.60711777  0.87867908  0.37672989  1
  Sr2+  Sr23  1  0.61554291  0.88752584  0.87727968  1
  Sr2+  Sr24  1  0.35852737  0.12714226  0.37859263  1
  Sr2+  Sr25  1  0.37134024  0.13220116  0.87869527  1
  Sr2+  Sr26  1  0.38653012  0.63324739  0.36723935  1
  Sr2+  Sr27  1  0.36563619  0.63368101  0.87432090  1
  Sr2+  Sr28  1  0.86939978  0.14115985  0.36881894  1
  Sr2+  Sr29  1  0.85480201  0.12725778  0.87912858  1
  Sr2+  Sr30  1  0.86025483  0.62770718  0.37249488  1
  Sr2+  Sr31  1  0.86903785  0.63138111  0.87404305  1
  Sr2+  Sr32  1  0.11766154  0.13880340  0.37447319  1
  Sr2+  Sr33  1  0.11825332  0.11653857  0.87257648  1
  Sr2+  Sr34  1  0.11929569  0.63424361  0.36799607  1
  Sr2+  Sr35  1  0.12233151  0.63450435  0.87218105  1
  Sr2+  Sr36  1  0.61190661  0.12982844  0.36513639  1
  Sr2+  Sr37  1  0.61555622  0.13990680  0.88319120  1
  Sr2+  Sr38  1  0.62277368  0.64069683  0.37618138  1
  Sr2+  Sr39  1  0.61894366  0.63001701  0.87126401  1
  Sr2+  Sr40  1  0.36374090  0.38687546  0.36937311  1
  Sr2+  Sr41  1  0.37303867  0.38334595  0.86949505  1
  Sr2+  Sr42  1  0.37338667  0.89061749  0.37795674  1
  Sr2+  Sr43  1  0.35847489  0.88247467  0.87896681  1
  Sr2+  Sr44  1  0.87412899  0.38247364  0.36899497  1
  Sr2+  Sr45  1  0.86787772  0.38176347  0.88217030  1
  Sr2+  Sr46  1  0.86178911  0.88196341  0.37363112  1
  Sr2+  Sr47  1  0.87053104  0.89351344  0.87423088  1
  Sr2+  Sr48  1  0.13007818  0.36909464  0.11810615  1
  Sr2+  Sr49  1  0.14013203  0.37080141  0.62368242  1
  Sr2+  Sr50  1  0.14115302  0.86941027  0.13264887  1
  Sr2+  Sr51  1  0.12560191  0.86223840  0.62538238  1
  Sr2+  Sr52  1  0.63318337  0.36733163  0.12964531  1
  Sr2+  Sr53  1  0.63187887  0.36370445  0.62637522  1
  Sr2+  Sr54  1  0.63434281  0.87111593  0.12841161  1
  Sr2+  Sr55  1  0.64046673  0.87494757  0.62040894  1
  Sr2+  Sr56  1  0.38914322  0.11472369  0.12276855  1
  Sr2+  Sr57  1  0.38783284  0.12385961  0.62586371  1
  Sr2+  Sr58  1  0.39245478  0.62037102  0.12353539  1
  Sr2+  Sr59  1  0.38579507  0.60982724  0.62769849  1
  Sr2+  Sr60  1  0.87307626  0.11862355  0.12977333  1
  Sr2+  Sr61  1  0.88050930  0.11187044  0.62503159  1
  Sr2+  Sr62  1  0.89171893  0.62148864  0.12306531  1
  Sr2+  Sr63  1  0.88359997  0.62111833  0.62109106  1
  Ca2+  Ca64  1  0.49863053  -0.00280759  -0.00222095  1
  Ca2+  Ca65  1  -0.00004028  -0.00172135  0.00089883  1
  Ca2+  Ca66  1  0.50030415  0.49914935  0.50122103  1
  Ca2+  Ca67  1  -0.00068421  0.00035403  0.49960920  1
  Ca2+  Ca68  1  0.49962441  0.49698496  -0.00115745  1
  Ca2+  Ca69  1  0.74814680  0.25151529  0.49843027  1
  Ca2+  Ca70  1  0.25124642  0.74673356  0.50230172  1
  Ca2+  Ca71  1  0.74772214  0.25108854  0.00137730  1
  Ca2+  Ca72  1  0.24867815  0.24903983  -0.00101987  1
  Ca2+  Ca73  1  0.75418961  0.74915414  -0.00313692  1
  Ca2+  Ca74  1  0.49544498  0.24803428  0.25310972  1
  Ca2+  Ca75  1  0.74921753  -0.00183823  0.25556751  1
  Ca2+  Ca76  1  0.00064729  0.25215826  0.74843712  1
  Ca2+  Ca77  1  0.24902734  0.50205677  0.24926889  1
  Ca2+  Ca78  1  0.00041804  0.75002963  0.25014384  1
  Ca2+  Ca79  1  0.50247123  0.75403421  0.24785177  1
  Ca2+  Ca80  1  0.50138352  0.74989020  0.75053462  1
  Ca2+  Ca81  1  0.74840736  0.00030897  0.74975175  1
  Ca2+  Ca82  1  0.25045764  -0.00056249  0.74711122  1
  Ca2+  Ca83  1  0.25336862  0.00084433  0.24983285  1
  Ca2+  Ca84  1  0.75287665  0.50015677  0.24909783  1
  Nb5+  Nb85  1  0.00236612  0.50129704  0.49306623  1
  Nb5+  Nb86  1  0.49960944  0.00281064  0.50096599  1
  Nb5+  Nb87  1  0.00116467  0.50122359  -0.00731506  1
  Nb5+  Nb88  1  0.24975186  0.25170294  0.49751847  1
  Nb5+  Nb89  1  0.24893622  0.74692395  0.00054919  1
  Nb5+  Nb90  1  0.75385004  0.75113305  0.50099106  1
  Nb5+  Nb91  1  0.25529879  0.50193777  0.75022655  1
  Nb5+  Nb92  1  0.49950172  0.25041997  0.75032876  1
  Nb5+  Nb93  1  0.75843821  0.49941424  0.74959882  1
  Nb5+  Nb94  1  0.00224824  0.25076743  0.24529225  1
  Nb5+  Nb95  1  -0.00150928  0.74940921  0.75187425  1
  Nb5+  Nb96  1  -0.00206366  -0.00210537  0.25534943  1
  Nb5+  Nb97  1  0.00277024  0.00563871  0.74557894  1
  Nb5+  Nb98  1  0.00182686  0.49796621  0.23893224  1
  Nb5+  Nb99  1  0.00376137  0.49837126  0.74507536  1
  Nb5+  Nb100  1  0.49742852  -0.00306464  0.24436653  1
  Nb5+  Nb101  1  0.49738347  -0.00115553  0.75308565  1
  Nb5+  Nb102  1  0.49931063  0.50012856  0.25168885  1
  Nb5+  Nb103  1  0.51166015  0.49737813  0.74473382  1
  Nb5+  Nb104  1  0.24776752  0.24633534  0.24093470  1
  Nb5+  Nb105  1  0.24745027  0.24978871  0.75241802  1
  Nb5+  Nb106  1  0.25460762  0.75059465  0.25844225  1
  Nb5+  Nb107  1  0.25270804  0.74888157  0.74533848  1
  Nb5+  Nb108  1  0.74323249  0.25346897  0.25411992  1
  Nb5+  Nb109  1  0.75023405  0.24628526  0.74667384  1
  Nb5+  Nb110  1  0.74940119  0.74559054  0.24172988  1
  Nb5+  Nb111  1  0.75331058  0.75397596  0.75062204  1
  Nb5+  Nb112  1  -0.00002069  0.24914178  0.50463257  1
  Nb5+  Nb113  1  0.00180351  0.24340471  0.99463308  1
  Nb5+  Nb114  1  -0.00063343  0.74861707  0.49440499  1
  Nb5+  Nb115  1  0.00063809  0.75187983  1.00067098  1
  Nb5+  Nb116  1  0.49874035  0.25376529  0.49640560  1
  Nb5+  Nb117  1  0.49756962  0.25321557  1.00867370  1
  Nb5+  Nb118  1  0.50055143  0.74546223  0.50997193  1
  Nb5+  Nb119  1  0.50815707  0.75032392  0.99465813  1
  Nb5+  Nb120  1  0.24578399  0.00495409  -0.00309948  1
  Nb5+  Nb121  1  0.25089553  -0.00773721  0.50708453  1
  Nb5+  Nb122  1  0.25405238  0.50184534  -0.00015497  1
  Nb5+  Nb123  1  0.24745740  0.50317994  0.49658902  1
  Nb5+  Nb124  1  0.74998632  -0.00417675  0.00012375  1
  Nb5+  Nb125  1  0.74865386  0.00964885  0.49451807  1
  Nb5+  Nb126  1  0.75023776  0.50382948  0.00518952  1
  Nb5+  Nb127  1  0.75105425  0.49600129  0.50267442  1
  O2-  O128  1  -0.02544577  0.00100168  0.13704865  1
  O2-  O129  1  -0.03069272  -0.01620349  0.63289225  1
  O2-  O130  1  -0.01991246  0.48478646  0.12497304  1
  O2-  O131  1  -0.01756734  0.48971192  0.63142150  1
  O2-  O132  1  0.47363381  -0.01952998  0.13310016  1
  O2-  O133  1  0.47823896  -0.00550683  0.62381657  1
  O2-  O134  1  0.47288273  0.48693591  0.13419378  1
  O2-  O135  1  0.47166600  0.48058916  0.63463013  1
  O2-  O136  1  0.03091465  0.01714245  0.36878410  1
  O2-  O137  1  0.02430589  0.00003748  0.86313893  1
  O2-  O138  1  0.02447623  0.51234600  0.38098706  1
  O2-  O139  1  0.01874345  0.51389498  0.87743614  1
  O2-  O140  1  0.51829761  0.01507685  0.38578110  1
  O2-  O141  1  0.52567730  0.01982099  0.86321905  1
  O2-  O142  1  0.52730465  0.51999823  0.37032504  1
  O2-  O143  1  0.52225707  0.50585787  0.86155973  1
  O2-  O144  1  0.21406480  0.23379285  0.13310501  1
  O2-  O145  1  0.23517769  0.24578919  0.62591434  1
  O2-  O146  1  0.22608769  0.73884435  0.11379794  1
  O2-  O147  1  0.21894340  0.73621809  0.63549578  1
  O2-  O148  1  0.72817339  0.23380882  0.13560025  1
  O2-  O149  1  0.71641641  0.23855093  0.63349040  1
  O2-  O150  1  0.72044133  0.73251377  0.13181744  1
  O2-  O151  1  0.74347504  0.72912797  0.62804825  1
  O2-  O152  1  0.26597397  0.26884547  0.38294612  1
  O2-  O153  1  0.27631632  0.26539271  0.86325679  1
  O2-  O154  1  0.28431670  0.75802985  0.36920549  1
  O2-  O155  1  0.25973556  0.75357939  0.86998281  1
  O2-  O156  1  0.77973504  0.26889441  0.36701477  1
  O2-  O157  1  0.76035136  0.27639930  0.86113904  1
  O2-  O158  1  0.77548562  0.75766496  0.38802702  1
  O2-  O159  1  0.78586082  0.76041261  0.86077901  1
  O2-  O160  1  0.01533706  0.26998805  0.13070157  1
  O2-  O161  1  0.01422832  0.28553931  0.61458427  1
  O2-  O162  1  0.01795533  0.76956632  0.11308172  1
  O2-  O163  1  0.01189729  0.75665436  0.62840684  1
  O2-  O164  1  0.50890894  0.27893321  0.11952020  1
  O2-  O165  1  0.50514479  0.26772823  0.62254666  1
  O2-  O166  1  0.50943826  0.77826735  0.11189160  1
  O2-  O167  1  0.51996788  0.78596275  0.61907189  1
  O2-  O168  1  0.24289805  -0.01873666  0.38922839  1
  O2-  O169  1  0.22656800  -0.02191878  0.87988952  1
  O2-  O170  1  0.22878992  0.47781224  0.38705060  1
  O2-  O171  1  0.23133461  0.48693063  0.86854796  1
  O2-  O172  1  0.73193468  -0.03847408  0.38981864  1
  O2-  O173  1  0.73767032  -0.02987844  0.88149268  1
  O2-  O174  1  0.74428369  0.47991004  0.38895002  1
  O2-  O175  1  0.74261832  0.47675096  0.86482004  1
  O2-  O176  1  -0.00728488  0.24234827  0.38076210  1
  O2-  O177  1  -0.02129087  0.23027561  0.88313434  1
  O2-  O178  1  -0.01390126  0.71622657  0.38557238  1
  O2-  O179  1  -0.00783804  0.72485875  0.86943919  1
  O2-  O180  1  0.48076716  0.21808150  0.38795465  1
  O2-  O181  1  0.48522394  0.23326900  0.86513281  1
  O2-  O182  1  0.49687640  0.73676314  0.39201707  1
  O2-  O183  1  0.48633232  0.71647930  0.88108140  1
  O2-  O184  1  0.27062364  0.01788235  0.11315477  1
  O2-  O185  1  0.26693240  0.03513459  0.61516548  1
  O2-  O186  1  0.26362012  0.52419827  0.11209519  1
  O2-  O187  1  0.25530392  0.51703539  0.63016489  1
  O2-  O188  1  0.76195605  0.01720409  0.11935114  1
  O2-  O189  1  0.75761384  0.02112100  0.61260445  1
  O2-  O190  1  0.76832281  0.53442360  0.11381825  1
  O2-  O191  1  0.76734902  0.52224490  0.62919674  1
  O2-  O192  1  0.12176759  0.26899507  0.27021893  1
  O2-  O193  1  0.13639130  0.28290223  0.76337545  1
  O2-  O194  1  0.13523816  0.77652692  0.27370277  1
  O2-  O195  1  0.11957574  0.76166617  0.76499859  1
  O2-  O196  1  0.63189627  0.27556793  0.27534230  1
  O2-  O197  1  0.61677959  0.27518673  0.76107016  1
  O2-  O198  1  0.63821162  0.77184391  0.27690274  1
  O2-  O199  1  0.63960766  0.76540406  0.77000229  1
  O2-  O200  1  0.36155613  0.22579316  0.22564631  1
  O2-  O201  1  0.37509738  0.24142963  0.73018088  1
  O2-  O202  1  0.36606131  0.72420720  0.22579172  1
  O2-  O203  1  0.36358674  0.71916016  0.73143362  1
  O2-  O204  1  0.88450793  0.23215793  0.23634340  1
  O2-  O205  1  0.86303696  0.23337247  0.72341019  1
  O2-  O206  1  0.86730653  0.71852078  0.23496415  1
  O2-  O207  1  0.88136526  0.72325940  0.73294211  1
  O2-  O208  1  0.26834025  0.36397435  0.23764708  1
  O2-  O209  1  0.26743379  0.38378626  0.73464785  1
  O2-  O210  1  0.26979292  0.86426639  0.22530719  1
  O2-  O211  1  0.27297161  0.86219876  0.73590355  1
  O2-  O212  1  0.77343529  0.36645331  0.22590228  1
  O2-  O213  1  0.76406734  0.38164751  0.72483311  1
  O2-  O214  1  0.78030429  0.86148285  0.23809330  1
  O2-  O215  1  0.77303332  0.86399757  0.72483088  1
  O2-  O216  1  0.22945375  0.13619021  0.27895664  1
  O2-  O217  1  0.22434618  0.13780509  0.76246019  1
  O2-  O218  1  0.21983658  0.63604443  0.25668642  1
  O2-  O219  1  0.22766959  0.61963291  0.76197349  1
  O2-  O220  1  0.73632864  0.13553199  0.27298028  1
  O2-  O221  1  0.72716186  0.13678216  0.77349110  1
  O2-  O222  1  0.73183890  0.63219662  0.27745742  1
  O2-  O223  1  0.73181976  0.61779165  0.76339656  1
  O2-  O224  1  0.11493985  0.46798775  0.23713710  1
  O2-  O225  1  0.12035239  0.48319832  0.73651070  1
  O2-  O226  1  0.11654616  0.98425200  0.22876763  1
  O2-  O227  1  0.11517853  0.97067889  0.72448000  1
  O2-  O228  1  0.61775116  0.47679157  0.22932312  1
  O2-  O229  1  0.62659792  0.48019575  0.72803972  1
  O2-  O230  1  0.61551952  0.97389128  0.24048169  1
  O2-  O231  1  0.61256808  0.98439016  0.72334474  1
  O2-  O232  1  0.38601944  0.02505845  0.27595221  1
  O2-  O233  1  0.38468704  0.03525712  0.76150058  1
  O2-  O234  1  0.38116287  0.51901458  0.27718161  1
  O2-  O235  1  0.36946799  0.51853925  0.76652507  1
  O2-  O236  1  0.88444339  0.02745901  0.27583838  1
  O2-  O237  1  0.88462420  0.02366047  0.77093208  1
  O2-  O238  1  0.89040934  0.51221632  0.27586132  1
  O2-  O239  1  0.87459027  0.51764059  0.76401195  1
  O2-  O240  1  0.47930535  0.38261960  0.27494471  1
  O2-  O241  1  0.48181294  0.37450674  0.76170172  1
  O2-  O242  1  0.47961879  0.88425697  0.27901616  1
  O2-  O243  1  0.47200188  0.88689541  0.76818479  1
  O2-  O244  1  0.98319537  0.37186492  0.26520057  1
  O2-  O245  1  0.97958345  0.38832161  0.77352310  1
  O2-  O246  1  0.97854104  0.88467322  0.27207238  1
  O2-  O247  1  0.97821116  0.86334582  0.76171809  1
  O2-  O248  1  0.02255040  0.13424717  0.24165297  1
  O2-  O249  1  0.02787955  0.11748186  0.73005011  1
  O2-  O250  1  0.02465484  0.61158860  0.22986988  1
  O2-  O251  1  0.01585748  0.61917354  0.74014588  1
  O2-  O252  1  0.52624391  0.11450691  0.23157620  1
  O2-  O253  1  0.51779119  0.13528294  0.73062033  1
  O2-  O254  1  0.51684013  0.61883892  0.23317358  1
  O2-  O255  1  0.51882982  0.61235619  0.72604909  1
  O2-  O256  1  0.12183186  0.48428425  0.01280891  1
  O2-  O257  1  0.11663425  0.48168723  0.52477472  1
  O2-  O258  1  0.13366312  0.97290836  0.02432223  1
  O2-  O259  1  0.13600547  0.98019223  0.52307175  1
  O2-  O260  1  0.63734916  0.47992715  0.01908229  1
  O2-  O261  1  0.63765932  0.48339222  0.52456206  1
  O2-  O262  1  0.63228662  0.97018530  0.01700654  1
  O2-  O263  1  0.61898118  0.98556024  0.52009127  1
  O2-  O264  1  0.36329042  0.01054879  -0.02858345  1
  O2-  O265  1  0.37755449  0.01953629  0.48609533  1
  O2-  O266  1  0.36366056  0.51971250  -0.02884064  1
  O2-  O267  1  0.36030822  0.52779926  0.48747951  1
  O2-  O268  1  0.86803251  0.02191406  -0.01949669  1
  O2-  O269  1  0.86297876  0.02529267  0.47939856  1
  O2-  O270  1  0.88307600  0.52139479  -0.01801625  1
  O2-  O271  1  0.88173604  0.52029953  0.49167551  1
  O2-  O272  1  0.46506255  0.36429645  -0.01846364  1
  O2-  O273  1  0.46773760  0.36458147  0.48112881  1
  O2-  O274  1  0.47162036  0.86144020  -0.02840372  1
  O2-  O275  1  0.48234136  0.88269189  0.48846886  1
  O2-  O276  1  0.98186400  0.38306036  -0.01208673  1
  O2-  O277  1  0.98129692  0.38328458  0.48324565  1
  O2-  O278  1  0.98092635  0.86134878  -0.02472955  1
  O2-  O279  1  0.97297377  0.86156327  0.48457343  1
  O2-  O280  1  0.03102952  0.13474859  0.01312901  1
  O2-  O281  1  0.02667706  0.13834696  0.52112590  1
  O2-  O282  1  0.02060651  0.61797591  0.01862299  1
  O2-  O283  1  0.01499308  0.62072815  0.52044472  1
  O2-  O284  1  0.52393255  0.13410299  0.01719920  1
  O2-  O285  1  0.51248521  0.12528372  0.52245664  1
  O2-  O286  1  0.51659575  0.63330428  0.02445262  1
  O2-  O287  1  0.52483839  0.63481695  0.52940418  1
  O2-  O288  1  0.11250645  0.28240566  -0.01526707  1
  O2-  O289  1  0.12876972  0.27359331  0.48888321  1
  O2-  O290  1  0.12315402  0.75651847  -0.02458189  1
  O2-  O291  1  0.11349291  0.77176489  0.48522177  1
  O2-  O292  1  0.61228912  0.27414555  -0.02127092  1
  O2-  O293  1  0.61093949  0.27758745  0.48366505  1
  O2-  O294  1  0.61916723  0.76901271  -0.02768511  1
  O2-  O295  1  0.63474224  0.76475706  0.49241786  1
  O2-  O296  1  0.38206811  0.21783765  0.01249790  1
  O2-  O297  1  0.36690531  0.23560121  0.51917412  1
  O2-  O298  1  0.36402250  0.72478581  0.00940800  1
  O2-  O299  1  0.38721064  0.72993362  0.52770258  1
  O2-  O300  1  0.88676687  0.23744469  0.02604390  1
  O2-  O301  1  0.88605620  0.23025288  0.51874801  1
  O2-  O302  1  0.88974111  0.71842423  0.00995130  1
  O2-  O303  1  0.87612819  0.73043598  0.52101632  1
  O2-  O304  1  0.26310748  0.38679771  0.01357289  1
  O2-  O305  1  0.26203571  0.37936323  0.52063273  1
  O2-  O306  1  0.26488320  0.86374542  0.00668362  1
  O2-  O307  1  0.27640119  0.88271033  0.52792010  1
  O2-  O308  1  0.77997506  0.38926408  0.00999363  1
  O2-  O309  1  0.77612033  0.38561024  0.52588577  1
  O2-  O310  1  0.78119859  0.87997066  0.01945073  1
  O2-  O311  1  0.76853424  0.86677945  0.52422935  1
  O2-  O312  1  0.22223305  0.11606845  -0.02188628  1
  O2-  O313  1  0.23055818  0.13545170  0.48496971  1
  O2-  O314  1  0.22641424  0.62387157  -0.01882074  1
  O2-  O315  1  0.21217076  0.61357445  0.49079979  1
  O2-  O316  1  0.72774960  0.11558133  -0.02061289  1
  O2-  O317  1  0.71959158  0.11755223  0.47220168  1
  O2-  O318  1  0.73684317  0.61258684  -0.03722630  1
  O2-  O319  1  0.73901477  0.62417169  0.49083080  1
