# generated using pymatgen
data_Sr64Ca21Nb43O192
_symmetry_space_group_name_H-M   'P 1'
_cell_length_a   16.59357515
_cell_length_b   16.60854721
_cell_length_c   16.71531314
_cell_angle_alpha   89.87909156
_cell_angle_beta   90.00419201
_cell_angle_gamma   90.12685935
_symmetry_Int_Tables_number   1
_chemical_formula_structural   Sr64Ca21Nb43O192
_chemical_formula_sum   'Sr64 Ca21 Nb43 O192'
_cell_volume   4606.63810953
_cell_formula_units_Z   1
loop_
 _symmetry_equiv_pos_site_id
 _symmetry_equiv_pos_as_xyz
  1  'x, y, z'
loop_
 _atom_type_symbol
 _atom_type_oxidation_number
  Sr2+  2.0
  Ca2+  2.0
  Nb5+  5.0
  O2-  -2.0
loop_
 _atom_site_type_symbol
 _atom_site_label
 _atom_site_symmetry_multiplicity
 _atom_site_fract_x
 _atom_site_fract_y
 _atom_site_fract_z
 _atom_site_occupancy
  Sr2+  Sr0  1  0.11891168  0.13538453  0.12103966  1
  Sr2+  Sr1  1  0.12035407  0.12822699  0.62254340  1
  Sr2+  Sr2  1  0.11576317  0.64225564  0.12573994  1
  Sr2+  Sr3  1  0.12261437  0.63972535  0.62957588  1
  Sr2+  Sr4  1  0.62127925  0.12500213  0.12752176  1
  Sr2+  Sr5  1  0.61649001  0.14267502  0.62836443  1
  Sr2+  Sr6  1  0.61751649  0.64432254  0.12809859  1
  Sr2+  Sr7  1  0.61824159  0.63542246  0.62227093  1
  Sr2+  Sr8  1  0.36716280  0.38483337  0.12743264  1
  Sr2+  Sr9  1  0.37247315  0.38654120  0.61975881  1
  Sr2+  Sr10  1  0.37397865  0.87419565  0.12538426  1
  Sr2+  Sr11  1  0.35954744  0.88761530  0.62140287  1
  Sr2+  Sr12  1  0.87192676  0.38162270  0.12416147  1
  Sr2+  Sr13  1  0.87382994  0.38550170  0.62496478  1
  Sr2+  Sr14  1  0.86323995  0.89140975  0.12633105  1
  Sr2+  Sr15  1  0.86029541  0.87164497  0.62658902  1
  Sr2+  Sr16  1  0.12916596  0.36796016  0.36728343  1
  Sr2+  Sr17  1  0.13411371  0.37348379  0.87588784  1
  Sr2+  Sr18  1  0.14253517  0.86829443  0.37466732  1
  Sr2+  Sr19  1  0.12846859  0.86617598  0.87592455  1
  Sr2+  Sr20  1  0.63985792  0.37587111  0.38211840  1
  Sr2+  Sr21  1  0.63594943  0.35898337  0.87150670  1
  Sr2+  Sr22  1  0.63762847  0.86533072  0.36813525  1
  Sr2+  Sr23  1  0.63355257  0.87458717  0.88254752  1
  Sr2+  Sr24  1  0.38395125  0.11481536  0.38839831  1
  Sr2+  Sr25  1  0.38648903  0.11862277  0.87067750  1
  Sr2+  Sr26  1  0.39163680  0.61979737  0.36436387  1
  Sr2+  Sr27  1  0.37887202  0.61394595  0.87782062  1
  Sr2+  Sr28  1  0.88200268  0.11580037  0.36878490  1
  Sr2+  Sr29  1  0.88199298  0.11574459  0.87284733  1
  Sr2+  Sr30  1  0.87876067  0.62163660  0.38178361  1
  Sr2+  Sr31  1  0.88949146  0.61971581  0.87118508  1
  Sr2+  Sr32  1  0.12653916  0.10780467  0.38222349  1
  Sr2+  Sr33  1  0.13510122  0.11727471  0.87339076  1
  Sr2+  Sr34  1  0.13139439  0.62019548  0.36568417  1
  Sr2+  Sr35  1  0.13266105  0.61798129  0.87539671  1
  Sr2+  Sr36  1  0.63169411  0.10877508  0.37573798  1
  Sr2+  Sr37  1  0.62913043  0.11557029  0.87362214  1
  Sr2+  Sr38  1  0.63160270  0.61525746  0.37814753  1
  Sr2+  Sr39  1  0.63392926  0.61027107  0.86893448  1
  Sr2+  Sr40  1  0.38605835  0.36712759  0.37302381  1
  Sr2+  Sr41  1  0.37660707  0.36871719  0.87229544  1
  Sr2+  Sr42  1  0.37876586  0.86170745  0.37253043  1
  Sr2+  Sr43  1  0.38957475  0.86352369  0.87514749  1
  Sr2+  Sr44  1  0.87941210  0.36002278  0.37335995  1
  Sr2+  Sr45  1  0.87940867  0.37733752  0.87566090  1
  Sr2+  Sr46  1  0.88035323  0.86836908  0.38076352  1
  Sr2+  Sr47  1  0.87976286  0.86160732  0.87170881  1
  Sr2+  Sr48  1  0.11387193  0.38327518  0.12747639  1
  Sr2+  Sr49  1  0.12197436  0.37953717  0.62392059  1
  Sr2+  Sr50  1  0.13896529  0.87648844  0.12980099  1
  Sr2+  Sr51  1  0.11119018  0.88454602  0.62102014  1
  Sr2+  Sr52  1  0.61894310  0.37748528  0.11884600  1
  Sr2+  Sr53  1  0.61098474  0.38757101  0.62416288  1
  Sr2+  Sr54  1  0.61169660  0.88600430  0.12634861  1
  Sr2+  Sr55  1  0.61771957  0.87229115  0.61865265  1
  Sr2+  Sr56  1  0.35687199  0.12724731  0.12061469  1
  Sr2+  Sr57  1  0.36337519  0.13625025  0.62069981  1
  Sr2+  Sr58  1  0.36252364  0.64009236  0.12975529  1
  Sr2+  Sr59  1  0.36824682  0.62640991  0.62787866  1
  Sr2+  Sr60  1  0.86815839  0.13010967  0.12950264  1
  Sr2+  Sr61  1  0.88916409  0.12588681  0.61116001  1
  Sr2+  Sr62  1  0.87047753  0.62412792  0.11510937  1
  Sr2+  Sr63  1  0.85662586  0.63497600  0.62924531  1
  Ca2+  Ca64  1  0.50217334  -0.00169063  0.50347258  1
  Ca2+  Ca65  1  0.00174968  0.50324430  0.49906036  1
  Ca2+  Ca66  1  -0.00001539  0.00209922  0.00128718  1
  Ca2+  Ca67  1  0.50139450  0.49783823  -0.00121808  1
  Ca2+  Ca68  1  -0.00208920  -0.00554100  0.49923147  1
  Ca2+  Ca69  1  0.24921047  0.75008857  -0.00389739  1
  Ca2+  Ca70  1  0.24902853  0.25333791  0.49928065  1
  Ca2+  Ca71  1  0.75112601  0.24732338  0.50154117  1
  Ca2+  Ca72  1  0.75039737  0.74917683  0.00191434  1
  Ca2+  Ca73  1  0.25284297  0.74627023  0.50174107  1
  Ca2+  Ca74  1  -0.00347039  0.75347480  0.25162754  1
  Ca2+  Ca75  1  0.49680147  0.74869715  0.74902833  1
  Ca2+  Ca76  1  -0.00036041  0.74795937  0.74627235  1
  Ca2+  Ca77  1  0.25118765  0.50016492  0.24710261  1
  Ca2+  Ca78  1  0.75006849  0.49653118  0.74973313  1
  Ca2+  Ca79  1  0.50113995  0.24819946  0.24832209  1
  Ca2+  Ca80  1  0.25336847  0.00411690  0.25113365  1
  Ca2+  Ca81  1  0.50378771  0.75237853  0.25063935  1
  Ca2+  Ca82  1  0.74790596  0.00233846  0.74966148  1
  Ca2+  Ca83  1  0.75027154  0.49719536  0.24776856  1
  Ca2+  Ca84  1  0.24852728  0.00369580  0.75043676  1
  Nb5+  Nb85  1  0.00439099  0.50233985  0.00017093  1
  Nb5+  Nb86  1  0.49706714  0.00102877  -0.00092890  1
  Nb5+  Nb87  1  0.49791204  0.50134326  0.49624166  1
  Nb5+  Nb88  1  0.24456625  0.25328467  0.00257565  1
  Nb5+  Nb89  1  0.74778659  0.74821331  0.49762287  1
  Nb5+  Nb90  1  0.74599751  0.24825458  0.00106226  1
  Nb5+  Nb91  1  0.00628181  0.25155563  0.74874710  1
  Nb5+  Nb92  1  0.00060598  0.24799027  0.24299626  1
  Nb5+  Nb93  1  0.24793288  0.49981747  0.74853835  1
  Nb5+  Nb94  1  0.50333083  0.25273768  0.74965826  1
  Nb5+  Nb95  1  0.75023235  -0.00083855  0.25117557  1
  Nb5+  Nb96  1  0.00165925  -0.00471390  0.24685680  1
  Nb5+  Nb97  1  -0.00660311  -0.00485778  0.75125420  1
  Nb5+  Nb98  1  -0.00390985  0.50137866  0.25433477  1
  Nb5+  Nb99  1  0.00368191  0.50059281  0.74858196  1
  Nb5+  Nb100  1  0.49554725  0.00517432  0.25187050  1
  Nb5+  Nb101  1  0.50009732  -0.00206253  0.74567695  1
  Nb5+  Nb102  1  0.50673798  0.50009709  0.24028498  1
  Nb5+  Nb103  1  0.50046911  0.49819896  0.75357549  1
  Nb5+  Nb104  1  0.25267211  0.24487350  0.25864571  1
  Nb5+  Nb105  1  0.25375539  0.25323009  0.75212606  1
  Nb5+  Nb106  1  0.24893176  0.74994218  0.25088299  1
  Nb5+  Nb107  1  0.25353084  0.75839929  0.75144555  1
  Nb5+  Nb108  1  0.74703121  0.24899075  0.24996300  1
  Nb5+  Nb109  1  0.76573476  0.24539394  0.74919289  1
  Nb5+  Nb110  1  0.75561098  0.74561343  0.24562056  1
  Nb5+  Nb111  1  0.74149215  0.74829040  0.75601490  1
  Nb5+  Nb112  1  0.00212548  0.25379973  0.49012937  1
  Nb5+  Nb113  1  -0.00358468  0.25167806  0.99436596  1
  Nb5+  Nb114  1  0.00456170  0.74977778  0.50033913  1
  Nb5+  Nb115  1  -0.00577679  0.75943080  1.00314641  1
  Nb5+  Nb116  1  0.50572521  0.25222739  0.49485436  1
  Nb5+  Nb117  1  0.49002365  0.24593768  1.00062531  1
  Nb5+  Nb118  1  0.49520793  0.75182150  0.50021259  1
  Nb5+  Nb119  1  0.50406584  0.74254419  0.99555337  1
  Nb5+  Nb120  1  0.25235164  -0.00437448  -0.00582383  1
  Nb5+  Nb121  1  0.24970226  0.00071778  0.50084040  1
  Nb5+  Nb122  1  0.24975304  0.50115214  0.00325136  1
  Nb5+  Nb123  1  0.25032461  0.50203675  0.49173121  1
  Nb5+  Nb124  1  0.75207970  0.00307953  -0.00009831  1
  Nb5+  Nb125  1  0.74405096  -0.00008265  0.50580769  1
  Nb5+  Nb126  1  0.74712421  0.49792751  -0.00134730  1
  Nb5+  Nb127  1  0.75513569  0.49904474  0.50197633  1
  O2-  O128  1  0.00913247  0.03364539  0.13596781  1
  O2-  O129  1  0.01962083  0.01897479  0.63654861  1
  O2-  O130  1  0.02343716  0.50957749  0.11769804  1
  O2-  O131  1  0.03189192  0.50455115  0.63670110  1
  O2-  O132  1  0.51604511  0.01762087  0.11693292  1
  O2-  O133  1  0.53673027  0.01388268  0.63730016  1
  O2-  O134  1  0.53843273  0.51234397  0.13056022  1
  O2-  O135  1  0.50828263  0.50706062  0.62956953  1
  O2-  O136  1  -0.02600900  -0.00396337  0.36199613  1
  O2-  O137  1  -0.03427266  -0.00962068  0.86880695  1
  O2-  O138  1  -0.03121391  0.48162972  0.36397381  1
  O2-  O139  1  -0.00992944  0.48065709  0.87857090  1
  O2-  O140  1  0.47857175  -0.01059434  0.36515966  1
  O2-  O141  1  0.47738389  -0.00755977  0.87912536  1
  O2-  O142  1  0.47907933  0.48553647  0.38241527  1
  O2-  O143  1  0.47074819  0.48523315  0.86598652  1
  O2-  O144  1  0.27469476  0.26494744  0.11739097  1
  O2-  O145  1  0.26455576  0.27227946  0.63903836  1
  O2-  O146  1  0.26790591  0.76892448  0.13012947  1
  O2-  O147  1  0.28410485  0.75450784  0.63615960  1
  O2-  O148  1  0.77562119  0.25844675  0.11790937  1
  O2-  O149  1  0.78634026  0.25599852  0.63720632  1
  O2-  O150  1  0.78793169  0.76133153  0.13628475  1
  O2-  O151  1  0.76185937  0.75869930  0.61764970  1
  O2-  O152  1  0.21374282  0.23490075  0.36535174  1
  O2-  O153  1  0.23012783  0.24219732  0.87987246  1
  O2-  O154  1  0.22442980  0.73517375  0.36740510  1
  O2-  O155  1  0.21583205  0.73942772  0.86391898  1
  O2-  O156  1  0.72573043  0.23233966  0.36229301  1
  O2-  O157  1  0.74252368  0.22903218  0.88311694  1
  O2-  O158  1  0.72500728  0.73597444  0.37873447  1
  O2-  O159  1  0.71726404  0.73631353  0.86831414  1
  O2-  O160  1  -0.01047099  0.23318215  0.12563306  1
  O2-  O161  1  -0.00849848  0.23865374  0.63495557  1
  O2-  O162  1  -0.01623103  0.71858368  0.11429053  1
  O2-  O163  1  -0.01612057  0.71023460  0.61317006  1
  O2-  O164  1  0.48441908  0.21928765  0.11189753  1
  O2-  O165  1  0.48179806  0.23572959  0.63373197  1
  O2-  O166  1  0.48270175  0.73336713  0.11432201  1
  O2-  O167  1  0.48978344  0.71623482  0.61355338  1
  O2-  O168  1  0.26349998  0.03043612  0.38410439  1
  O2-  O169  1  0.26446055  0.03440027  0.88396228  1
  O2-  O170  1  0.26728478  0.53076188  0.38290898  1
  O2-  O171  1  0.25900594  0.51184268  0.87697186  1
  O2-  O172  1  0.76032658  0.01999801  0.36737748  1
  O2-  O173  1  0.75863166  0.02630384  0.88725134  1
  O2-  O174  1  0.75658070  0.52279743  0.38494325  1
  O2-  O175  1  0.77907802  0.51192958  0.88498428  1
  O2-  O176  1  0.01143742  0.26987806  0.37387163  1
  O2-  O177  1  0.01055398  0.27540184  0.88071828  1
  O2-  O178  1  0.01079341  0.78956482  0.38712256  1
  O2-  O179  1  0.01190337  0.77022378  0.88351577  1
  O2-  O180  1  0.52255396  0.27838299  0.38446552  1
  O2-  O181  1  0.50769210  0.27075863  0.87296260  1
  O2-  O182  1  0.51864399  0.77309470  0.38502095  1
  O2-  O183  1  0.51759012  0.78138720  0.88414966  1
  O2-  O184  1  0.25311665  -0.01542197  0.11237990  1
  O2-  O185  1  0.22975341  -0.02315583  0.61862846  1
  O2-  O186  1  0.23722868  0.46865977  0.11332791  1
  O2-  O187  1  0.24007836  0.47323161  0.63490907  1
  O2-  O188  1  0.73191205  -0.01289561  0.12631006  1
  O2-  O189  1  0.73502435  -0.03088437  0.61558509  1
  O2-  O190  1  0.74305397  0.46393000  0.11115589  1
  O2-  O191  1  0.73549073  0.47353084  0.61668700  1
  O2-  O192  1  0.11843718  0.26846799  0.23050159  1
  O2-  O193  1  0.12100903  0.27666634  0.74331932  1
  O2-  O194  1  0.13022568  0.77098504  0.23067195  1
  O2-  O195  1  0.13616773  0.76875136  0.71910935  1
  O2-  O196  1  0.63784262  0.26456455  0.21551303  1
  O2-  O197  1  0.61705429  0.27325558  0.73615264  1
  O2-  O198  1  0.64116599  0.77624743  0.23169484  1
  O2-  O199  1  0.62976319  0.76919952  0.72195942  1
  O2-  O200  1  0.36467375  0.22486670  0.28095764  1
  O2-  O201  1  0.36892861  0.23758136  0.77062041  1
  O2-  O202  1  0.36805720  0.73075120  0.26591148  1
  O2-  O203  1  0.36371068  0.72021413  0.77882987  1
  O2-  O204  1  0.87775988  0.22989356  0.26024977  1
  O2-  O205  1  0.87912593  0.23243001  0.77472700  1
  O2-  O206  1  0.86422371  0.74028292  0.28965083  1
  O2-  O207  1  0.86098866  0.72594221  0.76058886  1
  O2-  O208  1  0.26824231  0.36274119  0.26237294  1
  O2-  O209  1  0.25947397  0.37441516  0.77592388  1
  O2-  O210  1  0.26897419  0.86953031  0.26861839  1
  O2-  O211  1  0.27711274  0.86950702  0.76741595  1
  O2-  O212  1  0.77315383  0.36114116  0.26511728  1
  O2-  O213  1  0.76005431  0.35905708  0.77532563  1
  O2-  O214  1  0.77134646  0.88258077  0.26400071  1
  O2-  O215  1  0.76725834  0.86583814  0.76757606  1
  O2-  O216  1  0.22926598  0.13777880  0.21842434  1
  O2-  O217  1  0.22338842  0.14191531  0.73923175  1
  O2-  O218  1  0.22852491  0.63256858  0.22672019  1
  O2-  O219  1  0.22742052  0.61395596  0.73956221  1
  O2-  O220  1  0.73913810  0.12450163  0.23059159  1
  O2-  O221  1  0.71753526  0.13984708  0.74263366  1
  O2-  O222  1  0.73467626  0.63327963  0.22956676  1
  O2-  O223  1  0.72404773  0.62922943  0.73410971  1
  O2-  O224  1  0.11262278  0.47426151  0.26232343  1
  O2-  O225  1  0.12751380  0.47740724  0.76902527  1
  O2-  O226  1  0.11541455  0.98105573  0.26390173  1
  O2-  O227  1  0.10997838  0.98602432  0.77909403  1
  O2-  O228  1  0.61686379  0.47242684  0.27618504  1
  O2-  O229  1  0.61200356  0.47056226  0.76821706  1
  O2-  O230  1  0.63095636  0.98337802  0.26138280  1
  O2-  O231  1  0.61168569  0.98850579  0.78498461  1
  O2-  O232  1  0.38707226  0.03345173  0.23224939  1
  O2-  O233  1  0.38730950  0.03596353  0.73357266  1
  O2-  O234  1  0.38821325  0.52424930  0.22927105  1
  O2-  O235  1  0.36765336  0.51129473  0.73777596  1
  O2-  O236  1  0.86860393  0.01945836  0.23142580  1
  O2-  O237  1  0.88201249  0.03868562  0.73282309  1
  O2-  O238  1  0.88551815  0.50991702  0.21485099  1
  O2-  O239  1  0.88839669  0.51229236  0.73167185  1
  O2-  O240  1  0.47625506  0.38293023  0.23262584  1
  O2-  O241  1  0.47366118  0.37167811  0.73679401  1
  O2-  O242  1  0.48868162  0.88943675  0.22522917  1
  O2-  O243  1  0.47156377  0.88709375  0.73360720  1
  O2-  O244  1  0.98035690  0.36729014  0.23585276  1
  O2-  O245  1  0.97931002  0.37231038  0.74369167  1
  O2-  O246  1  0.97694120  0.88683612  0.22223016  1
  O2-  O247  1  0.97035471  0.88376954  0.73317681  1
  O2-  O248  1  0.01597385  0.13382601  0.27176148  1
  O2-  O249  1  0.01962587  0.13836756  0.77354532  1
  O2-  O250  1  0.01512355  0.61444479  0.26603761  1
  O2-  O251  1  0.02028950  0.61206355  0.77428393  1
  O2-  O252  1  0.53603102  0.11635216  0.26121071  1
  O2-  O253  1  0.51613936  0.13610298  0.76809600  1
  O2-  O254  1  0.52493002  0.61556158  0.26960343  1
  O2-  O255  1  0.51784579  0.61172427  0.76696842  1
  O2-  O256  1  0.12378964  0.47597588  -0.01521561  1
  O2-  O257  1  0.13717071  0.47768727  0.47770689  1
  O2-  O258  1  0.13666557  0.98124079  -0.01394891  1
  O2-  O259  1  0.13176545  0.97996301  0.47733685  1
  O2-  O260  1  0.63737477  0.47420190  -0.02913375  1
  O2-  O261  1  0.61892326  0.48298480  0.49180150  1
  O2-  O262  1  0.62098863  0.99230414  -0.01338294  1
  O2-  O263  1  0.63403813  0.97387154  0.47067117  1
  O2-  O264  1  0.38044971  0.02809834  0.01034578  1
  O2-  O265  1  0.36884352  0.02274016  0.52397200  1
  O2-  O266  1  0.36481097  0.51848420  0.01645086  1
  O2-  O267  1  0.38078269  0.51858992  0.51928956  1
  O2-  O268  1  0.86337103  0.02363492  0.02305505  1
  O2-  O269  1  0.86124461  0.01682057  0.50521321  1
  O2-  O270  1  0.88415582  0.50618518  0.01450678  1
  O2-  O271  1  0.86628393  0.52280003  0.52321025  1
  O2-  O272  1  0.48832472  0.36123272  0.02125058  1
  O2-  O273  1  0.48445830  0.37828563  0.51719040  1
  O2-  O274  1  0.48210183  0.88598461  0.01446606  1
  O2-  O275  1  0.48076079  0.86319291  0.52907725  1
  O2-  O276  1  0.99016230  0.37006974  0.02044474  1
  O2-  O277  1  0.97079476  0.36574379  0.51619857  1
  O2-  O278  1  0.96587351  0.86857916  0.01928782  1
  O2-  O279  1  0.97271414  0.86228896  0.53167994  1
  O2-  O280  1  0.02892226  0.14065759  -0.01533168  1
  O2-  O281  1  0.02330508  0.13668635  0.49792801  1
  O2-  O282  1  0.01929544  0.61502702  -0.01967361  1
  O2-  O283  1  0.01284406  0.63605752  0.46031658  1
  O2-  O284  1  0.51745152  0.12952775  -0.02462142  1
  O2-  O285  1  0.52410624  0.13689495  0.48503927  1
  O2-  O286  1  0.52788568  0.63198211  -0.02522075  1
  O2-  O287  1  0.51869453  0.61772028  0.48123546  1
  O2-  O288  1  0.12951422  0.27135822  0.01903465  1
  O2-  O289  1  0.11533372  0.28020949  0.51383604  1
  O2-  O290  1  0.11273744  0.77239637  0.01995222  1
  O2-  O291  1  0.11689393  0.76535325  0.52350878  1
  O2-  O292  1  0.62983307  0.26458728  0.01020704  1
  O2-  O293  1  0.61712116  0.27074463  0.53374763  1
  O2-  O294  1  0.61698454  0.77228836  0.02672062  1
  O2-  O295  1  0.62514085  0.76055098  0.51555702  1
  O2-  O296  1  0.37564239  0.23501371  -0.02168942  1
  O2-  O297  1  0.38760158  0.23521765  0.48735832  1
  O2-  O298  1  0.38526696  0.73224730  -0.02107910  1
  O2-  O299  1  0.38576100  0.72703837  0.47229453  1
  O2-  O300  1  0.88215060  0.23186471  -0.01325197  1
  O2-  O301  1  0.88445763  0.22452766  0.47979066  1
  O2-  O302  1  0.88217404  0.72160551  -0.02369368  1
  O2-  O303  1  0.86499979  0.72971283  0.48474825  1
  O2-  O304  1  0.26817706  0.37126804  -0.01928931  1
  O2-  O305  1  0.28265424  0.38817891  0.48743918  1
  O2-  O306  1  0.27772039  0.88611942  -0.02620489  1
  O2-  O307  1  0.27598427  0.88375128  0.48081893  1
  O2-  O308  1  0.76964123  0.36414727  -0.01872161  1
  O2-  O309  1  0.76740073  0.38384263  0.47674134  1
  O2-  O310  1  0.76414320  0.88779394  -0.01433688  1
  O2-  O311  1  0.76375272  0.86752334  0.48197859  1
  O2-  O312  1  0.23454254  0.13458848  0.01622377  1
  O2-  O313  1  0.23000281  0.12024695  0.52415931  1
  O2-  O314  1  0.22282535  0.61296474  0.01473117  1
  O2-  O315  1  0.23665628  0.60986369  0.53531542  1
  O2-  O316  1  0.73274347  0.12860938  0.02074951  1
  O2-  O317  1  0.71977757  0.11225349  0.51841838  1
  O2-  O318  1  0.73160113  0.60987474  0.02313383  1
  O2-  O319  1  0.72874527  0.62426233  0.51575674  1
