# generated using pymatgen
data_Sr64Ca21Nb43O192
_symmetry_space_group_name_H-M   'P 1'
_cell_length_a   16.57184761
_cell_length_b   16.56103242
_cell_length_c   16.71443902
_cell_angle_alpha   89.96303215
_cell_angle_beta   89.97081380
_cell_angle_gamma   90.00318665
_symmetry_Int_Tables_number   1
_chemical_formula_structural   Sr64Ca21Nb43O192
_chemical_formula_sum   'Sr64 Ca21 Nb43 O192'
_cell_volume   4587.22450938
_cell_formula_units_Z   1
loop_
 _symmetry_equiv_pos_site_id
 _symmetry_equiv_pos_as_xyz
  1  'x, y, z'
loop_
 _atom_type_symbol
 _atom_type_oxidation_number
  Sr2+  2.0
  Ca2+  2.0
  Nb5+  5.0
  O2-  -2.0
loop_
 _atom_site_type_symbol
 _atom_site_label
 _atom_site_symmetry_multiplicity
 _atom_site_fract_x
 _atom_site_fract_y
 _atom_site_fract_z
 _atom_site_occupancy
  Sr2+  Sr0  1  0.11776283  0.12971507  0.12937802  1
  Sr2+  Sr1  1  0.12286114  0.14453716  0.62370120  1
  Sr2+  Sr2  1  0.12269801  0.63105278  0.13073782  1
  Sr2+  Sr3  1  0.12144419  0.62039936  0.61523308  1
  Sr2+  Sr4  1  0.61761133  0.13748089  0.12590864  1
  Sr2+  Sr5  1  0.62035046  0.11634343  0.62806126  1
  Sr2+  Sr6  1  0.62510131  0.62003127  0.12321911  1
  Sr2+  Sr7  1  0.61558996  0.63510963  0.62728445  1
  Sr2+  Sr8  1  0.37848284  0.37666510  0.12631102  1
  Sr2+  Sr9  1  0.36169237  0.37933880  0.61701614  1
  Sr2+  Sr10  1  0.36484073  0.87548507  0.13060452  1
  Sr2+  Sr11  1  0.37152226  0.88664518  0.63431520  1
  Sr2+  Sr12  1  0.86577998  0.38574831  0.13000229  1
  Sr2+  Sr13  1  0.87167114  0.39149731  0.63325278  1
  Sr2+  Sr14  1  0.87160780  0.87925527  0.13109633  1
  Sr2+  Sr15  1  0.86251575  0.88843212  0.61715007  1
  Sr2+  Sr16  1  0.14172427  0.36925081  0.37274487  1
  Sr2+  Sr17  1  0.12121359  0.36109671  0.86889064  1
  Sr2+  Sr18  1  0.12084515  0.86978629  0.37222706  1
  Sr2+  Sr19  1  0.13008118  0.87314999  0.87494231  1
  Sr2+  Sr20  1  0.63457135  0.37037466  0.37879667  1
  Sr2+  Sr21  1  0.63920084  0.37312422  0.87402899  1
  Sr2+  Sr22  1  0.64071835  0.86891855  0.37624053  1
  Sr2+  Sr23  1  0.63490893  0.86007689  0.87309009  1
  Sr2+  Sr24  1  0.37618578  0.12107125  0.37686609  1
  Sr2+  Sr25  1  0.38119571  0.11257708  0.87666031  1
  Sr2+  Sr26  1  0.38231425  0.62029660  0.38866007  1
  Sr2+  Sr27  1  0.38606541  0.62455825  0.87683712  1
  Sr2+  Sr28  1  0.88662693  0.11563726  0.38458883  1
  Sr2+  Sr29  1  0.88929903  0.12168365  0.87510406  1
  Sr2+  Sr30  1  0.89134165  0.62029700  0.37496495  1
  Sr2+  Sr31  1  0.88575666  0.61670215  0.87537966  1
  Sr2+  Sr32  1  0.13307362  0.10993913  0.38141154  1
  Sr2+  Sr33  1  0.12507299  0.11557282  0.87656815  1
  Sr2+  Sr34  1  0.13343480  0.60914594  0.37156363  1
  Sr2+  Sr35  1  0.13898433  0.62059823  0.87718991  1
  Sr2+  Sr36  1  0.62593152  0.10834080  0.37700674  1
  Sr2+  Sr37  1  0.63944711  0.11639056  0.87388750  1
  Sr2+  Sr38  1  0.63456701  0.61614467  0.38445848  1
  Sr2+  Sr39  1  0.63057043  0.61793023  0.87241507  1
  Sr2+  Sr40  1  0.38196044  0.36064370  0.37806287  1
  Sr2+  Sr41  1  0.38638741  0.36164282  0.87707244  1
  Sr2+  Sr42  1  0.37667701  0.87628428  0.37094588  1
  Sr2+  Sr43  1  0.37737260  0.86166949  0.87545824  1
  Sr2+  Sr44  1  0.87657313  0.36455925  0.37145356  1
  Sr2+  Sr45  1  0.88034864  0.35808204  0.87481366  1
  Sr2+  Sr46  1  0.87732722  0.87253591  0.38383717  1
  Sr2+  Sr47  1  0.88438507  0.87717213  0.87666681  1
  Sr2+  Sr48  1  0.11486865  0.39105072  0.12811307  1
  Sr2+  Sr49  1  0.11263028  0.38048508  0.62998346  1
  Sr2+  Sr50  1  0.11694184  0.87559304  0.12978997  1
  Sr2+  Sr51  1  0.11029205  0.87435844  0.62082451  1
  Sr2+  Sr52  1  0.61649582  0.37694738  0.13087197  1
  Sr2+  Sr53  1  0.61533977  0.38636352  0.62369389  1
  Sr2+  Sr54  1  0.62948160  0.87761028  0.12493051  1
  Sr2+  Sr55  1  0.61720692  0.87610255  0.62385336  1
  Sr2+  Sr56  1  0.38031960  0.13180465  0.13335524  1
  Sr2+  Sr57  1  0.36021144  0.12986093  0.63248962  1
  Sr2+  Sr58  1  0.36902395  0.62547446  0.12256771  1
  Sr2+  Sr59  1  0.36401855  0.63271084  0.62087738  1
  Sr2+  Sr60  1  0.85849381  0.12482676  0.11986698  1
  Sr2+  Sr61  1  0.86167893  0.13449646  0.61673145  1
  Sr2+  Sr62  1  0.88755185  0.62782361  0.12922802  1
  Sr2+  Sr63  1  0.88754578  0.62910461  0.62322654  1
  Ca2+  Ca64  1  0.49458510  0.00061884  0.50111129  1
  Ca2+  Ca65  1  0.00077239  0.49442603  0.49655195  1
  Ca2+  Ca66  1  0.00304429  0.00022633  0.50467912  1
  Ca2+  Ca67  1  0.49959655  -0.00335570  0.00126294  1
  Ca2+  Ca68  1  0.00174317  0.49786312  -0.00161655  1
  Ca2+  Ca69  1  0.25265202  0.75448981  0.50054884  1
  Ca2+  Ca70  1  0.24989186  0.24644198  0.00127707  1
  Ca2+  Ca71  1  0.75120096  0.74487934  0.50465057  1
  Ca2+  Ca72  1  0.24872060  0.24858377  0.49819444  1
  Ca2+  Ca73  1  0.74680522  0.25311345  0.50057892  1
  Ca2+  Ca74  1  0.74900014  0.50394868  0.74815997  1
  Ca2+  Ca75  1  0.74935988  0.50336828  0.25078283  1
  Ca2+  Ca76  1  0.50059254  0.24987322  0.75169821  1
  Ca2+  Ca77  1  0.50427904  0.74859282  0.24661808  1
  Ca2+  Ca78  1  0.75177021  -0.00112831  0.75158446  1
  Ca2+  Ca79  1  0.00177972  0.75163020  0.74874483  1
  Ca2+  Ca80  1  0.25084484  0.50078723  0.75189586  1
  Ca2+  Ca81  1  0.75254571  0.00129392  0.25159437  1
  Ca2+  Ca82  1  0.00011818  0.24794168  0.24707762  1
  Ca2+  Ca83  1  0.00041933  0.75032571  0.25201759  1
  Ca2+  Ca84  1  0.25561865  0.49903552  0.24905216  1
  Nb5+  Nb85  1  0.49990449  0.50062172  0.50727509  1
  Nb5+  Nb86  1  0.00175436  -0.00115868  0.00153696  1
  Nb5+  Nb87  1  0.50082628  0.50062394  0.00245205  1
  Nb5+  Nb88  1  0.75696851  0.74328018  0.00075915  1
  Nb5+  Nb89  1  0.25136252  0.75032661  -0.00013780  1
  Nb5+  Nb90  1  0.74874554  0.24462353  0.00047539  1
  Nb5+  Nb91  1  -0.00413842  0.24600984  0.74671019  1
  Nb5+  Nb92  1  0.24827693  0.00067529  0.75772435  1
  Nb5+  Nb93  1  0.25191375  0.00084503  0.25317129  1
  Nb5+  Nb94  1  0.50341020  0.25000427  0.25602167  1
  Nb5+  Nb95  1  0.49827850  0.74926023  0.75132288  1
  Nb5+  Nb96  1  -0.00118739  0.00178783  0.25109547  1
  Nb5+  Nb97  1  -0.00077141  0.00301907  0.74415168  1
  Nb5+  Nb98  1  0.00005058  0.49662109  0.24967716  1
  Nb5+  Nb99  1  0.00244116  0.50475961  0.75575168  1
  Nb5+  Nb100  1  0.50198014  -0.00475636  0.24841309  1
  Nb5+  Nb101  1  0.50285148  -0.00197458  0.75870618  1
  Nb5+  Nb102  1  0.49836186  0.49903670  0.26193749  1
  Nb5+  Nb103  1  0.49238813  0.49683410  0.75540326  1
  Nb5+  Nb104  1  0.24943898  0.25076404  0.24425070  1
  Nb5+  Nb105  1  0.25218947  0.25135929  0.75703551  1
  Nb5+  Nb106  1  0.25358966  0.74872162  0.25128057  1
  Nb5+  Nb107  1  0.24735163  0.75249310  0.74801869  1
  Nb5+  Nb108  1  0.75082412  0.24385915  0.25650011  1
  Nb5+  Nb109  1  0.74664140  0.25540705  0.74446071  1
  Nb5+  Nb110  1  0.74919515  0.74830789  0.25519595  1
  Nb5+  Nb111  1  0.75547514  0.74881593  0.75052936  1
  Nb5+  Nb112  1  0.00079111  0.25514819  0.49133368  1
  Nb5+  Nb113  1  -0.00081179  0.25067517  1.00529030  1
  Nb5+  Nb114  1  0.00278843  0.74863927  0.49860235  1
  Nb5+  Nb115  1  0.00737989  0.75054671  0.99503359  1
  Nb5+  Nb116  1  0.50053544  0.24629573  0.50743156  1
  Nb5+  Nb117  1  0.50373503  0.24648968  0.99557730  1
  Nb5+  Nb118  1  0.49740667  0.75640758  0.49742830  1
  Nb5+  Nb119  1  0.50652521  0.74865183  1.00338098  1
  Nb5+  Nb120  1  0.24831072  0.00012534  0.00771474  1
  Nb5+  Nb121  1  0.24852148  -0.00227909  0.51271350  1
  Nb5+  Nb122  1  0.25144244  0.49181774  -0.00590996  1
  Nb5+  Nb123  1  0.24853541  0.49828652  0.49799600  1
  Nb5+  Nb124  1  0.75080024  -0.01008226  -0.00448187  1
  Nb5+  Nb125  1  0.74582259  0.00194889  0.50068161  1
  Nb5+  Nb126  1  0.75342388  0.49608931  -0.00082641  1
  Nb5+  Nb127  1  0.75625622  0.50209658  0.50068135  1
  O2-  O128  1  0.02182112  0.01246749  0.11705382  1
  O2-  O129  1  0.03629976  0.01893970  0.63718386  1
  O2-  O130  1  0.02654253  0.52017074  0.12910737  1
  O2-  O131  1  0.02180847  0.50901777  0.63586129  1
  O2-  O132  1  0.51860155  0.02208416  0.13403851  1
  O2-  O133  1  0.51437969  0.00265977  0.64060060  1
  O2-  O134  1  0.52096842  0.50996374  0.11532070  1
  O2-  O135  1  0.51775296  0.51406534  0.62200634  1
  O2-  O136  1  -0.01361151  -0.01572937  0.36477298  1
  O2-  O137  1  -0.01090750  -0.01081097  0.87566995  1
  O2-  O138  1  -0.02975376  0.48055383  0.36350294  1
  O2-  O139  1  -0.02937572  0.47837664  0.86725223  1
  O2-  O140  1  0.46833642  -0.00116316  0.36285085  1
  O2-  O141  1  0.46340947  -0.01638334  0.86979502  1
  O2-  O142  1  0.47431629  0.48312175  0.37385228  1
  O2-  O143  1  0.47477866  0.48856175  0.87067550  1
  O2-  O144  1  0.28842379  0.25236651  0.13203387  1
  O2-  O145  1  0.26456343  0.25593303  0.63817277  1
  O2-  O146  1  0.24453841  0.77499661  0.11379112  1
  O2-  O147  1  0.27217536  0.77042606  0.63772267  1
  O2-  O148  1  0.76942500  0.26564712  0.11562340  1
  O2-  O149  1  0.77886061  0.26879253  0.63581485  1
  O2-  O150  1  0.75616233  0.77454121  0.11359597  1
  O2-  O151  1  0.75783910  0.77456727  0.63953532  1
  O2-  O152  1  0.23152445  0.22653594  0.35918694  1
  O2-  O153  1  0.21694690  0.23320448  0.86817566  1
  O2-  O154  1  0.26754158  0.73831626  0.36356417  1
  O2-  O155  1  0.24008188  0.74472873  0.87772606  1
  O2-  O156  1  0.71620823  0.23126387  0.36413148  1
  O2-  O157  1  0.72832433  0.24034305  0.88149221  1
  O2-  O158  1  0.73208555  0.73714206  0.36821886  1
  O2-  O159  1  0.73278402  0.73628945  0.88336350  1
  O2-  O160  1  -0.02134718  0.21483348  0.11296124  1
  O2-  O161  1  -0.01392336  0.22232283  0.63465337  1
  O2-  O162  1  0.00075842  0.73471735  0.11188108  1
  O2-  O163  1  0.00898114  0.71929344  0.61814405  1
  O2-  O164  1  0.49118845  0.24235150  0.11869848  1
  O2-  O165  1  0.47637539  0.23241433  0.61823850  1
  O2-  O166  1  0.50075940  0.71058547  0.11195376  1
  O2-  O167  1  0.48700238  0.73067223  0.63665665  1
  O2-  O168  1  0.26425200  0.01663366  0.36625599  1
  O2-  O169  1  0.25818707  0.01761392  0.87374207  1
  O2-  O170  1  0.26888228  0.52625398  0.38206550  1
  O2-  O171  1  0.26566853  0.53592796  0.88560664  1
  O2-  O172  1  0.76360742  0.03029166  0.38425587  1
  O2-  O173  1  0.77279122  0.02571506  0.88597950  1
  O2-  O174  1  0.76063636  0.53370278  0.38339261  1
  O2-  O175  1  0.75817953  0.52972285  0.88669751  1
  O2-  O176  1  0.01525744  0.28391127  0.38130864  1
  O2-  O177  1  0.00639161  0.25802428  0.88020643  1
  O2-  O178  1  -0.00330594  0.78093437  0.38298175  1
  O2-  O179  1  -0.00062726  0.78210078  0.88224370  1
  O2-  O180  1  0.51802292  0.26861152  0.36907511  1
  O2-  O181  1  0.52072098  0.28016821  0.88479563  1
  O2-  O182  1  0.50518540  0.77690073  0.38471489  1
  O2-  O183  1  0.50345464  0.76403708  0.88021334  1
  O2-  O184  1  0.23567709  -0.02367349  0.12032381  1
  O2-  O185  1  0.23514046  -0.02175222  0.62751303  1
  O2-  O186  1  0.23902890  0.49307078  0.11037246  1
  O2-  O187  1  0.23928223  0.47422103  0.61623296  1
  O2-  O188  1  0.74592437  -0.01871733  0.11265718  1
  O2-  O189  1  0.72762699  -0.02258921  0.61996889  1
  O2-  O190  1  0.71782098  0.48802743  0.11030979  1
  O2-  O191  1  0.73638977  0.46746285  0.61427539  1
  O2-  O192  1  0.13860453  0.26578468  0.21595336  1
  O2-  O193  1  0.11870373  0.26287060  0.73643930  1
  O2-  O194  1  0.13838379  0.77573501  0.24626886  1
  O2-  O195  1  0.13670799  0.78693970  0.74586296  1
  O2-  O196  1  0.62124800  0.26287220  0.22795141  1
  O2-  O197  1  0.63332616  0.27729921  0.72925485  1
  O2-  O198  1  0.63549123  0.78565879  0.23593604  1
  O2-  O199  1  0.61470592  0.77509333  0.74550821  1
  O2-  O200  1  0.38433638  0.22972058  0.26565073  1
  O2-  O201  1  0.36391157  0.22456017  0.77683592  1
  O2-  O202  1  0.36795459  0.74573766  0.22171218  1
  O2-  O203  1  0.37383916  0.73810364  0.77074463  1
  O2-  O204  1  0.86463425  0.22585280  0.27678144  1
  O2-  O205  1  0.87705130  0.23124407  0.76973586  1
  O2-  O206  1  0.86525473  0.72039765  0.24756161  1
  O2-  O207  1  0.86563833  0.71778407  0.76151416  1
  O2-  O208  1  0.27305762  0.36242554  0.26605159  1
  O2-  O209  1  0.26829321  0.36460297  0.77369803  1
  O2-  O210  1  0.27311079  0.88050269  0.25918553  1
  O2-  O211  1  0.27157460  0.88215420  0.76854820  1
  O2-  O212  1  0.76573305  0.36239329  0.25719698  1
  O2-  O213  1  0.76792046  0.36742841  0.77927664  1
  O2-  O214  1  0.78271537  0.86713162  0.26436141  1
  O2-  O215  1  0.76455609  0.86362471  0.78317589  1
  O2-  O216  1  0.23934312  0.11826750  0.22651229  1
  O2-  O217  1  0.23171926  0.11848834  0.73433891  1
  O2-  O218  1  0.23608364  0.63591300  0.22829296  1
  O2-  O219  1  0.22251453  0.63989600  0.73673974  1
  O2-  O220  1  0.73350020  0.13455415  0.21567325  1
  O2-  O221  1  0.72711959  0.13709981  0.74099212  1
  O2-  O222  1  0.71963572  0.63656713  0.22943131  1
  O2-  O223  1  0.71330703  0.63902347  0.74183452  1
  O2-  O224  1  0.11999359  0.47463841  0.26915007  1
  O2-  O225  1  0.11626573  0.47188655  0.77028593  1
  O2-  O226  1  0.13365530  0.98035669  0.25754731  1
  O2-  O227  1  0.12900365  0.98473671  0.77030215  1
  O2-  O228  1  0.61223006  0.47179201  0.26085814  1
  O2-  O229  1  0.60999160  0.48453569  0.76284809  1
  O2-  O230  1  0.61518446  0.98282990  0.27375090  1
  O2-  O231  1  0.61455467  0.97865624  0.78027175  1
  O2-  O232  1  0.37066583  0.01465137  0.22623477  1
  O2-  O233  1  0.36725689  0.01715151  0.73393278  1
  O2-  O234  1  0.39011194  0.50738680  0.21680471  1
  O2-  O235  1  0.38406642  0.53625801  0.73211216  1
  O2-  O236  1  0.88866082  0.02581325  0.22946448  1
  O2-  O237  1  0.88691166  0.02725558  0.72909559  1
  O2-  O238  1  0.88258540  0.51482934  0.22198947  1
  O2-  O239  1  0.88445545  0.51733653  0.72794837  1
  O2-  O240  1  0.48369107  0.36902330  0.23474767  1
  O2-  O241  1  0.46811635  0.38637975  0.73142484  1
  O2-  O242  1  0.48042991  0.88443812  0.22898068  1
  O2-  O243  1  0.47662983  0.87073105  0.74379147  1
  O2-  O244  1  0.98648218  0.37996542  0.21715244  1
  O2-  O245  1  0.98261446  0.36401078  0.73975316  1
  O2-  O246  1  0.99316951  0.88665776  0.22293423  1
  O2-  O247  1  0.97944296  0.88863878  0.73197255  1
  O2-  O248  1  0.03555228  0.11440099  0.26158118  1
  O2-  O249  1  0.01675832  0.12584245  0.77334098  1
  O2-  O250  1  0.02179180  0.61546437  0.26876142  1
  O2-  O251  1  0.02109188  0.61646234  0.77908113  1
  O2-  O252  1  0.51728044  0.13049279  0.25983678  1
  O2-  O253  1  0.51511990  0.11408203  0.77269149  1
  O2-  O254  1  0.51552636  0.61293163  0.27473573  1
  O2-  O255  1  0.51574109  0.63149151  0.77083776  1
  O2-  O256  1  0.13712364  0.47467299  -0.02430665  1
  O2-  O257  1  0.13531998  0.48027340  0.47615453  1
  O2-  O258  1  0.12102622  0.97690767  -0.01527397  1
  O2-  O259  1  0.13746653  0.97527508  0.47693511  1
  O2-  O260  1  0.61748320  0.49131699  -0.02781758  1
  O2-  O261  1  0.61368627  0.48074293  0.47994834  1
  O2-  O262  1  0.63646239  0.97907652  -0.02129023  1
  O2-  O263  1  0.62847622  0.98243993  0.47705900  1
  O2-  O264  1  0.36122331  0.02458967  0.01498196  1
  O2-  O265  1  0.36304022  0.03519812  0.51675448  1
  O2-  O266  1  0.38089394  0.52212481  0.01043702  1
  O2-  O267  1  0.37982212  0.52004723  0.51568670  1
  O2-  O268  1  0.87993039  0.01142902  0.01342117  1
  O2-  O269  1  0.86666285  0.01654672  0.52076544  1
  O2-  O270  1  0.86383289  0.51594481  0.02316910  1
  O2-  O271  1  0.86769730  0.52184252  0.51991682  1
  O2-  O272  1  0.48369313  0.38214980  0.01113335  1
  O2-  O273  1  0.47672776  0.38124948  0.51497643  1
  O2-  O274  1  0.47974209  0.85980429  0.02482806  1
  O2-  O275  1  0.47722445  0.86573157  0.52677063  1
  O2-  O276  1  0.97076215  0.36170091  0.01807029  1
  O2-  O277  1  0.97362848  0.36349481  0.53120009  1
  O2-  O278  1  0.98122732  0.87775426  0.01590581  1
  O2-  O279  1  0.97874505  0.86563403  0.53065233  1
  O2-  O280  1  0.01298377  0.11844776  -0.01829001  1
  O2-  O281  1  0.02061205  0.13580246  0.48021329  1
  O2-  O282  1  0.01471747  0.63639301  -0.02801374  1
  O2-  O283  1  0.02761756  0.63153900  0.47350697  1
  O2-  O284  1  0.52887601  0.13479713  -0.01838911  1
  O2-  O285  1  0.52817685  0.13607180  0.48876964  1
  O2-  O286  1  0.51148909  0.62291414  -0.02568426  1
  O2-  O287  1  0.51559103  0.61910267  0.48138720  1
  O2-  O288  1  0.11214645  0.26974295  0.02012556  1
  O2-  O289  1  0.11503992  0.27244064  0.52370311  1
  O2-  O290  1  0.12338336  0.77198774  -0.00188963  1
  O2-  O291  1  0.12092826  0.77840924  0.50071010  1
  O2-  O292  1  0.62911431  0.27056987  0.01807541  1
  O2-  O293  1  0.61162039  0.28383868  0.51484288  1
  O2-  O294  1  0.62296383  0.76747720  0.00646069  1
  O2-  O295  1  0.61215785  0.75843467  0.52427803  1
  O2-  O296  1  0.38899640  0.23172996  -0.02226731  1
  O2-  O297  1  0.38707493  0.23895188  0.47165283  1
  O2-  O298  1  0.36939445  0.73414018  -0.00537373  1
  O2-  O299  1  0.38662987  0.71969322  0.49936331  1
  O2-  O300  1  0.86716026  0.23160233  -0.01998178  1
  O2-  O301  1  0.88246347  0.22846549  0.48227120  1
  O2-  O302  1  0.87279241  0.73240607  -0.00972748  1
  O2-  O303  1  0.88423419  0.72080692  0.49685722  1
  O2-  O304  1  0.28233131  0.38250478  -0.01789180  1
  O2-  O305  1  0.27628666  0.38267932  0.47831517  1
  O2-  O306  1  0.26308915  0.87864937  -0.02000690  1
  O2-  O307  1  0.28637640  0.88864815  0.48651161  1
  O2-  O308  1  0.76223108  0.37930122  -0.01882569  1
  O2-  O309  1  0.76151531  0.38671951  0.46459287  1
  O2-  O310  1  0.76963561  0.87474379  -0.02123087  1
  O2-  O311  1  0.76545042  0.88226851  0.48090477  1
  O2-  O312  1  0.21488869  0.11132007  0.01135591  1
  O2-  O313  1  0.22108000  0.11518322  0.51240448  1
  O2-  O314  1  0.22761885  0.63628291  0.01475404  1
  O2-  O315  1  0.23717790  0.61662443  0.52215784  1
  O2-  O316  1  0.73208896  0.12825790  0.01541377  1
  O2-  O317  1  0.72708178  0.11910020  0.52849918  1
  O2-  O318  1  0.73395622  0.63069708  0.01852359  1
  O2-  O319  1  0.71655923  0.61208775  0.52319307  1
