# generated using pymatgen
data_Sr64Ca21Nb43O192
_symmetry_space_group_name_H-M   'P 1'
_cell_length_a   16.60409646
_cell_length_b   16.58621631
_cell_length_c   16.75661802
_cell_angle_alpha   89.96454632
_cell_angle_beta   90.04442063
_cell_angle_gamma   89.96613870
_symmetry_Int_Tables_number   1
_chemical_formula_structural   Sr64Ca21Nb43O192
_chemical_formula_sum   'Sr64 Ca21 Nb43 O192'
_cell_volume   4614.75503935
_cell_formula_units_Z   1
loop_
 _symmetry_equiv_pos_site_id
 _symmetry_equiv_pos_as_xyz
  1  'x, y, z'
loop_
 _atom_type_symbol
 _atom_type_oxidation_number
  Sr2+  2.0
  Ca2+  2.0
  Nb5+  5.0
  O2-  -2.0
loop_
 _atom_site_type_symbol
 _atom_site_label
 _atom_site_symmetry_multiplicity
 _atom_site_fract_x
 _atom_site_fract_y
 _atom_site_fract_z
 _atom_site_occupancy
  Sr2+  Sr0  1  0.13475706  0.11482084  0.12279113  1
  Sr2+  Sr1  1  0.12624828  0.12096673  0.63313574  1
  Sr2+  Sr2  1  0.12688869  0.60096925  0.12785479  1
  Sr2+  Sr3  1  0.13857330  0.63167467  0.61664051  1
  Sr2+  Sr4  1  0.62534795  0.12099557  0.11880853  1
  Sr2+  Sr5  1  0.63433227  0.12039612  0.62293573  1
  Sr2+  Sr6  1  0.62415241  0.64162809  0.12312260  1
  Sr2+  Sr7  1  0.62050710  0.61375495  0.62870916  1
  Sr2+  Sr8  1  0.37069686  0.36429748  0.11812055  1
  Sr2+  Sr9  1  0.37706396  0.35478860  0.62504228  1
  Sr2+  Sr10  1  0.37673569  0.86981527  0.12169155  1
  Sr2+  Sr11  1  0.37019228  0.86999468  0.62451314  1
  Sr2+  Sr12  1  0.87070870  0.38064428  0.12882283  1
  Sr2+  Sr13  1  0.88508866  0.36584748  0.62679699  1
  Sr2+  Sr14  1  0.87068514  0.87287918  0.11220223  1
  Sr2+  Sr15  1  0.87273199  0.87122253  0.62170498  1
  Sr2+  Sr16  1  0.10241126  0.37820672  0.37038003  1
  Sr2+  Sr17  1  0.10769514  0.37470099  0.87584178  1
  Sr2+  Sr18  1  0.11637061  0.87664870  0.37584044  1
  Sr2+  Sr19  1  0.10607934  0.87310911  0.88053368  1
  Sr2+  Sr20  1  0.64054674  0.37687199  0.38208490  1
  Sr2+  Sr21  1  0.62507745  0.38862299  0.87210984  1
  Sr2+  Sr22  1  0.62602568  0.87371713  0.36118095  1
  Sr2+  Sr23  1  0.63278686  0.87374028  0.85899046  1
  Sr2+  Sr24  1  0.38208555  0.12424227  0.37289679  1
  Sr2+  Sr25  1  0.36603413  0.12849622  0.87665527  1
  Sr2+  Sr26  1  0.37549138  0.62240527  0.37585849  1
  Sr2+  Sr27  1  0.38150480  0.62408582  0.87036838  1
  Sr2+  Sr28  1  0.86838030  0.13820187  0.37227892  1
  Sr2+  Sr29  1  0.87653734  0.13520142  0.87170974  1
  Sr2+  Sr30  1  0.89026097  0.62024217  0.38166610  1
  Sr2+  Sr31  1  0.88759483  0.62052131  0.87933612  1
  Sr2+  Sr32  1  0.12997536  0.12482451  0.36328383  1
  Sr2+  Sr33  1  0.12238300  0.13584640  0.87483221  1
  Sr2+  Sr34  1  0.12619911  0.61165265  0.37257972  1
  Sr2+  Sr35  1  0.12199772  0.61832128  0.89267807  1
  Sr2+  Sr36  1  0.62925476  0.13837546  0.37375704  1
  Sr2+  Sr37  1  0.62305684  0.12024047  0.87660691  1
  Sr2+  Sr38  1  0.62478267  0.61930083  0.37200062  1
  Sr2+  Sr39  1  0.63468774  0.61788415  0.86758081  1
  Sr2+  Sr40  1  0.38115608  0.37150388  0.37352403  1
  Sr2+  Sr41  1  0.37141093  0.36742934  0.87861943  1
  Sr2+  Sr42  1  0.37375226  0.86971753  0.37119907  1
  Sr2+  Sr43  1  0.38317048  0.87948479  0.86680994  1
  Sr2+  Sr44  1  0.86607090  0.37406686  0.37807408  1
  Sr2+  Sr45  1  0.86873322  0.38707101  0.86959337  1
  Sr2+  Sr46  1  0.87361885  0.87887567  0.36890568  1
  Sr2+  Sr47  1  0.86815108  0.86454311  0.87983089  1
  Sr2+  Sr48  1  0.13015510  0.37213092  0.12041201  1
  Sr2+  Sr49  1  0.12347522  0.37178363  0.63880248  1
  Sr2+  Sr50  1  0.09919530  0.87490667  0.13034382  1
  Sr2+  Sr51  1  0.11991665  0.87037660  0.62324175  1
  Sr2+  Sr52  1  0.62473885  0.38159748  0.13111456  1
  Sr2+  Sr53  1  0.63268378  0.37161403  0.62467137  1
  Sr2+  Sr54  1  0.65120303  0.87647179  0.12500666  1
  Sr2+  Sr55  1  0.64536071  0.87673724  0.62616166  1
  Sr2+  Sr56  1  0.37669189  0.12275507  0.11374652  1
  Sr2+  Sr57  1  0.37384069  0.11604415  0.61895303  1
  Sr2+  Sr58  1  0.37143609  0.62315569  0.12131461  1
  Sr2+  Sr59  1  0.36836666  0.62907198  0.62558618  1
  Sr2+  Sr60  1  0.87976684  0.11308250  0.12805773  1
  Sr2+  Sr61  1  0.88477094  0.11635267  0.63057707  1
  Sr2+  Sr62  1  0.87537783  0.63741755  0.11323844  1
  Sr2+  Sr63  1  0.89688888  0.62936302  0.62813656  1
  Ca2+  Ca64  1  0.00296959  0.00371445  -0.00266663  1
  Ca2+  Ca65  1  -0.00055489  0.00176481  0.49940052  1
  Ca2+  Ca66  1  0.00321620  0.49692304  0.50501110  1
  Ca2+  Ca67  1  -0.00379047  0.49518574  0.00321416  1
  Ca2+  Ca68  1  0.50521432  0.50062140  0.00382697  1
  Ca2+  Ca69  1  0.25015610  0.25021886  0.49568145  1
  Ca2+  Ca70  1  0.24897281  0.75014420  0.00436334  1
  Ca2+  Ca71  1  0.74356316  0.74544849  -0.00367376  1
  Ca2+  Ca72  1  0.74575333  0.74914737  0.49764968  1
  Ca2+  Ca73  1  0.74969435  0.25466351  -0.00298501  1
  Ca2+  Ca74  1  0.75285681  0.50129433  0.74473498  1
  Ca2+  Ca75  1  0.50121988  0.24695725  0.75083387  1
  Ca2+  Ca76  1  0.00303503  0.74557845  0.25202328  1
  Ca2+  Ca77  1  0.74847674  0.50362154  0.25154125  1
  Ca2+  Ca78  1  0.24698197  -0.00434885  0.75143416  1
  Ca2+  Ca79  1  -0.00120381  0.24933519  0.24790198  1
  Ca2+  Ca80  1  0.25213853  0.50049877  0.74867728  1
  Ca2+  Ca81  1  0.75320034  0.00220105  0.75268560  1
  Ca2+  Ca82  1  0.74561778  0.00399157  0.25259196  1
  Ca2+  Ca83  1  0.50250158  0.25136640  0.24653670  1
  Ca2+  Ca84  1  0.00538736  0.74887145  0.75059200  1
  Nb5+  Nb85  1  0.50056960  -0.00341287  -0.00551397  1
  Nb5+  Nb86  1  0.49850938  -0.00878844  0.49479035  1
  Nb5+  Nb87  1  0.49451624  0.49572617  0.50022080  1
  Nb5+  Nb88  1  0.24826090  0.24930318  -0.00103786  1
  Nb5+  Nb89  1  0.75291249  0.24941247  0.50364046  1
  Nb5+  Nb90  1  0.24987093  0.75325432  0.49598409  1
  Nb5+  Nb91  1  0.25430729  -0.00881967  0.24805375  1
  Nb5+  Nb92  1  0.25529020  0.49085754  0.25256730  1
  Nb5+  Nb93  1  0.49562210  0.75056144  0.24612750  1
  Nb5+  Nb94  1  0.50075378  0.75053414  0.74056488  1
  Nb5+  Nb95  1  -0.00150455  0.24896913  0.75083035  1
  Nb5+  Nb96  1  -0.00427824  0.00305862  0.25493212  1
  Nb5+  Nb97  1  -0.00069774  -0.00471329  0.75205907  1
  Nb5+  Nb98  1  -0.00757724  0.50241121  0.25023982  1
  Nb5+  Nb99  1  0.00661239  0.50452984  0.74758652  1
  Nb5+  Nb100  1  0.49675959  -0.00203029  0.24318898  1
  Nb5+  Nb101  1  0.49951292  -0.00033083  0.74096277  1
  Nb5+  Nb102  1  0.49786397  0.50195391  0.25050372  1
  Nb5+  Nb103  1  0.49374793  0.49556964  0.75073542  1
  Nb5+  Nb104  1  0.25543846  0.24297222  0.24945958  1
  Nb5+  Nb105  1  0.25133711  0.24745214  0.74513038  1
  Nb5+  Nb106  1  0.25007184  0.74418384  0.24942397  1
  Nb5+  Nb107  1  0.24935361  0.75041439  0.75799845  1
  Nb5+  Nb108  1  0.74635417  0.25286455  0.24187467  1
  Nb5+  Nb109  1  0.74726207  0.25408981  0.75305908  1
  Nb5+  Nb110  1  0.75451778  0.74565783  0.25520949  1
  Nb5+  Nb111  1  0.75597789  0.74497837  0.74816208  1
  Nb5+  Nb112  1  0.00558027  0.24820857  0.50017588  1
  Nb5+  Nb113  1  -0.00483501  0.24932771  1.00504494  1
  Nb5+  Nb114  1  -0.00273593  0.74864911  0.49716509  1
  Nb5+  Nb115  1  0.00131376  0.74884958  1.00110748  1
  Nb5+  Nb116  1  0.50215344  0.24178834  0.50174209  1
  Nb5+  Nb117  1  0.50323262  0.25196910  0.99467386  1
  Nb5+  Nb118  1  0.50080038  0.74872955  0.49523092  1
  Nb5+  Nb119  1  0.50193069  0.74927272  0.98717720  1
  Nb5+  Nb120  1  0.25089343  -0.00679820  -0.00211374  1
  Nb5+  Nb121  1  0.24735313  -0.00090771  0.49875520  1
  Nb5+  Nb122  1  0.25316588  0.50046262  -0.00172221  1
  Nb5+  Nb123  1  0.25472660  0.49501526  0.49819479  1
  Nb5+  Nb124  1  0.75444814  0.00620983  -0.00364550  1
  Nb5+  Nb125  1  0.75279405  0.00257403  0.49420871  1
  Nb5+  Nb126  1  0.74808980  0.49633140  0.00350019  1
  Nb5+  Nb127  1  0.75197503  0.50781781  0.50335446  1
  O2-  O128  1  -0.02066828  -0.01807293  0.13577779  1
  O2-  O129  1  -0.03150460  -0.01545508  0.63338363  1
  O2-  O130  1  0.01266056  0.47395895  0.13774753  1
  O2-  O131  1  0.00192016  0.46692225  0.63527368  1
  O2-  O132  1  0.47544485  0.00414411  0.13017220  1
  O2-  O133  1  0.47648840  0.00277246  0.62706692  1
  O2-  O134  1  0.51535066  0.52960465  0.14024643  1
  O2-  O135  1  0.49895949  0.51406278  0.61738431  1
  O2-  O136  1  0.03262334  0.01767960  0.36636650  1
  O2-  O137  1  0.03528177  0.01444263  0.86430004  1
  O2-  O138  1  -0.00025529  0.51702215  0.37033346  1
  O2-  O139  1  0.00568028  0.51875604  0.86767263  1
  O2-  O140  1  0.51067336  -0.01523960  0.38089345  1
  O2-  O141  1  0.51809908  -0.01119639  0.88138621  1
  O2-  O142  1  0.47703569  0.50073609  0.37867542  1
  O2-  O143  1  0.49595503  0.49608467  0.86591878  1
  O2-  O144  1  0.23037775  0.25108490  0.12174571  1
  O2-  O145  1  0.22735850  0.24901578  0.63234838  1
  O2-  O146  1  0.27906171  0.74745584  0.13907332  1
  O2-  O147  1  0.25984361  0.75920459  0.61452284  1
  O2-  O148  1  0.72408029  0.26229573  0.13027856  1
  O2-  O149  1  0.73150688  0.24758791  0.62085147  1
  O2-  O150  1  0.76271869  0.74953440  0.13500513  1
  O2-  O151  1  0.75824604  0.76263690  0.63167012  1
  O2-  O152  1  0.28315402  0.24404250  0.36177907  1
  O2-  O153  1  0.26402098  0.25100948  0.88013486  1
  O2-  O154  1  0.24391423  0.75677192  0.37489412  1
  O2-  O155  1  0.24406265  0.72773044  0.86896556  1
  O2-  O156  1  0.76365540  0.25110751  0.38274987  1
  O2-  O157  1  0.77773980  0.25461058  0.86327608  1
  O2-  O158  1  0.71551972  0.75056300  0.36645109  1
  O2-  O159  1  0.72347238  0.74673363  0.86353192  1
  O2-  O160  1  0.00775472  0.27962934  0.11474453  1
  O2-  O161  1  0.01056889  0.27119771  0.62993524  1
  O2-  O162  1  -0.02278624  0.76651286  0.11919752  1
  O2-  O163  1  -0.00561038  0.77777223  0.61527013  1
  O2-  O164  1  0.52616613  0.24061184  0.11066810  1
  O2-  O165  1  0.52374057  0.25798113  0.61556715  1
  O2-  O166  1  0.47770114  0.73616841  0.13428471  1
  O2-  O167  1  0.48059123  0.74187235  0.62513795  1
  O2-  O168  1  0.24033589  -0.00238805  0.37039288  1
  O2-  O169  1  0.22567879  -0.00874282  0.88790513  1
  O2-  O170  1  0.27024367  0.50733113  0.37170204  1
  O2-  O171  1  0.26449819  0.51189798  0.88527956  1
  O2-  O172  1  0.70930770  0.00487340  0.38598549  1
  O2-  O173  1  0.71717101  -0.00008528  0.88521001  1
  O2-  O174  1  0.75533278  0.48777861  0.38728500  1
  O2-  O175  1  0.74142097  0.49329944  0.88019462  1
  O2-  O176  1  -0.00663438  0.22193305  0.38728824  1
  O2-  O177  1  -0.00478028  0.22786143  0.86950256  1
  O2-  O178  1  0.01978095  0.71871871  0.38553794  1
  O2-  O179  1  0.01784993  0.72566642  0.88325333  1
  O2-  O180  1  0.48177305  0.25658602  0.38562991  1
  O2-  O181  1  0.46423564  0.24198395  0.88193280  1
  O2-  O182  1  0.50771825  0.76826426  0.38121880  1
  O2-  O183  1  0.51081435  0.77040086  0.87398711  1
  O2-  O184  1  0.27830060  0.00618724  0.13261969  1
  O2-  O185  1  0.27398307  0.00059516  0.61207841  1
  O2-  O186  1  0.24467027  0.49344842  0.13506947  1
  O2-  O187  1  0.23906431  0.50252592  0.61092333  1
  O2-  O188  1  0.76420232  0.00344877  0.11734566  1
  O2-  O189  1  0.75537794  0.00630134  0.61339118  1
  O2-  O190  1  0.74235683  0.48412687  0.12117040  1
  O2-  O191  1  0.72412483  0.49283193  0.61324295  1
  O2-  O192  1  0.14076167  0.27054708  0.26500406  1
  O2-  O193  1  0.12328078  0.26754431  0.76251719  1
  O2-  O194  1  0.14021110  0.77618323  0.24088651  1
  O2-  O195  1  0.13845467  0.78239813  0.74589613  1
  O2-  O196  1  0.63338254  0.27987702  0.27301727  1
  O2-  O197  1  0.63558919  0.28301854  0.76321882  1
  O2-  O198  1  0.60946794  0.77423006  0.23564366  1
  O2-  O199  1  0.61535712  0.77561190  0.73425930  1
  O2-  O200  1  0.36810912  0.23891356  0.21426824  1
  O2-  O201  1  0.36524915  0.22377643  0.72602907  1
  O2-  O202  1  0.37439142  0.74047181  0.27644249  1
  O2-  O203  1  0.38164146  0.73024544  0.76311030  1
  O2-  O204  1  0.86296120  0.21780650  0.23741580  1
  O2-  O205  1  0.88085874  0.22940414  0.73241406  1
  O2-  O206  1  0.86541560  0.72735486  0.27819178  1
  O2-  O207  1  0.86834973  0.71942016  0.75992840  1
  O2-  O208  1  0.27876972  0.37717802  0.25229826  1
  O2-  O209  1  0.27589925  0.36366682  0.75325244  1
  O2-  O210  1  0.27453171  0.87756655  0.24995997  1
  O2-  O211  1  0.28517321  0.86332093  0.75124343  1
  O2-  O212  1  0.78140090  0.36665902  0.25384087  1
  O2-  O213  1  0.78000362  0.36634862  0.73315811  1
  O2-  O214  1  0.76199581  0.86683885  0.25349949  1
  O2-  O215  1  0.77027101  0.86642664  0.75767540  1
  O2-  O216  1  0.23927276  0.12592472  0.24914159  1
  O2-  O217  1  0.23009361  0.13201385  0.76515991  1
  O2-  O218  1  0.23306590  0.62807995  0.25275612  1
  O2-  O219  1  0.24049563  0.63844111  0.72460349  1
  O2-  O220  1  0.71654925  0.13612200  0.25101565  1
  O2-  O221  1  0.72645928  0.13713911  0.74780500  1
  O2-  O222  1  0.71194216  0.63516793  0.24608428  1
  O2-  O223  1  0.71706262  0.63405670  0.73887192  1
  O2-  O224  1  0.13857216  0.48080166  0.26411419  1
  O2-  O225  1  0.12030394  0.46873083  0.75698212  1
  O2-  O226  1  0.13805994  0.98591556  0.23264264  1
  O2-  O227  1  0.11432120  0.98870090  0.71434891  1
  O2-  O228  1  0.60971438  0.48521352  0.27514676  1
  O2-  O229  1  0.61073108  0.48307409  0.74150973  1
  O2-  O230  1  0.60885967  0.97199469  0.23581737  1
  O2-  O231  1  0.61306547  0.96914501  0.73978198  1
  O2-  O232  1  0.37550874  0.01213223  0.27371678  1
  O2-  O233  1  0.38763023  0.01364836  0.77835098  1
  O2-  O234  1  0.37311230  0.52973700  0.24396547  1
  O2-  O235  1  0.38479788  0.53814038  0.74217968  1
  O2-  O236  1  0.88321026  0.01878690  0.27725697  1
  O2-  O237  1  0.88636907  0.02987439  0.77065237  1
  O2-  O238  1  0.88316977  0.53402709  0.23978241  1
  O2-  O239  1  0.88741889  0.52303155  0.74945772  1
  O2-  O240  1  0.47332407  0.39045342  0.23569241  1
  O2-  O241  1  0.46679154  0.38409499  0.74290254  1
  O2-  O242  1  0.47114394  0.87333051  0.24968675  1
  O2-  O243  1  0.47542291  0.87164418  0.74400020  1
  O2-  O244  1  0.98111234  0.38410164  0.27689100  1
  O2-  O245  1  0.98198457  0.36749827  0.76924979  1
  O2-  O246  1  0.99725689  0.88383089  0.27270050  1
  O2-  O247  1  0.98232298  0.88281790  0.77692115  1
  O2-  O248  1  0.02504185  0.11548192  0.22691701  1
  O2-  O249  1  0.01857762  0.13059656  0.73304749  1
  O2-  O250  1  0.03470125  0.61290212  0.23908458  1
  O2-  O251  1  0.02938219  0.61523849  0.72059561  1
  O2-  O252  1  0.51211767  0.11156774  0.26425920  1
  O2-  O253  1  0.52822608  0.11221896  0.74882180  1
  O2-  O254  1  0.50834023  0.63504050  0.27366804  1
  O2-  O255  1  0.52295788  0.63444784  0.75753114  1
  O2-  O256  1  0.13643410  0.47436428  0.00136558  1
  O2-  O257  1  0.14071839  0.48517664  0.47623587  1
  O2-  O258  1  0.14131629  0.98592878  0.03533811  1
  O2-  O259  1  0.13669824  0.97234004  0.51136304  1
  O2-  O260  1  0.63294844  0.45335179  0.00225730  1
  O2-  O261  1  0.61047943  0.48557325  0.48774756  1
  O2-  O262  1  0.61128401  0.98690319  0.02787377  1
  O2-  O263  1  0.61162081  0.98904390  0.52470475  1
  O2-  O264  1  0.37480659  0.02155648  -0.01251162  1
  O2-  O265  1  0.38137260  0.02487843  0.48587988  1
  O2-  O266  1  0.36878596  0.51063128  0.02123000  1
  O2-  O267  1  0.37495686  0.53285759  0.50467440  1
  O2-  O268  1  0.86618896  0.02652631  -0.02069689  1
  O2-  O269  1  0.86286438  0.02443602  0.47158778  1
  O2-  O270  1  0.86481353  0.53560718  0.00399355  1
  O2-  O271  1  0.86443333  0.52892636  0.51353718  1
  O2-  O272  1  0.47615410  0.36394461  0.00375777  1
  O2-  O273  1  0.47626777  0.38167798  0.50505052  1
  O2-  O274  1  0.47321241  0.87946275  0.00443931  1
  O2-  O275  1  0.47256851  0.87857423  0.50814893  1
  O2-  O276  1  0.98485475  0.36111655  -0.03206998  1
  O2-  O277  1  0.96829727  0.36150703  0.48790432  1
  O2-  O278  1  0.97990460  0.86946685  -0.02047640  1
  O2-  O279  1  0.98653252  0.86523425  0.46908281  1
  O2-  O280  1  0.03464095  0.13731057  0.01150455  1
  O2-  O281  1  0.01220692  0.13548564  0.53448232  1
  O2-  O282  1  0.02425569  0.63213472  0.02284491  1
  O2-  O283  1  0.01864249  0.63296126  0.52999070  1
  O2-  O284  1  0.50873163  0.11859771  -0.00230423  1
  O2-  O285  1  0.51721036  0.12545232  0.49577643  1
  O2-  O286  1  0.52467823  0.63626258  -0.02032570  1
  O2-  O287  1  0.51562041  0.63303224  0.48989822  1
  O2-  O288  1  0.13118063  0.26968189  -0.01309312  1
  O2-  O289  1  0.11617568  0.27689898  0.48884309  1
  O2-  O290  1  0.11675163  0.78228379  0.01067820  1
  O2-  O291  1  0.13265626  0.77103119  0.50529963  1
  O2-  O292  1  0.61235307  0.26053986  -0.04055139  1
  O2-  O293  1  0.62383492  0.26575272  0.48424805  1
  O2-  O294  1  0.60780218  0.77329843  0.02985174  1
  O2-  O295  1  0.60844400  0.77803654  0.51792003  1
  O2-  O296  1  0.36849175  0.23593642  0.01832909  1
  O2-  O297  1  0.38601758  0.23292446  0.52494514  1
  O2-  O298  1  0.38695294  0.72849058  -0.00603977  1
  O2-  O299  1  0.37571527  0.73856719  0.48981091  1
  O2-  O300  1  0.88524207  0.21623516  0.01365736  1
  O2-  O301  1  0.86799688  0.22884213  0.51665740  1
  O2-  O302  1  0.88041172  0.73123626  -0.01649767  1
  O2-  O303  1  0.88280876  0.72724770  0.49131843  1
  O2-  O304  1  0.27029505  0.37185024  0.00242892  1
  O2-  O305  1  0.28685391  0.38507775  0.49591321  1
  O2-  O306  1  0.28166573  0.88350521  0.00357257  1
  O2-  O307  1  0.27580714  0.87638015  0.49044339  1
  O2-  O308  1  0.79479082  0.38276104  -0.00001824  1
  O2-  O309  1  0.76104050  0.37061780  0.50539566  1
  O2-  O310  1  0.76227883  0.88501273  0.00005937  1
  O2-  O311  1  0.76884088  0.88680199  0.49434668  1
  O2-  O312  1  0.23955238  0.12722849  -0.00098012  1
  O2-  O313  1  0.22908008  0.11438547  0.49049190  1
  O2-  O314  1  0.22948409  0.61358531  0.01670665  1
  O2-  O315  1  0.23764421  0.63306328  0.49440991  1
  O2-  O316  1  0.71737258  0.11921536  0.00129280  1
  O2-  O317  1  0.72577480  0.12995800  0.49768278  1
  O2-  O318  1  0.71152822  0.61181915  0.00450979  1
  O2-  O319  1  0.71468748  0.61617209  0.49812691  1
