# generated using pymatgen
data_Sr64Ca21Nb43O192
_symmetry_space_group_name_H-M   'P 1'
_cell_length_a   16.58552366
_cell_length_b   16.55079338
_cell_length_c   16.71788298
_cell_angle_alpha   90.01040248
_cell_angle_beta   89.96247166
_cell_angle_gamma   89.97275337
_symmetry_Int_Tables_number   1
_chemical_formula_structural   Sr64Ca21Nb43O192
_chemical_formula_sum   'Sr64 Ca21 Nb43 O192'
_cell_volume   4589.11706864
_cell_formula_units_Z   1
loop_
 _symmetry_equiv_pos_site_id
 _symmetry_equiv_pos_as_xyz
  1  'x, y, z'
loop_
 _atom_type_symbol
 _atom_type_oxidation_number
  Sr2+  2.0
  Ca2+  2.0
  Nb5+  5.0
  O2-  -2.0
loop_
 _atom_site_type_symbol
 _atom_site_label
 _atom_site_symmetry_multiplicity
 _atom_site_fract_x
 _atom_site_fract_y
 _atom_site_fract_z
 _atom_site_occupancy
  Sr2+  Sr0  1  0.12790066  0.12279276  0.11896615  1
  Sr2+  Sr1  1  0.13432737  0.12150938  0.62509771  1
  Sr2+  Sr2  1  0.13179307  0.61226446  0.12825980  1
  Sr2+  Sr3  1  0.13012437  0.62089500  0.62819302  1
  Sr2+  Sr4  1  0.63695539  0.12378651  0.12971150  1
  Sr2+  Sr5  1  0.62487687  0.11146774  0.62385410  1
  Sr2+  Sr6  1  0.63078237  0.62317015  0.13224369  1
  Sr2+  Sr7  1  0.63083331  0.61562236  0.62552255  1
  Sr2+  Sr8  1  0.38208596  0.36280693  0.13053785  1
  Sr2+  Sr9  1  0.38266801  0.36288826  0.62413714  1
  Sr2+  Sr10  1  0.38523642  0.86434195  0.12640663  1
  Sr2+  Sr11  1  0.38112222  0.87433414  0.61803626  1
  Sr2+  Sr12  1  0.87610944  0.35600776  0.12080295  1
  Sr2+  Sr13  1  0.88450073  0.36689960  0.63124244  1
  Sr2+  Sr14  1  0.88539052  0.87175952  0.13086326  1
  Sr2+  Sr15  1  0.88581423  0.86641654  0.62854334  1
  Sr2+  Sr16  1  0.11454373  0.37982218  0.37873210  1
  Sr2+  Sr17  1  0.11444272  0.38679984  0.87855184  1
  Sr2+  Sr18  1  0.11622429  0.87988579  0.37852463  1
  Sr2+  Sr19  1  0.11435269  0.87752428  0.87297087  1
  Sr2+  Sr20  1  0.60992235  0.38108535  0.36877807  1
  Sr2+  Sr21  1  0.61178174  0.38125564  0.88118530  1
  Sr2+  Sr22  1  0.62554790  0.88126380  0.36939574  1
  Sr2+  Sr23  1  0.59994222  0.88321809  0.87562415  1
  Sr2+  Sr24  1  0.37077679  0.13635540  0.37262893  1
  Sr2+  Sr25  1  0.37961559  0.12511848  0.87459743  1
  Sr2+  Sr26  1  0.37064381  0.63395898  0.37107385  1
  Sr2+  Sr27  1  0.38326890  0.62926125  0.87962203  1
  Sr2+  Sr28  1  0.86310869  0.12755817  0.37578647  1
  Sr2+  Sr29  1  0.86139604  0.12260423  0.87784000  1
  Sr2+  Sr30  1  0.85943466  0.63482604  0.37551546  1
  Sr2+  Sr31  1  0.86984885  0.63188555  0.87033694  1
  Sr2+  Sr32  1  0.11682108  0.14075366  0.37610392  1
  Sr2+  Sr33  1  0.11484176  0.13332185  0.88189625  1
  Sr2+  Sr34  1  0.11861944  0.63529443  0.37410615  1
  Sr2+  Sr35  1  0.12740596  0.63931253  0.87803836  1
  Sr2+  Sr36  1  0.61824624  0.13732308  0.37075050  1
  Sr2+  Sr37  1  0.61509272  0.13329351  0.87960985  1
  Sr2+  Sr38  1  0.61880439  0.63393721  0.37572457  1
  Sr2+  Sr39  1  0.61825534  0.63490535  0.87767851  1
  Sr2+  Sr40  1  0.36825419  0.38622127  0.37423465  1
  Sr2+  Sr41  1  0.37285670  0.38833753  0.88061534  1
  Sr2+  Sr42  1  0.36484934  0.88808352  0.37185959  1
  Sr2+  Sr43  1  0.36999584  0.87184218  0.87643758  1
  Sr2+  Sr44  1  0.87374128  0.38582333  0.38048801  1
  Sr2+  Sr45  1  0.86218508  0.38449768  0.87141412  1
  Sr2+  Sr46  1  0.86845319  0.87747767  0.37868046  1
  Sr2+  Sr47  1  0.87030405  0.87553524  0.87562735  1
  Sr2+  Sr48  1  0.12885935  0.37010656  0.11998624  1
  Sr2+  Sr49  1  0.13607670  0.37309451  0.62857748  1
  Sr2+  Sr50  1  0.13535803  0.88137285  0.12482230  1
  Sr2+  Sr51  1  0.13423115  0.86887507  0.62205686  1
  Sr2+  Sr52  1  0.64198964  0.36245247  0.12287455  1
  Sr2+  Sr53  1  0.63601412  0.36511169  0.63103814  1
  Sr2+  Sr54  1  0.64015818  0.85876750  0.12368050  1
  Sr2+  Sr55  1  0.61062011  0.87574894  0.63019490  1
  Sr2+  Sr56  1  0.38534978  0.11164774  0.13221875  1
  Sr2+  Sr57  1  0.39182602  0.12146419  0.62615147  1
  Sr2+  Sr58  1  0.39205524  0.62073577  0.12632477  1
  Sr2+  Sr59  1  0.39293909  0.62018654  0.62538812  1
  Sr2+  Sr60  1  0.88119223  0.12213052  0.12010862  1
  Sr2+  Sr61  1  0.88097464  0.11651187  0.63023943  1
  Sr2+  Sr62  1  0.87265711  0.62967796  0.12348053  1
  Sr2+  Sr63  1  0.87419162  0.61929716  0.62513905  1
  Ca2+  Ca64  1  -0.00311562  0.50289469  -0.00131702  1
  Ca2+  Ca65  1  0.50223989  0.49794060  0.00352311  1
  Ca2+  Ca66  1  0.49744818  0.49907763  0.49917274  1
  Ca2+  Ca67  1  0.49933377  0.00046677  0.00517914  1
  Ca2+  Ca68  1  0.49784260  -0.00038069  0.49437756  1
  Ca2+  Ca69  1  0.75231600  0.24908433  0.50304839  1
  Ca2+  Ca70  1  0.25021889  0.24814194  0.00011807  1
  Ca2+  Ca71  1  0.75103630  0.74953292  -0.00360516  1
  Ca2+  Ca72  1  0.75083243  0.75426440  0.50470990  1
  Ca2+  Ca73  1  0.24921002  0.74946939  0.00414854  1
  Ca2+  Ca74  1  0.74840913  -0.00299981  0.74871033  1
  Ca2+  Ca75  1  0.75359248  0.00025548  0.24798453  1
  Ca2+  Ca76  1  0.75138696  0.49837053  0.25031459  1
  Ca2+  Ca77  1  0.00012247  0.25036241  0.25070346  1
  Ca2+  Ca78  1  0.00183586  0.74932451  0.25248358  1
  Ca2+  Ca79  1  0.24964365  -0.00046881  0.74878469  1
  Ca2+  Ca80  1  0.49924279  0.75176488  0.25255736  1
  Ca2+  Ca81  1  0.49673893  0.75030445  0.74984395  1
  Ca2+  Ca82  1  0.50060957  0.25269899  0.75183506  1
  Ca2+  Ca83  1  0.50045455  0.24918426  0.24849632  1
  Ca2+  Ca84  1  0.00152707  0.25203671  0.75157184  1
  Nb5+  Nb85  1  0.00087534  -0.00235675  0.00601702  1
  Nb5+  Nb86  1  -0.00080976  0.49779332  0.49961363  1
  Nb5+  Nb87  1  -0.00057478  -0.00300733  0.50444451  1
  Nb5+  Nb88  1  0.74994609  0.24812718  -0.00535951  1
  Nb5+  Nb89  1  0.24948799  0.25665355  0.50114164  1
  Nb5+  Nb90  1  0.25175520  0.75265450  0.49986858  1
  Nb5+  Nb91  1  0.24660580  0.50480780  0.25814557  1
  Nb5+  Nb92  1  0.24544921  0.00944191  0.25309390  1
  Nb5+  Nb93  1  0.75257430  0.50103472  0.74959773  1
  Nb5+  Nb94  1  -0.00073086  0.74932770  0.74981274  1
  Nb5+  Nb95  1  0.25364315  0.50180920  0.75533483  1
  Nb5+  Nb96  1  0.00243465  0.00427537  0.26003388  1
  Nb5+  Nb97  1  0.00472103  0.00338808  0.75510731  1
  Nb5+  Nb98  1  -0.00411022  0.49954615  0.24784995  1
  Nb5+  Nb99  1  0.00462343  0.50417440  0.74889647  1
  Nb5+  Nb100  1  0.50856384  -0.00495412  0.24688435  1
  Nb5+  Nb101  1  0.49643052  0.00288087  0.75107039  1
  Nb5+  Nb102  1  0.50455506  0.49628311  0.24472560  1
  Nb5+  Nb103  1  0.50758060  0.49947728  0.74745923  1
  Nb5+  Nb104  1  0.24636310  0.25751705  0.25044700  1
  Nb5+  Nb105  1  0.24967455  0.24970341  0.75559003  1
  Nb5+  Nb106  1  0.24541337  0.75704448  0.24804517  1
  Nb5+  Nb107  1  0.25175200  0.74840831  0.74755569  1
  Nb5+  Nb108  1  0.75621973  0.25202226  0.25746862  1
  Nb5+  Nb109  1  0.74705597  0.24399162  0.74976110  1
  Nb5+  Nb110  1  0.75240149  0.74940680  0.25132064  1
  Nb5+  Nb111  1  0.74616464  0.75430842  0.74751706  1
  Nb5+  Nb112  1  0.00004175  0.24269969  0.50632015  1
  Nb5+  Nb113  1  -0.00252429  0.25442716  0.99139040  1
  Nb5+  Nb114  1  0.00134908  0.74215696  0.50399114  1
  Nb5+  Nb115  1  0.00480624  0.75046362  1.00794890  1
  Nb5+  Nb116  1  0.50626053  0.25347445  0.49875733  1
  Nb5+  Nb117  1  0.49482490  0.24670339  1.00406440  1
  Nb5+  Nb118  1  0.50384733  0.75305055  0.49871666  1
  Nb5+  Nb119  1  0.50229456  0.75087000  1.00251946  1
  Nb5+  Nb120  1  0.25122370  -0.00126857  -0.00475318  1
  Nb5+  Nb121  1  0.24772355  0.00980696  0.49575144  1
  Nb5+  Nb122  1  0.25237627  0.50043561  0.01240960  1
  Nb5+  Nb123  1  0.24704596  0.50777482  0.50367378  1
  Nb5+  Nb124  1  0.74924461  -0.00670907  0.00198758  1
  Nb5+  Nb125  1  0.74572179  -0.00206528  0.50055257  1
  Nb5+  Nb126  1  0.75097483  0.50135796  0.00091139  1
  Nb5+  Nb127  1  0.74327175  0.49398709  0.49960860  1
  O2-  O128  1  -0.00413665  -0.01666253  0.12256016  1
  O2-  O129  1  -0.01187767  -0.01370134  0.61991101  1
  O2-  O130  1  -0.02185103  0.48033575  0.13609738  1
  O2-  O131  1  -0.01619260  0.49252941  0.62216624  1
  O2-  O132  1  0.46634544  -0.01544280  0.13591931  1
  O2-  O133  1  0.48455055  -0.01875809  0.63043014  1
  O2-  O134  1  0.46196986  0.48529707  0.13393880  1
  O2-  O135  1  0.46988116  0.48479907  0.63526995  1
  O2-  O136  1  0.01846901  0.01733968  0.37663653  1
  O2-  O137  1  0.01798540  0.00968744  0.87128648  1
  O2-  O138  1  0.02585697  0.51481960  0.38609493  1
  O2-  O139  1  0.02118985  0.52793576  0.86046783  1
  O2-  O140  1  0.52295538  0.01807710  0.36299355  1
  O2-  O141  1  0.51050588  0.02161457  0.86905621  1
  O2-  O142  1  0.52449127  0.51302685  0.36367150  1
  O2-  O143  1  0.51362015  0.52470661  0.86409502  1
  O2-  O144  1  0.21825346  0.24419539  0.13908695  1
  O2-  O145  1  0.22330832  0.24394750  0.61725730  1
  O2-  O146  1  0.21314342  0.74136750  0.13929405  1
  O2-  O147  1  0.22945293  0.73596130  0.61912753  1
  O2-  O148  1  0.73696475  0.23788874  0.11309551  1
  O2-  O149  1  0.71869159  0.23426084  0.63638740  1
  O2-  O150  1  0.73967260  0.72728888  0.13143829  1
  O2-  O151  1  0.74128136  0.71924244  0.63604776  1
  O2-  O152  1  0.27031492  0.26117273  0.38059005  1
  O2-  O153  1  0.28201626  0.26214347  0.86477454  1
  O2-  O154  1  0.26855349  0.75650390  0.38164226  1
  O2-  O155  1  0.25680771  0.75810788  0.86262166  1
  O2-  O156  1  0.78488581  0.26419983  0.36777613  1
  O2-  O157  1  0.77757941  0.26111407  0.87528649  1
  O2-  O158  1  0.77058425  0.76459857  0.36985773  1
  O2-  O159  1  0.77820402  0.75193958  0.86086546  1
  O2-  O160  1  0.01317828  0.26777722  0.11004513  1
  O2-  O161  1  0.02508829  0.27465424  0.61654541  1
  O2-  O162  1  0.01419251  0.78334061  0.11685157  1
  O2-  O163  1  0.01748320  0.77330621  0.62358282  1
  O2-  O164  1  0.51776368  0.28075588  0.11579698  1
  O2-  O165  1  0.51187779  0.27802252  0.61575087  1
  O2-  O166  1  0.51224204  0.77752800  0.11889001  1
  O2-  O167  1  0.49639413  0.77615726  0.61654085  1
  O2-  O168  1  0.22986779  -0.01955047  0.37569519  1
  O2-  O169  1  0.24365705  -0.03112208  0.88446569  1
  O2-  O170  1  0.22749181  0.48555021  0.37376971  1
  O2-  O171  1  0.23194828  0.48245302  0.86612548  1
  O2-  O172  1  0.74974013  -0.02776849  0.38217367  1
  O2-  O173  1  0.75787746  -0.01919928  0.88509454  1
  O2-  O174  1  0.73900160  0.46839129  0.38617845  1
  O2-  O175  1  0.73339430  0.47850577  0.86434278  1
  O2-  O176  1  -0.01711611  0.23127762  0.39006644  1
  O2-  O177  1  -0.01604017  0.21257305  0.88131599  1
  O2-  O178  1  -0.01372147  0.73368054  0.39013705  1
  O2-  O179  1  -0.00714860  0.72884941  0.86470978  1
  O2-  O180  1  0.48637147  0.22551022  0.38352837  1
  O2-  O181  1  0.49035367  0.22129803  0.88562948  1
  O2-  O182  1  0.48857805  0.72110221  0.38567454  1
  O2-  O183  1  0.49374712  0.72706320  0.88292164  1
  O2-  O184  1  0.24857836  0.02172210  0.13601850  1
  O2-  O185  1  0.25826368  0.01679181  0.61047961  1
  O2-  O186  1  0.26408683  0.51890404  0.12836077  1
  O2-  O187  1  0.26023376  0.51975007  0.61860474  1
  O2-  O188  1  0.76273911  0.03178512  0.11286511  1
  O2-  O189  1  0.76138468  0.03191738  0.61393116  1
  O2-  O190  1  0.77355557  0.51535831  0.11255272  1
  O2-  O191  1  0.75821496  0.52066017  0.62772394  1
  O2-  O192  1  0.13421254  0.26453433  0.28385529  1
  O2-  O193  1  0.13709520  0.28732657  0.76658207  1
  O2-  O194  1  0.13469088  0.76266650  0.28760692  1
  O2-  O195  1  0.12220873  0.75902335  0.75557324  1
  O2-  O196  1  0.63687234  0.27284838  0.26644990  1
  O2-  O197  1  0.63734381  0.28017977  0.77476969  1
  O2-  O198  1  0.63450062  0.77473145  0.26283827  1
  O2-  O199  1  0.63396338  0.77466747  0.76253848  1
  O2-  O200  1  0.35946643  0.22442945  0.23713445  1
  O2-  O201  1  0.36073315  0.23992409  0.71733802  1
  O2-  O202  1  0.35841264  0.72556179  0.23807808  1
  O2-  O203  1  0.36114694  0.71593033  0.73816475  1
  O2-  O204  1  0.86876266  0.22818004  0.22304294  1
  O2-  O205  1  0.86522828  0.24058241  0.72619831  1
  O2-  O206  1  0.87105104  0.71968039  0.23859771  1
  O2-  O207  1  0.88357343  0.73231945  0.72961371  1
  O2-  O208  1  0.26744570  0.37394380  0.24179572  1
  O2-  O209  1  0.26446952  0.38680090  0.72568215  1
  O2-  O210  1  0.26493195  0.87277302  0.23978693  1
  O2-  O211  1  0.26691284  0.86090269  0.72476903  1
  O2-  O212  1  0.77111419  0.36589206  0.22409102  1
  O2-  O213  1  0.76783997  0.38257165  0.73004040  1
  O2-  O214  1  0.77715178  0.86563260  0.22861422  1
  O2-  O215  1  0.77580892  0.86350546  0.72826982  1
  O2-  O216  1  0.22691245  0.12275615  0.27213432  1
  O2-  O217  1  0.21919963  0.13788921  0.76170031  1
  O2-  O218  1  0.22743236  0.61996527  0.26526953  1
  O2-  O219  1  0.22084531  0.61954377  0.75458503  1
  O2-  O220  1  0.72792062  0.13510455  0.26402699  1
  O2-  O221  1  0.73380776  0.13303735  0.77559656  1
  O2-  O222  1  0.72562475  0.63020718  0.27160711  1
  O2-  O223  1  0.72915327  0.61880430  0.76758351  1
  O2-  O224  1  0.13198334  0.47714389  0.22912279  1
  O2-  O225  1  0.12002009  0.48903300  0.72786315  1
  O2-  O226  1  0.12744400  0.97374638  0.24432842  1
  O2-  O227  1  0.11539188  0.96800312  0.73304033  1
  O2-  O228  1  0.61539409  0.47715140  0.21932000  1
  O2-  O229  1  0.62372234  0.48354678  0.72864178  1
  O2-  O230  1  0.61849800  0.97021648  0.22633427  1
  O2-  O231  1  0.61529926  0.97547146  0.73919763  1
  O2-  O232  1  0.36069173  0.01715594  0.27069665  1
  O2-  O233  1  0.37899315  0.03204866  0.75814319  1
  O2-  O234  1  0.36290493  0.51505758  0.27262089  1
  O2-  O235  1  0.36571662  0.52234039  0.76739670  1
  O2-  O236  1  0.88984779  0.02916747  0.25726031  1
  O2-  O237  1  0.88811860  0.01353942  0.75463648  1
  O2-  O238  1  0.88724514  0.52173184  0.27777241  1
  O2-  O239  1  0.87137231  0.52119839  0.75878057  1
  O2-  O240  1  0.47365498  0.38302021  0.27015851  1
  O2-  O241  1  0.47935673  0.38749921  0.77424615  1
  O2-  O242  1  0.47170013  0.88449241  0.27216093  1
  O2-  O243  1  0.47219737  0.88423970  0.77225381  1
  O2-  O244  1  0.99333366  0.38611809  0.28234530  1
  O2-  O245  1  0.98037028  0.39163450  0.76554040  1
  O2-  O246  1  0.98366589  0.88673947  0.26984921  1
  O2-  O247  1  0.98300201  0.86879254  0.76508078  1
  O2-  O248  1  0.03415205  0.11521848  0.23435548  1
  O2-  O249  1  0.02469013  0.11436815  0.72989544  1
  O2-  O250  1  0.03248682  0.61207337  0.24140876  1
  O2-  O251  1  0.00982649  0.62738503  0.72255734  1
  O2-  O252  1  0.51415609  0.11406276  0.22593375  1
  O2-  O253  1  0.52068817  0.11949702  0.72692890  1
  O2-  O254  1  0.50904971  0.61521084  0.22874134  1
  O2-  O255  1  0.51441870  0.61710863  0.72420591  1
  O2-  O256  1  0.13345798  0.47382799  0.01188235  1
  O2-  O257  1  0.12494778  0.48513066  0.51852275  1
  O2-  O258  1  0.12067029  0.97518105  0.00582956  1
  O2-  O259  1  0.12320706  0.98587146  0.50985879  1
  O2-  O260  1  0.63840357  0.46694276  0.01058990  1
  O2-  O261  1  0.63284139  0.47410747  0.52199625  1
  O2-  O262  1  0.63610884  0.97547944  0.00869886  1
  O2-  O263  1  0.63397073  0.97386015  0.51457598  1
  O2-  O264  1  0.36205832  0.02980995  -0.00674422  1
  O2-  O265  1  0.36057174  0.01551460  0.47388570  1
  O2-  O266  1  0.36270527  0.51561245  -0.02574671  1
  O2-  O267  1  0.35848992  0.51642828  0.47552324  1
  O2-  O268  1  0.88506726  0.01764100  -0.00914236  1
  O2-  O269  1  0.88834772  0.02607310  0.48636905  1
  O2-  O270  1  0.86476611  0.51220905  -0.03585939  1
  O2-  O271  1  0.88500854  0.52207500  0.48492727  1
  O2-  O272  1  0.48588808  0.36328465  -0.02672299  1
  O2-  O273  1  0.46667382  0.36488809  0.48092443  1
  O2-  O274  1  0.47273484  0.86794716  -0.02124789  1
  O2-  O275  1  0.46321623  0.86398910  0.48021066  1
  O2-  O276  1  0.97992403  0.36613386  -0.03269867  1
  O2-  O277  1  0.98797286  0.38015257  0.48695153  1
  O2-  O278  1  0.98250852  0.87820448  -0.02197198  1
  O2-  O279  1  0.98961819  0.88026379  0.48498691  1
  O2-  O280  1  0.01962203  0.11600687  0.01401856  1
  O2-  O281  1  0.02340007  0.12591557  0.52067106  1
  O2-  O282  1  0.02225018  0.63620354  0.02704595  1
  O2-  O283  1  0.02190907  0.62692151  0.51954724  1
  O2-  O284  1  0.53301139  0.13490276  0.02339481  1
  O2-  O285  1  0.51089054  0.13555358  0.52410329  1
  O2-  O286  1  0.52519358  0.63294417  0.02516824  1
  O2-  O287  1  0.51687954  0.63476689  0.52518751  1
  O2-  O288  1  0.11488758  0.26404774  -0.02650251  1
  O2-  O289  1  0.12684320  0.26240595  0.47887309  1
  O2-  O290  1  0.11510489  0.76895713  -0.02836902  1
  O2-  O291  1  0.12535993  0.76492391  0.48742762  1
  O2-  O292  1  0.63546641  0.26656139  -0.02078995  1
  O2-  O293  1  0.61812012  0.27379625  0.47686449  1
  O2-  O294  1  0.61921111  0.77710724  -0.01630635  1
  O2-  O295  1  0.61596519  0.77941569  0.48831002  1
  O2-  O296  1  0.38346112  0.22483789  0.02660988  1
  O2-  O297  1  0.36231863  0.23028364  0.51807715  1
  O2-  O298  1  0.38189430  0.72652102  0.01519625  1
  O2-  O299  1  0.36339163  0.72469666  0.51517015  1
  O2-  O300  1  0.87754918  0.22958645  0.01355100  1
  O2-  O301  1  0.88778308  0.23333771  0.53153745  1
  O2-  O302  1  0.88852157  0.73099558  0.00321104  1
  O2-  O303  1  0.88816137  0.73575488  0.52508603  1
  O2-  O304  1  0.27236019  0.38192905  0.02117373  1
  O2-  O305  1  0.25865214  0.37618880  0.51146876  1
  O2-  O306  1  0.26476031  0.88714392  0.03439928  1
  O2-  O307  1  0.25989284  0.87114269  0.51190129  1
  O2-  O308  1  0.77597164  0.36884230  0.00731632  1
  O2-  O309  1  0.78502919  0.38573101  0.52383329  1
  O2-  O310  1  0.77987878  0.88383648  0.02495447  1
  O2-  O311  1  0.78878910  0.88829090  0.51970536  1
  O2-  O312  1  0.21577173  0.11232015  -0.00936996  1
  O2-  O313  1  0.22720389  0.12523719  0.48314918  1
  O2-  O314  1  0.22316866  0.61403373  -0.00919742  1
  O2-  O315  1  0.22468399  0.62314003  0.48576087  1
  O2-  O316  1  0.74017214  0.12771141  -0.02347104  1
  O2-  O317  1  0.73617899  0.11516046  0.46887255  1
  O2-  O318  1  0.72625183  0.61262469  -0.01849493  1
  O2-  O319  1  0.73683256  0.61230696  0.48138747  1
