# generated using pymatgen
data_Sr64Ca21Nb43O192
_symmetry_space_group_name_H-M   'P 1'
_cell_length_a   16.55076777
_cell_length_b   16.54663613
_cell_length_c   16.68450198
_cell_angle_alpha   89.88537706
_cell_angle_beta   89.97832664
_cell_angle_gamma   90.01684995
_symmetry_Int_Tables_number   1
_chemical_formula_structural   Sr64Ca21Nb43O192
_chemical_formula_sum   'Sr64 Ca21 Nb43 O192'
_cell_volume   4569.20023130
_cell_formula_units_Z   1
loop_
 _symmetry_equiv_pos_site_id
 _symmetry_equiv_pos_as_xyz
  1  'x, y, z'
loop_
 _atom_type_symbol
 _atom_type_oxidation_number
  Sr2+  2.0
  Ca2+  2.0
  Nb5+  5.0
  O2-  -2.0
loop_
 _atom_site_type_symbol
 _atom_site_label
 _atom_site_symmetry_multiplicity
 _atom_site_fract_x
 _atom_site_fract_y
 _atom_site_fract_z
 _atom_site_occupancy
  Sr2+  Sr0  1  0.11669097  0.13851805  0.12773662  1
  Sr2+  Sr1  1  0.12026211  0.13493744  0.62426418  1
  Sr2+  Sr2  1  0.11755659  0.63632319  0.13126194  1
  Sr2+  Sr3  1  0.11408356  0.63602698  0.62094542  1
  Sr2+  Sr4  1  0.62740756  0.13899386  0.12448018  1
  Sr2+  Sr5  1  0.60977969  0.13263311  0.62247239  1
  Sr2+  Sr6  1  0.61395553  0.63422948  0.12242673  1
  Sr2+  Sr7  1  0.62328286  0.63742181  0.62537576  1
  Sr2+  Sr8  1  0.36975588  0.38668770  0.11962383  1
  Sr2+  Sr9  1  0.36137641  0.37852667  0.63025128  1
  Sr2+  Sr10  1  0.36950400  0.88079697  0.12979546  1
  Sr2+  Sr11  1  0.37242776  0.88752704  0.62511844  1
  Sr2+  Sr12  1  0.86992418  0.37119835  0.12071057  1
  Sr2+  Sr13  1  0.87100070  0.39251505  0.62431241  1
  Sr2+  Sr14  1  0.87006700  0.89591606  0.12602050  1
  Sr2+  Sr15  1  0.86551535  0.87694296  0.62602344  1
  Sr2+  Sr16  1  0.13812649  0.36727555  0.37143323  1
  Sr2+  Sr17  1  0.12731903  0.36811767  0.88536048  1
  Sr2+  Sr18  1  0.13047847  0.86149995  0.37302701  1
  Sr2+  Sr19  1  0.13440361  0.86999279  0.87313640  1
  Sr2+  Sr20  1  0.62839859  0.37068067  0.38096165  1
  Sr2+  Sr21  1  0.63516776  0.37087339  0.87142480  1
  Sr2+  Sr22  1  0.63587332  0.87494082  0.37286525  1
  Sr2+  Sr23  1  0.63126766  0.86585570  0.87875092  1
  Sr2+  Sr24  1  0.39026087  0.12496373  0.37889623  1
  Sr2+  Sr25  1  0.38285404  0.11327974  0.87540879  1
  Sr2+  Sr26  1  0.36976359  0.61487542  0.37122246  1
  Sr2+  Sr27  1  0.38464575  0.62108883  0.87141642  1
  Sr2+  Sr28  1  0.88772214  0.10950271  0.36949368  1
  Sr2+  Sr29  1  0.89064196  0.12271831  0.87708349  1
  Sr2+  Sr30  1  0.88923048  0.62664628  0.38223483  1
  Sr2+  Sr31  1  0.88667246  0.61183064  0.87124208  1
  Sr2+  Sr32  1  0.13535705  0.12731392  0.37261554  1
  Sr2+  Sr33  1  0.13026486  0.10374474  0.87800324  1
  Sr2+  Sr34  1  0.13013346  0.60885116  0.37414919  1
  Sr2+  Sr35  1  0.12404528  0.63452878  0.88148502  1
  Sr2+  Sr36  1  0.62981161  0.11226401  0.37768769  1
  Sr2+  Sr37  1  0.63699181  0.12423216  0.86910914  1
  Sr2+  Sr38  1  0.63198217  0.62282491  0.36773868  1
  Sr2+  Sr39  1  0.62776403  0.61365115  0.87307235  1
  Sr2+  Sr40  1  0.37154015  0.36113070  0.37610766  1
  Sr2+  Sr41  1  0.38838891  0.36706045  0.87755492  1
  Sr2+  Sr42  1  0.39139110  0.86661684  0.37574540  1
  Sr2+  Sr43  1  0.37513858  0.85961713  0.87032214  1
  Sr2+  Sr44  1  0.88582755  0.36130284  0.37322148  1
  Sr2+  Sr45  1  0.87875021  0.36589674  0.87218991  1
  Sr2+  Sr46  1  0.87705987  0.86659229  0.37756623  1
  Sr2+  Sr47  1  0.89138353  0.85974676  0.87155782  1
  Sr2+  Sr48  1  0.11042335  0.38426753  0.13131912  1
  Sr2+  Sr49  1  0.11587667  0.37485985  0.61641062  1
  Sr2+  Sr50  1  0.11447253  0.87284371  0.12618836  1
  Sr2+  Sr51  1  0.11499848  0.89055428  0.62730674  1
  Sr2+  Sr52  1  0.61090443  0.37803829  0.12116077  1
  Sr2+  Sr53  1  0.61588288  0.38820007  0.62783820  1
  Sr2+  Sr54  1  0.61810573  0.88578621  0.12489328  1
  Sr2+  Sr55  1  0.61531240  0.87976683  0.62501783  1
  Sr2+  Sr56  1  0.36645836  0.13327461  0.12068475  1
  Sr2+  Sr57  1  0.36178953  0.12727653  0.62742661  1
  Sr2+  Sr58  1  0.36091518  0.62869393  0.13184304  1
  Sr2+  Sr59  1  0.36886247  0.63595173  0.62452020  1
  Sr2+  Sr60  1  0.87186151  0.13138205  0.13245356  1
  Sr2+  Sr61  1  0.86612598  0.13199598  0.61941968  1
  Sr2+  Sr62  1  0.86517761  0.62997511  0.11217689  1
  Sr2+  Sr63  1  0.86053549  0.63308729  0.62536386  1
  Ca2+  Ca64  1  0.00176877  -0.00074105  0.49859465  1
  Ca2+  Ca65  1  0.00043688  -0.00015884  0.00170806  1
  Ca2+  Ca66  1  0.50036854  -0.00035067  -0.00136630  1
  Ca2+  Ca67  1  0.49847407  0.50361766  0.50058984  1
  Ca2+  Ca68  1  -0.00038795  0.49865222  0.49917149  1
  Ca2+  Ca69  1  0.75163027  0.75079334  -0.00298603  1
  Ca2+  Ca70  1  0.25256648  0.75050455  0.49910196  1
  Ca2+  Ca71  1  0.25259199  0.74978466  0.00153730  1
  Ca2+  Ca72  1  0.24988793  0.24876217  -0.00272773  1
  Ca2+  Ca73  1  0.74837513  0.25211814  0.50017453  1
  Ca2+  Ca74  1  0.74965290  0.50072564  0.24757498  1
  Ca2+  Ca75  1  0.50113736  0.74959837  0.25102779  1
  Ca2+  Ca76  1  -0.00441335  0.75033072  0.25009168  1
  Ca2+  Ca77  1  0.24741828  0.50116713  0.75344474  1
  Ca2+  Ca78  1  0.25351921  0.00127954  0.25339864  1
  Ca2+  Ca79  1  0.74908964  0.00025203  0.74919986  1
  Ca2+  Ca80  1  -0.00063459  0.25086908  0.25203506  1
  Ca2+  Ca81  1  0.50115968  0.25094971  0.24967846  1
  Ca2+  Ca82  1  0.49823752  0.24983255  0.74975183  1
  Ca2+  Ca83  1  -0.00022117  0.24958266  0.74879361  1
  Ca2+  Ca84  1  -0.00071099  0.74722233  0.74785605  1
  Nb5+  Nb85  1  0.49551914  0.50291523  0.00096799  1
  Nb5+  Nb86  1  -0.00545688  0.49962084  0.00150692  1
  Nb5+  Nb87  1  0.50031325  0.00027245  0.50046683  1
  Nb5+  Nb88  1  0.75029769  0.24830118  -0.00222061  1
  Nb5+  Nb89  1  0.25041593  0.24855515  0.50223786  1
  Nb5+  Nb90  1  0.74714851  0.75054864  0.49811201  1
  Nb5+  Nb91  1  0.75027828  0.50097672  0.74907177  1
  Nb5+  Nb92  1  0.74861945  0.00127502  0.24896786  1
  Nb5+  Nb93  1  0.50063480  0.75063516  0.75033927  1
  Nb5+  Nb94  1  0.24755386  0.49678554  0.24810212  1
  Nb5+  Nb95  1  0.25017861  0.00039357  0.75038359  1
  Nb5+  Nb96  1  0.00909656  -0.00300392  0.25229354  1
  Nb5+  Nb97  1  -0.00739697  0.00327993  0.74708691  1
  Nb5+  Nb98  1  -0.01040614  0.50413626  0.24895674  1
  Nb5+  Nb99  1  0.00895797  0.49442550  0.75016329  1
  Nb5+  Nb100  1  0.50075057  0.00588080  0.24415617  1
  Nb5+  Nb101  1  0.50129650  -0.00266231  0.75383756  1
  Nb5+  Nb102  1  0.49955558  0.49421203  0.25592326  1
  Nb5+  Nb103  1  0.49793146  0.50317119  0.74732025  1
  Nb5+  Nb104  1  0.25356162  0.25006205  0.24296827  1
  Nb5+  Nb105  1  0.24683589  0.25011932  0.75574770  1
  Nb5+  Nb106  1  0.25294449  0.75413789  0.25484391  1
  Nb5+  Nb107  1  0.24513584  0.75048578  0.74141504  1
  Nb5+  Nb108  1  0.74718477  0.25218710  0.25622201  1
  Nb5+  Nb109  1  0.75092778  0.25072128  0.74327879  1
  Nb5+  Nb110  1  0.75200857  0.75221941  0.24155894  1
  Nb5+  Nb111  1  0.74946537  0.75001637  0.75462771  1
  Nb5+  Nb112  1  -0.00550057  0.24528391  0.49750434  1
  Nb5+  Nb113  1  0.00380334  0.25019615  1.00009886  1
  Nb5+  Nb114  1  0.00434485  0.75391080  0.50315550  1
  Nb5+  Nb115  1  -0.00290350  0.75148424  1.00299447  1
  Nb5+  Nb116  1  0.49758811  0.25918660  0.50783169  1
  Nb5+  Nb117  1  0.50258751  0.24335650  0.99341133  1
  Nb5+  Nb118  1  0.50414272  0.74771219  0.49751298  1
  Nb5+  Nb119  1  0.49642080  0.75132386  1.00552318  1
  Nb5+  Nb120  1  0.24955048  -0.00425516  0.00881439  1
  Nb5+  Nb121  1  0.25160216  -0.00295571  0.49572516  1
  Nb5+  Nb122  1  0.24225063  0.50284836  -0.00199464  1
  Nb5+  Nb123  1  0.24645833  0.50017065  0.50617940  1
  Nb5+  Nb124  1  0.75410960  -0.00007980  -0.00907903  1
  Nb5+  Nb125  1  0.74924496  0.00204068  0.50376174  1
  Nb5+  Nb126  1  0.74369137  0.49659458  0.00091032  1
  Nb5+  Nb127  1  0.75231235  0.50189219  0.49201698  1
  O2-  O128  1  0.01543033  0.02586452  0.13566409  1
  O2-  O129  1  0.02859981  0.01477649  0.63404143  1
  O2-  O130  1  0.01865683  0.51454567  0.11918085  1
  O2-  O131  1  0.02719181  0.51047436  0.63705744  1
  O2-  O132  1  0.53033437  0.01933979  0.13413733  1
  O2-  O133  1  0.51824977  0.00693961  0.62483883  1
  O2-  O134  1  0.52014265  0.51590682  0.11591544  1
  O2-  O135  1  0.52438783  0.52041710  0.63651104  1
  O2-  O136  1  -0.02645725  -0.01955686  0.36464678  1
  O2-  O137  1  -0.01964978  -0.01785645  0.86573779  1
  O2-  O138  1  -0.03028538  0.48828973  0.36263161  1
  O2-  O139  1  -0.01532237  0.48159266  0.88263088  1
  O2-  O140  1  0.48461471  -0.01444770  0.38315241  1
  O2-  O141  1  0.47190285  -0.02123397  0.86401086  1
  O2-  O142  1  0.47408909  0.47622178  0.36606148  1
  O2-  O143  1  0.48521825  0.49363117  0.87645732  1
  O2-  O144  1  0.27983017  0.26396503  0.13155918  1
  O2-  O145  1  0.27348290  0.25728712  0.62124578  1
  O2-  O146  1  0.27647450  0.76256920  0.13727561  1
  O2-  O147  1  0.28578921  0.76498040  0.63135497  1
  O2-  O148  1  0.76978292  0.25454113  0.11788456  1
  O2-  O149  1  0.78297154  0.26767652  0.63334207  1
  O2-  O150  1  0.78320462  0.76796324  0.13271036  1
  O2-  O151  1  0.76296586  0.75825955  0.62865155  1
  O2-  O152  1  0.23546118  0.24370385  0.38089863  1
  O2-  O153  1  0.21202405  0.23429212  0.86464223  1
  O2-  O154  1  0.22871028  0.72230961  0.36804291  1
  O2-  O155  1  0.23306697  0.74493162  0.85996206  1
  O2-  O156  1  0.71467675  0.24081175  0.36622341  1
  O2-  O157  1  0.72697532  0.24433778  0.87825427  1
  O2-  O158  1  0.72242264  0.74307338  0.38375721  1
  O2-  O159  1  0.71623690  0.73588259  0.86497935  1
  O2-  O160  1  -0.02456302  0.23898750  0.11514133  1
  O2-  O161  1  -0.01254977  0.21764665  0.61436757  1
  O2-  O162  1  -0.01790990  0.71834221  0.11575533  1
  O2-  O163  1  -0.01749149  0.71770801  0.61599273  1
  O2-  O164  1  0.49082197  0.22588692  0.11042524  1
  O2-  O165  1  0.48153386  0.21800634  0.61767448  1
  O2-  O166  1  0.48190396  0.72160958  0.11545344  1
  O2-  O167  1  0.49132323  0.73121249  0.62730508  1
  O2-  O168  1  0.26945503  0.03219331  0.38672457  1
  O2-  O169  1  0.26519840  0.01894456  0.86523306  1
  O2-  O170  1  0.26146179  0.50855751  0.36837221  1
  O2-  O171  1  0.25322186  0.53667627  0.88773258  1
  O2-  O172  1  0.75577779  0.01213043  0.37703774  1
  O2-  O173  1  0.76476179  0.03273636  0.88179652  1
  O2-  O174  1  0.76298604  0.53513244  0.38307171  1
  O2-  O175  1  0.76129236  0.51439228  0.87611271  1
  O2-  O176  1  0.01638211  0.28104300  0.38432810  1
  O2-  O177  1  0.00724354  0.28037741  0.88601805  1
  O2-  O178  1  0.00503254  0.77815215  0.38592376  1
  O2-  O179  1  0.02382269  0.76404641  0.88379994  1
  O2-  O180  1  0.50960278  0.27485808  0.38978692  1
  O2-  O181  1  0.51755762  0.28105505  0.88152414  1
  O2-  O182  1  0.52151908  0.77568803  0.38667632  1
  O2-  O183  1  0.51570280  0.76987335  0.86830261  1
  O2-  O184  1  0.23814983  -0.03338027  0.11932629  1
  O2-  O185  1  0.24306779  -0.01262060  0.62153551  1
  O2-  O186  1  0.24090818  0.47271731  0.12718266  1
  O2-  O187  1  0.23648882  0.47255147  0.61758994  1
  O2-  O188  1  0.73427956  -0.01459340  0.13158279  1
  O2-  O189  1  0.73731847  -0.02663137  0.61575645  1
  O2-  O190  1  0.73819787  0.46973251  0.11335667  1
  O2-  O191  1  0.73447162  0.48530460  0.63246840  1
  O2-  O192  1  0.13582168  0.27320144  0.23554367  1
  O2-  O193  1  0.13577422  0.26430852  0.71573032  1
  O2-  O194  1  0.13480747  0.76731586  0.23251181  1
  O2-  O195  1  0.13400321  0.77313930  0.72044972  1
  O2-  O196  1  0.63577839  0.26499100  0.21799680  1
  O2-  O197  1  0.63485264  0.28007550  0.73404067  1
  O2-  O198  1  0.63594331  0.77931448  0.23370602  1
  O2-  O199  1  0.62221966  0.76483912  0.72969125  1
  O2-  O200  1  0.36666023  0.23394931  0.27560851  1
  O2-  O201  1  0.36243944  0.22040598  0.76859887  1
  O2-  O202  1  0.36857660  0.72361215  0.27116968  1
  O2-  O203  1  0.38194665  0.73300892  0.76522852  1
  O2-  O204  1  0.86194104  0.22138415  0.26626778  1
  O2-  O205  1  0.86202407  0.23398367  0.78025176  1
  O2-  O206  1  0.86009961  0.73758510  0.28596666  1
  O2-  O207  1  0.86211047  0.72363042  0.76890739  1
  O2-  O208  1  0.26903614  0.37524132  0.26481392  1
  O2-  O209  1  0.27529517  0.36325472  0.76712193  1
  O2-  O210  1  0.27219030  0.86570780  0.28095219  1
  O2-  O211  1  0.27071784  0.87895579  0.75774501  1
  O2-  O212  1  0.77497565  0.36501625  0.26580930  1
  O2-  O213  1  0.76535686  0.38216555  0.76579432  1
  O2-  O214  1  0.76635201  0.88058583  0.26668341  1
  O2-  O215  1  0.76969951  0.86401917  0.76840041  1
  O2-  O216  1  0.22868290  0.13532823  0.23235142  1
  O2-  O217  1  0.23330060  0.11883649  0.73059359  1
  O2-  O218  1  0.23506298  0.61471680  0.23287620  1
  O2-  O219  1  0.23158161  0.63560509  0.72425773  1
  O2-  O220  1  0.72743057  0.12045276  0.24076406  1
  O2-  O221  1  0.72383553  0.13753968  0.73003952  1
  O2-  O222  1  0.72490887  0.63843064  0.23053771  1
  O2-  O223  1  0.72780221  0.62171717  0.73781564  1
  O2-  O224  1  0.12903708  0.47868937  0.26056606  1
  O2-  O225  1  0.11676752  0.46372413  0.77257642  1
  O2-  O226  1  0.12021121  0.97300415  0.27064591  1
  O2-  O227  1  0.13379761  0.97858269  0.76381887  1
  O2-  O228  1  0.61547577  0.47508289  0.27017151  1
  O2-  O229  1  0.62540682  0.48776255  0.77015275  1
  O2-  O230  1  0.62646155  0.98336869  0.26866780  1
  O2-  O231  1  0.61442171  0.97093270  0.76820016  1
  O2-  O232  1  0.38638325  0.02496015  0.22692946  1
  O2-  O233  1  0.37570546  0.01233130  0.72953883  1
  O2-  O234  1  0.37255684  0.51343564  0.23197114  1
  O2-  O235  1  0.38422031  0.52905866  0.73745705  1
  O2-  O236  1  0.86603568  0.01884348  0.23774434  1
  O2-  O237  1  0.88166859  0.02781895  0.72589271  1
  O2-  O238  1  0.88172177  0.53199706  0.22285994  1
  O2-  O239  1  0.86748657  0.52170388  0.73763085  1
  O2-  O240  1  0.48410532  0.38400541  0.21492769  1
  O2-  O241  1  0.47920387  0.38869238  0.73575201  1
  O2-  O242  1  0.48075858  0.88726054  0.23926785  1
  O2-  O243  1  0.48314430  0.86980495  0.72978691  1
  O2-  O244  1  0.98150715  0.38736396  0.22614787  1
  O2-  O245  1  0.96536896  0.38523676  0.73920416  1
  O2-  O246  1  0.98239941  0.88437411  0.21967240  1
  O2-  O247  1  0.97920494  0.88276950  0.73152076  1
  O2-  O248  1  0.01845186  0.11651127  0.27388408  1
  O2-  O249  1  0.02247253  0.11574870  0.77576097  1
  O2-  O250  1  0.02857961  0.61499956  0.26387829  1
  O2-  O251  1  0.01602748  0.61027507  0.77673170  1
  O2-  O252  1  0.51796106  0.11691506  0.28155988  1
  O2-  O253  1  0.52042813  0.11163769  0.76549740  1
  O2-  O254  1  0.51856669  0.61196823  0.26190619  1
  O2-  O255  1  0.51887385  0.62972622  0.76849296  1
  O2-  O256  1  0.12557077  0.48200691  -0.00971623  1
  O2-  O257  1  0.13391328  0.47674399  0.47386244  1
  O2-  O258  1  0.13514640  0.97903650  -0.02433971  1
  O2-  O259  1  0.13914476  0.97391313  0.48275645  1
  O2-  O260  1  0.62699443  0.48370998  -0.01906451  1
  O2-  O261  1  0.63532825  0.47895475  0.49052791  1
  O2-  O262  1  0.63709800  0.97679902  -0.01084617  1
  O2-  O263  1  0.62216868  0.98012672  0.48681592  1
  O2-  O264  1  0.36606436  0.02868536  0.01321670  1
  O2-  O265  1  0.38261843  0.01795166  0.51925785  1
  O2-  O266  1  0.37952456  0.51824208  0.01308813  1
  O2-  O267  1  0.36325773  0.52464668  0.50812571  1
  O2-  O268  1  0.86363214  0.02410492  0.02770399  1
  O2-  O269  1  0.86364817  0.02168010  0.51157405  1
  O2-  O270  1  0.87515453  0.51109671  0.01277568  1
  O2-  O271  1  0.86421848  0.51985862  0.52853232  1
  O2-  O272  1  0.48692927  0.38262418  0.01317807  1
  O2-  O273  1  0.47626218  0.36936229  0.53361356  1
  O2-  O274  1  0.47840885  0.86513571  0.02301884  1
  O2-  O275  1  0.48682152  0.87591777  0.51940874  1
  O2-  O276  1  0.98447191  0.37979954  0.01957691  1
  O2-  O277  1  0.98521638  0.36286313  0.52824232  1
  O2-  O278  1  0.97730507  0.86439738  0.02097075  1
  O2-  O279  1  0.97180681  0.86623642  0.52626462  1
  O2-  O280  1  0.01548550  0.13676210  -0.02097489  1
  O2-  O281  1  0.02862857  0.13301172  0.47458823  1
  O2-  O282  1  0.01338231  0.61563186  -0.01840214  1
  O2-  O283  1  0.01637126  0.63505137  0.47475964  1
  O2-  O284  1  0.52495555  0.13308857  -0.03215899  1
  O2-  O285  1  0.51915162  0.11877253  0.48644299  1
  O2-  O286  1  0.52102632  0.62149574  -0.01840158  1
  O2-  O287  1  0.53480346  0.63636905  0.48511498  1
  O2-  O288  1  0.11555165  0.27228005  0.02421340  1
  O2-  O289  1  0.13321905  0.26401016  0.51599245  1
  O2-  O290  1  0.11658687  0.75566169  0.02267164  1
  O2-  O291  1  0.11730204  0.77480242  0.52145990  1
  O2-  O292  1  0.62793685  0.26953853  0.01558340  1
  O2-  O293  1  0.61390683  0.27043023  0.52611223  1
  O2-  O294  1  0.61551651  0.76608695  0.01719491  1
  O2-  O295  1  0.62808774  0.77038998  0.52484459  1
  O2-  O296  1  0.38631009  0.23523290  -0.02451485  1
  O2-  O297  1  0.37468799  0.23337665  0.48377188  1
  O2-  O298  1  0.38640735  0.72950038  -0.03045004  1
  O2-  O299  1  0.39041615  0.72706273  0.48391369  1
  O2-  O300  1  0.86901260  0.23781667  -0.01960300  1
  O2-  O301  1  0.88197596  0.22568941  0.47387764  1
  O2-  O302  1  0.88389675  0.72442088  -0.02838086  1
  O2-  O303  1  0.86452544  0.73337762  0.48866405  1
  O2-  O304  1  0.27243227  0.38857737  -0.02189236  1
  O2-  O305  1  0.27085487  0.37038892  0.49053935  1
  O2-  O306  1  0.27637452  0.88406784  -0.02257983  1
  O2-  O307  1  0.28378451  0.88645617  0.48198352  1
  O2-  O308  1  0.76514777  0.37326398  -0.01793692  1
  O2-  O309  1  0.77399651  0.38768354  0.47496166  1
  O2-  O310  1  0.77820047  0.88692770  -0.02482807  1
  O2-  O311  1  0.76409965  0.87237776  0.48656575  1
  O2-  O312  1  0.22418313  0.11500949  0.02166563  1
  O2-  O313  1  0.23856410  0.12740565  0.51743451  1
  O2-  O314  1  0.23822679  0.61382763  0.03528596  1
  O2-  O315  1  0.22286912  0.61391360  0.51823350  1
  O2-  O316  1  0.72763358  0.13056313  0.00932157  1
  O2-  O317  1  0.72266095  0.11505396  0.51824420  1
  O2-  O318  1  0.73469757  0.61202844  0.02041015  1
  O2-  O319  1  0.73068627  0.63013532  0.51759321  1
