# generated using pymatgen
data_Sr64Ca21Nb43O192
_symmetry_space_group_name_H-M   'P 1'
_cell_length_a   16.56182897
_cell_length_b   16.56064204
_cell_length_c   16.70016687
_cell_angle_alpha   89.98505736
_cell_angle_beta   89.99152975
_cell_angle_gamma   90.02013890
_symmetry_Int_Tables_number   1
_chemical_formula_structural   Sr64Ca21Nb43O192
_chemical_formula_sum   'Sr64 Ca21 Nb43 O192'
_cell_volume   4580.42978101
_cell_formula_units_Z   1
loop_
 _symmetry_equiv_pos_site_id
 _symmetry_equiv_pos_as_xyz
  1  'x, y, z'
loop_
 _atom_type_symbol
 _atom_type_oxidation_number
  Sr2+  2.0
  Ca2+  2.0
  Nb5+  5.0
  O2-  -2.0
loop_
 _atom_site_type_symbol
 _atom_site_label
 _atom_site_symmetry_multiplicity
 _atom_site_fract_x
 _atom_site_fract_y
 _atom_site_fract_z
 _atom_site_occupancy
  Sr2+  Sr0  1  0.11504442  0.13578056  0.12378782  1
  Sr2+  Sr1  1  0.11939245  0.13261668  0.62598760  1
  Sr2+  Sr2  1  0.12542282  0.61955957  0.12218699  1
  Sr2+  Sr3  1  0.12063019  0.62564049  0.62468845  1
  Sr2+  Sr4  1  0.61734274  0.13026451  0.12697840  1
  Sr2+  Sr5  1  0.62171252  0.13883490  0.62005582  1
  Sr2+  Sr6  1  0.62016484  0.62823093  0.12560880  1
  Sr2+  Sr7  1  0.62752169  0.62858344  0.62834825  1
  Sr2+  Sr8  1  0.37070050  0.38997015  0.12866657  1
  Sr2+  Sr9  1  0.36611852  0.38675119  0.62358901  1
  Sr2+  Sr10  1  0.37292476  0.86362910  0.12664372  1
  Sr2+  Sr11  1  0.36354086  0.86773418  0.63301425  1
  Sr2+  Sr12  1  0.86405823  0.39278887  0.12092161  1
  Sr2+  Sr13  1  0.86727032  0.38555341  0.62389393  1
  Sr2+  Sr14  1  0.86212679  0.86055465  0.12512869  1
  Sr2+  Sr15  1  0.87171310  0.86019833  0.62399171  1
  Sr2+  Sr16  1  0.14253762  0.36701431  0.37487135  1
  Sr2+  Sr17  1  0.13053132  0.36356513  0.88476319  1
  Sr2+  Sr18  1  0.12247989  0.87959885  0.37985235  1
  Sr2+  Sr19  1  0.13070293  0.87849381  0.87474855  1
  Sr2+  Sr20  1  0.62058452  0.37025447  0.37353479  1
  Sr2+  Sr21  1  0.62622417  0.37388229  0.85833011  1
  Sr2+  Sr22  1  0.64170986  0.88025774  0.37226173  1
  Sr2+  Sr23  1  0.62773672  0.87847146  0.87620239  1
  Sr2+  Sr24  1  0.38468688  0.12701536  0.37398385  1
  Sr2+  Sr25  1  0.39305174  0.11765394  0.87411661  1
  Sr2+  Sr26  1  0.38427643  0.63477811  0.37762465  1
  Sr2+  Sr27  1  0.38590870  0.62259872  0.88044757  1
  Sr2+  Sr28  1  0.88453999  0.11549286  0.37115903  1
  Sr2+  Sr29  1  0.89956015  0.12681160  0.87640002  1
  Sr2+  Sr30  1  0.88317872  0.61871482  0.36794670  1
  Sr2+  Sr31  1  0.87847951  0.61852141  0.85656564  1
  Sr2+  Sr32  1  0.12940309  0.12890484  0.37319461  1
  Sr2+  Sr33  1  0.13017813  0.12193478  0.88050842  1
  Sr2+  Sr34  1  0.13249312  0.61968086  0.37449452  1
  Sr2+  Sr35  1  0.13417257  0.61170061  0.87833438  1
  Sr2+  Sr36  1  0.63091048  0.12615095  0.37051058  1
  Sr2+  Sr37  1  0.63066702  0.12954986  0.88245670  1
  Sr2+  Sr38  1  0.62848767  0.61609298  0.37911730  1
  Sr2+  Sr39  1  0.63469693  0.62765943  0.86320855  1
  Sr2+  Sr40  1  0.38117979  0.36576264  0.37886986  1
  Sr2+  Sr41  1  0.38540095  0.36634882  0.86788956  1
  Sr2+  Sr42  1  0.37573425  0.88510682  0.38925345  1
  Sr2+  Sr43  1  0.37975321  0.88396833  0.87321210  1
  Sr2+  Sr44  1  0.87407381  0.36755541  0.37032706  1
  Sr2+  Sr45  1  0.87264653  0.36014289  0.86835706  1
  Sr2+  Sr46  1  0.87833584  0.87231850  0.36820252  1
  Sr2+  Sr47  1  0.88207098  0.87637224  0.88210153  1
  Sr2+  Sr48  1  0.11230656  0.38601192  0.12253145  1
  Sr2+  Sr49  1  0.11095253  0.37661661  0.62399242  1
  Sr2+  Sr50  1  0.12310559  0.86609936  0.12328654  1
  Sr2+  Sr51  1  0.11639023  0.87489687  0.62842505  1
  Sr2+  Sr52  1  0.61835367  0.37643989  0.12298661  1
  Sr2+  Sr53  1  0.61187634  0.38899138  0.61999070  1
  Sr2+  Sr54  1  0.62578114  0.87257527  0.12752021  1
  Sr2+  Sr55  1  0.61213487  0.86379466  0.62778223  1
  Sr2+  Sr56  1  0.37444991  0.12602556  0.12570160  1
  Sr2+  Sr57  1  0.36401851  0.12513345  0.63097479  1
  Sr2+  Sr58  1  0.36742812  0.63048452  0.12046398  1
  Sr2+  Sr59  1  0.39543291  0.62926322  0.62245624  1
  Sr2+  Sr60  1  0.86502455  0.12735777  0.11607974  1
  Sr2+  Sr61  1  0.86823652  0.12526670  0.61927167  1
  Sr2+  Sr62  1  0.89579996  0.62664712  0.13114267  1
  Sr2+  Sr63  1  0.88661083  0.62271994  0.62691126  1
  Ca2+  Ca64  1  0.50693982  0.49722984  -0.00201506  1
  Ca2+  Ca65  1  0.50161452  -0.00043992  0.50144347  1
  Ca2+  Ca66  1  -0.00780436  0.50133241  -0.00463287  1
  Ca2+  Ca67  1  -0.00050843  0.49807958  0.49726383  1
  Ca2+  Ca68  1  0.49738878  0.49929710  0.49691632  1
  Ca2+  Ca69  1  0.75113617  0.74877880  0.50008957  1
  Ca2+  Ca70  1  0.75045236  0.74094780  -0.00039145  1
  Ca2+  Ca71  1  0.25306729  0.24536922  0.00162975  1
  Ca2+  Ca72  1  0.74836340  0.25482845  -0.00053716  1
  Ca2+  Ca73  1  0.75161873  0.25330242  0.49945059  1
  Ca2+  Ca74  1  0.24966417  -0.00490663  0.24971187  1
  Ca2+  Ca75  1  0.49745866  0.75478697  0.25164799  1
  Ca2+  Ca76  1  -0.00083959  0.25113966  0.25059930  1
  Ca2+  Ca77  1  0.49796497  0.75242556  0.75298271  1
  Ca2+  Ca78  1  0.00490377  0.75412768  0.25233648  1
  Ca2+  Ca79  1  0.24731401  0.50044156  0.74868509  1
  Ca2+  Ca80  1  0.00006974  0.24817821  0.74781174  1
  Ca2+  Ca81  1  0.75141973  0.00043690  0.75078137  1
  Ca2+  Ca82  1  0.00422086  0.75181910  0.75382137  1
  Ca2+  Ca83  1  0.50171758  0.24797373  0.74609561  1
  Ca2+  Ca84  1  0.25252958  0.50214717  0.25270169  1
  Nb5+  Nb85  1  0.00512328  -0.00322090  -0.00235692  1
  Nb5+  Nb86  1  -0.00030788  -0.00000348  0.49646995  1
  Nb5+  Nb87  1  0.50728145  -0.00259139  0.00308125  1
  Nb5+  Nb88  1  0.24873875  0.75070602  0.00288399  1
  Nb5+  Nb89  1  0.24760174  0.75423030  0.50724425  1
  Nb5+  Nb90  1  0.25271356  0.25388871  0.50210814  1
  Nb5+  Nb91  1  0.74561620  0.49668641  0.24567258  1
  Nb5+  Nb92  1  0.75320102  -0.00111127  0.24790521  1
  Nb5+  Nb93  1  0.74845976  0.50022517  0.74049000  1
  Nb5+  Nb94  1  0.24941987  0.00017722  0.75165656  1
  Nb5+  Nb95  1  0.49932763  0.25041925  0.24739458  1
  Nb5+  Nb96  1  0.00089754  -0.00015037  0.23882575  1
  Nb5+  Nb97  1  -0.00244290  0.00502597  0.74182745  1
  Nb5+  Nb98  1  0.00268335  0.49602424  0.25482853  1
  Nb5+  Nb99  1  0.00361666  0.49473479  0.75481418  1
  Nb5+  Nb100  1  0.49973544  -0.00031940  0.24978388  1
  Nb5+  Nb101  1  0.50524677  0.00143849  0.74467492  1
  Nb5+  Nb102  1  0.49971483  0.50623565  0.24972415  1
  Nb5+  Nb103  1  0.49460842  0.50233644  0.74841237  1
  Nb5+  Nb104  1  0.25141286  0.25201492  0.24299121  1
  Nb5+  Nb105  1  0.25131877  0.25064095  0.75240103  1
  Nb5+  Nb106  1  0.25199889  0.75063730  0.26207353  1
  Nb5+  Nb107  1  0.24522626  0.74581597  0.75737800  1
  Nb5+  Nb108  1  0.75146332  0.24662632  0.25110079  1
  Nb5+  Nb109  1  0.74809690  0.24541385  0.74584613  1
  Nb5+  Nb110  1  0.74695963  0.74033292  0.25056491  1
  Nb5+  Nb111  1  0.75454527  0.75605333  0.75341053  1
  Nb5+  Nb112  1  -0.00173474  0.24831009  0.49863957  1
  Nb5+  Nb113  1  -0.00291433  0.25444944  1.00698981  1
  Nb5+  Nb114  1  0.00154111  0.74735942  0.49946587  1
  Nb5+  Nb115  1  0.00248173  0.74698098  0.99975743  1
  Nb5+  Nb116  1  0.49900679  0.24580735  0.50386506  1
  Nb5+  Nb117  1  0.49718509  0.25161570  1.00100356  1
  Nb5+  Nb118  1  0.50378650  0.75585264  0.49559213  1
  Nb5+  Nb119  1  0.50404510  0.74955289  0.99633464  1
  Nb5+  Nb120  1  0.25469256  -0.00403905  0.00365030  1
  Nb5+  Nb121  1  0.24670574  0.00511025  0.50264901  1
  Nb5+  Nb122  1  0.25418423  0.49243161  -0.00507563  1
  Nb5+  Nb123  1  0.24737727  0.51023567  0.50115920  1
  Nb5+  Nb124  1  0.75555049  0.00059646  -0.00111954  1
  Nb5+  Nb125  1  0.74962032  -0.00413235  0.50656597  1
  Nb5+  Nb126  1  0.74731978  0.50037688  -0.01266017  1
  Nb5+  Nb127  1  0.75083457  0.50274097  0.49072805  1
  O2-  O128  1  -0.00144274  0.02249640  0.12435113  1
  O2-  O129  1  0.00169651  0.02334354  0.62675896  1
  O2-  O130  1  0.00974245  0.51989685  0.13517178  1
  O2-  O131  1  0.01272304  0.52165078  0.63602141  1
  O2-  O132  1  0.49756897  0.02722119  0.12002241  1
  O2-  O133  1  0.50056440  0.03265020  0.63495285  1
  O2-  O134  1  0.53317979  0.50614292  0.13514480  1
  O2-  O135  1  0.52177342  0.52146616  0.63193539  1
  O2-  O136  1  -0.00059746  -0.01961542  0.38059766  1
  O2-  O137  1  -0.00029179  -0.01803812  0.88078874  1
  O2-  O138  1  -0.03437546  0.48440076  0.36604006  1
  O2-  O139  1  -0.03812534  0.48064390  0.86491823  1
  O2-  O140  1  0.50965252  -0.02707941  0.36192264  1
  O2-  O141  1  0.50189798  -0.02081247  0.88357858  1
  O2-  O142  1  0.48469797  0.47338726  0.36163707  1
  O2-  O143  1  0.48789184  0.47338868  0.86441976  1
  O2-  O144  1  0.28135328  0.26528987  0.13402167  1
  O2-  O145  1  0.27685681  0.25595226  0.61990146  1
  O2-  O146  1  0.24689745  0.76890853  0.11886297  1
  O2-  O147  1  0.23361059  0.76511171  0.62163524  1
  O2-  O148  1  0.76776574  0.27168621  0.13840567  1
  O2-  O149  1  0.78712227  0.25716553  0.63294892  1
  O2-  O150  1  0.73480064  0.76595291  0.13399496  1
  O2-  O151  1  0.73205282  0.77144485  0.63521562  1
  O2-  O152  1  0.23837574  0.23416170  0.38239026  1
  O2-  O153  1  0.22612860  0.23685302  0.86475253  1
  O2-  O154  1  0.25655135  0.73237083  0.37787557  1
  O2-  O155  1  0.25510769  0.73282863  0.87316076  1
  O2-  O156  1  0.71771788  0.25062669  0.36506490  1
  O2-  O157  1  0.71762560  0.25141843  0.86373154  1
  O2-  O158  1  0.76939257  0.73962375  0.36564026  1
  O2-  O159  1  0.76812336  0.72262885  0.86708979  1
  O2-  O160  1  -0.01363588  0.21563967  0.11937435  1
  O2-  O161  1  -0.00872450  0.21498880  0.61243185  1
  O2-  O162  1  0.02799182  0.73982310  0.11705191  1
  O2-  O163  1  0.02757315  0.74351599  0.61588813  1
  O2-  O164  1  0.48616973  0.22353582  0.13069001  1
  O2-  O165  1  0.48464193  0.21608278  0.61346319  1
  O2-  O166  1  0.49784182  0.72904519  0.11384851  1
  O2-  O167  1  0.51453495  0.73148584  0.61532077  1
  O2-  O168  1  0.22978769  0.00485163  0.38726331  1
  O2-  O169  1  0.24294813  0.01343453  0.87302176  1
  O2-  O170  1  0.27617737  0.52313609  0.38621418  1
  O2-  O171  1  0.26508584  0.53074150  0.88321918  1
  O2-  O172  1  0.74752026  0.01761889  0.36827777  1
  O2-  O173  1  0.73381545  0.01506037  0.88706190  1
  O2-  O174  1  0.76125957  0.51997591  0.37429211  1
  O2-  O175  1  0.75859210  0.51651868  0.87203863  1
  O2-  O176  1  0.03406092  0.26079501  0.38616956  1
  O2-  O177  1  0.01739024  0.26138784  0.88842326  1
  O2-  O178  1  -0.00593587  0.78143861  0.38691117  1
  O2-  O179  1  -0.00175184  0.78347058  0.88853627  1
  O2-  O180  1  0.50594442  0.26646121  0.36775969  1
  O2-  O181  1  0.51041807  0.26875591  0.88604366  1
  O2-  O182  1  0.46973798  0.77308543  0.38358538  1
  O2-  O183  1  0.47999319  0.77735365  0.88509853  1
  O2-  O184  1  0.25519230  -0.03373706  0.11386716  1
  O2-  O185  1  0.25549854  -0.01715731  0.62700052  1
  O2-  O186  1  0.23358596  0.48334840  0.11403612  1
  O2-  O187  1  0.21812248  0.48235825  0.61442771  1
  O2-  O188  1  0.75815207  -0.01824005  0.12769260  1
  O2-  O189  1  0.77399415  -0.01756297  0.61692925  1
  O2-  O190  1  0.72951392  0.48648390  0.13222669  1
  O2-  O191  1  0.73554471  0.48670834  0.62511121  1
  O2-  O192  1  0.13696133  0.27304699  0.22938999  1
  O2-  O193  1  0.13784790  0.26278165  0.71987889  1
  O2-  O194  1  0.13939080  0.79044103  0.25783165  1
  O2-  O195  1  0.13639258  0.78844056  0.75557208  1
  O2-  O196  1  0.62034799  0.26076947  0.23241761  1
  O2-  O197  1  0.63466768  0.27453890  0.71483443  1
  O2-  O198  1  0.63353219  0.77568161  0.26504560  1
  O2-  O199  1  0.63448445  0.76582831  0.77177151  1
  O2-  O200  1  0.37978814  0.22843334  0.26384521  1
  O2-  O201  1  0.36608451  0.21912395  0.76236980  1
  O2-  O202  1  0.36398682  0.71554290  0.24056335  1
  O2-  O203  1  0.35940343  0.73776929  0.72920778  1
  O2-  O204  1  0.86320515  0.23803673  0.28071954  1
  O2-  O205  1  0.86408668  0.23525603  0.77953802  1
  O2-  O206  1  0.86579406  0.73597337  0.23185673  1
  O2-  O207  1  0.86981161  0.72933296  0.72993045  1
  O2-  O208  1  0.27239196  0.36470201  0.27669294  1
  O2-  O209  1  0.27589169  0.36405309  0.76077669  1
  O2-  O210  1  0.29301151  0.86344672  0.26498301  1
  O2-  O211  1  0.27126000  0.88106736  0.76471287  1
  O2-  O212  1  0.76120142  0.38148225  0.26538601  1
  O2-  O213  1  0.76407012  0.38245243  0.76009626  1
  O2-  O214  1  0.76614508  0.88369123  0.26378443  1
  O2-  O215  1  0.77905701  0.86775939  0.77404699  1
  O2-  O216  1  0.23199662  0.13366081  0.23875372  1
  O2-  O217  1  0.23276891  0.11823903  0.73155523  1
  O2-  O218  1  0.21485161  0.63711270  0.23841996  1
  O2-  O219  1  0.21385129  0.63642937  0.74002773  1
  O2-  O220  1  0.73580135  0.13032333  0.23421114  1
  O2-  O221  1  0.72230423  0.13288518  0.73340801  1
  O2-  O222  1  0.72125633  0.62538061  0.24267622  1
  O2-  O223  1  0.73347763  0.62115848  0.73674710  1
  O2-  O224  1  0.11499421  0.47393545  0.26810150  1
  O2-  O225  1  0.11460362  0.47327278  0.78026066  1
  O2-  O226  1  0.11250095  0.97271708  0.24242219  1
  O2-  O227  1  0.12857783  0.98020255  0.74745979  1
  O2-  O228  1  0.62795509  0.48665469  0.27428336  1
  O2-  O229  1  0.62800632  0.48984787  0.76061287  1
  O2-  O230  1  0.63147873  0.99551334  0.24076524  1
  O2-  O231  1  0.61630799  0.96765919  0.74516946  1
  O2-  O232  1  0.38648876  0.02349150  0.25333337  1
  O2-  O233  1  0.37091061  0.01995775  0.75549100  1
  O2-  O234  1  0.38699120  0.51419286  0.22170135  1
  O2-  O235  1  0.38063473  0.52058485  0.73065432  1
  O2-  O236  1  0.86986184  0.02890025  0.24687709  1
  O2-  O237  1  0.88649393  0.03398639  0.75503279  1
  O2-  O238  1  0.86115340  0.52368086  0.23698420  1
  O2-  O239  1  0.86725595  0.51684979  0.73228547  1
  O2-  O240  1  0.48782034  0.36698593  0.22790263  1
  O2-  O241  1  0.48363245  0.38264513  0.72425646  1
  O2-  O242  1  0.49507798  0.88949224  0.21308394  1
  O2-  O243  1  0.47175965  0.88785105  0.73470752  1
  O2-  O244  1  0.97006959  0.38423753  0.22924107  1
  O2-  O245  1  0.98105480  0.38136176  0.72299421  1
  O2-  O246  1  0.96242264  0.88929140  0.23712186  1
  O2-  O247  1  0.97982229  0.88935074  0.73406742  1
  O2-  O248  1  0.01424449  0.11219336  0.27467787  1
  O2-  O249  1  0.03062132  0.11476020  0.77378599  1
  O2-  O250  1  0.00920797  0.61709112  0.27364346  1
  O2-  O251  1  0.01328085  0.61531189  0.77588491  1
  O2-  O252  1  0.52113584  0.12421968  0.26468076  1
  O2-  O253  1  0.51967790  0.11303568  0.78312104  1
  O2-  O254  1  0.51824527  0.61734406  0.27218982  1
  O2-  O255  1  0.50951835  0.61832022  0.77645166  1
  O2-  O256  1  0.13243515  0.48460534  -0.01913653  1
  O2-  O257  1  0.13441177  0.48507018  0.46708250  1
  O2-  O258  1  0.12207763  0.97610328  0.00134131  1
  O2-  O259  1  0.12366840  0.98138533  0.51235044  1
  O2-  O260  1  0.63731768  0.45198504  -0.01293310  1
  O2-  O261  1  0.63339428  0.47165904  0.48429220  1
  O2-  O262  1  0.62345188  0.97796001  0.01057727  1
  O2-  O263  1  0.63680121  0.97035164  0.51003704  1
  O2-  O264  1  0.37131835  0.01291280  -0.00489896  1
  O2-  O265  1  0.36286663  0.01354677  0.49020977  1
  O2-  O266  1  0.36847523  0.52068751  0.01742587  1
  O2-  O267  1  0.36224026  0.51149613  0.53100820  1
  O2-  O268  1  0.87501893  0.01868198  -0.00479634  1
  O2-  O269  1  0.88341822  0.02503814  0.49686930  1
  O2-  O270  1  0.85698234  0.53353563  0.02217618  1
  O2-  O271  1  0.86446910  0.53154515  0.51345513  1
  O2-  O272  1  0.47231342  0.36141106  0.02402448  1
  O2-  O273  1  0.47046978  0.36105239  0.51154451  1
  O2-  O274  1  0.48077075  0.88139141  0.02265768  1
  O2-  O275  1  0.47077319  0.86686755  0.52656539  1
  O2-  O276  1  0.98211173  0.36694022  0.02762924  1
  O2-  O277  1  0.98898910  0.36159282  0.52381133  1
  O2-  O278  1  0.98123697  0.88304485  0.02601922  1
  O2-  O279  1  0.98890981  0.88401562  0.52444948  1
  O2-  O280  1  0.02039070  0.11514307  -0.01365328  1
  O2-  O281  1  0.02619447  0.11750219  0.48255145  1
  O2-  O282  1  0.02394360  0.63599840  -0.02028708  1
  O2-  O283  1  0.01930298  0.63555323  0.47839484  1
  O2-  O284  1  0.51826170  0.11561447  -0.01790093  1
  O2-  O285  1  0.51554598  0.13252909  0.46671665  1
  O2-  O286  1  0.51396385  0.63601170  -0.02789736  1
  O2-  O287  1  0.50554068  0.63606112  0.47436320  1
  O2-  O288  1  0.11835016  0.26403429  0.02523616  1
  O2-  O289  1  0.13468518  0.25933546  0.52135200  1
  O2-  O290  1  0.13133139  0.77610248  -0.00852803  1
  O2-  O291  1  0.12978320  0.76764374  0.48382968  1
  O2-  O292  1  0.61208320  0.25195611  0.02745154  1
  O2-  O293  1  0.61315136  0.26810519  0.51679448  1
  O2-  O294  1  0.61514863  0.77925861  -0.00648156  1
  O2-  O295  1  0.61518205  0.77924994  0.48141980  1
  O2-  O296  1  0.38517340  0.21175305  -0.00769945  1
  O2-  O297  1  0.37074940  0.22635798  0.48430682  1
  O2-  O298  1  0.36845580  0.74050768  0.00454435  1
  O2-  O299  1  0.36327835  0.73032108  0.51131299  1
  O2-  O300  1  0.88344135  0.22501610  -0.01403520  1
  O2-  O301  1  0.88813087  0.22939414  0.47114874  1
  O2-  O302  1  0.88864889  0.73670516  0.01948351  1
  O2-  O303  1  0.88768559  0.73918724  0.52171694  1
  O2-  O304  1  0.27267360  0.38073887  -0.02821836  1
  O2-  O305  1  0.26601007  0.36933512  0.48690752  1
  O2-  O306  1  0.26226898  0.87511926  -0.02756693  1
  O2-  O307  1  0.26296927  0.87189243  0.49254422  1
  O2-  O308  1  0.78828102  0.38655063  -0.01076042  1
  O2-  O309  1  0.78216839  0.38693762  0.48922404  1
  O2-  O310  1  0.77042878  0.88283350  -0.01066637  1
  O2-  O311  1  0.77907471  0.88621901  0.47519003  1
  O2-  O312  1  0.22584883  0.10775157  0.01927208  1
  O2-  O313  1  0.23351854  0.12038572  0.51983096  1
  O2-  O314  1  0.23145382  0.63444907  0.01422140  1
  O2-  O315  1  0.22579385  0.62693894  0.51389817  1
  O2-  O316  1  0.73368898  0.11396840  0.02703464  1
  O2-  O317  1  0.73250809  0.11466094  0.51167458  1
  O2-  O318  1  0.70136990  0.60959549  0.00524463  1
  O2-  O319  1  0.71497867  0.61684842  0.50874165  1
