# generated using pymatgen
data_Sr64Ca21Nb43O192
_symmetry_space_group_name_H-M   'P 1'
_cell_length_a   16.58747731
_cell_length_b   16.59915387
_cell_length_c   16.72899838
_cell_angle_alpha   90.02030669
_cell_angle_beta   90.03753701
_cell_angle_gamma   90.07602492
_symmetry_Int_Tables_number   1
_chemical_formula_structural   Sr64Ca21Nb43O192
_chemical_formula_sum   'Sr64 Ca21 Nb43 O192'
_cell_volume   4606.12509767
_cell_formula_units_Z   1
loop_
 _symmetry_equiv_pos_site_id
 _symmetry_equiv_pos_as_xyz
  1  'x, y, z'
loop_
 _atom_type_symbol
 _atom_type_oxidation_number
  Sr2+  2.0
  Ca2+  2.0
  Nb5+  5.0
  O2-  -2.0
loop_
 _atom_site_type_symbol
 _atom_site_label
 _atom_site_symmetry_multiplicity
 _atom_site_fract_x
 _atom_site_fract_y
 _atom_site_fract_z
 _atom_site_occupancy
  Sr2+  Sr0  1  0.13126139  0.14181213  0.12499156  1
  Sr2+  Sr1  1  0.13147374  0.11998874  0.62371948  1
  Sr2+  Sr2  1  0.11770710  0.62625560  0.13311791  1
  Sr2+  Sr3  1  0.12293084  0.62446178  0.62306160  1
  Sr2+  Sr4  1  0.62414015  0.12133357  0.11948703  1
  Sr2+  Sr5  1  0.61438755  0.14399946  0.62264145  1
  Sr2+  Sr6  1  0.62079471  0.62481264  0.12981833  1
  Sr2+  Sr7  1  0.62604783  0.62338099  0.60829450  1
  Sr2+  Sr8  1  0.36963543  0.36417276  0.11880315  1
  Sr2+  Sr9  1  0.37615102  0.35514141  0.62776042  1
  Sr2+  Sr10  1  0.37480925  0.88778157  0.13431408  1
  Sr2+  Sr11  1  0.37744276  0.89240274  0.62080758  1
  Sr2+  Sr12  1  0.87628357  0.37579268  0.11896544  1
  Sr2+  Sr13  1  0.87298619  0.37249596  0.62907565  1
  Sr2+  Sr14  1  0.87411156  0.89824498  0.12581152  1
  Sr2+  Sr15  1  0.86600677  0.88551676  0.62510992  1
  Sr2+  Sr16  1  0.12039687  0.38115546  0.37572033  1
  Sr2+  Sr17  1  0.12821345  0.37335653  0.87741538  1
  Sr2+  Sr18  1  0.14162717  0.86850421  0.37764096  1
  Sr2+  Sr19  1  0.12305506  0.86936943  0.87088678  1
  Sr2+  Sr20  1  0.63347197  0.37331168  0.36992802  1
  Sr2+  Sr21  1  0.62559980  0.37646961  0.86825101  1
  Sr2+  Sr22  1  0.60074313  0.87316970  0.37966897  1
  Sr2+  Sr23  1  0.63186633  0.86889898  0.88415931  1
  Sr2+  Sr24  1  0.39239322  0.11555252  0.37274935  1
  Sr2+  Sr25  1  0.38445959  0.11537012  0.87551517  1
  Sr2+  Sr26  1  0.38095719  0.63601618  0.37636973  1
  Sr2+  Sr27  1  0.38080598  0.62413524  0.87759539  1
  Sr2+  Sr28  1  0.88111636  0.12241726  0.37997499  1
  Sr2+  Sr29  1  0.88262914  0.11707535  0.87970957  1
  Sr2+  Sr30  1  0.87627544  0.62264332  0.37431606  1
  Sr2+  Sr31  1  0.87568748  0.62980576  0.87322820  1
  Sr2+  Sr32  1  0.13092304  0.11007326  0.37665110  1
  Sr2+  Sr33  1  0.13140072  0.10991133  0.87491747  1
  Sr2+  Sr34  1  0.11544015  0.63696267  0.37618037  1
  Sr2+  Sr35  1  0.12099127  0.62929023  0.87502300  1
  Sr2+  Sr36  1  0.63148747  0.11253156  0.37321972  1
  Sr2+  Sr37  1  0.63311839  0.10776887  0.87598990  1
  Sr2+  Sr38  1  0.63912615  0.63011117  0.37114015  1
  Sr2+  Sr39  1  0.62258188  0.63651749  0.88226867  1
  Sr2+  Sr40  1  0.38133031  0.36265455  0.35886723  1
  Sr2+  Sr41  1  0.37806861  0.36891222  0.87237406  1
  Sr2+  Sr42  1  0.37197944  0.87766227  0.36357623  1
  Sr2+  Sr43  1  0.37646750  0.86806232  0.86831629  1
  Sr2+  Sr44  1  0.88184179  0.36646410  0.37576950  1
  Sr2+  Sr45  1  0.88359941  0.35991047  0.87327178  1
  Sr2+  Sr46  1  0.88010193  0.88648324  0.37620272  1
  Sr2+  Sr47  1  0.87919978  0.88246984  0.87076555  1
  Sr2+  Sr48  1  0.11591054  0.37907507  0.11956245  1
  Sr2+  Sr49  1  0.13368085  0.38611316  0.62987653  1
  Sr2+  Sr50  1  0.12797904  0.87003612  0.14315226  1
  Sr2+  Sr51  1  0.13681812  0.87822242  0.62107112  1
  Sr2+  Sr52  1  0.61025824  0.38479987  0.12918179  1
  Sr2+  Sr53  1  0.62520966  0.37682679  0.61772301  1
  Sr2+  Sr54  1  0.61638701  0.88029455  0.12511053  1
  Sr2+  Sr55  1  0.61676452  0.87212941  0.62176767  1
  Sr2+  Sr56  1  0.36666863  0.12973558  0.13596948  1
  Sr2+  Sr57  1  0.37916709  0.12298333  0.62955787  1
  Sr2+  Sr58  1  0.38565095  0.62106020  0.11787661  1
  Sr2+  Sr59  1  0.37437779  0.62028460  0.63159428  1
  Sr2+  Sr60  1  0.86561810  0.13142614  0.11711744  1
  Sr2+  Sr61  1  0.85858419  0.13747922  0.62783152  1
  Sr2+  Sr62  1  0.86487023  0.61928462  0.12946453  1
  Sr2+  Sr63  1  0.86507284  0.62419855  0.62452437  1
  Ca2+  Ca64  1  0.00066673  -0.00097583  0.50206389  1
  Ca2+  Ca65  1  0.49799187  0.49936817  0.49765371  1
  Ca2+  Ca66  1  0.49604633  0.00167713  -0.00073226  1
  Ca2+  Ca67  1  0.50370339  0.00319468  0.50254486  1
  Ca2+  Ca68  1  0.00710325  -0.00422580  0.00154950  1
  Ca2+  Ca69  1  0.24645597  0.25265637  0.50209940  1
  Ca2+  Ca70  1  0.75542587  0.74911068  0.00416318  1
  Ca2+  Ca71  1  0.24844005  0.74674598  0.50359484  1
  Ca2+  Ca72  1  0.74857175  0.25288377  0.00037868  1
  Ca2+  Ca73  1  0.24918141  0.75050928  0.00245197  1
  Ca2+  Ca74  1  0.50291051  0.25033266  0.24749427  1
  Ca2+  Ca75  1  0.50206730  0.74614291  0.25087240  1
  Ca2+  Ca76  1  -0.00015509  0.25166692  0.25075350  1
  Ca2+  Ca77  1  0.75140792  0.50241737  0.74918869  1
  Ca2+  Ca78  1  0.50014748  0.25106095  0.75443676  1
  Ca2+  Ca79  1  0.75171823  -0.00179359  0.25154280  1
  Ca2+  Ca80  1  0.00103521  0.25043545  0.74677432  1
  Ca2+  Ca81  1  0.25077025  0.49911107  0.25062976  1
  Ca2+  Ca82  1  0.24667996  0.00125150  0.24818232  1
  Ca2+  Ca83  1  0.75011866  0.00016842  0.74594036  1
  Ca2+  Ca84  1  0.50155777  0.74857841  0.74885674  1
  Nb5+  Nb85  1  -0.00117191  0.49927153  0.50586353  1
  Nb5+  Nb86  1  -0.00454804  0.50535392  0.00208379  1
  Nb5+  Nb87  1  0.49637043  0.49769711  -0.00209209  1
  Nb5+  Nb88  1  0.75439278  0.75728070  0.49644148  1
  Nb5+  Nb89  1  0.25135525  0.24793244  -0.00515903  1
  Nb5+  Nb90  1  0.74919453  0.25501081  0.49673038  1
  Nb5+  Nb91  1  0.75056221  0.49557280  0.24820021  1
  Nb5+  Nb92  1  -0.00655720  0.75193501  0.24699448  1
  Nb5+  Nb93  1  -0.00116972  0.74963705  0.74210771  1
  Nb5+  Nb94  1  0.25199568  0.49791251  0.75144965  1
  Nb5+  Nb95  1  0.25314340  -0.00708707  0.75053653  1
  Nb5+  Nb96  1  0.00421921  0.00709169  0.24804686  1
  Nb5+  Nb97  1  0.00324436  0.00456158  0.74554700  1
  Nb5+  Nb98  1  -0.00235190  0.49879992  0.25374441  1
  Nb5+  Nb99  1  -0.00093492  0.50411697  0.75477289  1
  Nb5+  Nb100  1  0.50360273  -0.00082762  0.24951195  1
  Nb5+  Nb101  1  0.50674376  -0.00314858  0.75481461  1
  Nb5+  Nb102  1  0.49533356  0.50125891  0.25399840  1
  Nb5+  Nb103  1  0.50363119  0.50139436  0.74791819  1
  Nb5+  Nb104  1  0.24410831  0.25277129  0.25755817  1
  Nb5+  Nb105  1  0.24766602  0.24064190  0.75053965  1
  Nb5+  Nb106  1  0.25340893  0.74103901  0.24886898  1
  Nb5+  Nb107  1  0.24879339  0.74253773  0.75217965  1
  Nb5+  Nb108  1  0.75031551  0.24726397  0.24754484  1
  Nb5+  Nb109  1  0.74498388  0.24959793  0.75637712  1
  Nb5+  Nb110  1  0.75344603  0.75493391  0.25175832  1
  Nb5+  Nb111  1  0.74830930  0.75032728  0.74890967  1
  Nb5+  Nb112  1  0.00308240  0.25026980  0.50350022  1
  Nb5+  Nb113  1  0.00325491  0.24629739  0.99563338  1
  Nb5+  Nb114  1  -0.00625605  0.75138914  0.49691001  1
  Nb5+  Nb115  1  -0.00446451  0.75216837  0.99737565  1
  Nb5+  Nb116  1  0.49572438  0.25462042  0.49448032  1
  Nb5+  Nb117  1  0.50603730  0.25007160  1.00041697  1
  Nb5+  Nb118  1  0.49304842  0.74414472  0.50323255  1
  Nb5+  Nb119  1  0.49765201  0.75476779  1.00373937  1
  Nb5+  Nb120  1  0.25227305  -0.00367816  0.00251118  1
  Nb5+  Nb121  1  0.25304810  0.00193041  0.49732185  1
  Nb5+  Nb122  1  0.24512871  0.49988964  -0.00159005  1
  Nb5+  Nb123  1  0.25288914  0.50088602  0.49715935  1
  Nb5+  Nb124  1  0.75179441  -0.00167961  -0.00142148  1
  Nb5+  Nb125  1  0.74990879  0.00769782  0.50316360  1
  Nb5+  Nb126  1  0.74437312  0.50141158  -0.00467562  1
  Nb5+  Nb127  1  0.75172566  0.50166995  0.49708401  1
  O2-  O128  1  0.02370039  -0.02041650  0.13430456  1
  O2-  O129  1  0.03621754  -0.00916746  0.63435510  1
  O2-  O130  1  -0.00325786  0.51013761  0.12230886  1
  O2-  O131  1  0.00133859  0.51054234  0.62427641  1
  O2-  O132  1  0.52533242  0.01093544  0.13205963  1
  O2-  O133  1  0.51910253  0.02044955  0.63798967  1
  O2-  O134  1  0.50743472  0.51856812  0.12034775  1
  O2-  O135  1  0.50114146  0.53120384  0.63680767  1
  O2-  O136  1  -0.02345278  0.00054232  0.36475032  1
  O2-  O137  1  -0.01203293  -0.01149155  0.86272845  1
  O2-  O138  1  -0.00060670  0.49459284  0.37328514  1
  O2-  O139  1  0.00342711  0.50362916  0.87538748  1
  O2-  O140  1  0.47867999  -0.01767527  0.36853314  1
  O2-  O141  1  0.46880214  -0.01745533  0.86746532  1
  O2-  O142  1  0.49663388  0.47150147  0.36439654  1
  O2-  O143  1  0.50159623  0.47549953  0.88230361  1
  O2-  O144  1  0.26516529  0.24462027  0.11251398  1
  O2-  O145  1  0.27440486  0.23563126  0.63717157  1
  O2-  O146  1  0.22059087  0.73752815  0.13540197  1
  O2-  O147  1  0.22397612  0.74186687  0.63779346  1
  O2-  O148  1  0.77857447  0.26309660  0.13671209  1
  O2-  O149  1  0.76655256  0.26561865  0.61515166  1
  O2-  O150  1  0.74240980  0.76571390  0.13891902  1
  O2-  O151  1  0.75328716  0.76664458  0.61567936  1
  O2-  O152  1  0.21570500  0.26098557  0.36803773  1
  O2-  O153  1  0.22364495  0.25499224  0.87434950  1
  O2-  O154  1  0.25933413  0.75876428  0.36818943  1
  O2-  O155  1  0.24619123  0.77212998  0.86543035  1
  O2-  O156  1  0.72711243  0.23581212  0.37952255  1
  O2-  O157  1  0.71640562  0.23914107  0.86698854  1
  O2-  O158  1  0.76795541  0.72802238  0.37949920  1
  O2-  O159  1  0.75305187  0.72535347  0.86231357  1
  O2-  O160  1  -0.01579611  0.24977811  0.11232015  1
  O2-  O161  1  -0.03595122  0.24653175  0.61431302  1
  O2-  O162  1  0.00740452  0.74406328  0.12972873  1
  O2-  O163  1  0.00559226  0.73980648  0.62503089  1
  O2-  O164  1  0.46699225  0.23700513  0.11156131  1
  O2-  O165  1  0.48359700  0.22793353  0.61583042  1
  O2-  O166  1  0.50831751  0.72283581  0.11772057  1
  O2-  O167  1  0.51993302  0.72298234  0.61668712  1
  O2-  O168  1  0.27260198  0.00217147  0.38302690  1
  O2-  O169  1  0.27349427  -0.00058860  0.86776682  1
  O2-  O170  1  0.25155359  0.47077008  0.38739116  1
  O2-  O171  1  0.24946873  0.48824869  0.87132171  1
  O2-  O172  1  0.77706226  0.01482167  0.38692274  1
  O2-  O173  1  0.76937109  0.02388835  0.87947988  1
  O2-  O174  1  0.75226381  0.51383332  0.37352148  1
  O2-  O175  1  0.74418956  0.53256847  0.88532803  1
  O2-  O176  1  0.00962493  0.27818610  0.38776811  1
  O2-  O177  1  0.01442485  0.27515342  0.88141985  1
  O2-  O178  1  -0.01718886  0.74504541  0.37806017  1
  O2-  O179  1  -0.00990973  0.74669086  0.87690319  1
  O2-  O180  1  0.51354962  0.28596207  0.38192240  1
  O2-  O181  1  0.50997023  0.28660624  0.88892479  1
  O2-  O182  1  0.47724336  0.76922092  0.38503795  1
  O2-  O183  1  0.49671354  0.76628895  0.88420550  1
  O2-  O184  1  0.22324866  0.00404558  0.11290662  1
  O2-  O185  1  0.23195299  0.00578518  0.63137603  1
  O2-  O186  1  0.25624480  0.50536078  0.11226850  1
  O2-  O187  1  0.24218497  0.52468064  0.63547042  1
  O2-  O188  1  0.73599670  -0.02719167  0.11570556  1
  O2-  O189  1  0.73272658  -0.03149683  0.61349941  1
  O2-  O190  1  0.75645243  0.47706284  0.13070167  1
  O2-  O191  1  0.76316118  0.48220703  0.61149020  1
  O2-  O192  1  0.13313479  0.27524025  0.21978417  1
  O2-  O193  1  0.13660607  0.27471957  0.73150850  1
  O2-  O194  1  0.10978518  0.76503819  0.26717078  1
  O2-  O195  1  0.11691049  0.76428243  0.76082244  1
  O2-  O196  1  0.63808543  0.28469562  0.23994873  1
  O2-  O197  1  0.63183526  0.27755730  0.72614570  1
  O2-  O198  1  0.64020655  0.76128095  0.27630135  1
  O2-  O199  1  0.63740948  0.78053391  0.75102609  1
  O2-  O200  1  0.36320677  0.22680120  0.27091956  1
  O2-  O201  1  0.36204259  0.24459780  0.77896048  1
  O2-  O202  1  0.36501795  0.71740836  0.23731939  1
  O2-  O203  1  0.36308536  0.72871134  0.74462361  1
  O2-  O204  1  0.86449238  0.23290189  0.27938809  1
  O2-  O205  1  0.86384488  0.22490028  0.77013672  1
  O2-  O206  1  0.87589338  0.71770654  0.24680970  1
  O2-  O207  1  0.88271264  0.72179060  0.74480822  1
  O2-  O208  1  0.27973174  0.36542047  0.24073374  1
  O2-  O209  1  0.26435651  0.38289027  0.73908440  1
  O2-  O210  1  0.26202065  0.86257985  0.23907071  1
  O2-  O211  1  0.26526582  0.87625091  0.73779925  1
  O2-  O212  1  0.77285486  0.38038353  0.27146237  1
  O2-  O213  1  0.77577871  0.36662607  0.76267559  1
  O2-  O214  1  0.78404414  0.86331327  0.26714766  1
  O2-  O215  1  0.78754445  0.86206647  0.75504365  1
  O2-  O216  1  0.22399670  0.13513880  0.24402922  1
  O2-  O217  1  0.23044117  0.12452030  0.75606831  1
  O2-  O218  1  0.21531535  0.63028016  0.26614953  1
  O2-  O219  1  0.22960093  0.62771167  0.76914504  1
  O2-  O220  1  0.72377698  0.13480385  0.23553710  1
  O2-  O221  1  0.72822636  0.13565574  0.72194517  1
  O2-  O222  1  0.73681117  0.61794609  0.23737086  1
  O2-  O223  1  0.73396863  0.63677152  0.71452319  1
  O2-  O224  1  0.11246723  0.47839932  0.24476933  1
  O2-  O225  1  0.12496880  0.48788991  0.75292744  1
  O2-  O226  1  0.11471745  0.96707982  0.27355629  1
  O2-  O227  1  0.13302967  0.98060001  0.76953947  1
  O2-  O228  1  0.63279746  0.47850596  0.25083105  1
  O2-  O229  1  0.61620965  0.47588366  0.74994279  1
  O2-  O230  1  0.61946540  0.97493007  0.27108653  1
  O2-  O231  1  0.61804447  0.97791016  0.77856888  1
  O2-  O232  1  0.38220247  0.01335361  0.22981689  1
  O2-  O233  1  0.36834193  0.01546445  0.73053299  1
  O2-  O234  1  0.38506031  0.53431991  0.25300921  1
  O2-  O235  1  0.36712475  0.52541553  0.75456296  1
  O2-  O236  1  0.88706427  0.02150527  0.22195446  1
  O2-  O237  1  0.88998300  0.01761837  0.72488863  1
  O2-  O238  1  0.87421532  0.52143290  0.25066474  1
  O2-  O239  1  0.88665477  0.53162127  0.75287030  1
  O2-  O240  1  0.48111867  0.38744629  0.22115475  1
  O2-  O241  1  0.46688848  0.39020319  0.74077935  1
  O2-  O242  1  0.48493481  0.87833485  0.23265994  1
  O2-  O243  1  0.47781115  0.88291621  0.72980043  1
  O2-  O244  1  0.97110045  0.38671331  0.23932325  1
  O2-  O245  1  0.98054990  0.39009762  0.74323570  1
  O2-  O246  1  0.96965845  0.86430694  0.24898747  1
  O2-  O247  1  0.98348750  0.86624376  0.74431190  1
  O2-  O248  1  0.03365559  0.11793599  0.24990419  1
  O2-  O249  1  0.03093545  0.11604847  0.75376354  1
  O2-  O250  1  0.01393937  0.62223635  0.25418541  1
  O2-  O251  1  0.02623617  0.62643097  0.75199033  1
  O2-  O252  1  0.51951207  0.11705552  0.26969133  1
  O2-  O253  1  0.50915121  0.11639119  0.77721068  1
  O2-  O254  1  0.53495554  0.61226791  0.26400945  1
  O2-  O255  1  0.50733458  0.61285720  0.78851759  1
  O2-  O256  1  0.12800076  0.48032064  -0.00126697  1
  O2-  O257  1  0.11463646  0.47623206  0.49883658  1
  O2-  O258  1  0.14051686  0.98561799  -0.03478561  1
  O2-  O259  1  0.13458516  0.97614873  0.48308665  1
  O2-  O260  1  0.62921929  0.47707222  -0.00098045  1
  O2-  O261  1  0.63661589  0.48600740  0.49948286  1
  O2-  O262  1  0.63234341  0.98651486  -0.02205237  1
  O2-  O263  1  0.63701101  0.98362272  0.47568429  1
  O2-  O264  1  0.36210317  0.04015562  0.01303917  1
  O2-  O265  1  0.36829566  0.02103629  0.52396645  1
  O2-  O266  1  0.37812719  0.51263911  -0.00579028  1
  O2-  O267  1  0.36328140  0.53326731  0.50182386  1
  O2-  O268  1  0.87145417  0.01879897  0.01762253  1
  O2-  O269  1  0.86734872  0.01740461  0.52920914  1
  O2-  O270  1  0.88085672  0.52224826  -0.00280839  1
  O2-  O271  1  0.87774168  0.51662325  0.49191470  1
  O2-  O272  1  0.48719963  0.38100693  0.02414454  1
  O2-  O273  1  0.49448143  0.36869590  0.53362004  1
  O2-  O274  1  0.47923607  0.86599878  0.02605411  1
  O2-  O275  1  0.49782695  0.86266697  0.52377654  1
  O2-  O276  1  0.98903634  0.38633259  0.00636096  1
  O2-  O277  1  0.97301940  0.38301046  0.51061632  1
  O2-  O278  1  0.96316968  0.86114211  0.00343163  1
  O2-  O279  1  0.96773110  0.86229237  0.50650542  1
  O2-  O280  1  0.02495378  0.13377701  -0.01324128  1
  O2-  O281  1  0.01890586  0.13699754  0.48562170  1
  O2-  O282  1  0.03242433  0.61930811  -0.00069886  1
  O2-  O283  1  0.01324113  0.62067840  0.49583642  1
  O2-  O284  1  0.51914266  0.13820449  -0.02397133  1
  O2-  O285  1  0.51986139  0.13890841  0.47411587  1
  O2-  O286  1  0.51905989  0.61412865  -0.01568541  1
  O2-  O287  1  0.52523790  0.63381554  0.47078590  1
  O2-  O288  1  0.12572685  0.27309897  0.01303637  1
  O2-  O289  1  0.11139875  0.27366329  0.53153023  1
  O2-  O290  1  0.11152092  0.77220561  -0.00466068  1
  O2-  O291  1  0.10931137  0.76594881  0.49037422  1
  O2-  O292  1  0.61530229  0.26750363  0.03178059  1
  O2-  O293  1  0.63044867  0.26536007  0.51523703  1
  O2-  O294  1  0.61829577  0.76068288  -0.00527763  1
  O2-  O295  1  0.63724319  0.76105651  0.48888218  1
  O2-  O296  1  0.36695575  0.24214488  -0.02673034  1
  O2-  O297  1  0.38092560  0.24681202  0.47361131  1
  O2-  O298  1  0.38377419  0.71739374  0.00047459  1
  O2-  O299  1  0.38145412  0.72084501  0.51768286  1
  O2-  O300  1  0.88570851  0.23621898  -0.02226957  1
  O2-  O301  1  0.86740816  0.23507494  0.47983884  1
  O2-  O302  1  0.88751355  0.70570050  0.00727086  1
  O2-  O303  1  0.87477753  0.72053879  0.50892976  1
  O2-  O304  1  0.26451013  0.37533016  -0.00568367  1
  O2-  O305  1  0.25718220  0.39038712  0.53818237  1
  O2-  O306  1  0.28465693  0.88616456  0.00548454  1
  O2-  O307  1  0.26825920  0.88296752  0.51342085  1
  O2-  O308  1  0.77927555  0.38938629  -0.01586913  1
  O2-  O309  1  0.76414504  0.37334413  0.47813930  1
  O2-  O310  1  0.76933548  0.88122552  -0.02717357  1
  O2-  O311  1  0.77511254  0.86926747  0.48309410  1
  O2-  O312  1  0.22563480  0.13283196  -0.00782097  1
  O2-  O313  1  0.22161010  0.11775270  0.50139251  1
  O2-  O314  1  0.23553372  0.61323465  -0.02047025  1
  O2-  O315  1  0.21134477  0.61137642  0.49219600  1
  O2-  O316  1  0.73507934  0.11834042  0.02106434  1
  O2-  O317  1  0.73330518  0.12510803  0.51715405  1
  O2-  O318  1  0.73789639  0.61125509  0.03535393  1
  O2-  O319  1  0.74086411  0.61995837  0.50912614  1
