# generated using pymatgen
data_Sr64Ca21Nb43O192
_symmetry_space_group_name_H-M   'P 1'
_cell_length_a   16.54275177
_cell_length_b   16.55059340
_cell_length_c   16.72614989
_cell_angle_alpha   90.03165269
_cell_angle_beta   90.01196728
_cell_angle_gamma   90.04321772
_symmetry_Int_Tables_number   1
_chemical_formula_structural   Sr64Ca21Nb43O192
_chemical_formula_sum   'Sr64 Ca21 Nb43 O192'
_cell_volume   4579.48992217
_cell_formula_units_Z   1
loop_
 _symmetry_equiv_pos_site_id
 _symmetry_equiv_pos_as_xyz
  1  'x, y, z'
loop_
 _atom_type_symbol
 _atom_type_oxidation_number
  Sr2+  2.0
  Ca2+  2.0
  Nb5+  5.0
  O2-  -2.0
loop_
 _atom_site_type_symbol
 _atom_site_label
 _atom_site_symmetry_multiplicity
 _atom_site_fract_x
 _atom_site_fract_y
 _atom_site_fract_z
 _atom_site_occupancy
  Sr2+  Sr0  1  0.12685499  0.12967183  0.12119384  1
  Sr2+  Sr1  1  0.12413252  0.13616118  0.63841149  1
  Sr2+  Sr2  1  0.13471667  0.62256723  0.12249388  1
  Sr2+  Sr3  1  0.12654280  0.60537532  0.62054582  1
  Sr2+  Sr4  1  0.62267282  0.12493479  0.12047427  1
  Sr2+  Sr5  1  0.62207081  0.12766837  0.62424704  1
  Sr2+  Sr6  1  0.63176649  0.59987361  0.12412206  1
  Sr2+  Sr7  1  0.63199689  0.62380013  0.63045243  1
  Sr2+  Sr8  1  0.38535017  0.37508861  0.12946122  1
  Sr2+  Sr9  1  0.37862955  0.36889041  0.62701431  1
  Sr2+  Sr10  1  0.37700145  0.87545460  0.12326894  1
  Sr2+  Sr11  1  0.38753141  0.86588379  0.62831713  1
  Sr2+  Sr12  1  0.87177184  0.37542803  0.12242092  1
  Sr2+  Sr13  1  0.87194247  0.37044382  0.63413232  1
  Sr2+  Sr14  1  0.86706992  0.86946131  0.12422675  1
  Sr2+  Sr15  1  0.87567781  0.85347967  0.63285936  1
  Sr2+  Sr16  1  0.11509596  0.37193430  0.37484378  1
  Sr2+  Sr17  1  0.12039853  0.37532160  0.85624432  1
  Sr2+  Sr18  1  0.12461236  0.87093538  0.37361683  1
  Sr2+  Sr19  1  0.10268678  0.87305771  0.87999262  1
  Sr2+  Sr20  1  0.60892896  0.37803718  0.37500276  1
  Sr2+  Sr21  1  0.61405194  0.37427500  0.85454515  1
  Sr2+  Sr22  1  0.59837938  0.87496279  0.37575309  1
  Sr2+  Sr23  1  0.59668316  0.87505922  0.87644517  1
  Sr2+  Sr24  1  0.35859261  0.11623040  0.37804466  1
  Sr2+  Sr25  1  0.37370017  0.11947878  0.86265090  1
  Sr2+  Sr26  1  0.37413710  0.63820927  0.38197918  1
  Sr2+  Sr27  1  0.36106202  0.63542156  0.87463976  1
  Sr2+  Sr28  1  0.86912792  0.12609562  0.37916712  1
  Sr2+  Sr29  1  0.88495871  0.12415781  0.86444647  1
  Sr2+  Sr30  1  0.87563568  0.62691286  0.38119596  1
  Sr2+  Sr31  1  0.87002442  0.63575551  0.87155301  1
  Sr2+  Sr32  1  0.11687170  0.11899964  0.37383301  1
  Sr2+  Sr33  1  0.11917359  0.11135741  0.87550736  1
  Sr2+  Sr34  1  0.11214640  0.62821667  0.37760072  1
  Sr2+  Sr35  1  0.12611042  0.61909199  0.88183198  1
  Sr2+  Sr36  1  0.62058601  0.11752593  0.37821164  1
  Sr2+  Sr37  1  0.61763434  0.11734257  0.87056061  1
  Sr2+  Sr38  1  0.62097997  0.62641637  0.37596214  1
  Sr2+  Sr39  1  0.62310130  0.62609428  0.86997445  1
  Sr2+  Sr40  1  0.36696412  0.37945654  0.37765299  1
  Sr2+  Sr41  1  0.36704129  0.39485736  0.87050285  1
  Sr2+  Sr42  1  0.37563887  0.87535550  0.37083859  1
  Sr2+  Sr43  1  0.37375507  0.87133204  0.87338938  1
  Sr2+  Sr44  1  0.87363777  0.37638635  0.37484974  1
  Sr2+  Sr45  1  0.87157654  0.39899890  0.87307534  1
  Sr2+  Sr46  1  0.87524863  0.87101245  0.37324150  1
  Sr2+  Sr47  1  0.86993993  0.87796699  0.86650712  1
  Sr2+  Sr48  1  0.13660817  0.36938053  0.12530765  1
  Sr2+  Sr49  1  0.13801941  0.37278995  0.62115815  1
  Sr2+  Sr50  1  0.12734227  0.87097484  0.12316917  1
  Sr2+  Sr51  1  0.13358660  0.87700239  0.64600178  1
  Sr2+  Sr52  1  0.61593146  0.37126848  0.12963492  1
  Sr2+  Sr53  1  0.60926202  0.36701840  0.62052072  1
  Sr2+  Sr54  1  0.61839682  0.87178296  0.12610599  1
  Sr2+  Sr55  1  0.63337473  0.86362065  0.62915011  1
  Sr2+  Sr56  1  0.37152375  0.13415724  0.12009862  1
  Sr2+  Sr57  1  0.37563879  0.13195501  0.62387232  1
  Sr2+  Sr58  1  0.38480334  0.62463927  0.11956860  1
  Sr2+  Sr59  1  0.38138669  0.61828930  0.63412758  1
  Sr2+  Sr60  1  0.87105235  0.13478144  0.12189571  1
  Sr2+  Sr61  1  0.85037696  0.12683579  0.62796211  1
  Sr2+  Sr62  1  0.86562486  0.61885794  0.12530009  1
  Sr2+  Sr63  1  0.88217045  0.61673017  0.62984762  1
  Ca2+  Ca64  1  0.00031107  0.00354582  0.49978503  1
  Ca2+  Ca65  1  0.50150406  0.49745881  -0.00347004  1
  Ca2+  Ca66  1  0.50101255  0.50222340  0.50182681  1
  Ca2+  Ca67  1  0.49799903  -0.00061935  0.49976669  1
  Ca2+  Ca68  1  -0.00071693  0.50244235  0.00503652  1
  Ca2+  Ca69  1  0.24976037  0.74849943  0.50107657  1
  Ca2+  Ca70  1  0.74781682  0.75248513  -0.00086605  1
  Ca2+  Ca71  1  0.25299577  0.24936184  -0.00122641  1
  Ca2+  Ca72  1  0.74956991  0.24908476  0.00067623  1
  Ca2+  Ca73  1  0.75031571  0.74936132  0.49767531  1
  Ca2+  Ca74  1  -0.00241474  0.25095192  0.74816435  1
  Ca2+  Ca75  1  0.25020288  0.50219903  0.74914567  1
  Ca2+  Ca76  1  0.49810251  0.24904835  0.75073997  1
  Ca2+  Ca77  1  0.74695604  0.49739839  0.74552926  1
  Ca2+  Ca78  1  0.49854822  0.24645953  0.25119286  1
  Ca2+  Ca79  1  0.25085070  -0.00096728  0.75128367  1
  Ca2+  Ca80  1  0.00264442  0.74654339  0.75066675  1
  Ca2+  Ca81  1  0.74693765  -0.00035337  0.75135755  1
  Ca2+  Ca82  1  0.50044765  0.74637560  0.24883813  1
  Ca2+  Ca83  1  0.49917489  0.74798713  0.75241765  1
  Ca2+  Ca84  1  0.24826201  0.50298027  0.25116885  1
  Nb5+  Nb85  1  -0.00139444  0.49658316  0.49999262  1
  Nb5+  Nb86  1  -0.00580585  0.00025306  0.00691654  1
  Nb5+  Nb87  1  0.49041626  0.00237126  0.00169307  1
  Nb5+  Nb88  1  0.24361777  0.25048995  0.49698271  1
  Nb5+  Nb89  1  0.74457196  0.25430915  0.49848241  1
  Nb5+  Nb90  1  0.24799843  0.75348011  -0.00144182  1
  Nb5+  Nb91  1  0.74602088  -0.00769903  0.25104443  1
  Nb5+  Nb92  1  0.75232909  0.49217609  0.25263040  1
  Nb5+  Nb93  1  0.00002314  0.74386812  0.24678276  1
  Nb5+  Nb94  1  0.24189846  -0.00150428  0.24892874  1
  Nb5+  Nb95  1  -0.00054325  0.24564342  0.24876397  1
  Nb5+  Nb96  1  -0.00764274  -0.00209091  0.24497396  1
  Nb5+  Nb97  1  0.00122741  -0.00005076  0.74180113  1
  Nb5+  Nb98  1  -0.00211559  0.49465149  0.24884098  1
  Nb5+  Nb99  1  0.00114920  0.50025147  0.75477640  1
  Nb5+  Nb100  1  0.49002269  0.00487797  0.24772799  1
  Nb5+  Nb101  1  0.50302477  -0.00168493  0.74186794  1
  Nb5+  Nb102  1  0.49406098  0.50404711  0.25473332  1
  Nb5+  Nb103  1  0.49999587  0.50047425  0.75009273  1
  Nb5+  Nb104  1  0.25297161  0.24944953  0.25091184  1
  Nb5+  Nb105  1  0.24953227  0.25253193  0.75670926  1
  Nb5+  Nb106  1  0.24811502  0.74727592  0.25019277  1
  Nb5+  Nb107  1  0.24417481  0.74700099  0.74287164  1
  Nb5+  Nb108  1  0.75035653  0.24601564  0.25065503  1
  Nb5+  Nb109  1  0.74729777  0.24708464  0.75666163  1
  Nb5+  Nb110  1  0.74814012  0.74647014  0.25187535  1
  Nb5+  Nb111  1  0.74933091  0.74948795  0.75244636  1
  Nb5+  Nb112  1  -0.00307082  0.24960017  0.49950741  1
  Nb5+  Nb113  1  0.00060655  0.25389439  0.99512092  1
  Nb5+  Nb114  1  0.00274569  0.75552772  0.50420548  1
  Nb5+  Nb115  1  -0.00245669  0.74817707  1.00531169  1
  Nb5+  Nb116  1  0.49063131  0.24684994  0.49262983  1
  Nb5+  Nb117  1  0.49691240  0.25126661  0.99691595  1
  Nb5+  Nb118  1  0.50257442  0.74894084  0.50375041  1
  Nb5+  Nb119  1  0.50153489  0.74772415  1.00458798  1
  Nb5+  Nb120  1  0.24588457  -0.00119828  -0.00058046  1
  Nb5+  Nb121  1  0.24582526  -0.00079864  0.50690295  1
  Nb5+  Nb122  1  0.25102895  0.49634599  0.00716270  1
  Nb5+  Nb123  1  0.25317768  0.50290772  0.49122359  1
  Nb5+  Nb124  1  0.74526160  -0.00041329  -0.00008159  1
  Nb5+  Nb125  1  0.75291676  -0.00395336  0.49956340  1
  Nb5+  Nb126  1  0.74593178  0.49705716  -0.00827800  1
  Nb5+  Nb127  1  0.74947562  0.49686075  0.49980168  1
  O2-  O128  1  0.03011567  -0.00127143  0.12945706  1
  O2-  O129  1  0.03108538  -0.00225770  0.63211173  1
  O2-  O130  1  -0.03569849  0.50084044  0.13844636  1
  O2-  O131  1  -0.02245058  0.48668653  0.61382651  1
  O2-  O132  1  0.51757555  -0.01170092  0.12319396  1
  O2-  O133  1  0.52862744  -0.01900412  0.63197417  1
  O2-  O134  1  0.48981422  0.48380051  0.13613605  1
  O2-  O135  1  0.46719187  0.48937923  0.63282449  1
  O2-  O136  1  -0.01337027  0.01665306  0.35859393  1
  O2-  O137  1  -0.01835056  -0.00342527  0.89058866  1
  O2-  O138  1  0.01558489  0.50791465  0.37041745  1
  O2-  O139  1  0.02501727  0.50403554  0.86755038  1
  O2-  O140  1  0.48045698  0.01390001  0.36290548  1
  O2-  O141  1  0.48001011  0.01209884  0.88497393  1
  O2-  O142  1  0.52985952  0.51048394  0.36706724  1
  O2-  O143  1  0.53475858  0.50528860  0.86667374  1
  O2-  O144  1  0.25162585  0.22655260  0.13687659  1
  O2-  O145  1  0.25249730  0.22940451  0.61280252  1
  O2-  O146  1  0.23391228  0.74552953  0.12801261  1
  O2-  O147  1  0.21992993  0.72554111  0.63300606  1
  O2-  O148  1  0.77387760  0.25632223  0.13887134  1
  O2-  O149  1  0.76044747  0.25864603  0.61335260  1
  O2-  O150  1  0.74365170  0.76316113  0.13659798  1
  O2-  O151  1  0.72990221  0.74565271  0.63179592  1
  O2-  O152  1  0.24195900  0.26988701  0.37344192  1
  O2-  O153  1  0.24447670  0.28089160  0.86764667  1
  O2-  O154  1  0.25820644  0.77818718  0.36266492  1
  O2-  O155  1  0.26219539  0.76976671  0.88461274  1
  O2-  O156  1  0.75518498  0.24959749  0.37331988  1
  O2-  O157  1  0.73205537  0.22920905  0.86811257  1
  O2-  O158  1  0.78482492  0.74823874  0.36345883  1
  O2-  O159  1  0.77942984  0.75394135  0.86854811  1
  O2-  O160  1  -0.01677883  0.25603395  0.13256719  1
  O2-  O161  1  -0.00092465  0.27212819  0.61097877  1
  O2-  O162  1  0.02010434  0.75760413  0.12819054  1
  O2-  O163  1  0.02463414  0.77015465  0.61444952  1
  O2-  O164  1  0.47231681  0.25285302  0.11860399  1
  O2-  O165  1  0.49150903  0.26195289  0.61206444  1
  O2-  O166  1  0.49337743  0.77683543  0.11797616  1
  O2-  O167  1  0.51142614  0.77194375  0.62005240  1
  O2-  O168  1  0.27351390  -0.01275997  0.36253897  1
  O2-  O169  1  0.27790189  -0.01062798  0.88935710  1
  O2-  O170  1  0.22968051  0.46489599  0.38183322  1
  O2-  O171  1  0.22432761  0.48340278  0.89029338  1
  O2-  O172  1  0.77852237  0.00638730  0.36494115  1
  O2-  O173  1  0.77238044  0.02141941  0.89057586  1
  O2-  O174  1  0.73675961  0.49484472  0.37213991  1
  O2-  O175  1  0.72352876  0.48749450  0.88112651  1
  O2-  O176  1  0.00962275  0.24229732  0.37147063  1
  O2-  O177  1  0.02477494  0.24581984  0.88420176  1
  O2-  O178  1  -0.01617654  0.74253887  0.36440820  1
  O2-  O179  1  -0.01639700  0.75673444  0.88973941  1
  O2-  O180  1  0.52236767  0.23401871  0.38174307  1
  O2-  O181  1  0.52849730  0.23888974  0.88463445  1
  O2-  O182  1  0.48991285  0.73572912  0.38231770  1
  O2-  O183  1  0.47961934  0.74179477  0.88919759  1
  O2-  O184  1  0.23666319  0.01445842  0.12882393  1
  O2-  O185  1  0.21894861  0.02207640  0.61477540  1
  O2-  O186  1  0.26902014  0.53517119  0.11992698  1
  O2-  O187  1  0.25901183  0.52064449  0.60936168  1
  O2-  O188  1  0.73363897  -0.01779330  0.13365297  1
  O2-  O189  1  0.72634856  0.00199994  0.61048245  1
  O2-  O190  1  0.76970170  0.50299166  0.13526214  1
  O2-  O191  1  0.77986073  0.49960663  0.61131063  1
  O2-  O192  1  0.12059505  0.26697860  0.24502928  1
  O2-  O193  1  0.13376571  0.27162200  0.73147198  1
  O2-  O194  1  0.11835236  0.77587325  0.25683036  1
  O2-  O195  1  0.13330031  0.77942052  0.77154821  1
  O2-  O196  1  0.63853852  0.27085567  0.24535187  1
  O2-  O197  1  0.63415631  0.27537584  0.73278632  1
  O2-  O198  1  0.63806821  0.77201988  0.27007746  1
  O2-  O199  1  0.63389986  0.77523668  0.77244097  1
  O2-  O200  1  0.36346306  0.22112489  0.26598397  1
  O2-  O201  1  0.36389402  0.22188780  0.74665236  1
  O2-  O202  1  0.36178815  0.72579965  0.24096013  1
  O2-  O203  1  0.36300778  0.72805845  0.74025724  1
  O2-  O204  1  0.88084279  0.23323182  0.26580245  1
  O2-  O205  1  0.86553318  0.22067825  0.74692994  1
  O2-  O206  1  0.88291532  0.73858636  0.22575603  1
  O2-  O207  1  0.86959546  0.72664321  0.72752530  1
  O2-  O208  1  0.26852223  0.36378257  0.23115995  1
  O2-  O209  1  0.27270652  0.36767706  0.72784504  1
  O2-  O210  1  0.26283756  0.88100551  0.22985259  1
  O2-  O211  1  0.26974329  0.86536904  0.72568579  1
  O2-  O212  1  0.77569514  0.37605335  0.25376250  1
  O2-  O213  1  0.77857640  0.36331270  0.75796936  1
  O2-  O214  1  0.77626995  0.87829103  0.25606604  1
  O2-  O215  1  0.77687368  0.86880013  0.74066770  1
  O2-  O216  1  0.22811908  0.12056700  0.26710223  1
  O2-  O217  1  0.22443127  0.13464818  0.76812873  1
  O2-  O218  1  0.21540912  0.63807747  0.26676303  1
  O2-  O219  1  0.22952136  0.63435535  0.78012741  1
  O2-  O220  1  0.74033817  0.12547573  0.24668029  1
  O2-  O221  1  0.72715723  0.13271460  0.72647074  1
  O2-  O222  1  0.73851342  0.62708079  0.24911266  1
  O2-  O223  1  0.72572010  0.63107612  0.76003638  1
  O2-  O224  1  0.11104578  0.48255927  0.22815833  1
  O2-  O225  1  0.11573823  0.47582644  0.72552850  1
  O2-  O226  1  0.12695115  0.98380429  0.26386850  1
  O2-  O227  1  0.11592712  0.97945824  0.77933289  1
  O2-  O228  1  0.63596065  0.47898119  0.23738861  1
  O2-  O229  1  0.61542015  0.47390646  0.71933749  1
  O2-  O230  1  0.63287996  0.98274621  0.26873944  1
  O2-  O231  1  0.61523443  0.98526303  0.78378329  1
  O2-  O232  1  0.37587229  0.02001630  0.22707216  1
  O2-  O233  1  0.38522295  0.02217739  0.72893059  1
  O2-  O234  1  0.38304251  0.53001416  0.27176979  1
  O2-  O235  1  0.38294196  0.52403264  0.77845852  1
  O2-  O236  1  0.87958501  0.01496920  0.22276196  1
  O2-  O237  1  0.88488547  0.02538136  0.73841136  1
  O2-  O238  1  0.87348037  0.51702391  0.27541165  1
  O2-  O239  1  0.88354188  0.52459640  0.76941968  1
  O2-  O240  1  0.48132793  0.38315869  0.26772323  1
  O2-  O241  1  0.47675742  0.38147844  0.76834685  1
  O2-  O242  1  0.48848115  0.88610509  0.25875473  1
  O2-  O243  1  0.47714290  0.88428361  0.76823550  1
  O2-  O244  1  0.98196943  0.37576642  0.25955831  1
  O2-  O245  1  0.97299881  0.38434684  0.75662093  1
  O2-  O246  1  0.98304550  0.88033939  0.25196607  1
  O2-  O247  1  0.97611732  0.88387131  0.75371307  1
  O2-  O248  1  0.01720342  0.12768443  0.23897922  1
  O2-  O249  1  0.02212605  0.11647864  0.76244864  1
  O2-  O250  1  0.01620952  0.62702322  0.24377632  1
  O2-  O251  1  0.01985503  0.61405644  0.72433411  1
  O2-  O252  1  0.53281406  0.11317261  0.23872264  1
  O2-  O253  1  0.52280039  0.11607822  0.74553136  1
  O2-  O254  1  0.53146248  0.61560461  0.23329372  1
  O2-  O255  1  0.52507281  0.61721363  0.73621867  1
  O2-  O256  1  0.13331205  0.49436888  0.03403175  1
  O2-  O257  1  0.11953875  0.48206018  0.51232395  1
  O2-  O258  1  0.13036223  0.97935223  -0.01105453  1
  O2-  O259  1  0.13705342  0.99241559  0.46175769  1
  O2-  O260  1  0.63566169  0.47659808  0.03121206  1
  O2-  O261  1  0.63893997  0.46822066  0.51224601  1
  O2-  O262  1  0.62951132  0.98165521  -0.01154267  1
  O2-  O263  1  0.63996211  0.99164443  0.46244510  1
  O2-  O264  1  0.37631319  0.01414838  0.02661467  1
  O2-  O265  1  0.35990740  0.03150216  0.50748708  1
  O2-  O266  1  0.36474934  0.52403497  -0.02065649  1
  O2-  O267  1  0.36636728  0.51158434  0.46936018  1
  O2-  O268  1  0.88372290  0.01350546  0.03296252  1
  O2-  O269  1  0.86525922  0.03710690  0.50619726  1
  O2-  O270  1  0.86422339  0.52836512  -0.01981909  1
  O2-  O271  1  0.88056030  0.50826289  0.47435961  1
  O2-  O272  1  0.46644274  0.36305175  -0.01267968  1
  O2-  O273  1  0.48468831  0.36571081  0.47936961  1
  O2-  O274  1  0.47933003  0.88242938  -0.01107539  1
  O2-  O275  1  0.46711027  0.86744293  0.48573983  1
  O2-  O276  1  0.97514101  0.36624000  -0.00361750  1
  O2-  O277  1  0.99111506  0.37524140  0.47493730  1
  O2-  O278  1  0.99329458  0.87778700  0.01397060  1
  O2-  O279  1  0.98217802  0.86731748  0.48270392  1
  O2-  O280  1  0.02544605  0.11535130  0.00661399  1
  O2-  O281  1  0.03089696  0.13980647  0.50580434  1
  O2-  O282  1  0.03018046  0.63772507  0.00552876  1
  O2-  O283  1  0.01625573  0.61647946  0.50545953  1
  O2-  O284  1  0.52497991  0.11511510  0.00840005  1
  O2-  O285  1  0.52241149  0.13341301  0.51205475  1
  O2-  O286  1  0.51786158  0.63486394  0.02243609  1
  O2-  O287  1  0.53781551  0.63395365  0.51190746  1
  O2-  O288  1  0.11468553  0.25895732  0.02764118  1
  O2-  O289  1  0.12849088  0.27504945  0.49805877  1
  O2-  O290  1  0.12865859  0.77564429  -0.00374394  1
  O2-  O291  1  0.11438055  0.75202281  0.46748598  1
  O2-  O292  1  0.61322823  0.25803080  0.03177011  1
  O2-  O293  1  0.63130023  0.27425267  0.49988852  1
  O2-  O294  1  0.61271664  0.78015756  -0.00503426  1
  O2-  O295  1  0.61834651  0.78448244  0.48854790  1
  O2-  O296  1  0.38560759  0.20747294  -0.01680931  1
  O2-  O297  1  0.37334546  0.23135439  0.48350626  1
  O2-  O298  1  0.36771970  0.73781404  0.01539337  1
  O2-  O299  1  0.38350703  0.71586622  0.51796030  1
  O2-  O300  1  0.88974388  0.21328060  -0.00828356  1
  O2-  O301  1  0.88133512  0.23304237  0.49174333  1
  O2-  O302  1  0.88587201  0.73155178  0.02617734  1
  O2-  O303  1  0.88918795  0.72290685  0.51618090  1
  O2-  O304  1  0.26881274  0.38448133  0.03186968  1
  O2-  O305  1  0.27068611  0.36931937  0.51641115  1
  O2-  O306  1  0.26578550  0.87752213  0.02230919  1
  O2-  O307  1  0.26396982  0.88606312  0.52202581  1
  O2-  O308  1  0.78169820  0.38302361  0.00317973  1
  O2-  O309  1  0.77921681  0.37190772  0.49081337  1
  O2-  O310  1  0.78322524  0.88842691  -0.00005598  1
  O2-  O311  1  0.78450655  0.88537916  0.50006544  1
  O2-  O312  1  0.23080892  0.11348431  -0.00742048  1
  O2-  O313  1  0.23263825  0.13373582  0.47356660  1
  O2-  O314  1  0.23034906  0.63666670  -0.01179740  1
  O2-  O315  1  0.23119988  0.61372943  0.46718546  1
  O2-  O316  1  0.74421811  0.11189059  0.03403315  1
  O2-  O317  1  0.73254125  0.13541811  0.49649005  1
  O2-  O318  1  0.72293152  0.61669088  0.00017031  1
  O2-  O319  1  0.73398637  0.61148898  0.48943452  1
