# generated using pymatgen
data_Sr64Ca21Nb43O192
_symmetry_space_group_name_H-M   'P 1'
_cell_length_a   16.56864462
_cell_length_b   16.57785099
_cell_length_c   16.73162294
_cell_angle_alpha   89.97002178
_cell_angle_beta   89.97889057
_cell_angle_gamma   90.05255179
_symmetry_Int_Tables_number   1
_chemical_formula_structural   Sr64Ca21Nb43O192
_chemical_formula_sum   'Sr64 Ca21 Nb43 O192'
_cell_volume   4595.71418814
_cell_formula_units_Z   1
loop_
 _symmetry_equiv_pos_site_id
 _symmetry_equiv_pos_as_xyz
  1  'x, y, z'
loop_
 _atom_type_symbol
 _atom_type_oxidation_number
  Sr2+  2.0
  Ca2+  2.0
  Nb5+  5.0
  O2-  -2.0
loop_
 _atom_site_type_symbol
 _atom_site_label
 _atom_site_symmetry_multiplicity
 _atom_site_fract_x
 _atom_site_fract_y
 _atom_site_fract_z
 _atom_site_occupancy
  Sr2+  Sr0  1  0.12141359  0.10454917  0.12152937  1
  Sr2+  Sr1  1  0.11731480  0.10462567  0.62608769  1
  Sr2+  Sr2  1  0.11856166  0.63522654  0.12542547  1
  Sr2+  Sr3  1  0.11883993  0.62753984  0.62372573  1
  Sr2+  Sr4  1  0.62442189  0.10540382  0.13092169  1
  Sr2+  Sr5  1  0.62099939  0.10840821  0.62553963  1
  Sr2+  Sr6  1  0.62012485  0.61732297  0.13834825  1
  Sr2+  Sr7  1  0.61807357  0.63105055  0.62516337  1
  Sr2+  Sr8  1  0.36694449  0.36858996  0.12828351  1
  Sr2+  Sr9  1  0.36957715  0.37264132  0.61472305  1
  Sr2+  Sr10  1  0.36400888  0.87770207  0.13004508  1
  Sr2+  Sr11  1  0.36641773  0.86636540  0.62404138  1
  Sr2+  Sr12  1  0.86561866  0.37500900  0.12418942  1
  Sr2+  Sr13  1  0.87090900  0.37369368  0.61695444  1
  Sr2+  Sr14  1  0.87110073  0.88108631  0.13175711  1
  Sr2+  Sr15  1  0.86691363  0.87712269  0.63213309  1
  Sr2+  Sr16  1  0.13132700  0.37362315  0.37282147  1
  Sr2+  Sr17  1  0.14192601  0.37114463  0.87167695  1
  Sr2+  Sr18  1  0.14184933  0.87548831  0.37335203  1
  Sr2+  Sr19  1  0.13068584  0.87529101  0.87948676  1
  Sr2+  Sr20  1  0.62833761  0.37456418  0.37428159  1
  Sr2+  Sr21  1  0.63704466  0.38287772  0.87420641  1
  Sr2+  Sr22  1  0.63265956  0.88408150  0.36336025  1
  Sr2+  Sr23  1  0.62975349  0.88140519  0.87398345  1
  Sr2+  Sr24  1  0.38069397  0.12528678  0.36948140  1
  Sr2+  Sr25  1  0.37946169  0.12938782  0.87404266  1
  Sr2+  Sr26  1  0.37359170  0.62641632  0.37624961  1
  Sr2+  Sr27  1  0.37587120  0.62348806  0.87745057  1
  Sr2+  Sr28  1  0.87635469  0.13378217  0.36659527  1
  Sr2+  Sr29  1  0.88753439  0.13094107  0.87328566  1
  Sr2+  Sr30  1  0.87728206  0.62402825  0.36826871  1
  Sr2+  Sr31  1  0.87499708  0.62160088  0.87111612  1
  Sr2+  Sr32  1  0.13191150  0.12449526  0.39007433  1
  Sr2+  Sr33  1  0.13038324  0.12371651  0.87261423  1
  Sr2+  Sr34  1  0.12837387  0.61926710  0.37017127  1
  Sr2+  Sr35  1  0.13151443  0.61381396  0.87048681  1
  Sr2+  Sr36  1  0.63273506  0.13030887  0.37235636  1
  Sr2+  Sr37  1  0.63185940  0.13056126  0.87238658  1
  Sr2+  Sr38  1  0.63646728  0.62163641  0.37730778  1
  Sr2+  Sr39  1  0.63251637  0.62481157  0.88019653  1
  Sr2+  Sr40  1  0.37731519  0.37670584  0.37016772  1
  Sr2+  Sr41  1  0.37685838  0.38048475  0.88275792  1
  Sr2+  Sr42  1  0.38181193  0.89011905  0.36949916  1
  Sr2+  Sr43  1  0.38320552  0.88749684  0.87557884  1
  Sr2+  Sr44  1  0.87816364  0.38208651  0.37540212  1
  Sr2+  Sr45  1  0.87638950  0.37302082  0.88129167  1
  Sr2+  Sr46  1  0.88735203  0.88270213  0.36972665  1
  Sr2+  Sr47  1  0.88025695  0.86430768  0.87904949  1
  Sr2+  Sr48  1  0.13103705  0.37216897  0.12520097  1
  Sr2+  Sr49  1  0.11934227  0.37648770  0.62208688  1
  Sr2+  Sr50  1  0.11916163  0.86942360  0.12646097  1
  Sr2+  Sr51  1  0.13108614  0.87241958  0.62108766  1
  Sr2+  Sr52  1  0.61489721  0.37619936  0.13019677  1
  Sr2+  Sr53  1  0.61888662  0.37514942  0.62470737  1
  Sr2+  Sr54  1  0.60674008  0.87448811  0.12759637  1
  Sr2+  Sr55  1  0.61739087  0.86839687  0.62476477  1
  Sr2+  Sr56  1  0.36170177  0.11842312  0.12473524  1
  Sr2+  Sr57  1  0.36300737  0.11192348  0.62251021  1
  Sr2+  Sr58  1  0.36384248  0.61999169  0.12547259  1
  Sr2+  Sr59  1  0.35776159  0.62617834  0.62454134  1
  Sr2+  Sr60  1  0.86999736  0.11791041  0.11854084  1
  Sr2+  Sr61  1  0.87348320  0.11888274  0.61671766  1
  Sr2+  Sr62  1  0.86465392  0.63694366  0.13150797  1
  Sr2+  Sr63  1  0.86044584  0.63405563  0.62605385  1
  Ca2+  Ca64  1  0.50312779  0.00091125  0.49945853  1
  Ca2+  Ca65  1  -0.00256587  -0.00247790  0.49810667  1
  Ca2+  Ca66  1  0.49916595  0.00590788  -0.00033353  1
  Ca2+  Ca67  1  -0.00072749  0.50058176  -0.00021923  1
  Ca2+  Ca68  1  -0.00450570  -0.00179007  -0.00195103  1
  Ca2+  Ca69  1  0.25055928  0.24859526  0.50266213  1
  Ca2+  Ca70  1  0.24919808  0.74800223  -0.00116514  1
  Ca2+  Ca71  1  0.75392954  0.74980128  0.49840714  1
  Ca2+  Ca72  1  0.25088297  0.74738952  0.49661135  1
  Ca2+  Ca73  1  0.74874718  0.74722711  0.00067049  1
  Ca2+  Ca74  1  0.00079526  0.24886527  0.24811822  1
  Ca2+  Ca75  1  0.24712438  0.00116320  0.25043708  1
  Ca2+  Ca76  1  0.75296853  0.49762473  0.25027570  1
  Ca2+  Ca77  1  0.75189378  0.50054953  0.74783035  1
  Ca2+  Ca78  1  0.25022437  0.50035369  0.25000431  1
  Ca2+  Ca79  1  0.50064922  0.24818954  0.24768845  1
  Ca2+  Ca80  1  0.75163361  0.00248938  0.75378760  1
  Ca2+  Ca81  1  0.24965440  -0.00191767  0.75120382  1
  Ca2+  Ca82  1  0.75236338  0.00108052  0.25259323  1
  Ca2+  Ca83  1  0.25178279  0.49860254  0.74752902  1
  Ca2+  Ca84  1  0.50035826  0.74931600  0.24967010  1
  Nb5+  Nb85  1  0.49720925  0.50338582  0.50570536  1
  Nb5+  Nb86  1  -0.00478776  0.50375495  0.50223130  1
  Nb5+  Nb87  1  0.49948804  0.50145581  0.00526484  1
  Nb5+  Nb88  1  0.25471541  0.24802075  -0.00109548  1
  Nb5+  Nb89  1  0.74980212  0.25125463  0.49671121  1
  Nb5+  Nb90  1  0.75277682  0.24756860  -0.00546570  1
  Nb5+  Nb91  1  0.00556199  0.24853719  0.74874094  1
  Nb5+  Nb92  1  -0.00078797  0.74483855  0.75365080  1
  Nb5+  Nb93  1  0.50617486  0.24876056  0.75051486  1
  Nb5+  Nb94  1  0.49273217  0.74256263  0.75237901  1
  Nb5+  Nb95  1  0.00047676  0.75075422  0.25747455  1
  Nb5+  Nb96  1  0.00475829  0.00523445  0.25582378  1
  Nb5+  Nb97  1  -0.00182444  -0.01142261  0.74942424  1
  Nb5+  Nb98  1  0.00301047  0.49956862  0.24353012  1
  Nb5+  Nb99  1  -0.00394459  0.49257637  0.74970069  1
  Nb5+  Nb100  1  0.49925802  0.00167305  0.25026903  1
  Nb5+  Nb101  1  0.49786958  -0.00961781  0.74631994  1
  Nb5+  Nb102  1  0.49966449  0.49930565  0.26102601  1
  Nb5+  Nb103  1  0.49757354  0.49399520  0.75372281  1
  Nb5+  Nb104  1  0.24857009  0.24671830  0.25293391  1
  Nb5+  Nb105  1  0.25824671  0.25116083  0.74621744  1
  Nb5+  Nb106  1  0.25410065  0.74623770  0.24825142  1
  Nb5+  Nb107  1  0.24303460  0.74952525  0.75132393  1
  Nb5+  Nb108  1  0.74899136  0.25222986  0.23802183  1
  Nb5+  Nb109  1  0.75570390  0.25245889  0.74353377  1
  Nb5+  Nb110  1  0.74841135  0.75247280  0.25040324  1
  Nb5+  Nb111  1  0.74141937  0.75176286  0.75257512  1
  Nb5+  Nb112  1  0.00025015  0.25301529  0.49927076  1
  Nb5+  Nb113  1  0.00733468  0.24993352  1.00227921  1
  Nb5+  Nb114  1  -0.00332412  0.75295973  0.50477263  1
  Nb5+  Nb115  1  -0.00144030  0.74702903  1.00517969  1
  Nb5+  Nb116  1  0.50277874  0.25070309  0.50102838  1
  Nb5+  Nb117  1  0.50732241  0.25204907  0.99715774  1
  Nb5+  Nb118  1  0.49928280  0.75526501  0.49732757  1
  Nb5+  Nb119  1  0.49764754  0.75176620  1.00147764  1
  Nb5+  Nb120  1  0.25058884  -0.00536228  -0.00289839  1
  Nb5+  Nb121  1  0.25234074  -0.00110152  0.49944490  1
  Nb5+  Nb122  1  0.24482661  0.49869410  0.00018380  1
  Nb5+  Nb123  1  0.24200854  0.49630702  0.49871555  1
  Nb5+  Nb124  1  0.74975745  -0.00503117  -0.00124775  1
  Nb5+  Nb125  1  0.75418850  -0.00463892  0.50005691  1
  Nb5+  Nb126  1  0.74898567  0.50163199  0.00698467  1
  Nb5+  Nb127  1  0.74463673  0.49857227  0.50461935  1
  O2-  O128  1  -0.01809111  0.01840522  0.13692252  1
  O2-  O129  1  -0.01897399  0.01522731  0.63375794  1
  O2-  O130  1  0.03167331  0.50819306  0.13353936  1
  O2-  O131  1  0.02309780  0.50613068  0.62364899  1
  O2-  O132  1  0.48733831  0.03328679  0.13397891  1
  O2-  O133  1  0.48554610  0.02765289  0.63496871  1
  O2-  O134  1  0.50513240  0.51586198  0.11947301  1
  O2-  O135  1  0.51227099  0.51721524  0.62124482  1
  O2-  O136  1  0.01952806  -0.03549330  0.36703593  1
  O2-  O137  1  0.02429682  -0.01629307  0.86413421  1
  O2-  O138  1  -0.01684278  0.49475570  0.38524433  1
  O2-  O139  1  -0.02746816  0.49324714  0.86353546  1
  O2-  O140  1  0.51357631  -0.02994198  0.36793176  1
  O2-  O141  1  0.51496634  -0.01981411  0.86424485  1
  O2-  O142  1  0.49429309  0.48014302  0.37772413  1
  O2-  O143  1  0.49197029  0.48330733  0.86965511  1
  O2-  O144  1  0.24449578  0.27139355  0.11366735  1
  O2-  O145  1  0.24630941  0.27999192  0.63638523  1
  O2-  O146  1  0.24601236  0.77780144  0.13222166  1
  O2-  O147  1  0.25017998  0.77239545  0.63329631  1
  O2-  O148  1  0.74044592  0.27018921  0.12212729  1
  O2-  O149  1  0.74469245  0.27507847  0.63074302  1
  O2-  O150  1  0.77073864  0.76583495  0.13327739  1
  O2-  O151  1  0.75702603  0.77425488  0.63577692  1
  O2-  O152  1  0.25272476  0.22291755  0.36619544  1
  O2-  O153  1  0.24934124  0.23039256  0.87620717  1
  O2-  O154  1  0.24384759  0.71810578  0.36416065  1
  O2-  O155  1  0.24447521  0.71679345  0.86492068  1
  O2-  O156  1  0.75594934  0.23509224  0.38284900  1
  O2-  O157  1  0.75889808  0.23088183  0.87853598  1
  O2-  O158  1  0.74931110  0.72263808  0.36633533  1
  O2-  O159  1  0.75476817  0.71906157  0.86459685  1
  O2-  O160  1  0.01412001  0.22537531  0.11250140  1
  O2-  O161  1  0.00185100  0.24863983  0.62865289  1
  O2-  O162  1  -0.00265400  0.73319152  0.12271932  1
  O2-  O163  1  0.00172896  0.73814972  0.62524740  1
  O2-  O164  1  0.51794641  0.23426188  0.10841124  1
  O2-  O165  1  0.51608640  0.24905876  0.63106985  1
  O2-  O166  1  0.51782230  0.72669365  0.11146623  1
  O2-  O167  1  0.50442681  0.73416742  0.63475377  1
  O2-  O168  1  0.22919894  0.01749620  0.38352967  1
  O2-  O169  1  0.22682006  0.01566342  0.88324077  1
  O2-  O170  1  0.26091404  0.52462589  0.38584093  1
  O2-  O171  1  0.26454575  0.51677562  0.88433292  1
  O2-  O172  1  0.72061880  0.01312840  0.38773645  1
  O2-  O173  1  0.71789039  0.01447660  0.88657236  1
  O2-  O174  1  0.76504900  0.51467139  0.38855625  1
  O2-  O175  1  0.74995023  0.51356175  0.88750486  1
  O2-  O176  1  -0.02237378  0.26464004  0.38678756  1
  O2-  O177  1  -0.01352904  0.26934068  0.86451286  1
  O2-  O178  1  -0.00149730  0.75912681  0.37486874  1
  O2-  O179  1  0.00224731  0.76554975  0.86767046  1
  O2-  O180  1  0.49510476  0.27525508  0.38855718  1
  O2-  O181  1  0.48650989  0.27692352  0.86491477  1
  O2-  O182  1  0.49741582  0.77272817  0.38503812  1
  O2-  O183  1  0.48374631  0.76976401  0.86752136  1
  O2-  O184  1  0.27124682  -0.00557606  0.11521109  1
  O2-  O185  1  0.27307641  -0.01858559  0.61832858  1
  O2-  O186  1  0.25278602  0.46798026  0.11429062  1
  O2-  O187  1  0.24942037  0.46766237  0.61500376  1
  O2-  O188  1  0.77314011  0.00091209  0.11732058  1
  O2-  O189  1  0.77951688  -0.00101670  0.61877287  1
  O2-  O190  1  0.73578638  0.46416436  0.11740162  1
  O2-  O191  1  0.74638124  0.46398191  0.61645344  1
  O2-  O192  1  0.13382640  0.28347006  0.24997409  1
  O2-  O193  1  0.11880162  0.27565820  0.75282586  1
  O2-  O194  1  0.11956470  0.76649866  0.24867080  1
  O2-  O195  1  0.12317061  0.77303088  0.74812902  1
  O2-  O196  1  0.63459070  0.27989070  0.25865936  1
  O2-  O197  1  0.62050311  0.27737461  0.75986457  1
  O2-  O198  1  0.63539261  0.77826625  0.24657062  1
  O2-  O199  1  0.62293700  0.77093396  0.75608113  1
  O2-  O200  1  0.36601942  0.22822724  0.23205201  1
  O2-  O201  1  0.37509905  0.23148559  0.74026828  1
  O2-  O202  1  0.36805179  0.72269990  0.24328194  1
  O2-  O203  1  0.37623853  0.72913332  0.74461832  1
  O2-  O204  1  0.86559675  0.22047777  0.23394151  1
  O2-  O205  1  0.87180099  0.23248259  0.74043568  1
  O2-  O206  1  0.88276408  0.72645777  0.25429004  1
  O2-  O207  1  0.88180331  0.73278861  0.75108298  1
  O2-  O208  1  0.27618663  0.36564283  0.26272698  1
  O2-  O209  1  0.26562445  0.36440254  0.78085605  1
  O2-  O210  1  0.26618874  0.86345435  0.27464967  1
  O2-  O211  1  0.27047752  0.86239251  0.77740312  1
  O2-  O212  1  0.78175248  0.36291885  0.26684910  1
  O2-  O213  1  0.76326135  0.36430110  0.77946960  1
  O2-  O214  1  0.77795593  0.86582852  0.27211912  1
  O2-  O215  1  0.76830908  0.86556232  0.77662217  1
  O2-  O216  1  0.22513927  0.13606174  0.22016588  1
  O2-  O217  1  0.22511148  0.13875978  0.73558860  1
  O2-  O218  1  0.22860204  0.63178533  0.21869993  1
  O2-  O219  1  0.23078142  0.63296777  0.72368752  1
  O2-  O220  1  0.72204916  0.13693229  0.24508010  1
  O2-  O221  1  0.72017062  0.14133523  0.74182594  1
  O2-  O222  1  0.73583962  0.63221838  0.22854523  1
  O2-  O223  1  0.73307152  0.63530955  0.72308322  1
  O2-  O224  1  0.11505622  0.48787807  0.28159775  1
  O2-  O225  1  0.11370260  0.48619090  0.76733886  1
  O2-  O226  1  0.11594382  0.97600218  0.22740930  1
  O2-  O227  1  0.11531566  0.98601017  0.72407204  1
  O2-  O228  1  0.61745183  0.47457295  0.25311684  1
  O2-  O229  1  0.61465740  0.48738946  0.75056068  1
  O2-  O230  1  0.61791439  0.97854023  0.23244716  1
  O2-  O231  1  0.61568167  0.98464979  0.72875308  1
  O2-  O232  1  0.38111696  0.01584867  0.27071398  1
  O2-  O233  1  0.38476154  0.02219615  0.76871387  1
  O2-  O234  1  0.38642063  0.53028859  0.24856206  1
  O2-  O235  1  0.38769713  0.53186185  0.73989859  1
  O2-  O236  1  0.88628395  0.01217801  0.27680223  1
  O2-  O237  1  0.88669580  0.02125361  0.77259222  1
  O2-  O238  1  0.88851477  0.52932141  0.24078735  1
  O2-  O239  1  0.88653517  0.52964344  0.72766010  1
  O2-  O240  1  0.47687198  0.38607022  0.23006420  1
  O2-  O241  1  0.47637681  0.38168559  0.72958402  1
  O2-  O242  1  0.47819110  0.88284962  0.22215363  1
  O2-  O243  1  0.47991759  0.87453136  0.73040530  1
  O2-  O244  1  0.97648077  0.38607186  0.23847314  1
  O2-  O245  1  0.97626250  0.37838574  0.73329778  1
  O2-  O246  1  0.98105946  0.86512969  0.23303076  1
  O2-  O247  1  0.97942420  0.87268020  0.73662741  1
  O2-  O248  1  0.02614584  0.11611636  0.28132617  1
  O2-  O249  1  0.01847077  0.13451636  0.76029775  1
  O2-  O250  1  0.02221071  0.62885841  0.26026491  1
  O2-  O251  1  0.02271863  0.63060538  0.75934530  1
  O2-  O252  1  0.51859548  0.11759563  0.28077623  1
  O2-  O253  1  0.51870615  0.13624988  0.76635779  1
  O2-  O254  1  0.53247676  0.61482246  0.26823752  1
  O2-  O255  1  0.52109152  0.63057866  0.77023844  1
  O2-  O256  1  0.13327178  0.47328741  -0.01604648  1
  O2-  O257  1  0.12604186  0.47663165  0.48928035  1
  O2-  O258  1  0.13231808  0.98564951  0.02120410  1
  O2-  O259  1  0.13231599  0.97898119  0.51811942  1
  O2-  O260  1  0.61642824  0.47484089  -0.00576720  1
  O2-  O261  1  0.62812720  0.48209055  0.49024906  1
  O2-  O262  1  0.63223903  0.98470881  0.02797222  1
  O2-  O263  1  0.63804141  0.98428478  0.53106931  1
  O2-  O264  1  0.36499051  0.02879676  -0.01804144  1
  O2-  O265  1  0.36905533  0.03022402  0.48338982  1
  O2-  O266  1  0.37943118  0.50837996  0.00235637  1
  O2-  O267  1  0.38251342  0.51557169  0.50812611  1
  O2-  O268  1  0.86096520  0.03467897  -0.01825878  1
  O2-  O269  1  0.86462202  0.03802564  0.47939500  1
  O2-  O270  1  0.86308629  0.51553293  0.02065588  1
  O2-  O271  1  0.88038223  0.51527762  0.52052200  1
  O2-  O272  1  0.47975860  0.37384535  0.00959996  1
  O2-  O273  1  0.49281035  0.38156633  0.52085040  1
  O2-  O274  1  0.47541166  0.86424712  0.01764832  1
  O2-  O275  1  0.48285633  0.86475259  0.52831412  1
  O2-  O276  1  0.97083716  0.36200896  0.00967467  1
  O2-  O277  1  0.98358878  0.38049008  0.51595908  1
  O2-  O278  1  0.96495147  0.86338663  0.00877272  1
  O2-  O279  1  0.96449452  0.86209596  0.51390597  1
  O2-  O280  1  0.00950762  0.13817346  -0.03330410  1
  O2-  O281  1  0.01781204  0.13844252  0.49686669  1
  O2-  O282  1  0.03239653  0.63388122  -0.01765127  1
  O2-  O283  1  0.02869091  0.61753891  0.49391063  1
  O2-  O284  1  0.50924492  0.14217004  -0.03760200  1
  O2-  O285  1  0.53270799  0.14055457  0.49069667  1
  O2-  O286  1  0.51556480  0.61376656  -0.02504297  1
  O2-  O287  1  0.52274641  0.61645655  0.48087317  1
  O2-  O288  1  0.12169573  0.27203795  -0.01146432  1
  O2-  O289  1  0.11363980  0.27801387  0.49436907  1
  O2-  O290  1  0.11354098  0.78102813  -0.00121075  1
  O2-  O291  1  0.11353416  0.76903905  0.49843682  1
  O2-  O292  1  0.62201648  0.27283367  -0.02024796  1
  O2-  O293  1  0.63180406  0.28063853  0.50022093  1
  O2-  O294  1  0.61221032  0.76124103  -0.02835602  1
  O2-  O295  1  0.61674107  0.75438091  0.51135538  1
  O2-  O296  1  0.37272214  0.23717598  0.00206225  1
  O2-  O297  1  0.38957709  0.23585119  0.51928469  1
  O2-  O298  1  0.38530978  0.71463798  -0.00082890  1
  O2-  O299  1  0.38796722  0.71666560  0.50703362  1
  O2-  O300  1  0.86816603  0.23209317  0.00850484  1
  O2-  O301  1  0.87061255  0.24266372  0.51880179  1
  O2-  O302  1  0.88456512  0.71564939  -0.01309170  1
  O2-  O303  1  0.88796713  0.70834336  0.49575784  1
  O2-  O304  1  0.26323518  0.36855520  -0.02238390  1
  O2-  O305  1  0.27422125  0.38217450  0.47471950  1
  O2-  O306  1  0.27264738  0.88262572  -0.02121142  1
  O2-  O307  1  0.27465776  0.88200749  0.47837708  1
  O2-  O308  1  0.76172332  0.36907670  -0.01799004  1
  O2-  O309  1  0.77147924  0.37407650  0.48278633  1
  O2-  O310  1  0.77044663  0.88295331  -0.01728223  1
  O2-  O311  1  0.78021064  0.88447160  0.48518176  1
  O2-  O312  1  0.22757528  0.13375459  0.01312908  1
  O2-  O313  1  0.22747371  0.11795190  0.52554607  1
  O2-  O314  1  0.23240082  0.61100433  0.02492135  1
  O2-  O315  1  0.23525467  0.61118965  0.52802713  1
  O2-  O316  1  0.71961580  0.13748035  0.01605661  1
  O2-  O317  1  0.73021671  0.13873056  0.52124110  1
  O2-  O318  1  0.71903075  0.61168251  0.02485471  1
  O2-  O319  1  0.73446649  0.61146342  0.52824730  1
