# generated using pymatgen
data_Sr64Ca21Nb43O192
_symmetry_space_group_name_H-M   'P 1'
_cell_length_a   16.56399054
_cell_length_b   16.55748901
_cell_length_c   16.74734066
_cell_angle_alpha   89.98745102
_cell_angle_beta   90.03469990
_cell_angle_gamma   89.99710487
_symmetry_Int_Tables_number   1
_chemical_formula_structural   Sr64Ca21Nb43O192
_chemical_formula_sum   'Sr64 Ca21 Nb43 O192'
_cell_volume   4593.09272658
_cell_formula_units_Z   1
loop_
 _symmetry_equiv_pos_site_id
 _symmetry_equiv_pos_as_xyz
  1  'x, y, z'
loop_
 _atom_type_symbol
 _atom_type_oxidation_number
  Sr2+  2.0
  Ca2+  2.0
  Nb5+  5.0
  O2-  -2.0
loop_
 _atom_site_type_symbol
 _atom_site_label
 _atom_site_symmetry_multiplicity
 _atom_site_fract_x
 _atom_site_fract_y
 _atom_site_fract_z
 _atom_site_occupancy
  Sr2+  Sr0  1  0.12668227  0.14092964  0.12528898  1
  Sr2+  Sr1  1  0.11642974  0.11691791  0.62397878  1
  Sr2+  Sr2  1  0.12455729  0.64134839  0.12028289  1
  Sr2+  Sr3  1  0.12963703  0.60720364  0.62758143  1
  Sr2+  Sr4  1  0.62145135  0.11599689  0.11000474  1
  Sr2+  Sr5  1  0.62930993  0.12128145  0.62337626  1
  Sr2+  Sr6  1  0.61364819  0.61042532  0.13195414  1
  Sr2+  Sr7  1  0.61773574  0.61816297  0.62861629  1
  Sr2+  Sr8  1  0.37891901  0.37144751  0.12899229  1
  Sr2+  Sr9  1  0.36376268  0.37070009  0.62719024  1
  Sr2+  Sr10  1  0.37777698  0.86175236  0.13048507  1
  Sr2+  Sr11  1  0.37509038  0.87100366  0.62460679  1
  Sr2+  Sr12  1  0.87869688  0.37271139  0.13169627  1
  Sr2+  Sr13  1  0.87863929  0.37071852  0.62493499  1
  Sr2+  Sr14  1  0.87732663  0.85556669  0.12828813  1
  Sr2+  Sr15  1  0.88367213  0.87811622  0.62138473  1
  Sr2+  Sr16  1  0.13289285  0.36773215  0.35196425  1
  Sr2+  Sr17  1  0.12065644  0.38014832  0.87805065  1
  Sr2+  Sr18  1  0.12572990  0.88670865  0.36896518  1
  Sr2+  Sr19  1  0.13136724  0.88482735  0.88383711  1
  Sr2+  Sr20  1  0.62532679  0.37020763  0.36905436  1
  Sr2+  Sr21  1  0.62392940  0.37191260  0.88415623  1
  Sr2+  Sr22  1  0.63164809  0.87651562  0.36909155  1
  Sr2+  Sr23  1  0.62285306  0.87442940  0.87042871  1
  Sr2+  Sr24  1  0.35935072  0.13098820  0.38350463  1
  Sr2+  Sr25  1  0.37550573  0.12803379  0.86858195  1
  Sr2+  Sr26  1  0.38712407  0.63137093  0.36956011  1
  Sr2+  Sr27  1  0.38429658  0.63354067  0.88170444  1
  Sr2+  Sr28  1  0.86648045  0.13027316  0.37128052  1
  Sr2+  Sr29  1  0.85852488  0.13642163  0.88110950  1
  Sr2+  Sr30  1  0.86657524  0.63100078  0.37139994  1
  Sr2+  Sr31  1  0.86179858  0.62681897  0.87302059  1
  Sr2+  Sr32  1  0.12337905  0.12370259  0.34541624  1
  Sr2+  Sr33  1  0.12537535  0.13461630  0.88664050  1
  Sr2+  Sr34  1  0.13748996  0.63998809  0.37270350  1
  Sr2+  Sr35  1  0.11869444  0.62937953  0.88821094  1
  Sr2+  Sr36  1  0.61933569  0.13637636  0.37968448  1
  Sr2+  Sr37  1  0.62000023  0.12474243  0.87694573  1
  Sr2+  Sr38  1  0.62794292  0.62651870  0.37527504  1
  Sr2+  Sr39  1  0.62233798  0.63038474  0.86961470  1
  Sr2+  Sr40  1  0.38754329  0.37140660  0.35966438  1
  Sr2+  Sr41  1  0.38108130  0.37140635  0.88397238  1
  Sr2+  Sr42  1  0.38037466  0.88816365  0.37431393  1
  Sr2+  Sr43  1  0.37953444  0.87954476  0.87235235  1
  Sr2+  Sr44  1  0.86482861  0.38645421  0.37061434  1
  Sr2+  Sr45  1  0.86908387  0.38248345  0.87592443  1
  Sr2+  Sr46  1  0.87203942  0.88264961  0.37030984  1
  Sr2+  Sr47  1  0.86125098  0.88461641  0.88335630  1
  Sr2+  Sr48  1  0.13056298  0.37442458  0.11845471  1
  Sr2+  Sr49  1  0.11156481  0.37054882  0.63278566  1
  Sr2+  Sr50  1  0.11964512  0.87941200  0.12713863  1
  Sr2+  Sr51  1  0.12670121  0.87539347  0.62312899  1
  Sr2+  Sr52  1  0.60395672  0.36556459  0.13270994  1
  Sr2+  Sr53  1  0.62745734  0.37072740  0.61998526  1
  Sr2+  Sr54  1  0.63951575  0.86947001  0.11835309  1
  Sr2+  Sr55  1  0.62203878  0.86574850  0.62549385  1
  Sr2+  Sr56  1  0.36668192  0.13340050  0.10932556  1
  Sr2+  Sr57  1  0.37362502  0.11757470  0.62398455  1
  Sr2+  Sr58  1  0.36559254  0.61557950  0.13233273  1
  Sr2+  Sr59  1  0.36884814  0.62288696  0.62438944  1
  Sr2+  Sr60  1  0.87598205  0.12092570  0.12115553  1
  Sr2+  Sr61  1  0.88222688  0.12922649  0.62785747  1
  Sr2+  Sr62  1  0.89578644  0.62099737  0.13047576  1
  Sr2+  Sr63  1  0.88602552  0.61439029  0.62050532  1
  Ca2+  Ca64  1  0.49693132  0.49983006  0.50230219  1
  Ca2+  Ca65  1  0.50149997  0.50087932  -0.00038395  1
  Ca2+  Ca66  1  0.00573021  0.49612263  0.49895520  1
  Ca2+  Ca67  1  -0.00054690  0.00291428  -0.00301559  1
  Ca2+  Ca68  1  0.49462676  -0.00534584  -0.00222552  1
  Ca2+  Ca69  1  0.24961453  0.25287899  -0.00721049  1
  Ca2+  Ca70  1  0.74749743  0.25372021  0.00275438  1
  Ca2+  Ca71  1  0.25448586  0.75230912  -0.00374807  1
  Ca2+  Ca72  1  0.24422900  0.25403866  0.50042574  1
  Ca2+  Ca73  1  0.74789006  0.74427952  -0.00075881  1
  Ca2+  Ca74  1  0.50055784  0.25101641  0.74698403  1
  Ca2+  Ca75  1  0.50268963  0.75274960  0.25524544  1
  Ca2+  Ca76  1  0.25844370  -0.00003862  0.24959949  1
  Ca2+  Ca77  1  -0.00327118  0.25144673  0.24879322  1
  Ca2+  Ca78  1  0.74515041  0.00120930  0.25044463  1
  Ca2+  Ca79  1  0.75163231  0.00076085  0.74931054  1
  Ca2+  Ca80  1  0.75188682  0.49847682  0.24808488  1
  Ca2+  Ca81  1  0.00154103  0.74831681  0.25598626  1
  Ca2+  Ca82  1  -0.00206897  0.75188022  0.75189752  1
  Ca2+  Ca83  1  0.50148906  0.23797484  0.25068882  1
  Ca2+  Ca84  1  0.24767241  0.50073482  0.24876947  1
  Nb5+  Nb85  1  -0.00501470  0.00367711  0.49719261  1
  Nb5+  Nb86  1  -0.00082443  0.49837263  0.00148839  1
  Nb5+  Nb87  1  0.49787393  -0.00102729  0.50012945  1
  Nb5+  Nb88  1  0.75293261  0.25570482  0.50170737  1
  Nb5+  Nb89  1  0.75648271  0.75433479  0.50610751  1
  Nb5+  Nb90  1  0.25728691  0.75109043  0.50029900  1
  Nb5+  Nb91  1  0.74209699  0.49646347  0.74622058  1
  Nb5+  Nb92  1  0.24881276  0.49465362  0.75418227  1
  Nb5+  Nb93  1  -0.00235380  0.24843916  0.75282352  1
  Nb5+  Nb94  1  0.49751701  0.75044726  0.74882729  1
  Nb5+  Nb95  1  0.24813190  -0.00323204  0.74804682  1
  Nb5+  Nb96  1  -0.00403559  -0.00350262  0.24171713  1
  Nb5+  Nb97  1  -0.00400801  0.00218610  0.75400458  1
  Nb5+  Nb98  1  0.00713190  0.50238513  0.26221087  1
  Nb5+  Nb99  1  -0.00482303  0.50180917  0.75288132  1
  Nb5+  Nb100  1  0.49785231  -0.00081933  0.24178376  1
  Nb5+  Nb101  1  0.50324030  0.00002642  0.74574594  1
  Nb5+  Nb102  1  0.49981814  0.49888816  0.25330919  1
  Nb5+  Nb103  1  0.48920551  0.49893076  0.75075045  1
  Nb5+  Nb104  1  0.25362064  0.24887591  0.24805142  1
  Nb5+  Nb105  1  0.24837637  0.24041410  0.74197011  1
  Nb5+  Nb106  1  0.24990389  0.75381725  0.24658963  1
  Nb5+  Nb107  1  0.24846519  0.74752124  0.74882130  1
  Nb5+  Nb108  1  0.74934662  0.24306348  0.24394908  1
  Nb5+  Nb109  1  0.74569326  0.25362935  0.75018046  1
  Nb5+  Nb110  1  0.74665392  0.74308523  0.24473419  1
  Nb5+  Nb111  1  0.75334149  0.74987046  0.74273650  1
  Nb5+  Nb112  1  -0.00173283  0.25119935  0.49568643  1
  Nb5+  Nb113  1  -0.00246981  0.25263141  1.00256813  1
  Nb5+  Nb114  1  0.00922464  0.74952450  0.50462021  1
  Nb5+  Nb115  1  -0.00360865  0.75474559  0.99449647  1
  Nb5+  Nb116  1  0.49612397  0.25036692  0.50742713  1
  Nb5+  Nb117  1  0.49877027  0.24832029  0.99837918  1
  Nb5+  Nb118  1  0.50761630  0.75149993  0.49970364  1
  Nb5+  Nb119  1  0.50304003  0.74882294  1.00968930  1
  Nb5+  Nb120  1  0.25268502  -0.00253018  0.00623871  1
  Nb5+  Nb121  1  0.24305785  0.00231278  0.50366891  1
  Nb5+  Nb122  1  0.25366126  0.50099965  -0.00431192  1
  Nb5+  Nb123  1  0.25234054  0.49793457  0.49406995  1
  Nb5+  Nb124  1  0.74859493  -0.00018091  0.00039503  1
  Nb5+  Nb125  1  0.74487906  0.00432394  0.50438916  1
  Nb5+  Nb126  1  0.75210075  0.50086888  0.00697744  1
  Nb5+  Nb127  1  0.74948801  0.50625866  0.50171831  1
  O2-  O128  1  -0.02389797  -0.02526847  0.13171597  1
  O2-  O129  1  -0.01119393  -0.00555043  0.62654853  1
  O2-  O130  1  -0.01874486  0.48006644  0.11326245  1
  O2-  O131  1  -0.01191613  0.47777726  0.63707009  1
  O2-  O132  1  0.46859303  0.01362684  0.13289217  1
  O2-  O133  1  0.48197551  0.01203278  0.62470798  1
  O2-  O134  1  0.48202375  0.52082424  0.13375758  1
  O2-  O135  1  0.48724206  0.52590254  0.63757591  1
  O2-  O136  1  0.02188005  0.01718300  0.38676510  1
  O2-  O137  1  0.03540252  0.01393175  0.86079512  1
  O2-  O138  1  0.03253391  0.52639864  0.36986074  1
  O2-  O139  1  0.02255003  0.50798114  0.86833112  1
  O2-  O140  1  0.52284939  -0.02064098  0.39044455  1
  O2-  O141  1  0.50683753  -0.02645191  0.85901021  1
  O2-  O142  1  0.51551689  0.47302465  0.37084990  1
  O2-  O143  1  0.53008661  0.49414469  0.86053993  1
  O2-  O144  1  0.26532268  0.26827167  0.12904982  1
  O2-  O145  1  0.23589234  0.28738459  0.63458311  1
  O2-  O146  1  0.23343971  0.77649534  0.13391599  1
  O2-  O147  1  0.24109970  0.77247378  0.62500951  1
  O2-  O148  1  0.73851052  0.21774147  0.13406941  1
  O2-  O149  1  0.74751818  0.23563830  0.62485151  1
  O2-  O150  1  0.71724008  0.72910274  0.13552090  1
  O2-  O151  1  0.71724779  0.73473571  0.62299395  1
  O2-  O152  1  0.23136908  0.22875575  0.36846584  1
  O2-  O153  1  0.25140933  0.22728474  0.85646421  1
  O2-  O154  1  0.26898399  0.73011129  0.38649941  1
  O2-  O155  1  0.27890080  0.74015415  0.85882671  1
  O2-  O156  1  0.76212944  0.26845861  0.38658664  1
  O2-  O157  1  0.75766565  0.27225800  0.86379596  1
  O2-  O158  1  0.77244023  0.76290868  0.39269464  1
  O2-  O159  1  0.76384018  0.75882697  0.85826038  1
  O2-  O160  1  0.00377653  0.28355038  0.11273953  1
  O2-  O161  1  -0.00416788  0.26280617  0.62922614  1
  O2-  O162  1  0.02008709  0.76528091  0.11491880  1
  O2-  O163  1  0.00699594  0.78309510  0.61740801  1
  O2-  O164  1  0.48767629  0.23360177  0.11696124  1
  O2-  O165  1  0.51951673  0.21847849  0.61735835  1
  O2-  O166  1  0.52883327  0.74655031  0.12039922  1
  O2-  O167  1  0.51571409  0.73884023  0.62253991  1
  O2-  O168  1  0.23506039  0.01829255  0.38950800  1
  O2-  O169  1  0.23027219  0.02269123  0.85764467  1
  O2-  O170  1  0.22141279  0.51323281  0.38661394  1
  O2-  O171  1  0.23114804  0.52765706  0.86498701  1
  O2-  O172  1  0.74364892  -0.02449368  0.39192263  1
  O2-  O173  1  0.73442379  -0.02770756  0.87989069  1
  O2-  O174  1  0.73272985  0.48004793  0.39056392  1
  O2-  O175  1  0.73960980  0.47636080  0.86107575  1
  O2-  O176  1  0.00023365  0.22197900  0.38556332  1
  O2-  O177  1  -0.01131763  0.22879251  0.86841919  1
  O2-  O178  1  -0.02685694  0.73889714  0.39513019  1
  O2-  O179  1  -0.02039732  0.71948071  0.88255996  1
  O2-  O180  1  0.50741110  0.25882818  0.39085090  1
  O2-  O181  1  0.50684049  0.26582091  0.87887096  1
  O2-  O182  1  0.47453758  0.76969750  0.39159651  1
  O2-  O183  1  0.47992159  0.76051769  0.86326141  1
  O2-  O184  1  0.27689717  -0.02408967  0.11488045  1
  O2-  O185  1  0.26621524  -0.02059719  0.62196554  1
  O2-  O186  1  0.26977261  0.48219879  0.10889781  1
  O2-  O187  1  0.27667255  0.49690522  0.63796832  1
  O2-  O188  1  0.75829695  0.02670453  0.11689677  1
  O2-  O189  1  0.77981841  0.01450066  0.61518919  1
  O2-  O190  1  0.77484058  0.52877474  0.11401997  1
  O2-  O191  1  0.77480399  0.51164162  0.62795974  1
  O2-  O192  1  0.13199394  0.26605158  0.23767402  1
  O2-  O193  1  0.12031585  0.26143552  0.75521304  1
  O2-  O194  1  0.13533146  0.76447914  0.28311839  1
  O2-  O195  1  0.13664112  0.77122430  0.76465807  1
  O2-  O196  1  0.63457249  0.27435236  0.25780116  1
  O2-  O197  1  0.63452269  0.28478797  0.74736275  1
  O2-  O198  1  0.63614413  0.75714618  0.28722699  1
  O2-  O199  1  0.62021763  0.76236780  0.75973031  1
  O2-  O200  1  0.36876423  0.23017074  0.26995711  1
  O2-  O201  1  0.36419908  0.23583193  0.72876276  1
  O2-  O202  1  0.36583561  0.72543964  0.23666960  1
  O2-  O203  1  0.37801296  0.74386220  0.72340772  1
  O2-  O204  1  0.86768970  0.21984155  0.24068535  1
  O2-  O205  1  0.87506161  0.24164994  0.74240994  1
  O2-  O206  1  0.86656100  0.72882364  0.23483356  1
  O2-  O207  1  0.86258265  0.72171895  0.72321958  1
  O2-  O208  1  0.26665480  0.36671096  0.27235919  1
  O2-  O209  1  0.26728715  0.38182497  0.77082707  1
  O2-  O210  1  0.27092685  0.86619262  0.27713919  1
  O2-  O211  1  0.26431237  0.88124401  0.76061163  1
  O2-  O212  1  0.77783037  0.36174568  0.24203468  1
  O2-  O213  1  0.76946285  0.37912945  0.72636359  1
  O2-  O214  1  0.76773405  0.86162696  0.24149346  1
  O2-  O215  1  0.76471868  0.86323072  0.72450361  1
  O2-  O216  1  0.23517824  0.13041033  0.22679122  1
  O2-  O217  1  0.23722718  0.12609222  0.71691542  1
  O2-  O218  1  0.22616144  0.63466933  0.23676562  1
  O2-  O219  1  0.24058982  0.63237420  0.72988337  1
  O2-  O220  1  0.73491859  0.13425310  0.28972781  1
  O2-  O221  1  0.72805927  0.13864024  0.76239108  1
  O2-  O222  1  0.74211290  0.63016006  0.28346570  1
  O2-  O223  1  0.73208318  0.61762958  0.75678274  1
  O2-  O224  1  0.11598415  0.46782890  0.22876073  1
  O2-  O225  1  0.13178220  0.48537780  0.73535835  1
  O2-  O226  1  0.11778692  0.97986504  0.24494898  1
  O2-  O227  1  0.12958063  0.98997407  0.72247692  1
  O2-  O228  1  0.61857358  0.48469847  0.22737857  1
  O2-  O229  1  0.62846275  0.48583457  0.72505846  1
  O2-  O230  1  0.61208412  0.95869998  0.23618338  1
  O2-  O231  1  0.61618427  0.98773050  0.72228633  1
  O2-  O232  1  0.39167943  0.02354093  0.29099042  1
  O2-  O233  1  0.36955424  0.01525636  0.75255049  1
  O2-  O234  1  0.38140305  0.51504063  0.27235871  1
  O2-  O235  1  0.37582300  0.52138735  0.77406846  1
  O2-  O236  1  0.88462572  0.01557707  0.27666503  1
  O2-  O237  1  0.88619266  0.03292856  0.76972371  1
  O2-  O238  1  0.88770523  0.51884993  0.26760873  1
  O2-  O239  1  0.87912132  0.51090051  0.76741748  1
  O2-  O240  1  0.48269140  0.37856613  0.23460650  1
  O2-  O241  1  0.47119940  0.38653252  0.73670575  1
  O2-  O242  1  0.46538770  0.88238017  0.24773161  1
  O2-  O243  1  0.48789206  0.87204664  0.72874474  1
  O2-  O244  1  0.98162790  0.38437014  0.27673377  1
  O2-  O245  1  0.99251042  0.37158037  0.76622669  1
  O2-  O246  1  0.98727849  0.88202900  0.27623162  1
  O2-  O247  1  0.97165070  0.88884148  0.76276320  1
  O2-  O248  1  0.01922419  0.11387938  0.23009597  1
  O2-  O249  1  0.01398641  0.13027647  0.73157856  1
  O2-  O250  1  0.01990915  0.61370674  0.22147749  1
  O2-  O251  1  0.01544930  0.61356318  0.73078980  1
  O2-  O252  1  0.54317036  0.10815688  0.25687826  1
  O2-  O253  1  0.50968634  0.11383431  0.76712995  1
  O2-  O254  1  0.51902254  0.61684676  0.27292142  1
  O2-  O255  1  0.51032520  0.63147565  0.75959875  1
  O2-  O256  1  0.11982556  0.47934238  0.00309918  1
  O2-  O257  1  0.14222204  0.48620353  0.53663739  1
  O2-  O258  1  0.13341968  0.97391441  0.01087297  1
  O2-  O259  1  0.12601549  0.99152130  0.52056011  1
  O2-  O260  1  0.63964488  0.47699432  0.02063804  1
  O2-  O261  1  0.63561254  0.49395762  0.53204088  1
  O2-  O262  1  0.62958109  0.97909273  0.01632359  1
  O2-  O263  1  0.62884720  0.99234177  0.52718815  1
  O2-  O264  1  0.36234987  0.02596200  -0.02847625  1
  O2-  O265  1  0.37841991  0.00439429  0.48921162  1
  O2-  O266  1  0.36553695  0.51431930  -0.03036100  1
  O2-  O267  1  0.36181894  0.54196645  0.49319542  1
  O2-  O268  1  0.86617698  0.02027870  -0.02425697  1
  O2-  O269  1  0.87842849  0.01081022  0.48420436  1
  O2-  O270  1  0.88375698  0.51617078  -0.02841723  1
  O2-  O271  1  0.86790243  0.51834053  0.48657779  1
  O2-  O272  1  0.47177430  0.36856391  0.01199204  1
  O2-  O273  1  0.49001991  0.36323650  0.53316277  1
  O2-  O274  1  0.46156234  0.86074942  0.00451402  1
  O2-  O275  1  0.49577274  0.87732304  0.52519844  1
  O2-  O276  1  0.98538232  0.37621727  -0.02811312  1
  O2-  O277  1  0.96452033  0.36189811  0.48686955  1
  O2-  O278  1  0.97972705  0.86659469  -0.02512667  1
  O2-  O279  1  0.98945387  0.88417806  0.49012902  1
  O2-  O280  1  0.01697858  0.13705756  0.02142038  1
  O2-  O281  1  0.00453116  0.12429133  0.52350171  1
  O2-  O282  1  0.01777043  0.61534791  0.01297960  1
  O2-  O283  1  0.01507741  0.63646520  0.52888740  1
  O2-  O284  1  0.52492699  0.13036072  -0.01208843  1
  O2-  O285  1  0.51320488  0.11606510  0.49033448  1
  O2-  O286  1  0.52676852  0.63444553  -0.01756537  1
  O2-  O287  1  0.51528546  0.63701514  0.48538662  1
  O2-  O288  1  0.11425098  0.26528282  -0.02135199  1
  O2-  O289  1  0.10963001  0.27619921  0.50512672  1
  O2-  O290  1  0.11631029  0.75775222  -0.02428137  1
  O2-  O291  1  0.12322300  0.76782074  0.48457716  1
  O2-  O292  1  0.61594607  0.27892609  0.00695765  1
  O2-  O293  1  0.63306264  0.25822421  0.49912608  1
  O2-  O294  1  0.61460752  0.77780297  -0.02283112  1
  O2-  O295  1  0.62376645  0.76736901  0.48535896  1
  O2-  O296  1  0.38064513  0.22639628  -0.01696975  1
  O2-  O297  1  0.38277648  0.22897727  0.50954283  1
  O2-  O298  1  0.38588925  0.71353316  0.01977387  1
  O2-  O299  1  0.37252169  0.74467574  0.52294955  1
  O2-  O300  1  0.88165090  0.23114861  0.00177942  1
  O2-  O301  1  0.86980370  0.22586868  0.51027407  1
  O2-  O302  1  0.88312147  0.72852223  0.02495964  1
  O2-  O303  1  0.86858921  0.74023294  0.53153492  1
  O2-  O304  1  0.25248457  0.38680648  -0.03762610  1
  O2-  O305  1  0.28639230  0.38831810  0.48611312  1
  O2-  O306  1  0.26326280  0.88611762  -0.03693599  1
  O2-  O307  1  0.25559571  0.87434321  0.48659013  1
  O2-  O308  1  0.78657731  0.38816985  0.00782769  1
  O2-  O309  1  0.76335361  0.37256921  0.52119025  1
  O2-  O310  1  0.77349238  0.88073148  0.02208622  1
  O2-  O311  1  0.75717872  0.87201045  0.52503774  1
  O2-  O312  1  0.22539722  0.11503277  0.01343039  1
  O2-  O313  1  0.24753085  0.11548159  0.52858596  1
  O2-  O314  1  0.22482787  0.61552431  0.00776714  1
  O2-  O315  1  0.22766382  0.63779878  0.51873809  1
  O2-  O316  1  0.72774708  0.11782472  -0.02533436  1
  O2-  O317  1  0.73546204  0.12170833  0.48885353  1
  O2-  O318  1  0.73917411  0.61024136  -0.03658795  1
  O2-  O319  1  0.73723788  0.62627943  0.49235538  1
