# generated using pymatgen
data_Sr64Ca21Nb43O192
_symmetry_space_group_name_H-M   'P 1'
_cell_length_a   16.61911448
_cell_length_b   16.56778222
_cell_length_c   16.75389503
_cell_angle_alpha   89.96891923
_cell_angle_beta   89.97039795
_cell_angle_gamma   89.97371756
_symmetry_Int_Tables_number   1
_chemical_formula_structural   Sr64Ca21Nb43O192
_chemical_formula_sum   'Sr64 Ca21 Nb43 O192'
_cell_volume   4613.04699683
_cell_formula_units_Z   1
loop_
 _symmetry_equiv_pos_site_id
 _symmetry_equiv_pos_as_xyz
  1  'x, y, z'
loop_
 _atom_type_symbol
 _atom_type_oxidation_number
  Sr2+  2.0
  Ca2+  2.0
  Nb5+  5.0
  O2-  -2.0
loop_
 _atom_site_type_symbol
 _atom_site_label
 _atom_site_symmetry_multiplicity
 _atom_site_fract_x
 _atom_site_fract_y
 _atom_site_fract_z
 _atom_site_occupancy
  Sr2+  Sr0  1  0.12388956  0.13317543  0.11449516  1
  Sr2+  Sr1  1  0.13025545  0.14188364  0.62954145  1
  Sr2+  Sr2  1  0.12241977  0.62540783  0.11191032  1
  Sr2+  Sr3  1  0.12243747  0.62064009  0.62959691  1
  Sr2+  Sr4  1  0.61788387  0.14293106  0.11872646  1
  Sr2+  Sr5  1  0.61959170  0.13335482  0.63241637  1
  Sr2+  Sr6  1  0.61784178  0.61422963  0.12168757  1
  Sr2+  Sr7  1  0.62579696  0.62193577  0.62461527  1
  Sr2+  Sr8  1  0.37672069  0.39394592  0.12896660  1
  Sr2+  Sr9  1  0.37417819  0.39550086  0.62252744  1
  Sr2+  Sr10  1  0.37190450  0.88817730  0.12402313  1
  Sr2+  Sr11  1  0.37638023  0.88898177  0.62740428  1
  Sr2+  Sr12  1  0.86375666  0.37677689  0.11807455  1
  Sr2+  Sr13  1  0.87211005  0.37963546  0.63224329  1
  Sr2+  Sr14  1  0.87183660  0.87667031  0.11251573  1
  Sr2+  Sr15  1  0.86968930  0.87247295  0.62528695  1
  Sr2+  Sr16  1  0.12931426  0.37595852  0.37906357  1
  Sr2+  Sr17  1  0.12044879  0.37847137  0.86993890  1
  Sr2+  Sr18  1  0.13114680  0.87496246  0.37472934  1
  Sr2+  Sr19  1  0.13044427  0.87257190  0.87755756  1
  Sr2+  Sr20  1  0.63763316  0.35974675  0.37280692  1
  Sr2+  Sr21  1  0.63956185  0.37847274  0.87643996  1
  Sr2+  Sr22  1  0.65230755  0.87904822  0.37689571  1
  Sr2+  Sr23  1  0.59654291  0.87302249  0.87259772  1
  Sr2+  Sr24  1  0.38045420  0.12349378  0.37333188  1
  Sr2+  Sr25  1  0.39027742  0.11671353  0.86907527  1
  Sr2+  Sr26  1  0.38909723  0.62949177  0.37410157  1
  Sr2+  Sr27  1  0.40027922  0.62011603  0.88102401  1
  Sr2+  Sr28  1  0.87838807  0.11035732  0.37405100  1
  Sr2+  Sr29  1  0.87980939  0.11660876  0.87539389  1
  Sr2+  Sr30  1  0.88029902  0.62537136  0.36912516  1
  Sr2+  Sr31  1  0.87381061  0.61576930  0.87089108  1
  Sr2+  Sr32  1  0.12618265  0.13669657  0.37413198  1
  Sr2+  Sr33  1  0.12517660  0.14006328  0.87690733  1
  Sr2+  Sr34  1  0.11667820  0.62541172  0.37468755  1
  Sr2+  Sr35  1  0.11682513  0.62689827  0.86971854  1
  Sr2+  Sr36  1  0.62322184  0.12357560  0.36563477  1
  Sr2+  Sr37  1  0.63355425  0.11287679  0.86962822  1
  Sr2+  Sr38  1  0.64046188  0.63167225  0.37488266  1
  Sr2+  Sr39  1  0.63172615  0.63208696  0.88723260  1
  Sr2+  Sr40  1  0.37788721  0.36681673  0.37583900  1
  Sr2+  Sr41  1  0.38497045  0.36831869  0.86184756  1
  Sr2+  Sr42  1  0.36875401  0.87779675  0.38099030  1
  Sr2+  Sr43  1  0.37877885  0.87202983  0.87372823  1
  Sr2+  Sr44  1  0.88656575  0.35687362  0.37212622  1
  Sr2+  Sr45  1  0.87642172  0.35005436  0.87424106  1
  Sr2+  Sr46  1  0.88356199  0.87153565  0.37420746  1
  Sr2+  Sr47  1  0.87976309  0.88298647  0.86750861  1
  Sr2+  Sr48  1  0.13511423  0.38523879  0.11815892  1
  Sr2+  Sr49  1  0.13441697  0.38257807  0.62561290  1
  Sr2+  Sr50  1  0.12904739  0.87639278  0.11418841  1
  Sr2+  Sr51  1  0.13127615  0.87362720  0.62988630  1
  Sr2+  Sr52  1  0.63346660  0.37800559  0.12938442  1
  Sr2+  Sr53  1  0.62082252  0.38818927  0.62633084  1
  Sr2+  Sr54  1  0.61483335  0.86802825  0.11128138  1
  Sr2+  Sr55  1  0.61906611  0.87958097  0.63195020  1
  Sr2+  Sr56  1  0.38063287  0.12731559  0.12403140  1
  Sr2+  Sr57  1  0.37532225  0.12839770  0.63281797  1
  Sr2+  Sr58  1  0.38733201  0.62460383  0.12766378  1
  Sr2+  Sr59  1  0.39635021  0.62682374  0.62012516  1
  Sr2+  Sr60  1  0.85807347  0.12945755  0.11559138  1
  Sr2+  Sr61  1  0.86279651  0.13011305  0.63555608  1
  Sr2+  Sr62  1  0.85055683  0.62395214  0.12395024  1
  Sr2+  Sr63  1  0.86313540  0.62080072  0.62448191  1
  Ca2+  Ca64  1  0.49952154  0.00435078  0.00258989  1
  Ca2+  Ca65  1  0.50230412  0.49889206  0.49382042  1
  Ca2+  Ca66  1  0.49923846  0.00236758  0.49728424  1
  Ca2+  Ca67  1  0.49838025  0.49179243  0.00102716  1
  Ca2+  Ca68  1  -0.00156323  0.50096963  0.00167003  1
  Ca2+  Ca69  1  0.75405919  0.24868432  0.50168537  1
  Ca2+  Ca70  1  0.74491053  0.24811196  -0.00420217  1
  Ca2+  Ca71  1  0.25562634  0.25206562  0.00236284  1
  Ca2+  Ca72  1  0.75169409  0.75330426  -0.00220898  1
  Ca2+  Ca73  1  0.24995952  0.74504583  0.00094621  1
  Ca2+  Ca74  1  0.50185871  0.75325073  0.25296614  1
  Ca2+  Ca75  1  0.74898757  0.50143409  0.75086715  1
  Ca2+  Ca76  1  0.50377663  0.25399456  0.74561784  1
  Ca2+  Ca77  1  0.75085099  -0.00147362  0.24616711  1
  Ca2+  Ca78  1  0.25378720  0.50557227  0.74814517  1
  Ca2+  Ca79  1  -0.00098109  0.24927187  0.74826114  1
  Ca2+  Ca80  1  0.24501479  0.00071065  0.74937399  1
  Ca2+  Ca81  1  0.50093687  0.74617253  0.74661290  1
  Ca2+  Ca82  1  0.00228792  0.24749016  0.24529398  1
  Ca2+  Ca83  1  0.75182429  -0.00487451  0.75050611  1
  Ca2+  Ca84  1  0.75492507  0.49818328  0.25532789  1
  Nb5+  Nb85  1  -0.00195264  0.49499166  0.49950808  1
  Nb5+  Nb86  1  0.00185651  0.00016627  -0.00698419  1
  Nb5+  Nb87  1  0.00012724  -0.00401243  0.49699985  1
  Nb5+  Nb88  1  0.75798262  0.75036084  0.50150754  1
  Nb5+  Nb89  1  0.25228943  0.25454165  0.50040080  1
  Nb5+  Nb90  1  0.25294290  0.75308564  0.50226933  1
  Nb5+  Nb91  1  -0.00133340  0.75128440  0.74162497  1
  Nb5+  Nb92  1  0.00338847  0.74964860  0.24410215  1
  Nb5+  Nb93  1  0.49874018  0.25282830  0.25020195  1
  Nb5+  Nb94  1  0.24567055  0.00723799  0.25002721  1
  Nb5+  Nb95  1  0.24720357  0.50941935  0.25375917  1
  Nb5+  Nb96  1  0.00512205  -0.00059892  0.24214779  1
  Nb5+  Nb97  1  0.00641589  0.00167327  0.73976166  1
  Nb5+  Nb98  1  0.00073234  0.49911906  0.24782669  1
  Nb5+  Nb99  1  -0.00217421  0.49880401  0.75184615  1
  Nb5+  Nb100  1  0.50190888  -0.00196389  0.25184177  1
  Nb5+  Nb101  1  0.49969414  0.00125509  0.74818334  1
  Nb5+  Nb102  1  0.50548960  0.49842950  0.25829227  1
  Nb5+  Nb103  1  0.50225672  0.50071361  0.75129648  1
  Nb5+  Nb104  1  0.25188570  0.25811959  0.24862420  1
  Nb5+  Nb105  1  0.24848991  0.25373926  0.75444056  1
  Nb5+  Nb106  1  0.24879571  0.75173991  0.25190439  1
  Nb5+  Nb107  1  0.25192561  0.74890712  0.75047969  1
  Nb5+  Nb108  1  0.75672245  0.24382634  0.25331406  1
  Nb5+  Nb109  1  0.74848772  0.25030870  0.74753789  1
  Nb5+  Nb110  1  0.74769799  0.75505397  0.24781357  1
  Nb5+  Nb111  1  0.74959014  0.75077377  0.75317943  1
  Nb5+  Nb112  1  0.00001031  0.24078925  0.49775129  1
  Nb5+  Nb113  1  -0.00240915  0.25350045  1.00390166  1
  Nb5+  Nb114  1  0.00359590  0.74796232  0.49911930  1
  Nb5+  Nb115  1  -0.00213315  0.75053663  0.99125986  1
  Nb5+  Nb116  1  0.50463613  0.25222158  0.49959139  1
  Nb5+  Nb117  1  0.50073659  0.25341777  0.99030547  1
  Nb5+  Nb118  1  0.51229066  0.75438623  0.49477400  1
  Nb5+  Nb119  1  0.49851973  0.74766855  1.00313291  1
  Nb5+  Nb120  1  0.24970336  -0.00088182  -0.00252176  1
  Nb5+  Nb121  1  0.24454525  0.00808352  0.50060996  1
  Nb5+  Nb122  1  0.25061797  0.49598576  -0.01041275  1
  Nb5+  Nb123  1  0.24897383  0.51117013  0.49583989  1
  Nb5+  Nb124  1  0.74484888  -0.00800758  -0.00056054  1
  Nb5+  Nb125  1  0.74706671  0.00185229  0.50463627  1
  Nb5+  Nb126  1  0.75000409  0.50067146  -0.00030918  1
  Nb5+  Nb127  1  0.75248767  0.49459449  0.49381568  1
  O2-  O128  1  0.02203539  -0.00674571  0.12858316  1
  O2-  O129  1  0.01766480  -0.00131317  0.62269660  1
  O2-  O130  1  0.02739598  0.50482396  0.13742396  1
  O2-  O131  1  0.00957545  0.50062319  0.61822654  1
  O2-  O132  1  0.50947467  0.03202560  0.13940693  1
  O2-  O133  1  0.51544817  0.02028252  0.63150733  1
  O2-  O134  1  0.49913034  0.50898973  0.14028484  1
  O2-  O135  1  0.51523604  0.51635700  0.62826994  1
  O2-  O136  1  -0.01361483  -0.00560891  0.37969803  1
  O2-  O137  1  -0.00993449  -0.00569382  0.87724159  1
  O2-  O138  1  -0.00737250  0.50657676  0.37851101  1
  O2-  O139  1  -0.00300278  0.51278324  0.86539288  1
  O2-  O140  1  0.46269416  -0.00760568  0.36299143  1
  O2-  O141  1  0.47854472  -0.01699769  0.86881186  1
  O2-  O142  1  0.46524772  0.48602227  0.36555175  1
  O2-  O143  1  0.47849471  0.48567322  0.86703227  1
  O2-  O144  1  0.26862949  0.22857965  0.14041478  1
  O2-  O145  1  0.26268818  0.22927995  0.61353033  1
  O2-  O146  1  0.22671934  0.73287197  0.14201068  1
  O2-  O147  1  0.22349542  0.73608994  0.61396475  1
  O2-  O148  1  0.76119643  0.26847575  0.13617430  1
  O2-  O149  1  0.78678305  0.26150209  0.63103488  1
  O2-  O150  1  0.74256667  0.77696489  0.13647209  1
  O2-  O151  1  0.73922256  0.77243576  0.61581401  1
  O2-  O152  1  0.23123728  0.25855736  0.37725543  1
  O2-  O153  1  0.22834200  0.27159973  0.86647864  1
  O2-  O154  1  0.25344417  0.76402938  0.38145213  1
  O2-  O155  1  0.25757871  0.77218580  0.86283714  1
  O2-  O156  1  0.72405294  0.23067127  0.36777436  1
  O2-  O157  1  0.71376898  0.24159006  0.86289616  1
  O2-  O158  1  0.76601776  0.73071771  0.38173760  1
  O2-  O159  1  0.76602975  0.72490024  0.86349132  1
  O2-  O160  1  -0.02487834  0.22514063  0.11643714  1
  O2-  O161  1  -0.02164727  0.24423096  0.61129437  1
  O2-  O162  1  0.02291189  0.75606821  0.13315284  1
  O2-  O163  1  0.01476179  0.75400855  0.62376056  1
  O2-  O164  1  0.48299545  0.23436510  0.13608574  1
  O2-  O165  1  0.48678156  0.22309741  0.61009714  1
  O2-  O166  1  0.52070468  0.73033322  0.12035630  1
  O2-  O167  1  0.51472601  0.72535033  0.61072526  1
  O2-  O168  1  0.25629665  -0.01332484  0.37606145  1
  O2-  O169  1  0.26201963  -0.02147223  0.88582315  1
  O2-  O170  1  0.25631857  0.47944629  0.37933089  1
  O2-  O171  1  0.26982234  0.47227212  0.88094437  1
  O2-  O172  1  0.76648171  0.01327405  0.38772062  1
  O2-  O173  1  0.76942285  0.01651849  0.88495511  1
  O2-  O174  1  0.76130967  0.53635218  0.38524841  1
  O2-  O175  1  0.74425380  0.52740653  0.88359416  1
  O2-  O176  1  0.02661769  0.26198838  0.38262231  1
  O2-  O177  1  0.02463161  0.25713897  0.88521867  1
  O2-  O178  1  -0.01506029  0.74901668  0.38326253  1
  O2-  O179  1  -0.01951023  0.75104395  0.87494703  1
  O2-  O180  1  0.51024979  0.27393736  0.37260941  1
  O2-  O181  1  0.51725796  0.28027757  0.88089101  1
  O2-  O182  1  0.47383171  0.77046501  0.38513841  1
  O2-  O183  1  0.48071510  0.76242512  0.88223311  1
  O2-  O184  1  0.22491951  0.01112536  0.13567499  1
  O2-  O185  1  0.21838591  0.01063550  0.61180622  1
  O2-  O186  1  0.22623499  0.51599798  0.14185704  1
  O2-  O187  1  0.22850764  0.50637092  0.60918585  1
  O2-  O188  1  0.74594928  -0.03172687  0.11646409  1
  O2-  O189  1  0.75117436  -0.03440827  0.61530455  1
  O2-  O190  1  0.75268805  0.47959866  0.12205397  1
  O2-  O191  1  0.75274446  0.48788354  0.61177973  1
  O2-  O192  1  0.13678371  0.26619452  0.23580844  1
  O2-  O193  1  0.13219704  0.26999364  0.72133098  1
  O2-  O194  1  0.12366982  0.76013117  0.27628746  1
  O2-  O195  1  0.11484980  0.77120455  0.76358121  1
  O2-  O196  1  0.61545124  0.26517450  0.23950023  1
  O2-  O197  1  0.63574029  0.26772218  0.71019221  1
  O2-  O198  1  0.63674950  0.76886917  0.27542679  1
  O2-  O199  1  0.63776655  0.77796069  0.75798769  1
  O2-  O200  1  0.37104563  0.24141083  0.27630208  1
  O2-  O201  1  0.36463917  0.22829590  0.76441740  1
  O2-  O202  1  0.36180910  0.72663355  0.24842695  1
  O2-  O203  1  0.36252758  0.72691444  0.73204689  1
  O2-  O204  1  0.86825796  0.22137614  0.27099543  1
  O2-  O205  1  0.86705115  0.22407491  0.77605753  1
  O2-  O206  1  0.88483617  0.73504554  0.24244293  1
  O2-  O207  1  0.88233460  0.72745938  0.73312088  1
  O2-  O208  1  0.26424317  0.37546747  0.24300960  1
  O2-  O209  1  0.26833373  0.36674533  0.72289399  1
  O2-  O210  1  0.26216294  0.86899169  0.24498331  1
  O2-  O211  1  0.25628300  0.86283902  0.71631001  1
  O2-  O212  1  0.76638990  0.36298811  0.27594359  1
  O2-  O213  1  0.77494014  0.36724574  0.76450028  1
  O2-  O214  1  0.77505318  0.86613251  0.27870793  1
  O2-  O215  1  0.78856643  0.86131900  0.75332867  1
  O2-  O216  1  0.23696435  0.12177438  0.26965966  1
  O2-  O217  1  0.22342837  0.13511858  0.75525463  1
  O2-  O218  1  0.23341101  0.62278802  0.27984270  1
  O2-  O219  1  0.21330201  0.63791780  0.75320806  1
  O2-  O220  1  0.72516995  0.13168496  0.22834832  1
  O2-  O221  1  0.73349513  0.12976019  0.72913971  1
  O2-  O222  1  0.73597343  0.63681131  0.23531624  1
  O2-  O223  1  0.73907774  0.63813719  0.71835022  1
  O2-  O224  1  0.12470733  0.48638835  0.27495968  1
  O2-  O225  1  0.11576050  0.48225008  0.75062926  1
  O2-  O226  1  0.12872561  0.97492593  0.26557746  1
  O2-  O227  1  0.11375361  0.96226251  0.76220148  1
  O2-  O228  1  0.61653938  0.47259014  0.26836476  1
  O2-  O229  1  0.61703544  0.46607656  0.75483338  1
  O2-  O230  1  0.61309126  0.99180444  0.28017708  1
  O2-  O231  1  0.61744338  0.97859503  0.76387301  1
  O2-  O232  1  0.36229728  0.00878636  0.23200164  1
  O2-  O233  1  0.37879523  0.01628073  0.73239547  1
  O2-  O234  1  0.36305844  0.51790428  0.24166529  1
  O2-  O235  1  0.38464534  0.53373136  0.73347301  1
  O2-  O236  1  0.89108480  0.01734870  0.23831268  1
  O2-  O237  1  0.89007695  0.01769753  0.74248626  1
  O2-  O238  1  0.89028552  0.53271607  0.24303237  1
  O2-  O239  1  0.88470895  0.52982371  0.73839230  1
  O2-  O240  1  0.47718797  0.37248141  0.24043488  1
  O2-  O241  1  0.46937747  0.38442175  0.73142897  1
  O2-  O242  1  0.48826197  0.88713691  0.22328989  1
  O2-  O243  1  0.48313887  0.88079806  0.73208069  1
  O2-  O244  1  0.97550650  0.38603776  0.24857359  1
  O2-  O245  1  0.97339071  0.38532071  0.74965390  1
  O2-  O246  1  0.99285532  0.87215551  0.25849851  1
  O2-  O247  1  0.97660981  0.87036335  0.74223725  1
  O2-  O248  1  0.03271966  0.11015535  0.25811210  1
  O2-  O249  1  0.03209058  0.11327075  0.75245581  1
  O2-  O250  1  0.02321095  0.63215396  0.25638263  1
  O2-  O251  1  0.02134593  0.63139272  0.74486702  1
  O2-  O252  1  0.50144838  0.13236488  0.27242180  1
  O2-  O253  1  0.51644577  0.11851252  0.77285259  1
  O2-  O254  1  0.51832132  0.61454679  0.27112819  1
  O2-  O255  1  0.53286471  0.61625120  0.77204766  1
  O2-  O256  1  0.13150138  0.46894151  -0.01080199  1
  O2-  O257  1  0.11974139  0.49162404  0.48480561  1
  O2-  O258  1  0.12144147  0.97505932  -0.00558426  1
  O2-  O259  1  0.12001112  0.98320735  0.48230837  1
  O2-  O260  1  0.63207625  0.47242490  0.00401706  1
  O2-  O261  1  0.63798996  0.47756457  0.48610351  1
  O2-  O262  1  0.63367639  0.96759989  -0.01433645  1
  O2-  O263  1  0.63517208  0.97843321  0.49005829  1
  O2-  O264  1  0.36157912  0.01659120  0.02287484  1
  O2-  O265  1  0.35883075  0.01199181  0.51758686  1
  O2-  O266  1  0.36067649  0.52559186  0.02065447  1
  O2-  O267  1  0.36206947  0.52149380  0.51091960  1
  O2-  O268  1  0.88906398  0.01831164  0.01989930  1
  O2-  O269  1  0.88400142  0.01656824  0.51447154  1
  O2-  O270  1  0.86687518  0.53104961  0.00558189  1
  O2-  O271  1  0.88283092  0.52295953  0.50494190  1
  O2-  O272  1  0.46030519  0.36165071  0.01454545  1
  O2-  O273  1  0.46632477  0.36444356  0.50885729  1
  O2-  O274  1  0.48081632  0.86715312  0.02213758  1
  O2-  O275  1  0.48356165  0.86577317  0.52270544  1
  O2-  O276  1  0.97193387  0.36590486  0.01072230  1
  O2-  O277  1  0.98621172  0.37856263  0.50020432  1
  O2-  O278  1  0.98227430  0.87714816  0.00191184  1
  O2-  O279  1  0.98545836  0.87571887  0.50444770  1
  O2-  O280  1  0.02509040  0.11633602  -0.00788256  1
  O2-  O281  1  0.02037514  0.12278146  0.49314908  1
  O2-  O282  1  0.02376461  0.63752321  -0.00361680  1
  O2-  O283  1  0.01522128  0.63071616  0.50330723  1
  O2-  O284  1  0.53212413  0.13472530  -0.01848565  1
  O2-  O285  1  0.51051256  0.13719295  0.46707879  1
  O2-  O286  1  0.51968537  0.62867469  -0.01463622  1
  O2-  O287  1  0.51205790  0.63544835  0.47119336  1
  O2-  O288  1  0.11493005  0.26158639  0.02902859  1
  O2-  O289  1  0.12596528  0.25915228  0.51689526  1
  O2-  O290  1  0.11372196  0.77587310  -0.00678973  1
  O2-  O291  1  0.11835299  0.76570371  0.48743316  1
  O2-  O292  1  0.61172048  0.27275949  0.02956607  1
  O2-  O293  1  0.61649506  0.27694987  0.51128764  1
  O2-  O294  1  0.61749224  0.77214460  -0.01653711  1
  O2-  O295  1  0.62850729  0.76676529  0.48074211  1
  O2-  O296  1  0.38654070  0.21253339  -0.01519875  1
  O2-  O297  1  0.36514788  0.23396475  0.47855323  1
  O2-  O298  1  0.38152426  0.72391709  0.01442321  1
  O2-  O299  1  0.36500649  0.73371229  0.51111347  1
  O2-  O300  1  0.88264411  0.22375985  -0.02236498  1
  O2-  O301  1  0.88854234  0.23104467  0.46631722  1
  O2-  O302  1  0.88909161  0.73810807  0.03145683  1
  O2-  O303  1  0.87726678  0.73924344  0.51726955  1
  O2-  O304  1  0.26301222  0.38556065  0.03601628  1
  O2-  O305  1  0.25674845  0.37183365  0.50885596  1
  O2-  O306  1  0.25692512  0.88300145  0.02919912  1
  O2-  O307  1  0.25684924  0.87244426  0.50996210  1
  O2-  O308  1  0.77631684  0.38368030  -0.01940139  1
  O2-  O309  1  0.78127763  0.38494470  0.47495727  1
  O2-  O310  1  0.79072791  0.88301167  -0.01577179  1
  O2-  O311  1  0.77149903  0.86909936  0.47920979  1
  O2-  O312  1  0.21938862  0.11312712  -0.00555113  1
  O2-  O313  1  0.23050498  0.12297023  0.48317552  1
  O2-  O314  1  0.21628885  0.61126511  -0.01405616  1
  O2-  O315  1  0.22979608  0.62629938  0.48099833  1
  O2-  O316  1  0.73581714  0.11075187  0.02180821  1
  O2-  O317  1  0.73715342  0.11377112  0.52972967  1
  O2-  O318  1  0.72535545  0.61967507  0.02486202  1
  O2-  O319  1  0.73630624  0.63255644  0.51817024  1
