# generated using pymatgen
data_Sr64Ca21Nb43O192
_symmetry_space_group_name_H-M   'P 1'
_cell_length_a   16.61331825
_cell_length_b   16.58361291
_cell_length_c   16.73422410
_cell_angle_alpha   90.02461219
_cell_angle_beta   90.07007191
_cell_angle_gamma   89.96392527
_symmetry_Int_Tables_number   1
_chemical_formula_structural   Sr64Ca21Nb43O192
_chemical_formula_sum   'Sr64 Ca21 Nb43 O192'
_cell_volume   4610.42186615
_cell_formula_units_Z   1
loop_
 _symmetry_equiv_pos_site_id
 _symmetry_equiv_pos_as_xyz
  1  'x, y, z'
loop_
 _atom_type_symbol
 _atom_type_oxidation_number
  Sr2+  2.0
  Ca2+  2.0
  Nb5+  5.0
  O2-  -2.0
loop_
 _atom_site_type_symbol
 _atom_site_label
 _atom_site_symmetry_multiplicity
 _atom_site_fract_x
 _atom_site_fract_y
 _atom_site_fract_z
 _atom_site_occupancy
  Sr2+  Sr0  1  0.13703760  0.11245854  0.12270213  1
  Sr2+  Sr1  1  0.12466751  0.12064483  0.63765588  1
  Sr2+  Sr2  1  0.12968883  0.63044040  0.11617046  1
  Sr2+  Sr3  1  0.12927642  0.62694401  0.61696727  1
  Sr2+  Sr4  1  0.63412088  0.13523800  0.13381439  1
  Sr2+  Sr5  1  0.63152722  0.11706970  0.62524536  1
  Sr2+  Sr6  1  0.62431271  0.61027216  0.13377041  1
  Sr2+  Sr7  1  0.62796766  0.61636670  0.62964991  1
  Sr2+  Sr8  1  0.38689971  0.39095014  0.12134095  1
  Sr2+  Sr9  1  0.38067294  0.39337537  0.62367633  1
  Sr2+  Sr10  1  0.37603643  0.87022957  0.12661697  1
  Sr2+  Sr11  1  0.38440020  0.86767768  0.62603402  1
  Sr2+  Sr12  1  0.87868222  0.39262745  0.12891706  1
  Sr2+  Sr13  1  0.88632447  0.38296383  0.62561163  1
  Sr2+  Sr14  1  0.88632334  0.86044567  0.12695383  1
  Sr2+  Sr15  1  0.88022257  0.86514802  0.62195888  1
  Sr2+  Sr16  1  0.14135100  0.37326682  0.37155668  1
  Sr2+  Sr17  1  0.12614996  0.36731211  0.87767972  1
  Sr2+  Sr18  1  0.12622337  0.88261283  0.36749331  1
  Sr2+  Sr19  1  0.11096462  0.87701642  0.88261311  1
  Sr2+  Sr20  1  0.61569738  0.36781883  0.37522159  1
  Sr2+  Sr21  1  0.61153706  0.36361381  0.87863027  1
  Sr2+  Sr22  1  0.62114468  0.87431413  0.37496679  1
  Sr2+  Sr23  1  0.62193329  0.87747178  0.87140692  1
  Sr2+  Sr24  1  0.36100794  0.12498163  0.37102728  1
  Sr2+  Sr25  1  0.35580491  0.13102604  0.87499429  1
  Sr2+  Sr26  1  0.36075096  0.62315855  0.38321972  1
  Sr2+  Sr27  1  0.36210673  0.62861852  0.87245557  1
  Sr2+  Sr28  1  0.86218350  0.12857455  0.37841605  1
  Sr2+  Sr29  1  0.87433751  0.12666496  0.87341158  1
  Sr2+  Sr30  1  0.86113249  0.62364212  0.38180293  1
  Sr2+  Sr31  1  0.87051559  0.61505950  0.87905799  1
  Sr2+  Sr32  1  0.12749568  0.14002276  0.36302204  1
  Sr2+  Sr33  1  0.11399263  0.12848346  0.87633501  1
  Sr2+  Sr34  1  0.11930618  0.61147888  0.38150631  1
  Sr2+  Sr35  1  0.12178688  0.60814487  0.87450995  1
  Sr2+  Sr36  1  0.61754389  0.11563754  0.37890578  1
  Sr2+  Sr37  1  0.62865772  0.12580508  0.88299926  1
  Sr2+  Sr38  1  0.61671635  0.61240967  0.37736395  1
  Sr2+  Sr39  1  0.61026281  0.61714204  0.87279692  1
  Sr2+  Sr40  1  0.36719382  0.36935307  0.38081905  1
  Sr2+  Sr41  1  0.36599931  0.37406015  0.88036217  1
  Sr2+  Sr42  1  0.37315299  0.88806004  0.37725280  1
  Sr2+  Sr43  1  0.37434261  0.88002471  0.86594349  1
  Sr2+  Sr44  1  0.87349294  0.36680257  0.37292928  1
  Sr2+  Sr45  1  0.87060877  0.36416870  0.87619871  1
  Sr2+  Sr46  1  0.86989132  0.86934268  0.36801469  1
  Sr2+  Sr47  1  0.86743820  0.87992242  0.88090330  1
  Sr2+  Sr48  1  0.13593531  0.38692839  0.12890268  1
  Sr2+  Sr49  1  0.14054693  0.37279869  0.62527243  1
  Sr2+  Sr50  1  0.13180872  0.86748910  0.12327860  1
  Sr2+  Sr51  1  0.13436055  0.86437484  0.62560267  1
  Sr2+  Sr52  1  0.62950522  0.37709220  0.12037099  1
  Sr2+  Sr53  1  0.62715165  0.37334225  0.62598038  1
  Sr2+  Sr54  1  0.62602951  0.86568000  0.13051885  1
  Sr2+  Sr55  1  0.62902800  0.87234681  0.62609273  1
  Sr2+  Sr56  1  0.37695542  0.12308206  0.12995392  1
  Sr2+  Sr57  1  0.39228991  0.12214002  0.62066529  1
  Sr2+  Sr58  1  0.38227088  0.63475516  0.13055366  1
  Sr2+  Sr59  1  0.35316159  0.62900531  0.62829223  1
  Sr2+  Sr60  1  0.88653087  0.12564063  0.13126829  1
  Sr2+  Sr61  1  0.88198320  0.12528899  0.62842677  1
  Sr2+  Sr62  1  0.89070110  0.62239221  0.12285402  1
  Sr2+  Sr63  1  0.89193595  0.62966793  0.62364089  1
  Ca2+  Ca64  1  0.50182420  0.50429535  -0.00158633  1
  Ca2+  Ca65  1  0.50152286  -0.00006972  0.00042503  1
  Ca2+  Ca66  1  -0.00201939  0.49644511  0.50078978  1
  Ca2+  Ca67  1  0.50073476  0.50356573  0.50098485  1
  Ca2+  Ca68  1  0.00051036  0.00237443  0.49960421  1
  Ca2+  Ca69  1  0.24683669  0.24986453  0.00343425  1
  Ca2+  Ca70  1  0.25151981  0.75542645  0.49598187  1
  Ca2+  Ca71  1  0.25008879  0.24442290  0.50259644  1
  Ca2+  Ca72  1  0.74455616  0.75038279  -0.00184445  1
  Ca2+  Ca73  1  0.25376735  0.75052281  -0.00167687  1
  Ca2+  Ca74  1  -0.00133691  0.25053976  0.24628013  1
  Ca2+  Ca75  1  0.24924711  0.49812274  0.75124864  1
  Ca2+  Ca76  1  -0.00175292  0.75166382  0.75073840  1
  Ca2+  Ca77  1  0.49927403  0.24677476  0.75024810  1
  Ca2+  Ca78  1  0.25200677  0.50407353  0.24852857  1
  Ca2+  Ca79  1  0.75328382  0.49925906  0.25386599  1
  Ca2+  Ca80  1  0.50164322  0.24966866  0.24863811  1
  Ca2+  Ca81  1  0.74980360  0.49604728  0.75108389  1
  Ca2+  Ca82  1  0.24915586  0.00015473  0.75011864  1
  Ca2+  Ca83  1  0.75017057  -0.00072774  0.25141140  1
  Ca2+  Ca84  1  0.00129897  0.74495976  0.25207236  1
  Nb5+  Nb85  1  0.00073643  0.49090131  -0.00415905  1
  Nb5+  Nb86  1  -0.00319960  -0.00488519  0.00188067  1
  Nb5+  Nb87  1  0.49991069  -0.00072909  0.50062857  1
  Nb5+  Nb88  1  0.74769089  0.24276188  0.50689801  1
  Nb5+  Nb89  1  0.74540789  0.74462385  0.50103673  1
  Nb5+  Nb90  1  0.75469132  0.24994378  0.00631693  1
  Nb5+  Nb91  1  0.75023887  0.00027416  0.74921114  1
  Nb5+  Nb92  1  0.50165055  0.74804742  0.75269728  1
  Nb5+  Nb93  1  0.49870105  0.74919592  0.26046432  1
  Nb5+  Nb94  1  -0.00181542  0.25390150  0.75025366  1
  Nb5+  Nb95  1  0.25015375  -0.00305951  0.24799715  1
  Nb5+  Nb96  1  0.00014872  0.00384631  0.25582451  1
  Nb5+  Nb97  1  -0.00263326  -0.00247412  0.74750774  1
  Nb5+  Nb98  1  -0.00082339  0.50198743  0.25689364  1
  Nb5+  Nb99  1  0.00401901  0.50187128  0.74684606  1
  Nb5+  Nb100  1  0.50129218  -0.00379279  0.24547691  1
  Nb5+  Nb101  1  0.50184992  0.00253205  0.75288013  1
  Nb5+  Nb102  1  0.49741807  0.49602380  0.25571589  1
  Nb5+  Nb103  1  0.49665000  0.49446037  0.75427116  1
  Nb5+  Nb104  1  0.25517599  0.25290627  0.24354407  1
  Nb5+  Nb105  1  0.25364838  0.24566470  0.74705308  1
  Nb5+  Nb106  1  0.24733863  0.75003260  0.25556239  1
  Nb5+  Nb107  1  0.24379405  0.75689119  0.75371735  1
  Nb5+  Nb108  1  0.75061381  0.24984373  0.25860901  1
  Nb5+  Nb109  1  0.74888267  0.25086847  0.75300869  1
  Nb5+  Nb110  1  0.74848109  0.74516425  0.24466923  1
  Nb5+  Nb111  1  0.74681104  0.74863949  0.74959653  1
  Nb5+  Nb112  1  0.00082541  0.24891422  0.49730180  1
  Nb5+  Nb113  1  -0.00268066  0.24774320  1.00233928  1
  Nb5+  Nb114  1  0.00286150  0.75603840  0.49507680  1
  Nb5+  Nb115  1  -0.00085603  0.74027055  0.99829881  1
  Nb5+  Nb116  1  0.49784969  0.25141697  0.49840859  1
  Nb5+  Nb117  1  0.49478415  0.24612965  1.00182666  1
  Nb5+  Nb118  1  0.50430492  0.74845443  0.50630459  1
  Nb5+  Nb119  1  0.50127987  0.75340805  1.00688431  1
  Nb5+  Nb120  1  0.25272698  -0.00208714  -0.00394283  1
  Nb5+  Nb121  1  0.24805147  0.00212654  0.50634402  1
  Nb5+  Nb122  1  0.25608279  0.50425440  0.00370175  1
  Nb5+  Nb123  1  0.24941953  0.49851710  0.50023021  1
  Nb5+  Nb124  1  0.75393096  0.00251190  0.00761519  1
  Nb5+  Nb125  1  0.75189354  -0.00579733  0.50274761  1
  Nb5+  Nb126  1  0.74770998  0.50128471  -0.00601642  1
  Nb5+  Nb127  1  0.75200449  0.48648637  0.50231817  1
  O2-  O128  1  -0.02495191  -0.01183794  0.11743872  1
  O2-  O129  1  -0.02901747  -0.00889799  0.63637712  1
  O2-  O130  1  0.01391287  0.47840264  0.11197836  1
  O2-  O131  1  0.01923184  0.47054331  0.63673883  1
  O2-  O132  1  0.48301186  -0.02226391  0.13412492  1
  O2-  O133  1  0.48478491  -0.01627948  0.61986440  1
  O2-  O134  1  0.52307320  0.48598179  0.13586338  1
  O2-  O135  1  0.52308635  0.48395362  0.63692512  1
  O2-  O136  1  0.03422874  0.01862941  0.36440246  1
  O2-  O137  1  0.01389816  0.01459183  0.87857466  1
  O2-  O138  1  -0.01726305  0.52860230  0.36681835  1
  O2-  O139  1  -0.01360847  0.52072797  0.87651100  1
  O2-  O140  1  0.51234995  0.00348628  0.37879110  1
  O2-  O141  1  0.52992197  0.00941247  0.86386880  1
  O2-  O142  1  0.48060281  0.53499460  0.36617185  1
  O2-  O143  1  0.47917129  0.53372036  0.86572991  1
  O2-  O144  1  0.24879116  0.21561806  0.13295505  1
  O2-  O145  1  0.22626050  0.22715648  0.63414821  1
  O2-  O146  1  0.25313613  0.73002185  0.13755850  1
  O2-  O147  1  0.23418426  0.73710272  0.63172592  1
  O2-  O148  1  0.76194832  0.22601849  0.11802346  1
  O2-  O149  1  0.74940979  0.22647381  0.62234196  1
  O2-  O150  1  0.72371425  0.72815145  0.13436516  1
  O2-  O151  1  0.72483273  0.74178129  0.62302328  1
  O2-  O152  1  0.25635914  0.26352610  0.36534450  1
  O2-  O153  1  0.25104284  0.27106720  0.86586992  1
  O2-  O154  1  0.26896173  0.78289949  0.36548718  1
  O2-  O155  1  0.27595145  0.77005642  0.86521075  1
  O2-  O156  1  0.74737157  0.26694915  0.37616981  1
  O2-  O157  1  0.74595685  0.26292557  0.86946372  1
  O2-  O158  1  0.75570200  0.77179011  0.38513380  1
  O2-  O159  1  0.75351533  0.78141963  0.86022369  1
  O2-  O160  1  -0.02983713  0.26706873  0.11102035  1
  O2-  O161  1  -0.00909732  0.26690877  0.63370651  1
  O2-  O162  1  0.00741131  0.76766312  0.11523463  1
  O2-  O163  1  0.00787997  0.77720213  0.61536689  1
  O2-  O164  1  0.49968632  0.28245458  0.11454667  1
  O2-  O165  1  0.50322248  0.26637332  0.61447490  1
  O2-  O166  1  0.49928425  0.76795633  0.12476195  1
  O2-  O167  1  0.50973618  0.77045424  0.62137979  1
  O2-  O168  1  0.24431972  -0.02371589  0.36661562  1
  O2-  O169  1  0.23351087  -0.03114003  0.88555073  1
  O2-  O170  1  0.27263616  0.48236190  0.38201758  1
  O2-  O171  1  0.26998400  0.48740997  0.88592524  1
  O2-  O172  1  0.73593425  -0.01950521  0.38872373  1
  O2-  O173  1  0.74089464  -0.01470317  0.86643297  1
  O2-  O174  1  0.78568436  0.48795427  0.38812792  1
  O2-  O175  1  0.78069148  0.47865145  0.88339768  1
  O2-  O176  1  -0.00731884  0.22217295  0.38581241  1
  O2-  O177  1  0.00073606  0.23647450  0.87469081  1
  O2-  O178  1  -0.02756801  0.72912193  0.38471145  1
  O2-  O179  1  -0.01956665  0.73591491  0.88283127  1
  O2-  O180  1  0.52292938  0.23098039  0.38432044  1
  O2-  O181  1  0.51637928  0.22677359  0.88481311  1
  O2-  O182  1  0.50172285  0.73937592  0.37651413  1
  O2-  O183  1  0.50097768  0.74092673  0.86749048  1
  O2-  O184  1  0.26423081  0.02062940  0.12761731  1
  O2-  O185  1  0.26584592  0.03413911  0.61477120  1
  O2-  O186  1  0.21812408  0.51469376  0.11632913  1
  O2-  O187  1  0.22361690  0.51247297  0.61741991  1
  O2-  O188  1  0.76356819  0.03177696  0.11681782  1
  O2-  O189  1  0.75688655  0.02569835  0.62450635  1
  O2-  O190  1  0.73956911  0.50797400  0.11254107  1
  O2-  O191  1  0.71898969  0.50080926  0.61630690  1
  O2-  O192  1  0.13500532  0.26165693  0.25419660  1
  O2-  O193  1  0.11461656  0.26853497  0.75287020  1
  O2-  O194  1  0.13504251  0.77681098  0.25657993  1
  O2-  O195  1  0.13235013  0.78205684  0.76583716  1
  O2-  O196  1  0.63728858  0.27085840  0.22918768  1
  O2-  O197  1  0.63492780  0.27091681  0.74354130  1
  O2-  O198  1  0.61907492  0.77323580  0.25683357  1
  O2-  O199  1  0.62323998  0.77734248  0.74999040  1
  O2-  O200  1  0.36965692  0.21859750  0.25054012  1
  O2-  O201  1  0.36492873  0.21551130  0.74414474  1
  O2-  O202  1  0.38085679  0.73461362  0.24904436  1
  O2-  O203  1  0.38572089  0.73868447  0.73516703  1
  O2-  O204  1  0.86392459  0.21620405  0.25507567  1
  O2-  O205  1  0.87370823  0.22585208  0.75418582  1
  O2-  O206  1  0.86313112  0.72874458  0.23667205  1
  O2-  O207  1  0.86033168  0.74069857  0.72684143  1
  O2-  O208  1  0.27271562  0.36517196  0.22341841  1
  O2-  O209  1  0.26824095  0.36258133  0.72515481  1
  O2-  O210  1  0.26807985  0.87828966  0.22724223  1
  O2-  O211  1  0.27522599  0.86923636  0.72489798  1
  O2-  O212  1  0.77705751  0.36308357  0.23678908  1
  O2-  O213  1  0.77586128  0.36020923  0.72771446  1
  O2-  O214  1  0.76743665  0.86368378  0.23619586  1
  O2-  O215  1  0.76375453  0.88519335  0.72481128  1
  O2-  O216  1  0.23564510  0.11441801  0.26632115  1
  O2-  O217  1  0.22126625  0.13168791  0.77607809  1
  O2-  O218  1  0.23596695  0.63758236  0.28385248  1
  O2-  O219  1  0.23983868  0.63763619  0.76651251  1
  O2-  O220  1  0.71992521  0.13239780  0.26986455  1
  O2-  O221  1  0.72961255  0.12516964  0.76166667  1
  O2-  O222  1  0.73049308  0.63606178  0.28437550  1
  O2-  O223  1  0.72791644  0.63718633  0.76737587  1
  O2-  O224  1  0.11669773  0.47579096  0.26483542  1
  O2-  O225  1  0.11527286  0.47699421  0.77955668  1
  O2-  O226  1  0.13111948  0.98035170  0.22964311  1
  O2-  O227  1  0.11099902  0.98320121  0.72803761  1
  O2-  O228  1  0.61699439  0.49201640  0.27271293  1
  O2-  O229  1  0.61455686  0.48643693  0.77977463  1
  O2-  O230  1  0.61451285  0.96981279  0.24368603  1
  O2-  O231  1  0.62908589  0.98661797  0.73093009  1
  O2-  O232  1  0.37561225  0.01107353  0.26315117  1
  O2-  O233  1  0.38728041  0.01568510  0.77179461  1
  O2-  O234  1  0.38512817  0.51710957  0.22185358  1
  O2-  O235  1  0.38393910  0.52151111  0.72469242  1
  O2-  O236  1  0.88692814  0.02200322  0.27209402  1
  O2-  O237  1  0.86793992  0.02311740  0.76111302  1
  O2-  O238  1  0.88560688  0.51762422  0.22308462  1
  O2-  O239  1  0.88656782  0.51953439  0.73644405  1
  O2-  O240  1  0.48119893  0.38419245  0.28043234  1
  O2-  O241  1  0.47369350  0.38249869  0.77226327  1
  O2-  O242  1  0.47875474  0.87070049  0.26573003  1
  O2-  O243  1  0.48888140  0.87774668  0.75628500  1
  O2-  O244  1  0.97627303  0.38364898  0.26265299  1
  O2-  O245  1  0.97540801  0.36958061  0.76863650  1
  O2-  O246  1  0.98505115  0.88595285  0.25971460  1
  O2-  O247  1  0.97430345  0.88797399  0.77457035  1
  O2-  O248  1  0.02162268  0.11396203  0.21791815  1
  O2-  O249  1  0.01101826  0.12623613  0.74296257  1
  O2-  O250  1  0.02555616  0.61346741  0.22106970  1
  O2-  O251  1  0.02605596  0.61572497  0.73002658  1
  O2-  O252  1  0.51885181  0.11036664  0.23613530  1
  O2-  O253  1  0.51652834  0.11280265  0.72041443  1
  O2-  O254  1  0.51667673  0.63537363  0.23414619  1
  O2-  O255  1  0.52458988  0.63521289  0.73507327  1
  O2-  O256  1  0.11783201  0.48343237  -0.02190610  1
  O2-  O257  1  0.13126110  0.48228587  0.47515695  1
  O2-  O258  1  0.11460423  0.98584983  0.01833751  1
  O2-  O259  1  0.13652099  0.97460483  0.51919217  1
  O2-  O260  1  0.63706043  0.47144846  -0.01880332  1
  O2-  O261  1  0.63694579  0.48335898  0.47016689  1
  O2-  O262  1  0.64043970  0.98630955  0.00705185  1
  O2-  O263  1  0.62404024  0.98846916  0.51511151  1
  O2-  O264  1  0.36439032  0.02223355  -0.01775697  1
  O2-  O265  1  0.38350843  0.02133895  0.48665057  1
  O2-  O266  1  0.36783049  0.52160290  0.02685284  1
  O2-  O267  1  0.36717604  0.52242053  0.52200560  1
  O2-  O268  1  0.87844638  0.01999948  -0.02026764  1
  O2-  O269  1  0.86238595  0.02382244  0.49034003  1
  O2-  O270  1  0.88108305  0.51635271  0.01237042  1
  O2-  O271  1  0.86294836  0.51960282  0.53114901  1
  O2-  O272  1  0.48443714  0.36608108  -0.02636392  1
  O2-  O273  1  0.48296102  0.36579174  0.47910112  1
  O2-  O274  1  0.46342633  0.86549691  -0.01579511  1
  O2-  O275  1  0.48831537  0.87686714  0.48681034  1
  O2-  O276  1  0.98147036  0.37628271  -0.02380964  1
  O2-  O277  1  0.96374002  0.36145448  0.49330443  1
  O2-  O278  1  0.98182114  0.88074199  -0.01669053  1
  O2-  O279  1  0.96776119  0.86963202  0.48009856  1
  O2-  O280  1  0.01023085  0.12952124  0.01301350  1
  O2-  O281  1  0.01125412  0.13706706  0.53608144  1
  O2-  O282  1  0.01704692  0.62380421  0.01116566  1
  O2-  O283  1  0.01162720  0.63714411  0.52236279  1
  O2-  O284  1  0.52704433  0.13450683  0.02946898  1
  O2-  O285  1  0.52177223  0.11886687  0.51610306  1
  O2-  O286  1  0.54343680  0.63989168  0.01036542  1
  O2-  O287  1  0.53687756  0.63864724  0.51193749  1
  O2-  O288  1  0.10969244  0.27293132  0.00644394  1
  O2-  O289  1  0.11271976  0.27520263  0.49471648  1
  O2-  O290  1  0.11445352  0.77005242  -0.01116755  1
  O2-  O291  1  0.11499045  0.77555664  0.47814579  1
  O2-  O292  1  0.63787574  0.26525371  0.00332956  1
  O2-  O293  1  0.63185269  0.27193984  0.50487660  1
  O2-  O294  1  0.61419615  0.79402141  -0.00581121  1
  O2-  O295  1  0.62683133  0.77996859  0.49365945  1
  O2-  O296  1  0.38256375  0.22107390  -0.00285441  1
  O2-  O297  1  0.38657818  0.22140788  0.49587706  1
  O2-  O298  1  0.38965731  0.71320937  0.00011012  1
  O2-  O299  1  0.39000442  0.72941609  0.50720988  1
  O2-  O300  1  0.87322384  0.23800350  -0.02232034  1
  O2-  O301  1  0.86520700  0.22685560  0.49863855  1
  O2-  O302  1  0.88018764  0.73457847  0.01561108  1
  O2-  O303  1  0.86151047  0.73929606  0.51941534  1
  O2-  O304  1  0.26448062  0.38429655  0.02131878  1
  O2-  O305  1  0.27083433  0.38012616  0.51886263  1
  O2-  O306  1  0.25741759  0.88547556  0.03136580  1
  O2-  O307  1  0.28412734  0.88973515  0.51358601  1
  O2-  O308  1  0.77358673  0.36687671  0.01511633  1
  O2-  O309  1  0.76851122  0.37001888  0.51628360  1
  O2-  O310  1  0.78144121  0.88985964  0.01613267  1
  O2-  O311  1  0.76256217  0.88095389  0.52559731  1
  O2-  O312  1  0.21976663  0.11231068  -0.01678394  1
  O2-  O313  1  0.23482276  0.11119723  0.46385915  1
  O2-  O314  1  0.22450479  0.61737172  -0.01903100  1
  O2-  O315  1  0.23208743  0.61948926  0.48200422  1
  O2-  O316  1  0.74572368  0.12712759  -0.02400634  1
  O2-  O317  1  0.72705644  0.12834760  0.48372579  1
  O2-  O318  1  0.73583919  0.61421351  -0.02965211  1
  O2-  O319  1  0.73157752  0.63085022  0.48716140  1
