# generated using pymatgen
data_Sr64Ca21Nb43O192
_symmetry_space_group_name_H-M   'P 1'
_cell_length_a   16.55522899
_cell_length_b   16.59427771
_cell_length_c   16.75643017
_cell_angle_alpha   89.95109251
_cell_angle_beta   90.02056623
_cell_angle_gamma   90.02877272
_symmetry_Int_Tables_number   1
_chemical_formula_structural   Sr64Ca21Nb43O192
_chemical_formula_sum   'Sr64 Ca21 Nb43 O192'
_cell_volume   4603.35858419
_cell_formula_units_Z   1
loop_
 _symmetry_equiv_pos_site_id
 _symmetry_equiv_pos_as_xyz
  1  'x, y, z'
loop_
 _atom_type_symbol
 _atom_type_oxidation_number
  Sr2+  2.0
  Ca2+  2.0
  Nb5+  5.0
  O2-  -2.0
loop_
 _atom_site_type_symbol
 _atom_site_label
 _atom_site_symmetry_multiplicity
 _atom_site_fract_x
 _atom_site_fract_y
 _atom_site_fract_z
 _atom_site_occupancy
  Sr2+  Sr0  1  0.13623869  0.11654967  0.12270827  1
  Sr2+  Sr1  1  0.11773687  0.11174552  0.62607888  1
  Sr2+  Sr2  1  0.11679805  0.62383407  0.12516264  1
  Sr2+  Sr3  1  0.12921583  0.62544181  0.62315491  1
  Sr2+  Sr4  1  0.62207517  0.10484179  0.12872784  1
  Sr2+  Sr5  1  0.61373009  0.11181255  0.62222690  1
  Sr2+  Sr6  1  0.61906003  0.61229820  0.12884293  1
  Sr2+  Sr7  1  0.61886687  0.62189807  0.62380003  1
  Sr2+  Sr8  1  0.37459126  0.36450649  0.12903393  1
  Sr2+  Sr9  1  0.36905333  0.36236616  0.62744572  1
  Sr2+  Sr10  1  0.37359429  0.89463992  0.13261466  1
  Sr2+  Sr11  1  0.36601212  0.86491235  0.62478544  1
  Sr2+  Sr12  1  0.87665231  0.36252591  0.13347890  1
  Sr2+  Sr13  1  0.86723662  0.36821308  0.61388923  1
  Sr2+  Sr14  1  0.86836445  0.86851203  0.13532689  1
  Sr2+  Sr15  1  0.88436859  0.87589555  0.61512794  1
  Sr2+  Sr16  1  0.12233463  0.37658885  0.37196467  1
  Sr2+  Sr17  1  0.12211842  0.38837868  0.87437283  1
  Sr2+  Sr18  1  0.12499656  0.88071173  0.37046354  1
  Sr2+  Sr19  1  0.12907606  0.87760395  0.87243481  1
  Sr2+  Sr20  1  0.63867388  0.37984437  0.37685743  1
  Sr2+  Sr21  1  0.63477128  0.38244143  0.87409566  1
  Sr2+  Sr22  1  0.64233504  0.88721487  0.37028202  1
  Sr2+  Sr23  1  0.63668637  0.87701442  0.87118364  1
  Sr2+  Sr24  1  0.38694003  0.12816486  0.36965332  1
  Sr2+  Sr25  1  0.38279670  0.13045041  0.87458789  1
  Sr2+  Sr26  1  0.36702719  0.63340971  0.36925369  1
  Sr2+  Sr27  1  0.38278508  0.62944695  0.87483228  1
  Sr2+  Sr28  1  0.87586703  0.12315593  0.38811653  1
  Sr2+  Sr29  1  0.86964295  0.13129425  0.87102054  1
  Sr2+  Sr30  1  0.88306794  0.63149117  0.37303297  1
  Sr2+  Sr31  1  0.87311578  0.62737925  0.87993617  1
  Sr2+  Sr32  1  0.12303132  0.12881279  0.37584206  1
  Sr2+  Sr33  1  0.12749784  0.13013758  0.87546135  1
  Sr2+  Sr34  1  0.12593069  0.63602694  0.37248505  1
  Sr2+  Sr35  1  0.12453114  0.62794533  0.87750937  1
  Sr2+  Sr36  1  0.62854160  0.12389335  0.37404122  1
  Sr2+  Sr37  1  0.62991625  0.12924617  0.87558039  1
  Sr2+  Sr38  1  0.62374753  0.63716890  0.37431075  1
  Sr2+  Sr39  1  0.63126468  0.63183005  0.87560358  1
  Sr2+  Sr40  1  0.37535175  0.38142037  0.36737891  1
  Sr2+  Sr41  1  0.37764846  0.37632001  0.87455555  1
  Sr2+  Sr42  1  0.37344525  0.88675552  0.36846335  1
  Sr2+  Sr43  1  0.37836036  0.88162532  0.87491644  1
  Sr2+  Sr44  1  0.88012645  0.36510202  0.37900757  1
  Sr2+  Sr45  1  0.87772382  0.37274105  0.87454082  1
  Sr2+  Sr46  1  0.88536353  0.88455013  0.37667034  1
  Sr2+  Sr47  1  0.88349538  0.88658232  0.87114166  1
  Sr2+  Sr48  1  0.12836508  0.37222529  0.12716370  1
  Sr2+  Sr49  1  0.11784642  0.37130498  0.62754153  1
  Sr2+  Sr50  1  0.11382125  0.86788155  0.12356760  1
  Sr2+  Sr51  1  0.13196044  0.86997151  0.61888147  1
  Sr2+  Sr52  1  0.62084497  0.36983730  0.13113980  1
  Sr2+  Sr53  1  0.61014361  0.37155778  0.62090228  1
  Sr2+  Sr54  1  0.61686283  0.87178682  0.13121354  1
  Sr2+  Sr55  1  0.60966766  0.86404613  0.62344042  1
  Sr2+  Sr56  1  0.38016182  0.12150595  0.11370793  1
  Sr2+  Sr57  1  0.36613810  0.12077856  0.63629991  1
  Sr2+  Sr58  1  0.38083596  0.61380069  0.12814910  1
  Sr2+  Sr59  1  0.36886958  0.62362657  0.62074820  1
  Sr2+  Sr60  1  0.86669908  0.11885596  0.11361220  1
  Sr2+  Sr61  1  0.87137729  0.11064925  0.62201557  1
  Sr2+  Sr62  1  0.87238535  0.61832050  0.13336997  1
  Sr2+  Sr63  1  0.85841293  0.61387141  0.61790588  1
  Ca2+  Ca64  1  -0.00179546  0.00022477  0.00236464  1
  Ca2+  Ca65  1  0.49669955  -0.00075343  0.50201025  1
  Ca2+  Ca66  1  0.00191332  0.50277745  0.50178296  1
  Ca2+  Ca67  1  0.49735271  0.50164730  0.50304615  1
  Ca2+  Ca68  1  0.50197777  -0.00162867  -0.00353369  1
  Ca2+  Ca69  1  0.25240763  0.25106338  0.50221712  1
  Ca2+  Ca70  1  0.74824531  0.74984676  0.49932084  1
  Ca2+  Ca71  1  0.74628492  0.24848295  0.50580183  1
  Ca2+  Ca72  1  0.25156737  0.74438425  0.00017435  1
  Ca2+  Ca73  1  0.74703567  0.74644149  0.00336393  1
  Ca2+  Ca74  1  0.75704315  0.00159165  0.25157809  1
  Ca2+  Ca75  1  0.00124123  0.24645393  0.74999249  1
  Ca2+  Ca76  1  0.74913683  -0.00047829  0.74736576  1
  Ca2+  Ca77  1  0.75287956  0.50007346  0.24837542  1
  Ca2+  Ca78  1  -0.00179584  0.74887953  0.74723896  1
  Ca2+  Ca79  1  0.50185642  0.25060237  0.24862289  1
  Ca2+  Ca80  1  0.24714339  0.00379133  0.25163083  1
  Ca2+  Ca81  1  0.24925723  -0.00185806  0.75179537  1
  Ca2+  Ca82  1  0.00027157  0.24763053  0.24730078  1
  Ca2+  Ca83  1  0.49633894  0.75041380  0.24776280  1
  Ca2+  Ca84  1  0.24873983  0.50090805  0.24741154  1
  Nb5+  Nb85  1  0.50636058  0.49720881  -0.00210684  1
  Nb5+  Nb86  1  0.00581112  0.00062765  0.49918073  1
  Nb5+  Nb87  1  0.00347056  0.49882170  0.00092160  1
  Nb5+  Nb88  1  0.25328010  0.25165630  -0.00253551  1
  Nb5+  Nb89  1  0.75164002  0.25160077  0.00140005  1
  Nb5+  Nb90  1  0.25092276  0.75193224  0.49554593  1
  Nb5+  Nb91  1  -0.00011726  0.75039388  0.24981393  1
  Nb5+  Nb92  1  0.74377795  0.49838168  0.74935525  1
  Nb5+  Nb93  1  0.49909487  0.74329972  0.75198850  1
  Nb5+  Nb94  1  0.24743117  0.49877329  0.74739490  1
  Nb5+  Nb95  1  0.50337582  0.24555336  0.75073237  1
  Nb5+  Nb96  1  0.00102481  0.00412557  0.24515514  1
  Nb5+  Nb97  1  0.00185004  -0.00330700  0.75262950  1
  Nb5+  Nb98  1  0.00194117  0.49937397  0.25493945  1
  Nb5+  Nb99  1  -0.01074025  0.50325886  0.74988503  1
  Nb5+  Nb100  1  0.50291987  -0.00065557  0.25355807  1
  Nb5+  Nb101  1  0.49902817  -0.01016555  0.74962020  1
  Nb5+  Nb102  1  0.50339792  0.49804722  0.25868162  1
  Nb5+  Nb103  1  0.49476514  0.49775689  0.75174362  1
  Nb5+  Nb104  1  0.25310273  0.24985396  0.25557666  1
  Nb5+  Nb105  1  0.24712407  0.25307754  0.75409339  1
  Nb5+  Nb106  1  0.24877479  0.75045484  0.24093996  1
  Nb5+  Nb107  1  0.25117638  0.74869452  0.75330896  1
  Nb5+  Nb108  1  0.75301966  0.24816970  0.25593182  1
  Nb5+  Nb109  1  0.74729381  0.25149591  0.74730307  1
  Nb5+  Nb110  1  0.74525603  0.74952992  0.25168953  1
  Nb5+  Nb111  1  0.75395838  0.74966398  0.74864820  1
  Nb5+  Nb112  1  0.00246929  0.25085584  0.50182870  1
  Nb5+  Nb113  1  0.00696051  0.25170372  0.99771726  1
  Nb5+  Nb114  1  0.00400103  0.74851558  0.50223673  1
  Nb5+  Nb115  1  -0.00781407  0.75088329  0.99755382  1
  Nb5+  Nb116  1  0.49639908  0.25193464  0.49557587  1
  Nb5+  Nb117  1  0.50694576  0.25395899  0.99567244  1
  Nb5+  Nb118  1  0.49730649  0.75409519  0.49169845  1
  Nb5+  Nb119  1  0.49678155  0.75188717  1.00165365  1
  Nb5+  Nb120  1  0.24911761  -0.00494148  -0.00220189  1
  Nb5+  Nb121  1  0.25159775  0.00554257  0.49925308  1
  Nb5+  Nb122  1  0.25626644  0.49958494  -0.00323723  1
  Nb5+  Nb123  1  0.25041921  0.49829831  0.49606864  1
  Nb5+  Nb124  1  0.75265720  -0.00806865  -0.00278960  1
  Nb5+  Nb125  1  0.74603886  -0.00470083  0.50613781  1
  Nb5+  Nb126  1  0.75652512  0.49694129  -0.00029481  1
  Nb5+  Nb127  1  0.74697893  0.50359509  0.49215989  1
  O2-  O128  1  -0.03210374  -0.00017622  0.13653414  1
  O2-  O129  1  -0.01249171  0.00540831  0.62074080  1
  O2-  O130  1  -0.02311067  0.49864934  0.11579843  1
  O2-  O131  1  -0.02672194  0.49881945  0.63664231  1
  O2-  O132  1  0.48439366  0.01530000  0.13157190  1
  O2-  O133  1  0.47704671  0.02347599  0.63788646  1
  O2-  O134  1  0.48441549  0.50645098  0.11164611  1
  O2-  O135  1  0.49129783  0.52499252  0.64069906  1
  O2-  O136  1  0.02524720  -0.00177054  0.38098851  1
  O2-  O137  1  0.01500655  -0.02040037  0.86796691  1
  O2-  O138  1  0.02946667  0.50317345  0.36601595  1
  O2-  O139  1  0.01211117  0.50842647  0.87867445  1
  O2-  O140  1  0.52408723  -0.01653376  0.36960049  1
  O2-  O141  1  0.53061868  -0.01235779  0.86352627  1
  O2-  O142  1  0.52208168  0.48325515  0.36967049  1
  O2-  O143  1  0.51386811  0.48565184  0.87324934  1
  O2-  O144  1  0.23173258  0.26199619  0.11140266  1
  O2-  O145  1  0.23757969  0.27487842  0.64041700  1
  O2-  O146  1  0.21645351  0.75099484  0.13187156  1
  O2-  O147  1  0.23738275  0.75206202  0.62701356  1
  O2-  O148  1  0.73512876  0.27654193  0.11290510  1
  O2-  O149  1  0.73117965  0.28453234  0.63892803  1
  O2-  O150  1  0.73962685  0.78402859  0.13507389  1
  O2-  O151  1  0.71775999  0.75946485  0.63764581  1
  O2-  O152  1  0.27883452  0.24276582  0.36661956  1
  O2-  O153  1  0.27690000  0.24634837  0.87472406  1
  O2-  O154  1  0.26786360  0.75048340  0.38043876  1
  O2-  O155  1  0.26800971  0.72810294  0.86557186  1
  O2-  O156  1  0.76816944  0.23000456  0.36841320  1
  O2-  O157  1  0.75824626  0.23842163  0.87537728  1
  O2-  O158  1  0.75963208  0.71225359  0.36536115  1
  O2-  O159  1  0.75499147  0.71831260  0.86350878  1
  O2-  O160  1  0.00994059  0.27766112  0.11115815  1
  O2-  O161  1  0.03420504  0.24453281  0.61715282  1
  O2-  O162  1  0.01816363  0.74527202  0.13002901  1
  O2-  O163  1  0.03037493  0.75536960  0.61414311  1
  O2-  O164  1  0.51700617  0.25077538  0.11013590  1
  O2-  O165  1  0.52491295  0.24069348  0.63727565  1
  O2-  O166  1  0.52597350  0.73676345  0.11149697  1
  O2-  O167  1  0.51331160  0.73636167  0.63445750  1
  O2-  O168  1  0.21725712  0.00013207  0.38649511  1
  O2-  O169  1  0.21412379  0.00638298  0.88502968  1
  O2-  O170  1  0.22138460  0.49964175  0.38558423  1
  O2-  O171  1  0.23202443  0.50757783  0.87061077  1
  O2-  O172  1  0.73612045  0.02004171  0.38875905  1
  O2-  O173  1  0.72599377  0.01732087  0.88348000  1
  O2-  O174  1  0.72092689  0.51831493  0.38212601  1
  O2-  O175  1  0.73525583  0.51342275  0.87319843  1
  O2-  O176  1  -0.02362505  0.24023379  0.38355444  1
  O2-  O177  1  -0.02737156  0.24541604  0.88535167  1
  O2-  O178  1  -0.01087574  0.75149927  0.37386731  1
  O2-  O179  1  -0.03113587  0.75096998  0.88388031  1
  O2-  O180  1  0.46802798  0.26133400  0.38470574  1
  O2-  O181  1  0.48103042  0.26451880  0.87357519  1
  O2-  O182  1  0.46325628  0.75891824  0.38313406  1
  O2-  O183  1  0.47143725  0.75910040  0.86916742  1
  O2-  O184  1  0.27404532  0.01310388  0.11456450  1
  O2-  O185  1  0.27245442  -0.00919952  0.61647644  1
  O2-  O186  1  0.27414672  0.48650135  0.10943156  1
  O2-  O187  1  0.27876935  0.49423095  0.63374369  1
  O2-  O188  1  0.77853462  -0.00543944  0.11472319  1
  O2-  O189  1  0.78340882  -0.01801786  0.61789243  1
  O2-  O190  1  0.76927237  0.47419716  0.11053867  1
  O2-  O191  1  0.77244009  0.48361742  0.63769039  1
  O2-  O192  1  0.13642084  0.28337178  0.25815503  1
  O2-  O193  1  0.13735053  0.26875396  0.78267400  1
  O2-  O194  1  0.12212471  0.76777924  0.26894111  1
  O2-  O195  1  0.13619641  0.76267116  0.76895266  1
  O2-  O196  1  0.63714166  0.28187787  0.26125159  1
  O2-  O197  1  0.61877589  0.27280250  0.77368770  1
  O2-  O198  1  0.63216478  0.76738619  0.27165309  1
  O2-  O199  1  0.61516040  0.76340675  0.76999371  1
  O2-  O200  1  0.36412646  0.22689700  0.21651090  1
  O2-  O201  1  0.38180202  0.24305118  0.73772526  1
  O2-  O202  1  0.36205193  0.72750615  0.22356648  1
  O2-  O203  1  0.37712435  0.72763337  0.73243624  1
  O2-  O204  1  0.86474099  0.23031226  0.21599944  1
  O2-  O205  1  0.86205963  0.23816832  0.73469833  1
  O2-  O206  1  0.88239519  0.73150117  0.23777754  1
  O2-  O207  1  0.86299339  0.72306293  0.72435409  1
  O2-  O208  1  0.27856323  0.36880511  0.25150134  1
  O2-  O209  1  0.27250573  0.38054264  0.76392974  1
  O2-  O210  1  0.26976875  0.86586327  0.25595222  1
  O2-  O211  1  0.27598046  0.86184044  0.75936089  1
  O2-  O212  1  0.78129916  0.36716535  0.26608743  1
  O2-  O213  1  0.76081494  0.37954386  0.77475210  1
  O2-  O214  1  0.77621873  0.86315811  0.27672397  1
  O2-  O215  1  0.76449392  0.86194553  0.77501298  1
  O2-  O216  1  0.21746046  0.13688368  0.24635334  1
  O2-  O217  1  0.24158244  0.13735929  0.74316669  1
  O2-  O218  1  0.23017995  0.63551926  0.26404176  1
  O2-  O219  1  0.24014633  0.61895929  0.73843659  1
  O2-  O220  1  0.72381968  0.13580095  0.23124189  1
  O2-  O221  1  0.71903884  0.13985957  0.73782503  1
  O2-  O222  1  0.74012165  0.63517672  0.21360534  1
  O2-  O223  1  0.72931300  0.61590219  0.73468276  1
  O2-  O224  1  0.11366365  0.49336924  0.21333654  1
  O2-  O225  1  0.13387840  0.48059595  0.73354798  1
  O2-  O226  1  0.11348049  0.96814889  0.23330417  1
  O2-  O227  1  0.11649542  0.96743524  0.72936871  1
  O2-  O228  1  0.61709578  0.48354577  0.22285943  1
  O2-  O229  1  0.62555034  0.48275030  0.74072933  1
  O2-  O230  1  0.62168719  0.97788098  0.23201991  1
  O2-  O231  1  0.61478509  0.98267889  0.71900213  1
  O2-  O232  1  0.38310345  0.01486794  0.27379798  1
  O2-  O233  1  0.38491763  0.01304276  0.78026082  1
  O2-  O234  1  0.38511363  0.52478262  0.26515451  1
  O2-  O235  1  0.37962373  0.51332031  0.77189613  1
  O2-  O236  1  0.89069845  0.01207671  0.28736944  1
  O2-  O237  1  0.88524767  0.03179752  0.76145610  1
  O2-  O238  1  0.88820285  0.53099446  0.26014315  1
  O2-  O239  1  0.87442369  0.51780675  0.77177905  1
  O2-  O240  1  0.47522324  0.38475880  0.23649921  1
  O2-  O241  1  0.48578932  0.38086021  0.73779270  1
  O2-  O242  1  0.47844701  0.88200237  0.23454673  1
  O2-  O243  1  0.48046537  0.87263015  0.73858324  1
  O2-  O244  1  0.98027481  0.38582099  0.25799141  1
  O2-  O245  1  0.99852016  0.38659798  0.76258380  1
  O2-  O246  1  0.98204634  0.86918680  0.24778276  1
  O2-  O247  1  0.96506450  0.88184293  0.74095974  1
  O2-  O248  1  0.03120143  0.11535433  0.24521531  1
  O2-  O249  1  0.03493226  0.11323949  0.75608705  1
  O2-  O250  1  0.02118136  0.63014675  0.25242689  1
  O2-  O251  1  0.03153996  0.61266215  0.75112976  1
  O2-  O252  1  0.52333359  0.11846671  0.26448707  1
  O2-  O253  1  0.51414047  0.13143300  0.76801959  1
  O2-  O254  1  0.52308451  0.61648821  0.25163656  1
  O2-  O255  1  0.51429300  0.62518336  0.77150316  1
  O2-  O256  1  0.11974513  0.47774616  0.01101861  1
  O2-  O257  1  0.13950860  0.48942044  0.53815129  1
  O2-  O258  1  0.13257869  0.98831484  0.03191551  1
  O2-  O259  1  0.12447451  0.98312195  0.52397178  1
  O2-  O260  1  0.62052442  0.47318147  0.00942888  1
  O2-  O261  1  0.63502808  0.48060746  0.52536692  1
  O2-  O262  1  0.63611565  0.98384471  0.02659008  1
  O2-  O263  1  0.63388269  0.97622648  0.52447514  1
  O2-  O264  1  0.36438783  0.02035060  -0.02575390  1
  O2-  O265  1  0.36360173  0.01353760  0.46777971  1
  O2-  O266  1  0.37192257  0.51138610  -0.02525922  1
  O2-  O267  1  0.36251547  0.53738037  0.48684096  1
  O2-  O268  1  0.86539447  0.03062283  -0.02245755  1
  O2-  O269  1  0.88683326  0.01281134  0.48710119  1
  O2-  O270  1  0.87161528  0.51262280  -0.02028069  1
  O2-  O271  1  0.86664165  0.52815264  0.48577370  1
  O2-  O272  1  0.47676077  0.37627949  -0.00020857  1
  O2-  O273  1  0.47799385  0.36719677  0.52686047  1
  O2-  O274  1  0.46648841  0.86273520  0.00984593  1
  O2-  O275  1  0.47871523  0.86453636  0.52999442  1
  O2-  O276  1  0.98291034  0.38088059  -0.01445128  1
  O2-  O277  1  0.98275019  0.36696494  0.50309426  1
  O2-  O278  1  0.97297093  0.86323087  0.01566480  1
  O2-  O279  1  0.99267417  0.87637728  0.49802388  1
  O2-  O280  1  0.01810828  0.13787352  0.01272478  1
  O2-  O281  1  0.02299610  0.12039476  0.49828328  1
  O2-  O282  1  0.01903745  0.61907677  0.00157634  1
  O2-  O283  1  0.02991205  0.63637286  0.49436409  1
  O2-  O284  1  0.50588098  0.13852754  -0.01750952  1
  O2-  O285  1  0.52818037  0.13567188  0.49101113  1
  O2-  O286  1  0.52016567  0.61316756  -0.01667992  1
  O2-  O287  1  0.52145873  0.63836700  0.49470337  1
  O2-  O288  1  0.12257419  0.26781862  -0.02553063  1
  O2-  O289  1  0.11916577  0.26780557  0.47117216  1
  O2-  O290  1  0.11063312  0.76156469  -0.02200426  1
  O2-  O291  1  0.13106181  0.77181825  0.48075062  1
  O2-  O292  1  0.62153332  0.26969483  -0.02243166  1
  O2-  O293  1  0.61405208  0.27977410  0.48514167  1
  O2-  O294  1  0.60995474  0.76254480  -0.03222049  1
  O2-  O295  1  0.61092097  0.77721951  0.47444136  1
  O2-  O296  1  0.37058378  0.24438863  0.01297490  1
  O2-  O297  1  0.38632133  0.22472023  0.53406377  1
  O2-  O298  1  0.38651039  0.70676593  0.00949122  1
  O2-  O299  1  0.36926050  0.73421666  0.51944946  1
  O2-  O300  1  0.86853102  0.24298886  0.01370958  1
  O2-  O301  1  0.88580842  0.23050550  0.52757369  1
  O2-  O302  1  0.88140732  0.71444711  0.02125068  1
  O2-  O303  1  0.88929224  0.73566549  0.51762586  1
  O2-  O304  1  0.25393494  0.37575351  -0.02085692  1
  O2-  O305  1  0.28082842  0.38706675  0.49491485  1
  O2-  O306  1  0.26691687  0.88101583  -0.00850089  1
  O2-  O307  1  0.26465503  0.87147561  0.50139557  1
  O2-  O308  1  0.75708979  0.37541031  -0.02797446  1
  O2-  O309  1  0.77522903  0.38636122  0.48616024  1
  O2-  O310  1  0.77129222  0.88100914  -0.02445580  1
  O2-  O311  1  0.77470155  0.88208441  0.47987615  1
  O2-  O312  1  0.23149430  0.13630551  -0.00304183  1
  O2-  O313  1  0.22828645  0.11741993  0.51452294  1
  O2-  O314  1  0.22224048  0.60895936  0.00524701  1
  O2-  O315  1  0.22842408  0.63269961  0.50420769  1
  O2-  O316  1  0.72871006  0.13739799  0.01276295  1
  O2-  O317  1  0.74008869  0.11458980  0.52839688  1
  O2-  O318  1  0.72431811  0.60730164  0.01389749  1
  O2-  O319  1  0.73387909  0.61618168  0.53008363  1
