# generated using pymatgen
data_Sr64Ca21Nb43O192
_symmetry_space_group_name_H-M   'P 1'
_cell_length_a   16.55291542
_cell_length_b   16.57533046
_cell_length_c   16.70384494
_cell_angle_alpha   89.94391266
_cell_angle_beta   89.95258804
_cell_angle_gamma   90.01065946
_symmetry_Int_Tables_number   1
_chemical_formula_structural   Sr64Ca21Nb43O192
_chemical_formula_sum   'Sr64 Ca21 Nb43 O192'
_cell_volume   4583.03081166
_cell_formula_units_Z   1
loop_
 _symmetry_equiv_pos_site_id
 _symmetry_equiv_pos_as_xyz
  1  'x, y, z'
loop_
 _atom_type_symbol
 _atom_type_oxidation_number
  Sr2+  2.0
  Ca2+  2.0
  Nb5+  5.0
  O2-  -2.0
loop_
 _atom_site_type_symbol
 _atom_site_label
 _atom_site_symmetry_multiplicity
 _atom_site_fract_x
 _atom_site_fract_y
 _atom_site_fract_z
 _atom_site_occupancy
  Sr2+  Sr0  1  0.12306667  0.14424528  0.12937638  1
  Sr2+  Sr1  1  0.11507771  0.13379090  0.62524918  1
  Sr2+  Sr2  1  0.11874894  0.61999121  0.12032720  1
  Sr2+  Sr3  1  0.12147248  0.62786025  0.62220489  1
  Sr2+  Sr4  1  0.62391794  0.13794106  0.12072055  1
  Sr2+  Sr5  1  0.62312587  0.13369602  0.62642814  1
  Sr2+  Sr6  1  0.61958774  0.62767921  0.12696585  1
  Sr2+  Sr7  1  0.61066863  0.63325823  0.62692357  1
  Sr2+  Sr8  1  0.36672539  0.38965293  0.12639067  1
  Sr2+  Sr9  1  0.37097904  0.39234631  0.63045393  1
  Sr2+  Sr10  1  0.36635974  0.88134463  0.13004364  1
  Sr2+  Sr11  1  0.37017676  0.87609346  0.62547082  1
  Sr2+  Sr12  1  0.87340294  0.38830537  0.11902006  1
  Sr2+  Sr13  1  0.85975242  0.38337099  0.62043348  1
  Sr2+  Sr14  1  0.86309385  0.88245117  0.12884518  1
  Sr2+  Sr15  1  0.87128216  0.88518683  0.62645970  1
  Sr2+  Sr16  1  0.12931883  0.36318818  0.37130151  1
  Sr2+  Sr17  1  0.13967898  0.37673532  0.87370315  1
  Sr2+  Sr18  1  0.13093363  0.87386642  0.37328264  1
  Sr2+  Sr19  1  0.13330258  0.86454570  0.88073670  1
  Sr2+  Sr20  1  0.63861258  0.36957877  0.37208382  1
  Sr2+  Sr21  1  0.62949415  0.36246189  0.87842974  1
  Sr2+  Sr22  1  0.63221736  0.86127674  0.37800669  1
  Sr2+  Sr23  1  0.63291929  0.86888201  0.86902944  1
  Sr2+  Sr24  1  0.38172888  0.11195022  0.37325842  1
  Sr2+  Sr25  1  0.39064464  0.12460222  0.87070810  1
  Sr2+  Sr26  1  0.38944804  0.61854501  0.37430377  1
  Sr2+  Sr27  1  0.38695738  0.61886582  0.87974281  1
  Sr2+  Sr28  1  0.88525582  0.12360310  0.37555731  1
  Sr2+  Sr29  1  0.88032349  0.11597458  0.88328759  1
  Sr2+  Sr30  1  0.87166806  0.62604298  0.37312201  1
  Sr2+  Sr31  1  0.88350176  0.61751145  0.87343828  1
  Sr2+  Sr32  1  0.12629127  0.11511073  0.37477274  1
  Sr2+  Sr33  1  0.13844422  0.11327925  0.86785942  1
  Sr2+  Sr34  1  0.13459013  0.61471341  0.38084214  1
  Sr2+  Sr35  1  0.12862054  0.61527431  0.87486074  1
  Sr2+  Sr36  1  0.62839712  0.11833345  0.37677244  1
  Sr2+  Sr37  1  0.63034965  0.11180123  0.87510034  1
  Sr2+  Sr38  1  0.63441397  0.60974782  0.36589651  1
  Sr2+  Sr39  1  0.63710176  0.61155219  0.87674568  1
  Sr2+  Sr40  1  0.38735930  0.36176534  0.36956341  1
  Sr2+  Sr41  1  0.38227248  0.35805588  0.87458162  1
  Sr2+  Sr42  1  0.37831936  0.86930770  0.37205888  1
  Sr2+  Sr43  1  0.37860779  0.87176941  0.88815360  1
  Sr2+  Sr44  1  0.87900657  0.36603889  0.37758277  1
  Sr2+  Sr45  1  0.88406926  0.37803271  0.87462566  1
  Sr2+  Sr46  1  0.88212365  0.87345483  0.37736452  1
  Sr2+  Sr47  1  0.87552031  0.85969668  0.86838205  1
  Sr2+  Sr48  1  0.11327187  0.38215660  0.12992723  1
  Sr2+  Sr49  1  0.11939273  0.38740584  0.61665425  1
  Sr2+  Sr50  1  0.12054263  0.88079628  0.11901911  1
  Sr2+  Sr51  1  0.11306375  0.87384854  0.62740095  1
  Sr2+  Sr52  1  0.60821807  0.38651723  0.12524784  1
  Sr2+  Sr53  1  0.61435997  0.37741127  0.62393061  1
  Sr2+  Sr54  1  0.61850286  0.87097522  0.12307609  1
  Sr2+  Sr55  1  0.61721304  0.88896732  0.62473809  1
  Sr2+  Sr56  1  0.35731914  0.12732269  0.12765974  1
  Sr2+  Sr57  1  0.36624497  0.13894931  0.62589864  1
  Sr2+  Sr58  1  0.38095188  0.63155237  0.12782310  1
  Sr2+  Sr59  1  0.35747999  0.62867639  0.62497374  1
  Sr2+  Sr60  1  0.86754766  0.13500590  0.12150847  1
  Sr2+  Sr61  1  0.86284275  0.12857813  0.62551894  1
  Sr2+  Sr62  1  0.85735053  0.63079942  0.12545078  1
  Sr2+  Sr63  1  0.87738681  0.63550689  0.62795669  1
  Ca2+  Ca64  1  0.49738863  0.49838049  -0.00284692  1
  Ca2+  Ca65  1  -0.00311215  0.50216046  0.49839747  1
  Ca2+  Ca66  1  0.00029574  0.00026172  0.00051047  1
  Ca2+  Ca67  1  0.50184682  -0.00126475  0.00234214  1
  Ca2+  Ca68  1  0.50116703  0.49751627  0.49917674  1
  Ca2+  Ca69  1  0.75026218  0.25201477  -0.00123899  1
  Ca2+  Ca70  1  0.25098868  0.24870085  0.49925144  1
  Ca2+  Ca71  1  0.24855879  0.25054002  -0.00136606  1
  Ca2+  Ca72  1  0.75050265  0.75000680  0.50297823  1
  Ca2+  Ca73  1  0.75245200  0.74988017  -0.00236570  1
  Ca2+  Ca74  1  0.25207990  -0.00233192  0.74660730  1
  Ca2+  Ca75  1  0.49667733  0.75205618  0.74897492  1
  Ca2+  Ca76  1  0.75097558  0.49621585  0.24897749  1
  Ca2+  Ca77  1  0.24703554  0.50143288  0.25053593  1
  Ca2+  Ca78  1  -0.00231829  0.24982163  0.74877898  1
  Ca2+  Ca79  1  0.50090935  0.24745929  0.25002704  1
  Ca2+  Ca80  1  0.75017430  0.00037724  0.25359088  1
  Ca2+  Ca81  1  0.25142844  0.50361322  0.75045173  1
  Ca2+  Ca82  1  0.74875553  0.49848164  0.74905989  1
  Ca2+  Ca83  1  0.50044505  0.75206263  0.25160181  1
  Ca2+  Ca84  1  -0.00002137  0.75144226  0.24832023  1
  Nb5+  Nb85  1  -0.00283542  0.00123983  0.50267603  1
  Nb5+  Nb86  1  0.49317968  0.00069298  0.50359917  1
  Nb5+  Nb87  1  0.00008300  0.50102091  -0.00061459  1
  Nb5+  Nb88  1  0.74994596  0.24853264  0.49961786  1
  Nb5+  Nb89  1  0.24969260  0.75272089  0.50306703  1
  Nb5+  Nb90  1  0.25050710  0.74790566  0.00796241  1
  Nb5+  Nb91  1  -0.00393869  0.25037867  0.24835233  1
  Nb5+  Nb92  1  0.75207753  0.00100963  0.75019431  1
  Nb5+  Nb93  1  0.50213467  0.25067923  0.74796656  1
  Nb5+  Nb94  1  0.00391531  0.75006577  0.75256481  1
  Nb5+  Nb95  1  0.24896445  0.00016411  0.25112824  1
  Nb5+  Nb96  1  0.00074145  0.00531402  0.24397977  1
  Nb5+  Nb97  1  0.00129291  -0.00305589  0.75572716  1
  Nb5+  Nb98  1  -0.00339533  0.50429718  0.25558384  1
  Nb5+  Nb99  1  -0.00105506  0.49698747  0.74611516  1
  Nb5+  Nb100  1  0.50878255  -0.00121999  0.25123026  1
  Nb5+  Nb101  1  0.49625516  0.00182361  0.74624486  1
  Nb5+  Nb102  1  0.49667980  0.49858402  0.25051936  1
  Nb5+  Nb103  1  0.50380176  0.50500749  0.75230929  1
  Nb5+  Nb104  1  0.25340911  0.25067210  0.25700804  1
  Nb5+  Nb105  1  0.24344790  0.25412550  0.74374625  1
  Nb5+  Nb106  1  0.24151409  0.74712581  0.25534987  1
  Nb5+  Nb107  1  0.25206628  0.74778627  0.76049018  1
  Nb5+  Nb108  1  0.74955743  0.25232000  0.24368015  1
  Nb5+  Nb109  1  0.75329296  0.24825937  0.75301938  1
  Nb5+  Nb110  1  0.74973199  0.75233234  0.25085620  1
  Nb5+  Nb111  1  0.74469488  0.74767092  0.74240790  1
  Nb5+  Nb112  1  -0.00264524  0.25236982  0.50429101  1
  Nb5+  Nb113  1  0.00573743  0.25006050  0.98923389  1
  Nb5+  Nb114  1  0.00313633  0.75093772  0.49654512  1
  Nb5+  Nb115  1  -0.00150330  0.74762677  1.00496665  1
  Nb5+  Nb116  1  0.49912904  0.24782032  0.50042602  1
  Nb5+  Nb117  1  0.49552236  0.24453335  1.00754209  1
  Nb5+  Nb118  1  0.50317679  0.74787197  0.49977392  1
  Nb5+  Nb119  1  0.50663842  0.75310930  0.99743065  1
  Nb5+  Nb120  1  0.25077475  0.00274227  -0.00121459  1
  Nb5+  Nb121  1  0.24298998  -0.00308206  0.50282531  1
  Nb5+  Nb122  1  0.25222178  0.50017213  -0.00131950  1
  Nb5+  Nb123  1  0.25393092  0.49346919  0.49256407  1
  Nb5+  Nb124  1  0.74841115  -0.00350998  0.00587604  1
  Nb5+  Nb125  1  0.74570708  0.00039691  0.49877865  1
  Nb5+  Nb126  1  0.74576428  0.49574084  -0.00123283  1
  Nb5+  Nb127  1  0.74531237  0.50769290  0.50494911  1
  O2-  O128  1  0.02855392  0.02475872  0.13482430  1
  O2-  O129  1  0.02298815  0.00859389  0.62162738  1
  O2-  O130  1  0.02068776  0.50632162  0.11810996  1
  O2-  O131  1  0.02360489  0.51329638  0.63386814  1
  O2-  O132  1  0.53532643  0.01240098  0.13991478  1
  O2-  O133  1  0.52646705  0.01703545  0.62060506  1
  O2-  O134  1  0.52081283  0.51589136  0.13120175  1
  O2-  O135  1  0.53101548  0.50709636  0.63467762  1
  O2-  O136  1  -0.01307885  -0.01076894  0.38171433  1
  O2-  O137  1  -0.03092623  -0.01670308  0.86496045  1
  O2-  O138  1  -0.03413764  0.49126381  0.36548015  1
  O2-  O139  1  -0.01846148  0.49418509  0.87674373  1
  O2-  O140  1  0.47925142  -0.01373056  0.38732781  1
  O2-  O141  1  0.47881546  -0.01171363  0.86027546  1
  O2-  O142  1  0.46945084  0.48187426  0.36663863  1
  O2-  O143  1  0.46679005  0.48180585  0.86350640  1
  O2-  O144  1  0.26814494  0.25833864  0.13886686  1
  O2-  O145  1  0.28120429  0.26885607  0.63133189  1
  O2-  O146  1  0.25747446  0.76593051  0.12288000  1
  O2-  O147  1  0.26178163  0.76740310  0.61851208  1
  O2-  O148  1  0.78112929  0.26476737  0.13493748  1
  O2-  O149  1  0.76830035  0.25642685  0.62446781  1
  O2-  O150  1  0.76246408  0.77127480  0.13164739  1
  O2-  O151  1  0.78723702  0.76268411  0.63419518  1
  O2-  O152  1  0.21634774  0.23138761  0.36800052  1
  O2-  O153  1  0.22750616  0.23347796  0.86191120  1
  O2-  O154  1  0.22766286  0.74249629  0.37235969  1
  O2-  O155  1  0.23389146  0.73881128  0.87567570  1
  O2-  O156  1  0.73357926  0.22929691  0.38396073  1
  O2-  O157  1  0.72227693  0.23299084  0.86331671  1
  O2-  O158  1  0.73308760  0.73248995  0.37014028  1
  O2-  O159  1  0.73915247  0.74292735  0.85978351  1
  O2-  O160  1  -0.01411132  0.23131831  0.13315846  1
  O2-  O161  1  -0.01669579  0.22141095  0.61538542  1
  O2-  O162  1  -0.00642802  0.71629263  0.11465336  1
  O2-  O163  1  0.00268325  0.73949731  0.62758778  1
  O2-  O164  1  0.48228940  0.21317872  0.11730064  1
  O2-  O165  1  0.49561999  0.22318921  0.62432187  1
  O2-  O166  1  0.49947282  0.72560919  0.11475950  1
  O2-  O167  1  0.47254253  0.72939641  0.61283745  1
  O2-  O168  1  0.26028537  0.01653050  0.37873146  1
  O2-  O169  1  0.27266803  0.01772002  0.88618178  1
  O2-  O170  1  0.26301429  0.53656464  0.38273907  1
  O2-  O171  1  0.25765796  0.53514137  0.88521253  1
  O2-  O172  1  0.76802976  0.02720686  0.38877503  1
  O2-  O173  1  0.76660101  0.02051945  0.86399510  1
  O2-  O174  1  0.76854491  0.51936938  0.38703362  1
  O2-  O175  1  0.76679410  0.52493153  0.88352338  1
  O2-  O176  1  0.00511190  0.26332230  0.37937752  1
  O2-  O177  1  0.01710181  0.28378175  0.88097118  1
  O2-  O178  1  0.00973426  0.77860147  0.38473148  1
  O2-  O179  1  0.01357643  0.76996705  0.87115527  1
  O2-  O180  1  0.52472169  0.26574372  0.38819877  1
  O2-  O181  1  0.51347927  0.26638412  0.86423810  1
  O2-  O182  1  0.50174443  0.78298203  0.38782539  1
  O2-  O183  1  0.49863737  0.78297343  0.88096681  1
  O2-  O184  1  0.23388907  -0.01940332  0.13539932  1
  O2-  O185  1  0.23940191  -0.03597188  0.61317801  1
  O2-  O186  1  0.22324776  0.48664727  0.11329460  1
  O2-  O187  1  0.23000606  0.48793513  0.61101248  1
  O2-  O188  1  0.73206921  -0.02752410  0.11750122  1
  O2-  O189  1  0.74217417  -0.01486371  0.62279528  1
  O2-  O190  1  0.74046988  0.46757853  0.11487250  1
  O2-  O191  1  0.73318040  0.46687388  0.61660970  1
  O2-  O192  1  0.11668018  0.26606765  0.23694547  1
  O2-  O193  1  0.13186729  0.27491092  0.71958913  1
  O2-  O194  1  0.13301870  0.78917748  0.23593150  1
  O2-  O195  1  0.12578745  0.77662612  0.74483944  1
  O2-  O196  1  0.63526894  0.27233644  0.22692425  1
  O2-  O197  1  0.62615546  0.26090154  0.72879159  1
  O2-  O198  1  0.63280461  0.78645561  0.24339773  1
  O2-  O199  1  0.63420579  0.77506116  0.72352109  1
  O2-  O200  1  0.36464998  0.22923638  0.28007193  1
  O2-  O201  1  0.38450488  0.22837518  0.76066311  1
  O2-  O202  1  0.35928646  0.73694595  0.25594262  1
  O2-  O203  1  0.36391521  0.71745265  0.76239785  1
  O2-  O204  1  0.87722623  0.22842263  0.26916984  1
  O2-  O205  1  0.86455012  0.21653248  0.76813604  1
  O2-  O206  1  0.86804665  0.72193674  0.26015461  1
  O2-  O207  1  0.88506097  0.73602964  0.76450583  1
  O2-  O208  1  0.26260495  0.36523774  0.27367295  1
  O2-  O209  1  0.27146067  0.36754614  0.77087952  1
  O2-  O210  1  0.26509565  0.88302641  0.26934469  1
  O2-  O211  1  0.27900132  0.86350778  0.76353151  1
  O2-  O212  1  0.76761251  0.36172628  0.28342729  1
  O2-  O213  1  0.77576026  0.36118853  0.76279045  1
  O2-  O214  1  0.78332638  0.86893365  0.27095235  1
  O2-  O215  1  0.76789735  0.88070629  0.75878622  1
  O2-  O216  1  0.23092047  0.12214357  0.23671620  1
  O2-  O217  1  0.23220292  0.13334290  0.72590270  1
  O2-  O218  1  0.21509303  0.63755209  0.23612794  1
  O2-  O219  1  0.22357914  0.63861520  0.72625526  1
  O2-  O220  1  0.72775586  0.13499493  0.23686628  1
  O2-  O221  1  0.73518606  0.11937382  0.72848791  1
  O2-  O222  1  0.72504133  0.63351049  0.23147604  1
  O2-  O223  1  0.72681846  0.63433910  0.72851408  1
  O2-  O224  1  0.10929956  0.46724375  0.26209478  1
  O2-  O225  1  0.11418760  0.48575149  0.77373695  1
  O2-  O226  1  0.12582274  0.99217134  0.27396051  1
  O2-  O227  1  0.11550070  0.97514744  0.77297165  1
  O2-  O228  1  0.61481709  0.47684168  0.26828967  1
  O2-  O229  1  0.61616363  0.47200484  0.77914942  1
  O2-  O230  1  0.61613183  0.97977443  0.28693650  1
  O2-  O231  1  0.63151953  0.98539418  0.76007383  1
  O2-  O232  1  0.36698452  0.02171265  0.24041257  1
  O2-  O233  1  0.38631610  0.02387502  0.72110613  1
  O2-  O234  1  0.37820664  0.51973057  0.22408705  1
  O2-  O235  1  0.38644171  0.51618856  0.72163047  1
  O2-  O236  1  0.88733476  0.02966221  0.23624105  1
  O2-  O237  1  0.87542232  0.01219489  0.72645216  1
  O2-  O238  1  0.88583833  0.51388431  0.21637306  1
  O2-  O239  1  0.88626012  0.53468611  0.74029388  1
  O2-  O240  1  0.47471704  0.37924301  0.22794317  1
  O2-  O241  1  0.48661391  0.36517586  0.72683054  1
  O2-  O242  1  0.46885305  0.88891378  0.24095630  1
  O2-  O243  1  0.49154176  0.88795236  0.72076716  1
  O2-  O244  1  0.97547538  0.36728414  0.24040598  1
  O2-  O245  1  0.97089452  0.38579843  0.73362032  1
  O2-  O246  1  0.98376249  0.89121463  0.23127162  1
  O2-  O247  1  0.98397455  0.87443686  0.73000032  1
  O2-  O248  1  0.01788536  0.12945034  0.27248457  1
  O2-  O249  1  0.02194948  0.11213358  0.76262296  1
  O2-  O250  1  0.02473350  0.61510375  0.26772989  1
  O2-  O251  1  0.02320739  0.63404888  0.76157633  1
  O2-  O252  1  0.50711137  0.11318838  0.28050481  1
  O2-  O253  1  0.52372966  0.12335242  0.76118193  1
  O2-  O254  1  0.51317867  0.61739248  0.27397075  1
  O2-  O255  1  0.52726960  0.61750511  0.76949684  1
  O2-  O256  1  0.12141818  0.48716021  -0.02141088  1
  O2-  O257  1  0.13251556  0.48043846  0.47479455  1
  O2-  O258  1  0.13557145  0.97439504  -0.01427653  1
  O2-  O259  1  0.12669294  0.98315433  0.48456746  1
  O2-  O260  1  0.63273218  0.47630240  -0.02032034  1
  O2-  O261  1  0.63434314  0.47331179  0.47622859  1
  O2-  O262  1  0.63560098  0.97892680  -0.03054779  1
  O2-  O263  1  0.62980278  0.98467202  0.48597029  1
  O2-  O264  1  0.36443613  0.00633593  0.03320012  1
  O2-  O265  1  0.37707242  0.01577214  0.51900674  1
  O2-  O266  1  0.36305831  0.52423434  0.02204470  1
  O2-  O267  1  0.36615920  0.52289201  0.51981804  1
  O2-  O268  1  0.86651878  0.02590791  0.01722560  1
  O2-  O269  1  0.88186963  0.01556858  0.51909830  1
  O2-  O270  1  0.88310382  0.52149238  0.01475599  1
  O2-  O271  1  0.86410575  0.51825816  0.52800664  1
  O2-  O272  1  0.47195885  0.36236979  0.01674311  1
  O2-  O273  1  0.48286967  0.35944159  0.52508590  1
  O2-  O274  1  0.47151148  0.86517398  0.02433233  1
  O2-  O275  1  0.48687531  0.88362465  0.52494503  1
  O2-  O276  1  0.98348173  0.38062383  0.01148254  1
  O2-  O277  1  0.97430503  0.36471208  0.51829069  1
  O2-  O278  1  0.98589837  0.86202247  0.02640711  1
  O2-  O279  1  0.98747368  0.87922528  0.51882824  1
  O2-  O280  1  0.02731650  0.13669612  -0.03014976  1
  O2-  O281  1  0.01766595  0.11914291  0.48623438  1
  O2-  O282  1  0.02255916  0.62263167  -0.01826234  1
  O2-  O283  1  0.03011813  0.63849957  0.48848992  1
  O2-  O284  1  0.51841129  0.13192536  -0.02862869  1
  O2-  O285  1  0.52232677  0.11882631  0.48771138  1
  O2-  O286  1  0.51563657  0.63624934  -0.03028431  1
  O2-  O287  1  0.51945116  0.63644589  0.47489205  1
  O2-  O288  1  0.11436455  0.26997312  0.03038172  1
  O2-  O289  1  0.11315641  0.26636814  0.51742467  1
  O2-  O290  1  0.12538473  0.76586536  0.00601890  1
  O2-  O291  1  0.12859036  0.77836094  0.50906441  1
  O2-  O292  1  0.61325030  0.27102322  0.01833143  1
  O2-  O293  1  0.63118040  0.25655907  0.52006744  1
  O2-  O294  1  0.61885516  0.77855976  0.00184987  1
  O2-  O295  1  0.61407434  0.77324825  0.52267025  1
  O2-  O296  1  0.38098447  0.22904912  -0.02633858  1
  O2-  O297  1  0.38778922  0.22159446  0.48151510  1
  O2-  O298  1  0.36592094  0.72957247  -0.01030703  1
  O2-  O299  1  0.36668196  0.73948975  0.48063188  1
  O2-  O300  1  0.88920463  0.22920318  -0.00913753  1
  O2-  O301  1  0.87285028  0.22640701  0.48731272  1
  O2-  O302  1  0.88777461  0.72862807  -0.02220258  1
  O2-  O303  1  0.88883944  0.73063208  0.49126564  1
  O2-  O304  1  0.26631514  0.38710719  -0.02374045  1
  O2-  O305  1  0.27526306  0.38271245  0.47093786  1
  O2-  O306  1  0.26326406  0.86968995  -0.01132805  1
  O2-  O307  1  0.26584095  0.87551721  0.47556070  1
  O2-  O308  1  0.78086152  0.38333211  -0.02366979  1
  O2-  O309  1  0.76993812  0.36271615  0.48604000  1
  O2-  O310  1  0.77965950  0.88582155  -0.02359865  1
  O2-  O311  1  0.77317232  0.88718721  0.48632102  1
  O2-  O312  1  0.22935546  0.11369505  0.02338551  1
  O2-  O313  1  0.23367296  0.11103395  0.52350155  1
  O2-  O314  1  0.22701440  0.63222100  0.01751447  1
  O2-  O315  1  0.22833353  0.63761981  0.51277584  1
  O2-  O316  1  0.72717651  0.11599628  0.01397098  1
  O2-  O317  1  0.74066398  0.12204625  0.52350245  1
  O2-  O318  1  0.73293088  0.61399287  0.02408846  1
  O2-  O319  1  0.71937018  0.61713377  0.52500259  1
