# generated using pymatgen
data_Sr64Ca21Nb43O192
_symmetry_space_group_name_H-M   'P 1'
_cell_length_a   16.63626922
_cell_length_b   16.60125656
_cell_length_c   16.72095599
_cell_angle_alpha   89.89313336
_cell_angle_beta   90.02078668
_cell_angle_gamma   90.06137137
_symmetry_Int_Tables_number   1
_chemical_formula_structural   Sr64Ca21Nb43O192
_chemical_formula_sum   'Sr64 Ca21 Nb43 O192'
_cell_volume   4618.03236236
_cell_formula_units_Z   1
loop_
 _symmetry_equiv_pos_site_id
 _symmetry_equiv_pos_as_xyz
  1  'x, y, z'
loop_
 _atom_type_symbol
 _atom_type_oxidation_number
  Sr2+  2.0
  Ca2+  2.0
  Nb5+  5.0
  O2-  -2.0
loop_
 _atom_site_type_symbol
 _atom_site_label
 _atom_site_symmetry_multiplicity
 _atom_site_fract_x
 _atom_site_fract_y
 _atom_site_fract_z
 _atom_site_occupancy
  Sr2+  Sr0  1  0.12128222  0.12777121  0.11976833  1
  Sr2+  Sr1  1  0.11625265  0.14031808  0.63022348  1
  Sr2+  Sr2  1  0.11661428  0.64397605  0.12614400  1
  Sr2+  Sr3  1  0.12123504  0.63480168  0.62137168  1
  Sr2+  Sr4  1  0.62308056  0.12701453  0.12748729  1
  Sr2+  Sr5  1  0.62412572  0.14065458  0.62468765  1
  Sr2+  Sr6  1  0.63035533  0.63583656  0.11913165  1
  Sr2+  Sr7  1  0.62047083  0.63405233  0.62637922  1
  Sr2+  Sr8  1  0.36952314  0.36691000  0.13404160  1
  Sr2+  Sr9  1  0.37301600  0.38721736  0.61890632  1
  Sr2+  Sr10  1  0.37847785  0.87477563  0.12065122  1
  Sr2+  Sr11  1  0.36359472  0.88583489  0.62794653  1
  Sr2+  Sr12  1  0.87074444  0.39244631  0.12413126  1
  Sr2+  Sr13  1  0.86760468  0.36605220  0.62541199  1
  Sr2+  Sr14  1  0.87430699  0.87012520  0.12481495  1
  Sr2+  Sr15  1  0.87833726  0.89249854  0.62230291  1
  Sr2+  Sr16  1  0.13919374  0.36714504  0.37313310  1
  Sr2+  Sr17  1  0.13283779  0.36702091  0.87145193  1
  Sr2+  Sr18  1  0.13759120  0.86499295  0.37785774  1
  Sr2+  Sr19  1  0.13862709  0.87331541  0.87995254  1
  Sr2+  Sr20  1  0.62762277  0.37634323  0.37668545  1
  Sr2+  Sr21  1  0.61934908  0.37210195  0.86933230  1
  Sr2+  Sr22  1  0.62362231  0.87445789  0.36873653  1
  Sr2+  Sr23  1  0.62890087  0.87358615  0.88455527  1
  Sr2+  Sr24  1  0.38609303  0.11767716  0.37293401  1
  Sr2+  Sr25  1  0.38573444  0.12062741  0.87446297  1
  Sr2+  Sr26  1  0.39026150  0.62079521  0.37909451  1
  Sr2+  Sr27  1  0.38153719  0.61420326  0.87358318  1
  Sr2+  Sr28  1  0.87920450  0.12175929  0.38473748  1
  Sr2+  Sr29  1  0.89473949  0.11728955  0.86832807  1
  Sr2+  Sr30  1  0.87561068  0.62125298  0.36419407  1
  Sr2+  Sr31  1  0.86840710  0.62004812  0.87276291  1
  Sr2+  Sr32  1  0.12988521  0.10829677  0.37184655  1
  Sr2+  Sr33  1  0.13142022  0.12426842  0.87989243  1
  Sr2+  Sr34  1  0.13207363  0.62117573  0.37026701  1
  Sr2+  Sr35  1  0.12787632  0.60387659  0.87542142  1
  Sr2+  Sr36  1  0.63357830  0.12540799  0.37266321  1
  Sr2+  Sr37  1  0.62211083  0.12280497  0.87995297  1
  Sr2+  Sr38  1  0.62706476  0.63178548  0.37681812  1
  Sr2+  Sr39  1  0.62756905  0.64338292  0.86778715  1
  Sr2+  Sr40  1  0.39033659  0.36607038  0.37316775  1
  Sr2+  Sr41  1  0.37451312  0.36083951  0.88104181  1
  Sr2+  Sr42  1  0.37732513  0.86358493  0.38065939  1
  Sr2+  Sr43  1  0.39071598  0.86578229  0.87250254  1
  Sr2+  Sr44  1  0.87835898  0.36680105  0.38200679  1
  Sr2+  Sr45  1  0.87607312  0.36515301  0.86868621  1
  Sr2+  Sr46  1  0.87157640  0.86698149  0.37370178  1
  Sr2+  Sr47  1  0.88247476  0.86583162  0.86568033  1
  Sr2+  Sr48  1  0.12531065  0.36740014  0.11755052  1
  Sr2+  Sr49  1  0.10773518  0.38983605  0.62825783  1
  Sr2+  Sr50  1  0.11231198  0.88202869  0.13006679  1
  Sr2+  Sr51  1  0.11878479  0.87611911  0.61612012  1
  Sr2+  Sr52  1  0.62371961  0.38688705  0.12418793  1
  Sr2+  Sr53  1  0.61579493  0.38182695  0.61768595  1
  Sr2+  Sr54  1  0.62412568  0.88682682  0.12369554  1
  Sr2+  Sr55  1  0.61966377  0.88046256  0.64053076  1
  Sr2+  Sr56  1  0.35959140  0.13178516  0.12771360  1
  Sr2+  Sr57  1  0.36973767  0.12778139  0.62579058  1
  Sr2+  Sr58  1  0.36163060  0.62925139  0.11658015  1
  Sr2+  Sr59  1  0.36133914  0.62945930  0.62443889  1
  Sr2+  Sr60  1  0.88693028  0.12091603  0.12754065  1
  Sr2+  Sr61  1  0.86721383  0.13325058  0.62593183  1
  Sr2+  Sr62  1  0.88395027  0.62771702  0.12416453  1
  Sr2+  Sr63  1  0.87433706  0.62324829  0.63025508  1
  Ca2+  Ca64  1  0.00026522  0.50005119  0.00072033  1
  Ca2+  Ca65  1  0.00145008  0.00284388  0.49714320  1
  Ca2+  Ca66  1  0.50299949  -0.00082511  0.49940023  1
  Ca2+  Ca67  1  0.50096911  0.49745112  -0.00181912  1
  Ca2+  Ca68  1  -0.00287281  0.50317101  0.49726152  1
  Ca2+  Ca69  1  0.74936141  0.75002697  0.50282899  1
  Ca2+  Ca70  1  0.25265248  0.25160287  0.50222873  1
  Ca2+  Ca71  1  0.75277350  0.24834944  0.00472991  1
  Ca2+  Ca72  1  0.74956465  0.75046206  0.00135569  1
  Ca2+  Ca73  1  0.24811796  0.74882674  -0.00298077  1
  Ca2+  Ca74  1  0.49999835  0.74809025  0.24510578  1
  Ca2+  Ca75  1  0.00126086  0.25206638  0.25296356  1
  Ca2+  Ca76  1  0.24802540  -0.00008080  0.75109896  1
  Ca2+  Ca77  1  0.49837989  0.25188003  0.74831807  1
  Ca2+  Ca78  1  0.24930019  -0.00284556  0.25084609  1
  Ca2+  Ca79  1  0.49551186  0.74780242  0.74630768  1
  Ca2+  Ca80  1  0.50467174  0.24821455  0.24801082  1
  Ca2+  Ca81  1  0.25225342  0.49972555  0.25201988  1
  Ca2+  Ca82  1  0.00202356  0.25058895  0.75022271  1
  Ca2+  Ca83  1  0.74871047  0.00188169  0.75201450  1
  Ca2+  Ca84  1  0.00305072  0.74888640  0.74987591  1
  Nb5+  Nb85  1  0.50314358  -0.00010043  -0.00040335  1
  Nb5+  Nb86  1  0.00490632  -0.00264309  -0.00195835  1
  Nb5+  Nb87  1  0.50050217  0.50205615  0.49914248  1
  Nb5+  Nb88  1  0.25169635  0.75011522  0.50074581  1
  Nb5+  Nb89  1  0.25038123  0.24758518  -0.00086159  1
  Nb5+  Nb90  1  0.74793402  0.25137152  0.49877503  1
  Nb5+  Nb91  1  0.00043333  0.75339539  0.25313823  1
  Nb5+  Nb92  1  0.24461527  0.49774824  0.74897041  1
  Nb5+  Nb93  1  0.75208174  0.00650784  0.24945604  1
  Nb5+  Nb94  1  0.74666470  0.50606791  0.24564789  1
  Nb5+  Nb95  1  0.74256843  0.49641461  0.74644258  1
  Nb5+  Nb96  1  -0.00345166  -0.00286749  0.25535848  1
  Nb5+  Nb97  1  0.00485312  -0.00044501  0.74473558  1
  Nb5+  Nb98  1  0.00202670  0.49687555  0.25234696  1
  Nb5+  Nb99  1  -0.01052671  0.50101963  0.75076747  1
  Nb5+  Nb100  1  0.49585573  -0.00114780  0.24771991  1
  Nb5+  Nb101  1  0.50261026  0.00339576  0.74475764  1
  Nb5+  Nb102  1  0.50044152  0.50547011  0.24275295  1
  Nb5+  Nb103  1  0.49216227  0.49788256  0.74712586  1
  Nb5+  Nb104  1  0.24689483  0.24622270  0.25828116  1
  Nb5+  Nb105  1  0.25412453  0.25085898  0.74522475  1
  Nb5+  Nb106  1  0.25626035  0.74700723  0.25120204  1
  Nb5+  Nb107  1  0.24677836  0.74838399  0.75450167  1
  Nb5+  Nb108  1  0.76005441  0.25693831  0.24703822  1
  Nb5+  Nb109  1  0.74363069  0.24872924  0.75606551  1
  Nb5+  Nb110  1  0.74909496  0.75688300  0.24720730  1
  Nb5+  Nb111  1  0.75330902  0.75431928  0.74579580  1
  Nb5+  Nb112  1  0.00701840  0.25598636  0.50036694  1
  Nb5+  Nb113  1  -0.00306245  0.25170041  1.00060426  1
  Nb5+  Nb114  1  -0.00560363  0.74675548  0.49898467  1
  Nb5+  Nb115  1  0.00407381  0.75260589  0.99338990  1
  Nb5+  Nb116  1  0.49940988  0.24544669  0.49508551  1
  Nb5+  Nb117  1  0.50187056  0.25192436  1.00765879  1
  Nb5+  Nb118  1  0.50026479  0.75531937  0.50507770  1
  Nb5+  Nb119  1  0.49858927  0.74365021  0.99643495  1
  Nb5+  Nb120  1  0.25888298  -0.00151744  0.00026330  1
  Nb5+  Nb121  1  0.24879128  0.00732278  0.50401521  1
  Nb5+  Nb122  1  0.24807219  0.49738146  0.00662941  1
  Nb5+  Nb123  1  0.24999744  0.49994797  0.49608622  1
  Nb5+  Nb124  1  0.75864199  0.00127262  0.00097690  1
  Nb5+  Nb125  1  0.74826447  -0.00131202  0.50258412  1
  Nb5+  Nb126  1  0.74857499  0.49661397  -0.01020161  1
  Nb5+  Nb127  1  0.74841874  0.50333026  0.49530828  1
  O2-  O128  1  0.01246069  0.01275754  0.12202399  1
  O2-  O129  1  0.02825436  0.01328631  0.63293334  1
  O2-  O130  1  0.01323347  0.53121174  0.13939908  1
  O2-  O131  1  0.01725334  0.52282237  0.63546325  1
  O2-  O132  1  0.52066045  0.01363097  0.11981995  1
  O2-  O133  1  0.53117348  0.01704766  0.63366944  1
  O2-  O134  1  0.53204567  0.51749946  0.13284910  1
  O2-  O135  1  0.52037320  0.51586527  0.61871215  1
  O2-  O136  1  -0.03332112  -0.01699467  0.36463835  1
  O2-  O137  1  -0.02401844  -0.01559930  0.88444792  1
  O2-  O138  1  -0.03895587  0.49660761  0.36298923  1
  O2-  O139  1  -0.01647583  0.47462067  0.86655718  1
  O2-  O140  1  0.48226675  -0.02398782  0.36123729  1
  O2-  O141  1  0.47719916  -0.00881002  0.88342236  1
  O2-  O142  1  0.48510170  0.48685256  0.37920965  1
  O2-  O143  1  0.48251877  0.47202174  0.85962399  1
  O2-  O144  1  0.26273945  0.26283763  0.11932013  1
  O2-  O145  1  0.28710492  0.26333426  0.63580678  1
  O2-  O146  1  0.27209506  0.76206584  0.13648645  1
  O2-  O147  1  0.27240260  0.75962044  0.61815821  1
  O2-  O148  1  0.79561437  0.24586018  0.13932770  1
  O2-  O149  1  0.76418565  0.24781571  0.62102756  1
  O2-  O150  1  0.77547663  0.73029133  0.13621701  1
  O2-  O151  1  0.76714302  0.72065049  0.63388357  1
  O2-  O152  1  0.22200023  0.23054021  0.36987061  1
  O2-  O153  1  0.22860963  0.24328833  0.87971645  1
  O2-  O154  1  0.23198505  0.73169015  0.38007450  1
  O2-  O155  1  0.21329848  0.72932907  0.86312650  1
  O2-  O156  1  0.72780277  0.26005495  0.38037035  1
  O2-  O157  1  0.72273477  0.25915224  0.86894302  1
  O2-  O158  1  0.73043639  0.75720528  0.36478722  1
  O2-  O159  1  0.73067403  0.76119375  0.86511496  1
  O2-  O160  1  -0.00189110  0.21986289  0.11546875  1
  O2-  O161  1  -0.01578684  0.22256570  0.61549094  1
  O2-  O162  1  -0.01376048  0.74000190  0.13190326  1
  O2-  O163  1  -0.01427605  0.72467197  0.61237691  1
  O2-  O164  1  0.47131807  0.22570759  0.11770963  1
  O2-  O165  1  0.48798185  0.22590408  0.61171325  1
  O2-  O166  1  0.46720348  0.73420998  0.11106844  1
  O2-  O167  1  0.48439195  0.71455077  0.61325094  1
  O2-  O168  1  0.26971269  0.02347840  0.38601681  1
  O2-  O169  1  0.25518897  0.02984231  0.88716231  1
  O2-  O170  1  0.26806121  0.52881154  0.38641742  1
  O2-  O171  1  0.26295891  0.51719594  0.86604016  1
  O2-  O172  1  0.77536875  -0.00058507  0.36681438  1
  O2-  O173  1  0.76941821  -0.01703123  0.88780744  1
  O2-  O174  1  0.76062502  0.49773479  0.37876435  1
  O2-  O175  1  0.76937453  0.48647397  0.87555172  1
  O2-  O176  1  0.01306124  0.28875975  0.38621496  1
  O2-  O177  1  0.02245871  0.26473378  0.88571356  1
  O2-  O178  1  0.01121185  0.77865718  0.37049813  1
  O2-  O179  1  0.01755915  0.78351836  0.88445880  1
  O2-  O180  1  0.52138502  0.27513680  0.38133919  1
  O2-  O181  1  0.51475878  0.26426863  0.88912269  1
  O2-  O182  1  0.51257869  0.76605619  0.38544577  1
  O2-  O183  1  0.51866206  0.77498285  0.88116814  1
  O2-  O184  1  0.22890953  -0.01725308  0.11316817  1
  O2-  O185  1  0.23538120  -0.03289053  0.61602595  1
  O2-  O186  1  0.24163443  0.46928387  0.11748221  1
  O2-  O187  1  0.24307539  0.48055673  0.62669969  1
  O2-  O188  1  0.73298646  0.01349871  0.13010307  1
  O2-  O189  1  0.72007308  0.00523873  0.61319603  1
  O2-  O190  1  0.72675784  0.50687108  0.13203346  1
  O2-  O191  1  0.73486974  0.49980041  0.63019079  1
  O2-  O192  1  0.13484039  0.28176483  0.23511277  1
  O2-  O193  1  0.13905789  0.27980982  0.73272168  1
  O2-  O194  1  0.11840349  0.76802337  0.23850300  1
  O2-  O195  1  0.13637358  0.76013789  0.71301657  1
  O2-  O196  1  0.64348550  0.25830973  0.22564630  1
  O2-  O197  1  0.63414859  0.27922162  0.72630327  1
  O2-  O198  1  0.63606243  0.76159113  0.22293655  1
  O2-  O199  1  0.63360085  0.75395887  0.72806074  1
  O2-  O200  1  0.36534280  0.22318513  0.26380725  1
  O2-  O201  1  0.36567359  0.23968147  0.78403760  1
  O2-  O202  1  0.36636278  0.72701764  0.27387767  1
  O2-  O203  1  0.36045465  0.71585868  0.76162659  1
  O2-  O204  1  0.86714126  0.24067298  0.29216393  1
  O2-  O205  1  0.86290815  0.23645726  0.76653175  1
  O2-  O206  1  0.87598188  0.74422767  0.27025284  1
  O2-  O207  1  0.86697322  0.72932004  0.77299815  1
  O2-  O208  1  0.27717806  0.36482000  0.27072240  1
  O2-  O209  1  0.27236615  0.38117327  0.76568160  1
  O2-  O210  1  0.26008609  0.86270342  0.27764389  1
  O2-  O211  1  0.27073641  0.86069367  0.77146898  1
  O2-  O212  1  0.76791858  0.37722046  0.24923196  1
  O2-  O213  1  0.77379305  0.37914913  0.75062887  1
  O2-  O214  1  0.76475762  0.87413436  0.24159335  1
  O2-  O215  1  0.76791910  0.86689893  0.72591513  1
  O2-  O216  1  0.22361946  0.13247362  0.22941109  1
  O2-  O217  1  0.23033048  0.13761426  0.73380811  1
  O2-  O218  1  0.22057547  0.63437982  0.23570435  1
  O2-  O219  1  0.23162513  0.61573238  0.72923223  1
  O2-  O220  1  0.74499619  0.12463166  0.25713853  1
  O2-  O221  1  0.72118419  0.13546687  0.74940143  1
  O2-  O222  1  0.73716956  0.62213438  0.26321634  1
  O2-  O223  1  0.73900430  0.61229614  0.76724751  1
  O2-  O224  1  0.11308945  0.48816267  0.28221514  1
  O2-  O225  1  0.12991803  0.48030484  0.76222650  1
  O2-  O226  1  0.11045674  0.97850555  0.26848192  1
  O2-  O227  1  0.11489032  0.97164697  0.77548017  1
  O2-  O228  1  0.63146730  0.47969838  0.26744800  1
  O2-  O229  1  0.62941762  0.47830247  0.76168110  1
  O2-  O230  1  0.63571771  0.98227037  0.26183609  1
  O2-  O231  1  0.61464568  0.97349991  0.77707852  1
  O2-  O232  1  0.38465459  0.01749817  0.22667893  1
  O2-  O233  1  0.38401230  0.02331293  0.73460513  1
  O2-  O234  1  0.38779412  0.52834572  0.22895399  1
  O2-  O235  1  0.37761427  0.51582300  0.72968751  1
  O2-  O236  1  0.87181672  0.00407133  0.22332824  1
  O2-  O237  1  0.88434119  0.02625151  0.73381121  1
  O2-  O238  1  0.86496585  0.51686956  0.22994196  1
  O2-  O239  1  0.87361477  0.51773232  0.73922572  1
  O2-  O240  1  0.48645700  0.38658108  0.23667054  1
  O2-  O241  1  0.49209313  0.38513911  0.71394601  1
  O2-  O242  1  0.49693021  0.88329650  0.22008764  1
  O2-  O243  1  0.47720783  0.88410713  0.73247377  1
  O2-  O244  1  0.98202705  0.38768773  0.22688642  1
  O2-  O245  1  0.98399117  0.38398528  0.72553949  1
  O2-  O246  1  0.98178910  0.87465221  0.23039108  1
  O2-  O247  1  0.97142233  0.88426195  0.73802311  1
  O2-  O248  1  0.00522313  0.11320671  0.26488721  1
  O2-  O249  1  0.02203133  0.11485615  0.77564646  1
  O2-  O250  1  0.00659110  0.63539733  0.27016358  1
  O2-  O251  1  0.01471336  0.61412486  0.77846565  1
  O2-  O252  1  0.52805699  0.11172930  0.26322874  1
  O2-  O253  1  0.51896054  0.11807023  0.77277957  1
  O2-  O254  1  0.52662959  0.61603892  0.27304256  1
  O2-  O255  1  0.52213506  0.61022339  0.76405717  1
  O2-  O256  1  0.13545785  0.47822983  -0.02479349  1
  O2-  O257  1  0.13679822  0.48052843  0.48614505  1
  O2-  O258  1  0.11992336  0.98498051  -0.01447017  1
  O2-  O259  1  0.13512263  0.98262712  0.47314384  1
  O2-  O260  1  0.63367493  0.46470924  -0.01279503  1
  O2-  O261  1  0.62186211  0.47915051  0.48854640  1
  O2-  O262  1  0.61826839  0.98595065  -0.01410147  1
  O2-  O263  1  0.63810057  0.99090973  0.46187842  1
  O2-  O264  1  0.37263847  0.01609759  0.02171463  1
  O2-  O265  1  0.36794247  0.01547821  0.52247954  1
  O2-  O266  1  0.36458528  0.51934368  0.00374512  1
  O2-  O267  1  0.38188184  0.51757647  0.51824015  1
  O2-  O268  1  0.87280943  0.01743968  0.01832844  1
  O2-  O269  1  0.86422854  0.02773278  0.51772348  1
  O2-  O270  1  0.86325820  0.52209669  0.01922553  1
  O2-  O271  1  0.85960831  0.52317417  0.51687549  1
  O2-  O272  1  0.47484308  0.36389967  0.02204286  1
  O2-  O273  1  0.48640250  0.37850932  0.51430764  1
  O2-  O274  1  0.48030280  0.88232286  0.01248776  1
  O2-  O275  1  0.47207963  0.86518843  0.52324508  1
  O2-  O276  1  0.98749899  0.36397417  0.02751600  1
  O2-  O277  1  0.97454006  0.36967919  0.52411179  1
  O2-  O278  1  0.98332843  0.88090106  0.02084343  1
  O2-  O279  1  0.98983176  0.86530883  0.51952794  1
  O2-  O280  1  0.01300630  0.11711322  -0.01675442  1
  O2-  O281  1  0.01341400  0.13989106  0.46761819  1
  O2-  O282  1  0.02313962  0.63831400  -0.01466088  1
  O2-  O283  1  0.02866287  0.63677628  0.47464953  1
  O2-  O284  1  0.50893024  0.12187079  -0.01427943  1
  O2-  O285  1  0.51968849  0.13324362  0.47227427  1
  O2-  O286  1  0.51708461  0.63160237  -0.02569306  1
  O2-  O287  1  0.51612668  0.61975419  0.47910997  1
  O2-  O288  1  0.12841921  0.25683683  0.01450404  1
  O2-  O289  1  0.11822764  0.27348231  0.52594772  1
  O2-  O290  1  0.11626299  0.77551626  0.02721177  1
  O2-  O291  1  0.13196734  0.76454813  0.51229720  1
  O2-  O292  1  0.61445614  0.25907196  0.03292104  1
  O2-  O293  1  0.62661366  0.26520369  0.51857710  1
  O2-  O294  1  0.61231675  0.76625157  0.02543771  1
  O2-  O295  1  0.61413620  0.77226060  0.52257647  1
  O2-  O296  1  0.36787519  0.23183791  -0.01785249  1
  O2-  O297  1  0.38564907  0.23584266  0.47198102  1
  O2-  O298  1  0.38043960  0.73626612  -0.03219024  1
  O2-  O299  1  0.37198395  0.73068398  0.48055645  1
  O2-  O300  1  0.88608839  0.23050172  -0.02574778  1
  O2-  O301  1  0.86602128  0.24195467  0.48546743  1
  O2-  O302  1  0.88599254  0.74136225  -0.01397075  1
  O2-  O303  1  0.88373754  0.73082526  0.47239975  1
  O2-  O304  1  0.26451754  0.37003184  -0.01464959  1
  O2-  O305  1  0.27879672  0.38751731  0.48299871  1
  O2-  O306  1  0.26870091  0.88582906  -0.02467950  1
  O2-  O307  1  0.26707128  0.86641864  0.48189590  1
  O2-  O308  1  0.77224287  0.38230104  0.01585359  1
  O2-  O309  1  0.75847797  0.37790348  0.50511705  1
  O2-  O310  1  0.75121189  0.88679129  0.02792405  1
  O2-  O311  1  0.77480289  0.88594654  0.50195467  1
  O2-  O312  1  0.23635293  0.12707583  0.01787999  1
  O2-  O313  1  0.22930628  0.11775873  0.53169561  1
  O2-  O314  1  0.22710992  0.61244721  0.02242299  1
  O2-  O315  1  0.23902520  0.62337624  0.52237564  1
  O2-  O316  1  0.72339109  0.11337077  -0.00195761  1
  O2-  O317  1  0.73315072  0.13211469  0.49450136  1
  O2-  O318  1  0.72098339  0.61301329  -0.01005666  1
  O2-  O319  1  0.71635808  0.61410853  0.49941662  1
