# generated using pymatgen
data_Sr64Ca21Nb43O192
_symmetry_space_group_name_H-M   'P 1'
_cell_length_a   16.55778345
_cell_length_b   16.58605924
_cell_length_c   16.74513971
_cell_angle_alpha   90.07651719
_cell_angle_beta   89.97447052
_cell_angle_gamma   90.03076046
_symmetry_Int_Tables_number   1
_chemical_formula_structural   Sr64Ca21Nb43O192
_chemical_formula_sum   'Sr64 Ca21 Nb43 O192'
_cell_volume   4598.68532544
_cell_formula_units_Z   1
loop_
 _symmetry_equiv_pos_site_id
 _symmetry_equiv_pos_as_xyz
  1  'x, y, z'
loop_
 _atom_type_symbol
 _atom_type_oxidation_number
  Sr2+  2.0
  Ca2+  2.0
  Nb5+  5.0
  O2-  -2.0
loop_
 _atom_site_type_symbol
 _atom_site_label
 _atom_site_symmetry_multiplicity
 _atom_site_fract_x
 _atom_site_fract_y
 _atom_site_fract_z
 _atom_site_occupancy
  Sr2+  Sr0  1  0.12586388  0.11947816  0.13176391  1
  Sr2+  Sr1  1  0.12545961  0.12321001  0.62149683  1
  Sr2+  Sr2  1  0.12417105  0.61843271  0.11751265  1
  Sr2+  Sr3  1  0.13084803  0.61216133  0.62347830  1
  Sr2+  Sr4  1  0.62421209  0.13396741  0.12355905  1
  Sr2+  Sr5  1  0.62563393  0.12781366  0.62182746  1
  Sr2+  Sr6  1  0.62803714  0.62181474  0.12194849  1
  Sr2+  Sr7  1  0.63060483  0.62212861  0.62708938  1
  Sr2+  Sr8  1  0.38332605  0.36433023  0.13033352  1
  Sr2+  Sr9  1  0.38260468  0.35341278  0.62406196  1
  Sr2+  Sr10  1  0.38352058  0.89598295  0.12316535  1
  Sr2+  Sr11  1  0.38199854  0.86680985  0.61704573  1
  Sr2+  Sr12  1  0.87975292  0.36736663  0.12626879  1
  Sr2+  Sr13  1  0.88634019  0.36388791  0.61659955  1
  Sr2+  Sr14  1  0.88914808  0.87978999  0.13114374  1
  Sr2+  Sr15  1  0.88010897  0.87435843  0.62482517  1
  Sr2+  Sr16  1  0.12290337  0.37351284  0.37621337  1
  Sr2+  Sr17  1  0.11115298  0.38301929  0.86869712  1
  Sr2+  Sr18  1  0.11632225  0.87557747  0.37823552  1
  Sr2+  Sr19  1  0.11168607  0.87068221  0.87283322  1
  Sr2+  Sr20  1  0.62176509  0.38164688  0.37527532  1
  Sr2+  Sr21  1  0.61707859  0.37246895  0.87489605  1
  Sr2+  Sr22  1  0.63767973  0.87343536  0.37862495  1
  Sr2+  Sr23  1  0.61706426  0.87918922  0.87371307  1
  Sr2+  Sr24  1  0.36537114  0.12963737  0.38042663  1
  Sr2+  Sr25  1  0.36820756  0.12274844  0.87859960  1
  Sr2+  Sr26  1  0.36645696  0.63204439  0.37349023  1
  Sr2+  Sr27  1  0.36629332  0.62861981  0.87920328  1
  Sr2+  Sr28  1  0.87665463  0.12804707  0.37637235  1
  Sr2+  Sr29  1  0.86285180  0.12850815  0.87350310  1
  Sr2+  Sr30  1  0.86264677  0.63491861  0.37297009  1
  Sr2+  Sr31  1  0.87125883  0.63066835  0.88993842  1
  Sr2+  Sr32  1  0.10693650  0.11790667  0.37742468  1
  Sr2+  Sr33  1  0.11690729  0.12385652  0.86784503  1
  Sr2+  Sr34  1  0.12257966  0.63775946  0.37756854  1
  Sr2+  Sr35  1  0.11416508  0.63352196  0.87526374  1
  Sr2+  Sr36  1  0.60762288  0.13345387  0.38006910  1
  Sr2+  Sr37  1  0.61960536  0.12301669  0.87054536  1
  Sr2+  Sr38  1  0.62504519  0.63665039  0.37365992  1
  Sr2+  Sr39  1  0.60934156  0.63480815  0.87455690  1
  Sr2+  Sr40  1  0.37328880  0.38064232  0.36771480  1
  Sr2+  Sr41  1  0.37124592  0.38651160  0.87485221  1
  Sr2+  Sr42  1  0.37640029  0.86205562  0.36809846  1
  Sr2+  Sr43  1  0.37245386  0.87705962  0.87948043  1
  Sr2+  Sr44  1  0.87178844  0.39517888  0.37395760  1
  Sr2+  Sr45  1  0.87223665  0.37043613  0.87684588  1
  Sr2+  Sr46  1  0.87372918  0.87231230  0.37141793  1
  Sr2+  Sr47  1  0.86764737  0.88450599  0.87307628  1
  Sr2+  Sr48  1  0.13654956  0.36423923  0.12471097  1
  Sr2+  Sr49  1  0.13064035  0.36325713  0.62404341  1
  Sr2+  Sr50  1  0.12411898  0.87690585  0.13762480  1
  Sr2+  Sr51  1  0.13087109  0.87069274  0.62504852  1
  Sr2+  Sr52  1  0.63314709  0.36664898  0.12738251  1
  Sr2+  Sr53  1  0.63499202  0.36684165  0.61292395  1
  Sr2+  Sr54  1  0.62782287  0.88337846  0.13408099  1
  Sr2+  Sr55  1  0.63476207  0.87288453  0.62835332  1
  Sr2+  Sr56  1  0.36364519  0.13092876  0.12149031  1
  Sr2+  Sr57  1  0.36376085  0.12049209  0.62572000  1
  Sr2+  Sr58  1  0.38534488  0.62305318  0.12258426  1
  Sr2+  Sr59  1  0.38733454  0.61965476  0.62321196  1
  Sr2+  Sr60  1  0.88727171  0.13040995  0.12649118  1
  Sr2+  Sr61  1  0.88678366  0.12612008  0.62418982  1
  Sr2+  Sr62  1  0.88474404  0.61909611  0.12834795  1
  Sr2+  Sr63  1  0.88794029  0.62428313  0.62300809  1
  Ca2+  Ca64  1  0.00096381  0.50013028  0.49913874  1
  Ca2+  Ca65  1  0.49764518  0.50046316  0.49889440  1
  Ca2+  Ca66  1  0.49877556  -0.00509255  0.50320777  1
  Ca2+  Ca67  1  -0.00172856  0.00338716  -0.00058553  1
  Ca2+  Ca68  1  -0.00237691  -0.00486385  0.50454176  1
  Ca2+  Ca69  1  0.74924221  0.75113233  -0.00096847  1
  Ca2+  Ca70  1  0.25166228  0.75294779  0.00228993  1
  Ca2+  Ca71  1  0.75187089  0.25068974  0.49324033  1
  Ca2+  Ca72  1  0.25006256  0.25162877  -0.00462222  1
  Ca2+  Ca73  1  0.24943376  0.25084633  0.49929913  1
  Ca2+  Ca74  1  0.49936231  0.75004124  0.24653207  1
  Ca2+  Ca75  1  -0.00206882  0.75131251  0.74916530  1
  Ca2+  Ca76  1  0.49892549  0.75253361  0.74925390  1
  Ca2+  Ca77  1  0.49982525  0.24834248  0.25039351  1
  Ca2+  Ca78  1  -0.00114368  0.74581159  0.25154023  1
  Ca2+  Ca79  1  0.00004949  0.24939140  0.75265976  1
  Ca2+  Ca80  1  0.50234023  0.24710058  0.74923234  1
  Ca2+  Ca81  1  0.00012625  0.25469911  0.24913495  1
  Ca2+  Ca82  1  0.74663097  0.00540959  0.25156851  1
  Ca2+  Ca83  1  0.75121474  0.49868724  0.75258153  1
  Ca2+  Ca84  1  0.25226105  -0.00063432  0.25298559  1
  Nb5+  Nb85  1  0.49816761  0.50242267  -0.00167273  1
  Nb5+  Nb86  1  -0.00628287  0.49880705  0.00004524  1
  Nb5+  Nb87  1  0.50295971  0.01063224  0.00014700  1
  Nb5+  Nb88  1  0.25293922  0.74608716  0.50401180  1
  Nb5+  Nb89  1  0.75485750  0.74890534  0.50320250  1
  Nb5+  Nb90  1  0.75014304  0.24998491  0.00172035  1
  Nb5+  Nb91  1  0.25592415  0.50381861  0.24142746  1
  Nb5+  Nb92  1  0.75451270  0.50317580  0.24782811  1
  Nb5+  Nb93  1  0.24652261  -0.00716670  0.75132848  1
  Nb5+  Nb94  1  0.25329906  0.49511646  0.74265459  1
  Nb5+  Nb95  1  0.74348481  0.00166715  0.75014874  1
  Nb5+  Nb96  1  -0.00251807  0.00043862  0.25120703  1
  Nb5+  Nb97  1  -0.00780270  0.00246935  0.75251095  1
  Nb5+  Nb98  1  0.01248959  0.49888628  0.24919377  1
  Nb5+  Nb99  1  -0.00678256  0.50399459  0.75125734  1
  Nb5+  Nb100  1  0.49745996  0.00243559  0.25710841  1
  Nb5+  Nb101  1  0.49358379  -0.00231912  0.74842620  1
  Nb5+  Nb102  1  0.50834431  0.50200181  0.24826245  1
  Nb5+  Nb103  1  0.50291330  0.49263263  0.74412497  1
  Nb5+  Nb104  1  0.24650481  0.24711561  0.25354742  1
  Nb5+  Nb105  1  0.25183702  0.24206278  0.75381660  1
  Nb5+  Nb106  1  0.24717351  0.74922037  0.24447243  1
  Nb5+  Nb107  1  0.25066811  0.74253995  0.75033385  1
  Nb5+  Nb108  1  0.75050098  0.25193068  0.25606025  1
  Nb5+  Nb109  1  0.75310731  0.25265981  0.74446931  1
  Nb5+  Nb110  1  0.74725860  0.75209386  0.24202448  1
  Nb5+  Nb111  1  0.75115930  0.74687373  0.75385858  1
  Nb5+  Nb112  1  0.00046514  0.24923356  0.49698624  1
  Nb5+  Nb113  1  0.00593580  0.25034807  0.99890253  1
  Nb5+  Nb114  1  0.00544536  0.74903836  0.50133987  1
  Nb5+  Nb115  1  -0.00307664  0.75496390  0.99959224  1
  Nb5+  Nb116  1  0.49887667  0.24885519  0.49757331  1
  Nb5+  Nb117  1  0.49963181  0.25500528  0.99742287  1
  Nb5+  Nb118  1  0.50816186  0.74964436  0.50034677  1
  Nb5+  Nb119  1  0.50088905  0.76029107  0.99846583  1
  Nb5+  Nb120  1  0.24441472  -0.00094637  -0.00212941  1
  Nb5+  Nb121  1  0.25120747  -0.00442005  0.49605378  1
  Nb5+  Nb122  1  0.24381036  0.49689269  -0.00631386  1
  Nb5+  Nb123  1  0.25083623  0.49714867  0.49317171  1
  Nb5+  Nb124  1  0.74931787  0.00281550  0.00397717  1
  Nb5+  Nb125  1  0.74811848  0.00142401  0.49838765  1
  Nb5+  Nb126  1  0.74264535  0.49602790  -0.00098463  1
  Nb5+  Nb127  1  0.75267568  0.50370095  0.50623863  1
  O2-  O128  1  0.01519079  -0.02108991  0.13164148  1
  O2-  O129  1  0.01084677  -0.02784097  0.64024578  1
  O2-  O130  1  -0.01107957  0.48213574  0.11791240  1
  O2-  O131  1  -0.02500908  0.48696138  0.63819369  1
  O2-  O132  1  0.51624507  -0.01712065  0.11364102  1
  O2-  O133  1  0.50692200  -0.03315130  0.63985308  1
  O2-  O134  1  0.48324865  0.48013901  0.11485282  1
  O2-  O135  1  0.46759296  0.48036537  0.63647445  1
  O2-  O136  1  -0.01674828  0.01913787  0.36896419  1
  O2-  O137  1  -0.00813667  0.03339922  0.86828743  1
  O2-  O138  1  0.02956239  0.51323913  0.36173155  1
  O2-  O139  1  0.01972600  0.51542396  0.88254835  1
  O2-  O140  1  0.47694701  0.01923874  0.36784590  1
  O2-  O141  1  0.49176215  0.02258669  0.87988657  1
  O2-  O142  1  0.52009810  0.52097963  0.36014899  1
  O2-  O143  1  0.52274554  0.50819375  0.88111450  1
  O2-  O144  1  0.22912756  0.23124761  0.13217531  1
  O2-  O145  1  0.22500723  0.24013434  0.63616549  1
  O2-  O146  1  0.22371229  0.72846736  0.13541514  1
  O2-  O147  1  0.22506624  0.73319074  0.62167446  1
  O2-  O148  1  0.73192500  0.23960124  0.12299694  1
  O2-  O149  1  0.73421882  0.23818278  0.63178811  1
  O2-  O150  1  0.72517957  0.73721250  0.13152312  1
  O2-  O151  1  0.72647438  0.73881394  0.61853631  1
  O2-  O152  1  0.26680408  0.27709441  0.36610070  1
  O2-  O153  1  0.28524459  0.26562457  0.86384797  1
  O2-  O154  1  0.26346966  0.75780580  0.38466657  1
  O2-  O155  1  0.27438669  0.76021126  0.86211383  1
  O2-  O156  1  0.77326268  0.28484917  0.36297279  1
  O2-  O157  1  0.76536471  0.26315340  0.88323829  1
  O2-  O158  1  0.76281423  0.76164195  0.38141301  1
  O2-  O159  1  0.78118589  0.76088072  0.86374340  1
  O2-  O160  1  0.00757913  0.28090361  0.11285158  1
  O2-  O161  1  0.00596954  0.27072295  0.61829519  1
  O2-  O162  1  0.01717821  0.76949737  0.11622420  1
  O2-  O163  1  0.00455461  0.77978364  0.61529942  1
  O2-  O164  1  0.51720686  0.26310578  0.11389942  1
  O2-  O165  1  0.52265950  0.27203070  0.61432112  1
  O2-  O166  1  0.53247149  0.76368934  0.11108374  1
  O2-  O167  1  0.51154438  0.77969504  0.61532025  1
  O2-  O168  1  0.27398688  -0.02681941  0.38662567  1
  O2-  O169  1  0.27132440  -0.01149829  0.87005787  1
  O2-  O170  1  0.23679725  0.48164903  0.37782882  1
  O2-  O171  1  0.23870013  0.47683779  0.87986171  1
  O2-  O172  1  0.76546909  -0.02210418  0.38688571  1
  O2-  O173  1  0.76059987  -0.00450615  0.87433101  1
  O2-  O174  1  0.73504977  0.48789553  0.36394576  1
  O2-  O175  1  0.74106996  0.46661798  0.88725509  1
  O2-  O176  1  -0.00404848  0.22382188  0.38027751  1
  O2-  O177  1  -0.02755897  0.23636002  0.88783247  1
  O2-  O178  1  -0.01227356  0.71726388  0.38631910  1
  O2-  O179  1  -0.01305065  0.72321912  0.88318307  1
  O2-  O180  1  0.47940452  0.22227831  0.38066271  1
  O2-  O181  1  0.50190494  0.22207434  0.88552799  1
  O2-  O182  1  0.48806013  0.71955019  0.38527718  1
  O2-  O183  1  0.47849244  0.72595002  0.88410065  1
  O2-  O184  1  0.23757063  0.01638448  0.11305188  1
  O2-  O185  1  0.23467407  0.01767890  0.63647886  1
  O2-  O186  1  0.26061419  0.52643458  0.12839519  1
  O2-  O187  1  0.26494579  0.52375304  0.63293748  1
  O2-  O188  1  0.72215954  0.01753089  0.11496709  1
  O2-  O189  1  0.73158470  0.01237647  0.63335269  1
  O2-  O190  1  0.76039214  0.52095967  0.12270618  1
  O2-  O191  1  0.76526954  0.53067816  0.61646421  1
  O2-  O192  1  0.13395884  0.28633630  0.25722864  1
  O2-  O193  1  0.13678107  0.26477603  0.77839105  1
  O2-  O194  1  0.13392340  0.76188483  0.27900120  1
  O2-  O195  1  0.13718480  0.77530690  0.75768113  1
  O2-  O196  1  0.63496903  0.28101893  0.25840323  1
  O2-  O197  1  0.63907852  0.26774313  0.76958684  1
  O2-  O198  1  0.63371492  0.76214427  0.27636109  1
  O2-  O199  1  0.63756852  0.78080192  0.75770291  1
  O2-  O200  1  0.36351327  0.24227958  0.22780075  1
  O2-  O201  1  0.36804949  0.23555352  0.72231806  1
  O2-  O202  1  0.36111825  0.71929499  0.24751528  1
  O2-  O203  1  0.36345215  0.74011754  0.71610037  1
  O2-  O204  1  0.86417876  0.24172331  0.22417602  1
  O2-  O205  1  0.86595181  0.21620952  0.74592952  1
  O2-  O206  1  0.86146115  0.72133769  0.24374350  1
  O2-  O207  1  0.86254040  0.74018608  0.71514556  1
  O2-  O208  1  0.26792533  0.38689543  0.23144432  1
  O2-  O209  1  0.26923050  0.38074148  0.73237443  1
  O2-  O210  1  0.26721063  0.86246413  0.22884742  1
  O2-  O211  1  0.26762116  0.88005965  0.73215274  1
  O2-  O212  1  0.76330906  0.38685453  0.22620712  1
  O2-  O213  1  0.78469761  0.36463608  0.73465746  1
  O2-  O214  1  0.76903969  0.86602180  0.23185526  1
  O2-  O215  1  0.77107479  0.88413130  0.73975101  1
  O2-  O216  1  0.22990884  0.13528948  0.27900351  1
  O2-  O217  1  0.24140644  0.12476304  0.76892238  1
  O2-  O218  1  0.22714148  0.61653460  0.27203263  1
  O2-  O219  1  0.23453586  0.62635378  0.76721246  1
  O2-  O220  1  0.73427226  0.14029292  0.28225846  1
  O2-  O221  1  0.73269478  0.12148050  0.76525206  1
  O2-  O222  1  0.72516707  0.62101813  0.25838062  1
  O2-  O223  1  0.72251359  0.63513443  0.76428757  1
  O2-  O224  1  0.12670496  0.48097560  0.22725477  1
  O2-  O225  1  0.13407445  0.48301438  0.74178986  1
  O2-  O226  1  0.11797630  0.97922988  0.26764424  1
  O2-  O227  1  0.13227473  0.98651811  0.77169511  1
  O2-  O228  1  0.62271544  0.48658828  0.22687751  1
  O2-  O229  1  0.61587691  0.47152889  0.72571962  1
  O2-  O230  1  0.61286579  0.96647508  0.26267892  1
  O2-  O231  1  0.62857623  0.98284063  0.76475749  1
  O2-  O232  1  0.38452141  0.02569191  0.22137848  1
  O2-  O233  1  0.37667507  0.01829018  0.74397824  1
  O2-  O234  1  0.37061595  0.51875088  0.26316439  1
  O2-  O235  1  0.36823018  0.51681006  0.77585224  1
  O2-  O236  1  0.88027624  0.01977877  0.22935300  1
  O2-  O237  1  0.87497907  0.01809919  0.74206893  1
  O2-  O238  1  0.86981077  0.52209695  0.26072256  1
  O2-  O239  1  0.88439511  0.53124078  0.77594858  1
  O2-  O240  1  0.47857730  0.38839857  0.25749307  1
  O2-  O241  1  0.48039134  0.38240360  0.77879389  1
  O2-  O242  1  0.46736543  0.88369617  0.25030658  1
  O2-  O243  1  0.48918111  0.88612863  0.78744042  1
  O2-  O244  1  0.97181428  0.39031197  0.26032064  1
  O2-  O245  1  0.98964814  0.38772523  0.77541363  1
  O2-  O246  1  0.97582742  0.88024229  0.26305979  1
  O2-  O247  1  0.98802407  0.88700627  0.78434168  1
  O2-  O248  1  0.02027803  0.11873117  0.23306441  1
  O2-  O249  1  0.02600967  0.11512589  0.72971232  1
  O2-  O250  1  0.01071620  0.61207393  0.21867168  1
  O2-  O251  1  0.03104151  0.61566297  0.73876865  1
  O2-  O252  1  0.53360315  0.11397232  0.23673992  1
  O2-  O253  1  0.52602929  0.11051837  0.73544390  1
  O2-  O254  1  0.50682492  0.61404679  0.21313773  1
  O2-  O255  1  0.51725929  0.61189496  0.73951938  1
  O2-  O256  1  0.12889114  0.48467484  0.01527046  1
  O2-  O257  1  0.13658695  0.48613344  0.52670535  1
  O2-  O258  1  0.13385303  0.97533567  -0.01849879  1
  O2-  O259  1  0.13524286  0.97145578  0.49838533  1
  O2-  O260  1  0.62572893  0.48051993  0.01736779  1
  O2-  O261  1  0.63470459  0.48385780  0.50846682  1
  O2-  O262  1  0.62435670  0.99052682  -0.02092858  1
  O2-  O263  1  0.63479903  0.96565339  0.50183999  1
  O2-  O264  1  0.38395263  0.02105878  0.01014379  1
  O2-  O265  1  0.36282032  0.00176582  0.53298387  1
  O2-  O266  1  0.38047129  0.51225735  -0.01808866  1
  O2-  O267  1  0.36293993  0.53207461  0.48645143  1
  O2-  O268  1  0.86179489  0.03204918  0.01025172  1
  O2-  O269  1  0.86171789  0.00839621  0.53002655  1
  O2-  O270  1  0.87595772  0.51098410  -0.00977944  1
  O2-  O271  1  0.86475797  0.52212713  0.47086940  1
  O2-  O272  1  0.48876899  0.37217447  -0.02140923  1
  O2-  O273  1  0.47708373  0.36658656  0.47509177  1
  O2-  O274  1  0.48750475  0.87662077  -0.01704214  1
  O2-  O275  1  0.47312097  0.86063970  0.47665419  1
  O2-  O276  1  0.98627547  0.38086071  -0.02148927  1
  O2-  O277  1  0.97248157  0.36667758  0.47960188  1
  O2-  O278  1  0.97406442  0.86704307  -0.01940549  1
  O2-  O279  1  0.97777977  0.86179233  0.47355566  1
  O2-  O280  1  0.02094754  0.13806345  0.02461682  1
  O2-  O281  1  0.02518548  0.13007133  0.51649537  1
  O2-  O282  1  0.01402803  0.61608767  0.01668227  1
  O2-  O283  1  0.01245578  0.63309927  0.53157078  1
  O2-  O284  1  0.52220301  0.12442299  0.01582504  1
  O2-  O285  1  0.52558969  0.12952356  0.51397542  1
  O2-  O286  1  0.51696652  0.61601966  0.01413240  1
  O2-  O287  1  0.51269780  0.63429155  0.53331759  1
  O2-  O288  1  0.11671393  0.27349137  -0.02397855  1
  O2-  O289  1  0.11777324  0.27811633  0.48997217  1
  O2-  O290  1  0.11621513  0.75716640  -0.02144219  1
  O2-  O291  1  0.12192815  0.76352492  0.48640497  1
  O2-  O292  1  0.62941485  0.27247588  -0.00907864  1
  O2-  O293  1  0.61810495  0.26840166  0.47141675  1
  O2-  O294  1  0.61679925  0.75691402  -0.03495524  1
  O2-  O295  1  0.62410867  0.76272747  0.48350242  1
  O2-  O296  1  0.38673286  0.23451516  0.01241132  1
  O2-  O297  1  0.38237842  0.22631835  0.52179825  1
  O2-  O298  1  0.38784460  0.73395730  0.02452046  1
  O2-  O299  1  0.36766479  0.72989413  0.51686348  1
  O2-  O300  1  0.86894396  0.24095702  0.01877696  1
  O2-  O301  1  0.88223503  0.22023005  0.50876323  1
  O2-  O302  1  0.88313836  0.72248677  0.01965080  1
  O2-  O303  1  0.86895246  0.72747385  0.51299977  1
  O2-  O304  1  0.27348443  0.38833358  0.02702539  1
  O2-  O305  1  0.27530902  0.38848996  0.52110221  1
  O2-  O306  1  0.28222899  0.88713269  0.00753533  1
  O2-  O307  1  0.25896208  0.86458235  0.52365998  1
  O2-  O308  1  0.76441569  0.37497646  0.02332494  1
  O2-  O309  1  0.77095111  0.38831147  0.51927243  1
  O2-  O310  1  0.76852807  0.88897561  0.01261039  1
  O2-  O311  1  0.76599493  0.86601695  0.51765662  1
  O2-  O312  1  0.24063448  0.11529360  -0.02743678  1
  O2-  O313  1  0.23576008  0.11067661  0.48141153  1
  O2-  O314  1  0.24354872  0.61372859  -0.01677662  1
  O2-  O315  1  0.22532698  0.62701624  0.48906408  1
  O2-  O316  1  0.72863109  0.13290195  -0.01433353  1
  O2-  O317  1  0.72527890  0.11300819  0.48434813  1
  O2-  O318  1  0.73304257  0.61015588  -0.02203690  1
  O2-  O319  1  0.72881118  0.62841798  0.48340488  1
