# generated using pymatgen
data_Sr64Ca21Nb43O192
_symmetry_space_group_name_H-M   'P 1'
_cell_length_a   16.57169100
_cell_length_b   16.59295318
_cell_length_c   16.74606575
_cell_angle_alpha   90.00551961
_cell_angle_beta   89.95228516
_cell_angle_gamma   90.06010698
_symmetry_Int_Tables_number   1
_chemical_formula_structural   Sr64Ca21Nb43O192
_chemical_formula_sum   'Sr64 Ca21 Nb43 O192'
_cell_volume   4604.71669190
_cell_formula_units_Z   1
loop_
 _symmetry_equiv_pos_site_id
 _symmetry_equiv_pos_as_xyz
  1  'x, y, z'
loop_
 _atom_type_symbol
 _atom_type_oxidation_number
  Sr2+  2.0
  Ca2+  2.0
  Nb5+  5.0
  O2-  -2.0
loop_
 _atom_site_type_symbol
 _atom_site_label
 _atom_site_symmetry_multiplicity
 _atom_site_fract_x
 _atom_site_fract_y
 _atom_site_fract_z
 _atom_site_occupancy
  Sr2+  Sr0  1  0.12740019  0.11924216  0.13343185  1
  Sr2+  Sr1  1  0.12910486  0.12590329  0.62420544  1
  Sr2+  Sr2  1  0.12579930  0.64345545  0.11969026  1
  Sr2+  Sr3  1  0.13224130  0.62666846  0.63519763  1
  Sr2+  Sr4  1  0.62767854  0.13039574  0.11698718  1
  Sr2+  Sr5  1  0.62945005  0.11809560  0.62310329  1
  Sr2+  Sr6  1  0.63784179  0.63398573  0.12688403  1
  Sr2+  Sr7  1  0.62578460  0.64437111  0.62232702  1
  Sr2+  Sr8  1  0.38994943  0.36968560  0.12886023  1
  Sr2+  Sr9  1  0.38165527  0.37887435  0.62032801  1
  Sr2+  Sr10  1  0.37782358  0.88311406  0.12610188  1
  Sr2+  Sr11  1  0.37897549  0.87481634  0.61498434  1
  Sr2+  Sr12  1  0.88179976  0.37245016  0.12276882  1
  Sr2+  Sr13  1  0.88274796  0.39364441  0.62438263  1
  Sr2+  Sr14  1  0.88020653  0.86651621  0.12920622  1
  Sr2+  Sr15  1  0.88053457  0.87441462  0.62986416  1
  Sr2+  Sr16  1  0.13850997  0.36708679  0.37339467  1
  Sr2+  Sr17  1  0.11744632  0.37612450  0.87508024  1
  Sr2+  Sr18  1  0.11708819  0.87136622  0.37810033  1
  Sr2+  Sr19  1  0.12756033  0.86645425  0.86993281  1
  Sr2+  Sr20  1  0.60239846  0.38042534  0.36971472  1
  Sr2+  Sr21  1  0.60366441  0.37408595  0.87688287  1
  Sr2+  Sr22  1  0.61016535  0.86526637  0.38036883  1
  Sr2+  Sr23  1  0.61489560  0.87408869  0.87096235  1
  Sr2+  Sr24  1  0.36753916  0.12602876  0.38144568  1
  Sr2+  Sr25  1  0.37534235  0.12331675  0.86877903  1
  Sr2+  Sr26  1  0.37372527  0.61536874  0.37533402  1
  Sr2+  Sr27  1  0.36636207  0.61812663  0.87860509  1
  Sr2+  Sr28  1  0.87524472  0.12788605  0.37506996  1
  Sr2+  Sr29  1  0.86317981  0.12816962  0.86874267  1
  Sr2+  Sr30  1  0.86261707  0.61877250  0.37920188  1
  Sr2+  Sr31  1  0.87317121  0.61628498  0.86340323  1
  Sr2+  Sr32  1  0.11991898  0.13037279  0.37795370  1
  Sr2+  Sr33  1  0.12255330  0.13988619  0.87212600  1
  Sr2+  Sr34  1  0.11542506  0.61285883  0.37433536  1
  Sr2+  Sr35  1  0.12322670  0.61117106  0.87612550  1
  Sr2+  Sr36  1  0.62018133  0.13484187  0.37937703  1
  Sr2+  Sr37  1  0.61773118  0.13072683  0.87256439  1
  Sr2+  Sr38  1  0.61756615  0.61099565  0.37332679  1
  Sr2+  Sr39  1  0.60947458  0.61797353  0.86871259  1
  Sr2+  Sr40  1  0.36718418  0.37211043  0.37556557  1
  Sr2+  Sr41  1  0.36902905  0.38657739  0.87212908  1
  Sr2+  Sr42  1  0.36646391  0.85692040  0.37289621  1
  Sr2+  Sr43  1  0.37329157  0.85701042  0.87533658  1
  Sr2+  Sr44  1  0.87238887  0.37755507  0.37674648  1
  Sr2+  Sr45  1  0.87477959  0.37497779  0.87957919  1
  Sr2+  Sr46  1  0.86770353  0.86009207  0.37847383  1
  Sr2+  Sr47  1  0.86465975  0.86757941  0.86323034  1
  Sr2+  Sr48  1  0.12401399  0.37619491  0.12337631  1
  Sr2+  Sr49  1  0.14074909  0.37489013  0.62808782  1
  Sr2+  Sr50  1  0.14092303  0.88092321  0.12303420  1
  Sr2+  Sr51  1  0.11397641  0.88302250  0.62611265  1
  Sr2+  Sr52  1  0.63485896  0.37265049  0.12193818  1
  Sr2+  Sr53  1  0.62580748  0.38342021  0.62533774  1
  Sr2+  Sr54  1  0.63234784  0.88414379  0.12438624  1
  Sr2+  Sr55  1  0.63733463  0.87715927  0.62507195  1
  Sr2+  Sr56  1  0.38916210  0.11305299  0.12560441  1
  Sr2+  Sr57  1  0.39000258  0.13035267  0.62145753  1
  Sr2+  Sr58  1  0.38319588  0.64425445  0.12560035  1
  Sr2+  Sr59  1  0.39390153  0.62345826  0.62534297  1
  Sr2+  Sr60  1  0.88173090  0.12548307  0.12510484  1
  Sr2+  Sr61  1  0.88451047  0.11508358  0.62421613  1
  Sr2+  Sr62  1  0.88508727  0.62409166  0.12348981  1
  Sr2+  Sr63  1  0.88734414  0.63732171  0.62583039  1
  Ca2+  Ca64  1  -0.00062609  0.00088748  -0.00098050  1
  Ca2+  Ca65  1  0.50030608  0.50146092  0.00573836  1
  Ca2+  Ca66  1  0.00222661  0.49828091  0.49824497  1
  Ca2+  Ca67  1  0.49874371  0.49762687  0.50006936  1
  Ca2+  Ca68  1  0.49887044  -0.00152088  0.49754011  1
  Ca2+  Ca69  1  0.75327171  0.75191839  -0.00178123  1
  Ca2+  Ca70  1  0.75427607  0.25349293  0.50103167  1
  Ca2+  Ca71  1  0.24800132  0.74927014  0.49898296  1
  Ca2+  Ca72  1  0.75001953  0.75047037  0.49900356  1
  Ca2+  Ca73  1  0.25004160  0.24922117  0.00452879  1
  Ca2+  Ca74  1  0.00644049  0.75225792  0.75240391  1
  Ca2+  Ca75  1  0.25288539  -0.00288782  0.74815548  1
  Ca2+  Ca76  1  0.50270369  0.74978908  0.24888763  1
  Ca2+  Ca77  1  0.49989922  0.24682054  0.25030901  1
  Ca2+  Ca78  1  0.24894420  0.50214119  0.74955486  1
  Ca2+  Ca79  1  0.00125193  0.74986890  0.25098346  1
  Ca2+  Ca80  1  -0.00357610  0.25014674  0.74802169  1
  Ca2+  Ca81  1  0.49805940  0.75152727  0.74955927  1
  Ca2+  Ca82  1  0.50174645  0.25047804  0.75016743  1
  Ca2+  Ca83  1  0.74857146  0.50023068  0.75101232  1
  Ca2+  Ca84  1  0.24649301  0.50001598  0.24522705  1
  Nb5+  Nb85  1  0.50065578  -0.00044949  -0.00131094  1
  Nb5+  Nb86  1  -0.00190660  0.49879799  0.00078427  1
  Nb5+  Nb87  1  -0.00136807  0.00122744  0.49500573  1
  Nb5+  Nb88  1  0.75104571  0.25196597  -0.00117864  1
  Nb5+  Nb89  1  0.25006697  0.75094773  0.00011680  1
  Nb5+  Nb90  1  0.24968534  0.24676717  0.50201553  1
  Nb5+  Nb91  1  -0.00188071  0.25104352  0.25076910  1
  Nb5+  Nb92  1  0.74980140  0.00128553  0.74516233  1
  Nb5+  Nb93  1  0.75088643  0.49150200  0.24833343  1
  Nb5+  Nb94  1  0.75530072  -0.00024110  0.24565740  1
  Nb5+  Nb95  1  0.25620786  0.00101205  0.25131555  1
  Nb5+  Nb96  1  0.00269041  -0.00117401  0.25139335  1
  Nb5+  Nb97  1  0.00200024  0.00545805  0.75902774  1
  Nb5+  Nb98  1  -0.00103462  0.49902937  0.24799433  1
  Nb5+  Nb99  1  0.00156569  0.49690987  0.74409948  1
  Nb5+  Nb100  1  0.50913728  0.00164839  0.25418026  1
  Nb5+  Nb101  1  0.49880184  -0.00037083  0.74617423  1
  Nb5+  Nb102  1  0.49275809  0.50143806  0.24263202  1
  Nb5+  Nb103  1  0.49954836  0.49914224  0.75071639  1
  Nb5+  Nb104  1  0.25197200  0.24614760  0.24551687  1
  Nb5+  Nb105  1  0.25362817  0.24983492  0.75742667  1
  Nb5+  Nb106  1  0.24329718  0.74534792  0.25214501  1
  Nb5+  Nb107  1  0.25760285  0.74931954  0.74211904  1
  Nb5+  Nb108  1  0.75036593  0.24531805  0.25228201  1
  Nb5+  Nb109  1  0.74907667  0.25202691  0.74320627  1
  Nb5+  Nb110  1  0.75020878  0.74234909  0.25144618  1
  Nb5+  Nb111  1  0.74856098  0.74599817  0.75473120  1
  Nb5+  Nb112  1  0.00052251  0.25107462  0.50327289  1
  Nb5+  Nb113  1  -0.00028157  0.24747545  1.00102310  1
  Nb5+  Nb114  1  0.00765074  0.74537462  0.49900136  1
  Nb5+  Nb115  1  -0.00443683  0.75364960  0.99378628  1
  Nb5+  Nb116  1  0.50566028  0.25129694  0.49820722  1
  Nb5+  Nb117  1  0.49317636  0.24956205  1.00291839  1
  Nb5+  Nb118  1  0.49792051  0.74785519  0.49696975  1
  Nb5+  Nb119  1  0.50815174  0.75032366  1.00558251  1
  Nb5+  Nb120  1  0.24973272  -0.00260643  -0.00615072  1
  Nb5+  Nb121  1  0.24883105  -0.00086441  0.50067512  1
  Nb5+  Nb122  1  0.25278550  0.49997752  0.01041192  1
  Nb5+  Nb123  1  0.24447416  0.50572590  0.49818429  1
  Nb5+  Nb124  1  0.75287141  0.00245560  -0.00494523  1
  Nb5+  Nb125  1  0.75000814  -0.00198611  0.48861283  1
  Nb5+  Nb126  1  0.74814903  0.50270437  -0.00154996  1
  Nb5+  Nb127  1  0.74764882  0.50418062  0.50708590  1
  O2-  O128  1  -0.00621622  -0.01721315  0.13644795  1
  O2-  O129  1  -0.00471920  -0.01629804  0.61204333  1
  O2-  O130  1  0.00245204  0.47470542  0.12313771  1
  O2-  O131  1  0.01980826  0.47548723  0.63297501  1
  O2-  O132  1  0.50371297  -0.02039132  0.12248811  1
  O2-  O133  1  0.50616665  -0.02734798  0.63463196  1
  O2-  O134  1  0.51434863  0.46217242  0.13401434  1
  O2-  O135  1  0.50621415  0.47115154  0.63471737  1
  O2-  O136  1  -0.00171575  0.03000191  0.37014733  1
  O2-  O137  1  -0.00009081  0.03956094  0.86722295  1
  O2-  O138  1  -0.02020497  0.51662481  0.36151920  1
  O2-  O139  1  -0.01979751  0.50967255  0.88421436  1
  O2-  O140  1  0.50351693  0.03180961  0.36424224  1
  O2-  O141  1  0.49904613  0.02400302  0.88271340  1
  O2-  O142  1  0.49451642  0.51824308  0.36199179  1
  O2-  O143  1  0.48811335  0.52423732  0.87284670  1
  O2-  O144  1  0.21670555  0.23765407  0.13626839  1
  O2-  O145  1  0.23076772  0.23862814  0.61650763  1
  O2-  O146  1  0.26446672  0.73964598  0.12490536  1
  O2-  O147  1  0.27583753  0.72531069  0.63196925  1
  O2-  O148  1  0.73914681  0.23699950  0.12868637  1
  O2-  O149  1  0.71928960  0.23709998  0.63452223  1
  O2-  O150  1  0.78178954  0.73708264  0.13476150  1
  O2-  O151  1  0.76871363  0.73304177  0.63655491  1
  O2-  O152  1  0.25837731  0.25314874  0.37095158  1
  O2-  O153  1  0.27496501  0.26345865  0.86988212  1
  O2-  O154  1  0.23177398  0.77416261  0.36270410  1
  O2-  O155  1  0.23902078  0.77185145  0.88610637  1
  O2-  O156  1  0.77875929  0.25905671  0.36389375  1
  O2-  O157  1  0.77436233  0.25687043  0.88534519  1
  O2-  O158  1  0.73135747  0.77939184  0.36186369  1
  O2-  O159  1  0.73647371  0.78558463  0.86761651  1
  O2-  O160  1  0.00737696  0.27069131  0.12959850  1
  O2-  O161  1  0.02124811  0.26931765  0.61359193  1
  O2-  O162  1  -0.01713403  0.75387383  0.11214137  1
  O2-  O163  1  -0.01468097  0.76935593  0.61565509  1
  O2-  O164  1  0.52561435  0.26533154  0.11550412  1
  O2-  O165  1  0.50533191  0.27573652  0.61508166  1
  O2-  O166  1  0.47215875  0.77296133  0.11574740  1
  O2-  O167  1  0.46946403  0.76120296  0.61484354  1
  O2-  O168  1  0.25220301  -0.00916201  0.36934026  1
  O2-  O169  1  0.26907429  -0.02308010  0.88425669  1
  O2-  O170  1  0.27212924  0.49019474  0.38031334  1
  O2-  O171  1  0.25784532  0.49485557  0.89141095  1
  O2-  O172  1  0.75849279  -0.01175040  0.37260008  1
  O2-  O173  1  0.75469482  -0.01356009  0.88035310  1
  O2-  O174  1  0.77045313  0.48858712  0.36389497  1
  O2-  O175  1  0.77485674  0.48720984  0.88776531  1
  O2-  O176  1  -0.01171299  0.23137340  0.36830490  1
  O2-  O177  1  -0.01833113  0.22990257  0.88820999  1
  O2-  O178  1  0.03223937  0.73763230  0.38218053  1
  O2-  O179  1  0.03935368  0.73749870  0.88664376  1
  O2-  O180  1  0.48521324  0.21939565  0.38345324  1
  O2-  O181  1  0.49268232  0.22134283  0.88870350  1
  O2-  O182  1  0.53130658  0.73343386  0.38058091  1
  O2-  O183  1  0.51939355  0.74150478  0.88887224  1
  O2-  O184  1  0.24639488  0.01364571  0.12858261  1
  O2-  O185  1  0.22481894  0.00565008  0.61236525  1
  O2-  O186  1  0.20698196  0.51589582  0.11580014  1
  O2-  O187  1  0.22013998  0.50436633  0.61497434  1
  O2-  O188  1  0.74156580  0.02291422  0.13180521  1
  O2-  O189  1  0.74902673  0.01683124  0.62899285  1
  O2-  O190  1  0.73819666  0.51296986  0.12763465  1
  O2-  O191  1  0.72126534  0.52049604  0.61680046  1
  O2-  O192  1  0.11641659  0.26026848  0.26465980  1
  O2-  O193  1  0.13218226  0.26728486  0.77094053  1
  O2-  O194  1  0.13248972  0.77684618  0.22333457  1
  O2-  O195  1  0.14191855  0.78528413  0.73638152  1
  O2-  O196  1  0.63702673  0.26565099  0.26916821  1
  O2-  O197  1  0.63894891  0.26232945  0.78396585  1
  O2-  O198  1  0.63855482  0.76604968  0.21798291  1
  O2-  O199  1  0.63437313  0.77187410  0.73093816  1
  O2-  O200  1  0.36314763  0.22299265  0.22980047  1
  O2-  O201  1  0.36704469  0.22186974  0.73433143  1
  O2-  O202  1  0.36259640  0.73035650  0.26412286  1
  O2-  O203  1  0.36693895  0.72743244  0.78362840  1
  O2-  O204  1  0.87551121  0.23037926  0.23389615  1
  O2-  O205  1  0.86151535  0.21605117  0.74086122  1
  O2-  O206  1  0.86757121  0.73962822  0.27705515  1
  O2-  O207  1  0.86921005  0.73972931  0.77204846  1
  O2-  O208  1  0.26613458  0.36185205  0.24108758  1
  O2-  O209  1  0.26796011  0.36446137  0.72764560  1
  O2-  O210  1  0.26546494  0.88399758  0.23522652  1
  O2-  O211  1  0.29066368  0.86576196  0.73647044  1
  O2-  O212  1  0.76634049  0.37450378  0.23195473  1
  O2-  O213  1  0.77427531  0.36401174  0.73200527  1
  O2-  O214  1  0.76901514  0.88601143  0.23134341  1
  O2-  O215  1  0.77106717  0.88368932  0.73513296  1
  O2-  O216  1  0.22731867  0.12090215  0.26254206  1
  O2-  O217  1  0.22473176  0.13263584  0.76132894  1
  O2-  O218  1  0.21544755  0.63412216  0.26185644  1
  O2-  O219  1  0.22085220  0.63735048  0.76693052  1
  O2-  O220  1  0.73281813  0.12628037  0.26694002  1
  O2-  O221  1  0.73154156  0.11828657  0.77007250  1
  O2-  O222  1  0.73513673  0.62547632  0.26392852  1
  O2-  O223  1  0.73172275  0.63487615  0.78091055  1
  O2-  O224  1  0.10956734  0.46695597  0.26108051  1
  O2-  O225  1  0.11462179  0.48197887  0.77573759  1
  O2-  O226  1  0.12095840  0.98878027  0.25000807  1
  O2-  O227  1  0.11486919  0.97920141  0.75667402  1
  O2-  O228  1  0.63336092  0.48204533  0.26004519  1
  O2-  O229  1  0.61753539  0.47642297  0.76964499  1
  O2-  O230  1  0.62732462  0.98208739  0.25631817  1
  O2-  O231  1  0.63252295  0.97912876  0.75560626  1
  O2-  O232  1  0.37222247  0.02001029  0.24752995  1
  O2-  O233  1  0.38768057  0.03109629  0.74350692  1
  O2-  O234  1  0.38094088  0.52446244  0.22617083  1
  O2-  O235  1  0.38141815  0.52236863  0.74171848  1
  O2-  O236  1  0.87048940  0.02460980  0.24916713  1
  O2-  O237  1  0.87081650  0.02001969  0.75240137  1
  O2-  O238  1  0.87230299  0.51176015  0.23039654  1
  O2-  O239  1  0.88336862  0.52412391  0.72907724  1
  O2-  O240  1  0.47631203  0.38105086  0.27025783  1
  O2-  O241  1  0.47917909  0.38126637  0.77853365  1
  O2-  O242  1  0.48032877  0.88804125  0.26829475  1
  O2-  O243  1  0.48984059  0.88858275  0.78303472  1
  O2-  O244  1  0.97193912  0.36804111  0.26129423  1
  O2-  O245  1  0.97178154  0.38323796  0.76889264  1
  O2-  O246  1  0.97817491  0.88894693  0.27488025  1
  O2-  O247  1  0.97536372  0.89015160  0.76180189  1
  O2-  O248  1  0.00972900  0.12729394  0.23090689  1
  O2-  O249  1  0.01120305  0.11427609  0.71413822  1
  O2-  O250  1  0.01692492  0.61098605  0.22611820  1
  O2-  O251  1  0.02064274  0.61652916  0.74080445  1
  O2-  O252  1  0.51526243  0.11334399  0.21753163  1
  O2-  O253  1  0.53396871  0.11359793  0.73848236  1
  O2-  O254  1  0.52545023  0.61387394  0.22263956  1
  O2-  O255  1  0.52610446  0.61653120  0.73069427  1
  O2-  O256  1  0.11412290  0.47957302  -0.01372204  1
  O2-  O257  1  0.13253238  0.46943970  0.47546268  1
  O2-  O258  1  0.13591418  0.97221331  -0.00430571  1
  O2-  O259  1  0.12134195  0.98660839  0.48286571  1
  O2-  O260  1  0.63683559  0.46826207  -0.00681134  1
  O2-  O261  1  0.63520074  0.47356468  0.47980096  1
  O2-  O262  1  0.62504249  0.99040579  -0.00095050  1
  O2-  O263  1  0.63701301  0.97293653  0.49497826  1
  O2-  O264  1  0.37853220  0.01198834  0.01091826  1
  O2-  O265  1  0.36210733  0.02845765  0.50638787  1
  O2-  O266  1  0.36299302  0.52731945  0.02749796  1
  O2-  O267  1  0.36176022  0.51311368  0.52108798  1
  O2-  O268  1  0.86398770  0.03165358  0.00285099  1
  O2-  O269  1  0.87906609  0.02636159  0.49365841  1
  O2-  O270  1  0.87280696  0.51032678  0.02052960  1
  O2-  O271  1  0.86780260  0.52743395  0.51865329  1
  O2-  O272  1  0.47583543  0.36315575  -0.01863287  1
  O2-  O273  1  0.47273650  0.36339055  0.47689716  1
  O2-  O274  1  0.48927617  0.88178600  -0.01832086  1
  O2-  O275  1  0.47882265  0.86709323  0.47386288  1
  O2-  O276  1  0.97734294  0.37294271  -0.00888681  1
  O2-  O277  1  0.97822861  0.36202658  0.48038025  1
  O2-  O278  1  0.97235535  0.86599924  -0.01903077  1
  O2-  O279  1  0.98402537  0.88680178  0.47189868  1
  O2-  O280  1  0.01742175  0.13604696  0.02960147  1
  O2-  O281  1  0.02448626  0.12296023  0.51002514  1
  O2-  O282  1  0.01407413  0.61540435  0.01657779  1
  O2-  O283  1  0.02968816  0.63386988  0.51971649  1
  O2-  O284  1  0.51341586  0.12018699  0.02081588  1
  O2-  O285  1  0.51555192  0.13328892  0.52751787  1
  O2-  O286  1  0.51899478  0.63661677  0.02612818  1
  O2-  O287  1  0.51477159  0.63041402  0.51894310  1
  O2-  O288  1  0.11355880  0.27055952  -0.01428682  1
  O2-  O289  1  0.12514801  0.25777197  0.47810544  1
  O2-  O290  1  0.12940243  0.76889075  0.02137704  1
  O2-  O291  1  0.11751623  0.78929623  0.51431863  1
  O2-  O292  1  0.63212559  0.26360366  -0.01062778  1
  O2-  O293  1  0.61792985  0.26806206  0.47640808  1
  O2-  O294  1  0.61935778  0.77407279  0.02489686  1
  O2-  O295  1  0.61626928  0.77139457  0.52406459  1
  O2-  O296  1  0.38309977  0.22996531  0.03013403  1
  O2-  O297  1  0.36616865  0.22730394  0.50695207  1
  O2-  O298  1  0.37094946  0.73491454  -0.01308174  1
  O2-  O299  1  0.38128544  0.72984699  0.46726197  1
  O2-  O300  1  0.87276830  0.23558356  0.02113308  1
  O2-  O301  1  0.88878659  0.21889684  0.51186960  1
  O2-  O302  1  0.88693606  0.72101345  -0.02887180  1
  O2-  O303  1  0.88944197  0.73687123  0.47753127  1
  O2-  O304  1  0.26873659  0.38582850  0.02444766  1
  O2-  O305  1  0.26376116  0.36441274  0.50538920  1
  O2-  O306  1  0.26924581  0.87396802  0.02175595  1
  O2-  O307  1  0.27428542  0.88633865  0.50213894  1
  O2-  O308  1  0.76729787  0.36823047  0.01964894  1
  O2-  O309  1  0.77936666  0.38759091  0.51505822  1
  O2-  O310  1  0.76671323  0.89213432  0.02742409  1
  O2-  O311  1  0.78134902  0.88842007  0.51772140  1
  O2-  O312  1  0.23291279  0.11221167  -0.01781035  1
  O2-  O313  1  0.22963077  0.12518628  0.48300295  1
  O2-  O314  1  0.22932184  0.63233379  -0.00861766  1
  O2-  O315  1  0.21923550  0.61691325  0.48308853  1
  O2-  O316  1  0.72984738  0.12772570  -0.00794600  1
  O2-  O317  1  0.72910722  0.11480566  0.48963426  1
  O2-  O318  1  0.72391533  0.61484905  -0.01081681  1
  O2-  O319  1  0.73316198  0.61666927  0.46920536  1
