# generated using pymatgen
data_Sr64Ca21Nb43O192
_symmetry_space_group_name_H-M   'P 1'
_cell_length_a   16.61739594
_cell_length_b   16.59931965
_cell_length_c   16.76203541
_cell_angle_alpha   89.98468691
_cell_angle_beta   90.01967773
_cell_angle_gamma   90.00326949
_symmetry_Int_Tables_number   1
_chemical_formula_structural   Sr64Ca21Nb43O192
_chemical_formula_sum   'Sr64 Ca21 Nb43 O192'
_cell_volume   4623.59694530
_cell_formula_units_Z   1
loop_
 _symmetry_equiv_pos_site_id
 _symmetry_equiv_pos_as_xyz
  1  'x, y, z'
loop_
 _atom_type_symbol
 _atom_type_oxidation_number
  Sr2+  2.0
  Ca2+  2.0
  Nb5+  5.0
  O2-  -2.0
loop_
 _atom_site_type_symbol
 _atom_site_label
 _atom_site_symmetry_multiplicity
 _atom_site_fract_x
 _atom_site_fract_y
 _atom_site_fract_z
 _atom_site_occupancy
  Sr2+  Sr0  1  0.12451010  0.13047068  0.12978620  1
  Sr2+  Sr1  1  0.11457560  0.13379131  0.63009974  1
  Sr2+  Sr2  1  0.10753040  0.63673864  0.12044775  1
  Sr2+  Sr3  1  0.12017147  0.63624458  0.62640390  1
  Sr2+  Sr4  1  0.62662370  0.13139722  0.12525720  1
  Sr2+  Sr5  1  0.63036797  0.13393491  0.62797827  1
  Sr2+  Sr6  1  0.63646830  0.63927453  0.12581231  1
  Sr2+  Sr7  1  0.62927274  0.61202879  0.62806290  1
  Sr2+  Sr8  1  0.36921756  0.38000238  0.12055299  1
  Sr2+  Sr9  1  0.37256347  0.38962818  0.62577250  1
  Sr2+  Sr10  1  0.37864351  0.88233936  0.11703901  1
  Sr2+  Sr11  1  0.36611812  0.87766198  0.62296424  1
  Sr2+  Sr12  1  0.87134291  0.39742407  0.12461648  1
  Sr2+  Sr13  1  0.86924010  0.39528223  0.62723143  1
  Sr2+  Sr14  1  0.87251327  0.85122272  0.12670659  1
  Sr2+  Sr15  1  0.87333351  0.85080833  0.62239921  1
  Sr2+  Sr16  1  0.11740321  0.36942175  0.36799125  1
  Sr2+  Sr17  1  0.13973897  0.36591971  0.87244789  1
  Sr2+  Sr18  1  0.13753454  0.86661803  0.37749251  1
  Sr2+  Sr19  1  0.13107951  0.86074652  0.87406829  1
  Sr2+  Sr20  1  0.62615943  0.37138860  0.38472887  1
  Sr2+  Sr21  1  0.63126274  0.37128826  0.87300820  1
  Sr2+  Sr22  1  0.61740017  0.87537925  0.37660315  1
  Sr2+  Sr23  1  0.61876322  0.87463280  0.86443518  1
  Sr2+  Sr24  1  0.37219577  0.12062180  0.37185634  1
  Sr2+  Sr25  1  0.37833167  0.12236322  0.87453579  1
  Sr2+  Sr26  1  0.37429122  0.62214635  0.37279273  1
  Sr2+  Sr27  1  0.36646569  0.62585819  0.87720759  1
  Sr2+  Sr28  1  0.90065860  0.12376910  0.37519358  1
  Sr2+  Sr29  1  0.89551595  0.11820383  0.87127576  1
  Sr2+  Sr30  1  0.89726747  0.61931900  0.37403215  1
  Sr2+  Sr31  1  0.89425175  0.62397368  0.87024475  1
  Sr2+  Sr32  1  0.13215611  0.11721224  0.37581684  1
  Sr2+  Sr33  1  0.13038949  0.12174070  0.86677271  1
  Sr2+  Sr34  1  0.13421153  0.61069379  0.37288287  1
  Sr2+  Sr35  1  0.13289071  0.61322388  0.87146848  1
  Sr2+  Sr36  1  0.62157147  0.12439117  0.37520391  1
  Sr2+  Sr37  1  0.62333244  0.11676922  0.86868822  1
  Sr2+  Sr38  1  0.61351182  0.61212695  0.37758910  1
  Sr2+  Sr39  1  0.61129058  0.61141067  0.87044192  1
  Sr2+  Sr40  1  0.37832729  0.39131866  0.37302343  1
  Sr2+  Sr41  1  0.37518964  0.38820919  0.87691444  1
  Sr2+  Sr42  1  0.37612670  0.85969942  0.37123241  1
  Sr2+  Sr43  1  0.37878741  0.85118422  0.87616351  1
  Sr2+  Sr44  1  0.87886952  0.36916657  0.38708586  1
  Sr2+  Sr45  1  0.87960917  0.37054692  0.88658685  1
  Sr2+  Sr46  1  0.88443579  0.86310829  0.37702794  1
  Sr2+  Sr47  1  0.87660507  0.86664057  0.85620134  1
  Sr2+  Sr48  1  0.10845930  0.38717489  0.12354819  1
  Sr2+  Sr49  1  0.11274594  0.38506942  0.63567672  1
  Sr2+  Sr50  1  0.10615637  0.88396186  0.11816932  1
  Sr2+  Sr51  1  0.11529009  0.87728022  0.62481010  1
  Sr2+  Sr52  1  0.63802699  0.37763697  0.12056849  1
  Sr2+  Sr53  1  0.63049088  0.37841369  0.62871865  1
  Sr2+  Sr54  1  0.63481020  0.88408394  0.12598628  1
  Sr2+  Sr55  1  0.63946528  0.88109640  0.62051028  1
  Sr2+  Sr56  1  0.37569020  0.13112114  0.12564324  1
  Sr2+  Sr57  1  0.36089722  0.12997788  0.62431436  1
  Sr2+  Sr58  1  0.37534037  0.63798030  0.12605289  1
  Sr2+  Sr59  1  0.35955160  0.63085237  0.63092030  1
  Sr2+  Sr60  1  0.88250506  0.12290581  0.12724521  1
  Sr2+  Sr61  1  0.88076913  0.12495374  0.63290508  1
  Sr2+  Sr62  1  0.87895540  0.62508026  0.11755995  1
  Sr2+  Sr63  1  0.87934886  0.63178151  0.62206648  1
  Ca2+  Ca64  1  0.00105398  0.49898594  -0.00477695  1
  Ca2+  Ca65  1  -0.00289718  -0.00043262  0.50144345  1
  Ca2+  Ca66  1  -0.00401590  -0.00031545  -0.00126197  1
  Ca2+  Ca67  1  0.49954149  0.49790381  0.00420027  1
  Ca2+  Ca68  1  0.00179660  0.50013465  0.50124333  1
  Ca2+  Ca69  1  0.25242149  0.74905323  0.49883244  1
  Ca2+  Ca70  1  0.74764845  0.75010450  0.49417143  1
  Ca2+  Ca71  1  0.24832103  0.75282018  0.00521216  1
  Ca2+  Ca72  1  0.25348464  0.25611903  0.49565585  1
  Ca2+  Ca73  1  0.74830796  0.75388302  -0.00665198  1
  Ca2+  Ca74  1  0.25251594  -0.00152766  0.75226923  1
  Ca2+  Ca75  1  0.00238074  0.75028173  0.74895931  1
  Ca2+  Ca76  1  0.24950202  0.49860652  0.24642996  1
  Ca2+  Ca77  1  0.74906464  0.49956064  0.25369914  1
  Ca2+  Ca78  1  0.49771332  0.24910918  0.75022039  1
  Ca2+  Ca79  1  0.75333020  0.49893585  0.75456461  1
  Ca2+  Ca80  1  0.24799670  0.49762692  0.75052401  1
  Ca2+  Ca81  1  -0.00194354  0.25104094  0.24569538  1
  Ca2+  Ca82  1  -0.00185562  0.25401373  0.75094335  1
  Ca2+  Ca83  1  0.00295283  0.75078620  0.25019230  1
  Ca2+  Ca84  1  0.50147959  0.74938968  0.74582066  1
  Nb5+  Nb85  1  0.49869465  0.00145714  -0.00273727  1
  Nb5+  Nb86  1  0.49785427  -0.00274143  0.49544090  1
  Nb5+  Nb87  1  0.49903896  0.49503801  0.50248478  1
  Nb5+  Nb88  1  0.75160478  0.24660223  0.50628006  1
  Nb5+  Nb89  1  0.75663560  0.24222168  0.00612132  1
  Nb5+  Nb90  1  0.25877313  0.24510675  -0.00020285  1
  Nb5+  Nb91  1  0.50247142  0.75427026  0.24958365  1
  Nb5+  Nb92  1  0.75408006  0.00439783  0.24516225  1
  Nb5+  Nb93  1  0.75003309  0.00205518  0.74139504  1
  Nb5+  Nb94  1  0.25533150  -0.00234364  0.24966904  1
  Nb5+  Nb95  1  0.49886365  0.25646333  0.25016666  1
  Nb5+  Nb96  1  0.00871885  -0.00132554  0.25261372  1
  Nb5+  Nb97  1  0.00558048  -0.00425228  0.75173522  1
  Nb5+  Nb98  1  -0.00115138  0.50043938  0.25025755  1
  Nb5+  Nb99  1  -0.00089857  0.50065248  0.75122058  1
  Nb5+  Nb100  1  0.50346669  0.00178652  0.24758869  1
  Nb5+  Nb101  1  0.50045028  0.00024230  0.73776894  1
  Nb5+  Nb102  1  0.50535700  0.50546358  0.24467542  1
  Nb5+  Nb103  1  0.49723127  0.50000268  0.75264213  1
  Nb5+  Nb104  1  0.25064640  0.25255255  0.24753138  1
  Nb5+  Nb105  1  0.25428302  0.24998376  0.74194242  1
  Nb5+  Nb106  1  0.24535141  0.74908789  0.24251734  1
  Nb5+  Nb107  1  0.25062167  0.75154458  0.75034429  1
  Nb5+  Nb108  1  0.74867574  0.24549441  0.25488373  1
  Nb5+  Nb109  1  0.75103458  0.24801628  0.75997202  1
  Nb5+  Nb110  1  0.74926304  0.74599885  0.25704355  1
  Nb5+  Nb111  1  0.74330718  0.74436473  0.75083966  1
  Nb5+  Nb112  1  0.00754170  0.25459970  0.50158317  1
  Nb5+  Nb113  1  0.01359829  0.24939127  1.00051098  1
  Nb5+  Nb114  1  0.00405213  0.75191562  0.49478353  1
  Nb5+  Nb115  1  -0.00244580  0.75311747  0.99610822  1
  Nb5+  Nb116  1  0.49904188  0.24528257  0.50094914  1
  Nb5+  Nb117  1  0.50378849  0.24780287  1.00163346  1
  Nb5+  Nb118  1  0.50086427  0.74399671  0.50370558  1
  Nb5+  Nb119  1  0.50691309  0.74548858  1.00098169  1
  Nb5+  Nb120  1  0.24962962  0.00080756  -0.00107278  1
  Nb5+  Nb121  1  0.24594035  -0.00185165  0.50188402  1
  Nb5+  Nb122  1  0.24709459  0.50400989  0.00800789  1
  Nb5+  Nb123  1  0.24495606  0.49486017  0.50106341  1
  Nb5+  Nb124  1  0.74974833  0.00354699  -0.00576404  1
  Nb5+  Nb125  1  0.75160748  0.00658472  0.49295922  1
  Nb5+  Nb126  1  0.74305486  0.50624377  -0.00333259  1
  Nb5+  Nb127  1  0.74925127  0.50490781  0.49751435  1
  O2-  O128  1  0.00989804  0.02577276  0.13596991  1
  O2-  O129  1  0.00793633  0.02364812  0.63474067  1
  O2-  O130  1  0.01749865  0.51886142  0.13110988  1
  O2-  O131  1  0.02781624  0.51848216  0.63269866  1
  O2-  O132  1  0.50610241  -0.01485929  0.13313992  1
  O2-  O133  1  0.51008744  -0.01745579  0.62284409  1
  O2-  O134  1  0.52357904  0.47999124  0.13734910  1
  O2-  O135  1  0.52137435  0.48637440  0.61882120  1
  O2-  O136  1  -0.02073254  -0.01559002  0.36505775  1
  O2-  O137  1  -0.02292106  -0.01790599  0.86566489  1
  O2-  O138  1  -0.02328962  0.48099154  0.36702045  1
  O2-  O139  1  -0.03416859  0.48667104  0.86543829  1
  O2-  O140  1  0.49397144  0.01253939  0.37631914  1
  O2-  O141  1  0.49773903  0.02049661  0.88442324  1
  O2-  O142  1  0.48396041  0.51553373  0.38261519  1
  O2-  O143  1  0.47951245  0.51872025  0.86733115  1
  O2-  O144  1  0.27682215  0.25173294  0.12610445  1
  O2-  O145  1  0.27805908  0.26467056  0.63161864  1
  O2-  O146  1  0.28874413  0.76761995  0.13614973  1
  O2-  O147  1  0.27358544  0.76359322  0.63243405  1
  O2-  O148  1  0.75686516  0.22300767  0.12169426  1
  O2-  O149  1  0.75928572  0.23136550  0.61987810  1
  O2-  O150  1  0.76182318  0.73720425  0.13742030  1
  O2-  O151  1  0.76171282  0.73712593  0.63107459  1
  O2-  O152  1  0.23117623  0.23348070  0.36066838  1
  O2-  O153  1  0.23675709  0.22659559  0.88771502  1
  O2-  O154  1  0.23677612  0.73904728  0.36057693  1
  O2-  O155  1  0.23240104  0.73577753  0.87071850  1
  O2-  O156  1  0.73069107  0.25719151  0.36950248  1
  O2-  O157  1  0.73456846  0.25426575  0.87672036  1
  O2-  O158  1  0.73318977  0.78900946  0.36351992  1
  O2-  O159  1  0.73756803  0.78447484  0.86230574  1
  O2-  O160  1  -0.00534375  0.21664045  0.11279366  1
  O2-  O161  1  -0.01049498  0.22474784  0.61412051  1
  O2-  O162  1  -0.01588403  0.72824826  0.11762244  1
  O2-  O163  1  -0.00897954  0.73010112  0.61409858  1
  O2-  O164  1  0.48203558  0.25277853  0.13053876  1
  O2-  O165  1  0.47749554  0.25636289  0.61143155  1
  O2-  O166  1  0.48198117  0.75945050  0.13112934  1
  O2-  O167  1  0.47234288  0.76180159  0.61167383  1
  O2-  O168  1  0.25683361  0.01838121  0.37081031  1
  O2-  O169  1  0.25918061  0.02879441  0.88864368  1
  O2-  O170  1  0.26982100  0.51791713  0.38362846  1
  O2-  O171  1  0.27223088  0.50947304  0.88977547  1
  O2-  O172  1  0.74869479  -0.00277035  0.37588988  1
  O2-  O173  1  0.74607650  -0.00833091  0.87852872  1
  O2-  O174  1  0.76166169  0.47179043  0.38708668  1
  O2-  O175  1  0.76342426  0.47269530  0.88628916  1
  O2-  O176  1  0.00036469  0.27294930  0.38185264  1
  O2-  O177  1  0.00835150  0.27956988  0.88575345  1
  O2-  O178  1  0.01527131  0.78248893  0.37950401  1
  O2-  O179  1  0.00440048  0.78187709  0.88164795  1
  O2-  O180  1  0.52429844  0.24339827  0.36701265  1
  O2-  O181  1  0.51703819  0.23025109  0.88929025  1
  O2-  O182  1  0.52405938  0.74121925  0.36685377  1
  O2-  O183  1  0.52460220  0.74319624  0.88684228  1
  O2-  O184  1  0.24561219  -0.01640704  0.13263341  1
  O2-  O185  1  0.24647793  -0.02156397  0.61534043  1
  O2-  O186  1  0.23737291  0.46164149  0.11700323  1
  O2-  O187  1  0.23824162  0.47055089  0.61718345  1
  O2-  O188  1  0.73623214  0.02134347  0.13060085  1
  O2-  O189  1  0.73689655  0.02028269  0.62564617  1
  O2-  O190  1  0.72444863  0.50574881  0.11698035  1
  O2-  O191  1  0.72853937  0.49426420  0.61492714  1
  O2-  O192  1  0.13867128  0.26802478  0.22449271  1
  O2-  O193  1  0.13509353  0.27039772  0.73787323  1
  O2-  O194  1  0.13695178  0.77729231  0.22196679  1
  O2-  O195  1  0.13497773  0.78049593  0.73576670  1
  O2-  O196  1  0.61865974  0.25647864  0.22812737  1
  O2-  O197  1  0.63561062  0.26471039  0.73077983  1
  O2-  O198  1  0.62146790  0.76903113  0.22992101  1
  O2-  O199  1  0.63271942  0.78347000  0.73072988  1
  O2-  O200  1  0.38351162  0.22474586  0.26270990  1
  O2-  O201  1  0.36610299  0.21701806  0.76690428  1
  O2-  O202  1  0.38519608  0.73369073  0.26797070  1
  O2-  O203  1  0.36996284  0.72538631  0.77035846  1
  O2-  O204  1  0.85994948  0.22039881  0.25925097  1
  O2-  O205  1  0.86311693  0.21660526  0.75942578  1
  O2-  O206  1  0.86420326  0.74153540  0.27128508  1
  O2-  O207  1  0.86313297  0.73596194  0.76225594  1
  O2-  O208  1  0.28267098  0.36168188  0.25998023  1
  O2-  O209  1  0.26950982  0.36104756  0.77939480  1
  O2-  O210  1  0.26609885  0.88001946  0.26831540  1
  O2-  O211  1  0.27996099  0.86773155  0.76906620  1
  O2-  O212  1  0.75643843  0.35786902  0.22837225  1
  O2-  O213  1  0.77419414  0.35987389  0.74349466  1
  O2-  O214  1  0.75884316  0.88834108  0.23153578  1
  O2-  O215  1  0.76888057  0.88725540  0.72995453  1
  O2-  O216  1  0.24128379  0.11923133  0.23599219  1
  O2-  O217  1  0.22431960  0.13224664  0.73351443  1
  O2-  O218  1  0.23430267  0.63520358  0.22496974  1
  O2-  O219  1  0.22870051  0.63260777  0.73363089  1
  O2-  O220  1  0.71728653  0.12309919  0.25872589  1
  O2-  O221  1  0.72324348  0.12277352  0.75761456  1
  O2-  O222  1  0.72236852  0.63662063  0.27411990  1
  O2-  O223  1  0.71629662  0.63373469  0.76624415  1
  O2-  O224  1  0.11755132  0.47619662  0.26784417  1
  O2-  O225  1  0.11528066  0.47544256  0.77542346  1
  O2-  O226  1  0.12672005  0.98245958  0.26184072  1
  O2-  O227  1  0.11733863  0.97103228  0.76337560  1
  O2-  O228  1  0.61321969  0.48420748  0.28441316  1
  O2-  O229  1  0.61548620  0.47382426  0.76399431  1
  O2-  O230  1  0.61930002  0.98488989  0.26072121  1
  O2-  O231  1  0.62829743  0.98046262  0.75581682  1
  O2-  O232  1  0.37675373  0.00920262  0.24593453  1
  O2-  O233  1  0.38804140  0.02634206  0.73574011  1
  O2-  O234  1  0.38872081  0.51744937  0.24216637  1
  O2-  O235  1  0.38361718  0.51638251  0.72224511  1
  O2-  O236  1  0.86633283  0.02625807  0.24651151  1
  O2-  O237  1  0.86379537  0.02594569  0.74913640  1
  O2-  O238  1  0.88050301  0.52615049  0.23232884  1
  O2-  O239  1  0.88169162  0.52736997  0.72394958  1
  O2-  O240  1  0.48442581  0.37118804  0.26013139  1
  O2-  O241  1  0.47486965  0.38198157  0.75868958  1
  O2-  O242  1  0.48851131  0.87442752  0.26367478  1
  O2-  O243  1  0.48712331  0.89004618  0.77579284  1
  O2-  O244  1  0.98051797  0.38302221  0.22552551  1
  O2-  O245  1  0.97875682  0.38491694  0.72413198  1
  O2-  O246  1  0.97960538  0.88798330  0.22587800  1
  O2-  O247  1  0.96981654  0.88579724  0.72670190  1
  O2-  O248  1  0.01955058  0.11742140  0.27413544  1
  O2-  O249  1  0.01681252  0.11584435  0.77013646  1
  O2-  O250  1  0.02245465  0.61809196  0.27369241  1
  O2-  O251  1  0.02057834  0.61888866  0.77398919  1
  O2-  O252  1  0.51242576  0.11812813  0.24247894  1
  O2-  O253  1  0.53151178  0.11302570  0.74364080  1
  O2-  O254  1  0.52179573  0.62469073  0.23719331  1
  O2-  O255  1  0.52758179  0.61535627  0.73524244  1
  O2-  O256  1  0.13570972  0.46992605  -0.01748056  1
  O2-  O257  1  0.13521918  0.47272742  0.47622587  1
  O2-  O258  1  0.13645313  0.97981465  -0.00379477  1
  O2-  O259  1  0.13455119  0.97781647  0.48438974  1
  O2-  O260  1  0.62992977  0.46592980  -0.01656196  1
  O2-  O261  1  0.62016485  0.48536725  0.48419065  1
  O2-  O262  1  0.61868906  0.98956646  0.00213251  1
  O2-  O263  1  0.61895221  0.98960258  0.49311689  1
  O2-  O264  1  0.38102230  0.02011251  0.01854511  1
  O2-  O265  1  0.38429413  0.02695372  0.51077832  1
  O2-  O266  1  0.36689958  0.51328060  0.02925365  1
  O2-  O267  1  0.38674567  0.52154610  0.52168284  1
  O2-  O268  1  0.85861227  0.03612965  0.00434248  1
  O2-  O269  1  0.86008816  0.03820427  0.50230256  1
  O2-  O270  1  0.86036628  0.51077731  0.01931518  1
  O2-  O271  1  0.86300207  0.52164095  0.51552867  1
  O2-  O272  1  0.47280033  0.35884324  -0.00402952  1
  O2-  O273  1  0.48770946  0.37765041  0.48662823  1
  O2-  O274  1  0.48159292  0.88347230  -0.00607110  1
  O2-  O275  1  0.48043560  0.88360193  0.48499812  1
  O2-  O276  1  0.97766011  0.36088236  0.02504714  1
  O2-  O277  1  0.96410223  0.36472420  0.51668623  1
  O2-  O278  1  0.97537152  0.86903850  0.02577139  1
  O2-  O279  1  0.97167883  0.86842459  0.51613291  1
  O2-  O280  1  0.01773715  0.13488981  -0.03220324  1
  O2-  O281  1  0.02054023  0.13691053  0.47592714  1
  O2-  O282  1  0.02425763  0.63498999  -0.02309525  1
  O2-  O283  1  0.02455384  0.63454301  0.47224679  1
  O2-  O284  1  0.51053195  0.12264126  0.02529808  1
  O2-  O285  1  0.52063507  0.12847538  0.50594276  1
  O2-  O286  1  0.52605150  0.63360743  0.02043579  1
  O2-  O287  1  0.52418626  0.62895299  0.50962100  1
  O2-  O288  1  0.13010712  0.26272891  0.01759611  1
  O2-  O289  1  0.11800452  0.28214097  0.51377951  1
  O2-  O290  1  0.11609332  0.77641714  0.01670015  1
  O2-  O291  1  0.12045429  0.77856142  0.51287379  1
  O2-  O292  1  0.61856531  0.26252836  0.02018479  1
  O2-  O293  1  0.62129352  0.26857554  0.50880245  1
  O2-  O294  1  0.61583583  0.77942420  0.02630442  1
  O2-  O295  1  0.61101247  0.78339472  0.50608733  1
  O2-  O296  1  0.37494679  0.21983310  -0.00784342  1
  O2-  O297  1  0.38968790  0.23358921  0.46770781  1
  O2-  O298  1  0.38808466  0.73360814  -0.01206213  1
  O2-  O299  1  0.38993733  0.73826850  0.46650966  1
  O2-  O300  1  0.86745788  0.22593754  -0.01385897  1
  O2-  O301  1  0.86176009  0.22839846  0.48076790  1
  O2-  O302  1  0.87976961  0.72573108  -0.01483422  1
  O2-  O303  1  0.88251543  0.73036247  0.47757494  1
  O2-  O304  1  0.27471256  0.35909905  -0.01095881  1
  O2-  O305  1  0.29121962  0.38606321  0.48754459  1
  O2-  O306  1  0.28146989  0.88933221  -0.00987591  1
  O2-  O307  1  0.28319958  0.88775334  0.48096976  1
  O2-  O308  1  0.76113022  0.35786055  0.01647480  1
  O2-  O309  1  0.75891219  0.36420498  0.51047816  1
  O2-  O310  1  0.76120293  0.89349437  0.02406553  1
  O2-  O311  1  0.76231562  0.89427442  0.51718297  1
  O2-  O312  1  0.23860154  0.12195573  0.02905475  1
  O2-  O313  1  0.23814798  0.11677341  0.51421005  1
  O2-  O314  1  0.22632213  0.61540844  0.02443548  1
  O2-  O315  1  0.23819447  0.61307103  0.52267247  1
  O2-  O316  1  0.71495235  0.12641761  -0.00840887  1
  O2-  O317  1  0.71546988  0.12872634  0.49245702  1
  O2-  O318  1  0.71763211  0.61704889  -0.01768002  1
  O2-  O319  1  0.72068386  0.61556348  0.48610301  1
