# generated using pymatgen
data_Sr64Ca21Nb43O192
_symmetry_space_group_name_H-M   'P 1'
_cell_length_a   16.58350034
_cell_length_b   16.57785314
_cell_length_c   16.75280459
_cell_angle_alpha   90.08452558
_cell_angle_beta   90.08069880
_cell_angle_gamma   89.95550828
_symmetry_Int_Tables_number   1
_chemical_formula_structural   Sr64Ca21Nb43O192
_chemical_formula_sum   'Sr64 Ca21 Nb43 O192'
_cell_volume   4605.65053045
_cell_formula_units_Z   1
loop_
 _symmetry_equiv_pos_site_id
 _symmetry_equiv_pos_as_xyz
  1  'x, y, z'
loop_
 _atom_type_symbol
 _atom_type_oxidation_number
  Sr2+  2.0
  Ca2+  2.0
  Nb5+  5.0
  O2-  -2.0
loop_
 _atom_site_type_symbol
 _atom_site_label
 _atom_site_symmetry_multiplicity
 _atom_site_fract_x
 _atom_site_fract_y
 _atom_site_fract_z
 _atom_site_occupancy
  Sr2+  Sr0  1  0.12943158  0.13304652  0.11961097  1
  Sr2+  Sr1  1  0.13929181  0.12020549  0.61557850  1
  Sr2+  Sr2  1  0.12845343  0.61752302  0.12572279  1
  Sr2+  Sr3  1  0.12440898  0.62270413  0.63940024  1
  Sr2+  Sr4  1  0.62839602  0.11430329  0.12294681  1
  Sr2+  Sr5  1  0.63824750  0.12219998  0.62964868  1
  Sr2+  Sr6  1  0.63450066  0.62041051  0.12858230  1
  Sr2+  Sr7  1  0.62835010  0.62408707  0.62306294  1
  Sr2+  Sr8  1  0.37679457  0.37802565  0.12138329  1
  Sr2+  Sr9  1  0.38352842  0.39340278  0.62657303  1
  Sr2+  Sr10  1  0.38743246  0.86386064  0.12131504  1
  Sr2+  Sr11  1  0.37861903  0.86595125  0.61979546  1
  Sr2+  Sr12  1  0.87195590  0.38403682  0.12582807  1
  Sr2+  Sr13  1  0.88043324  0.38718283  0.61709423  1
  Sr2+  Sr14  1  0.88056428  0.87766866  0.12335196  1
  Sr2+  Sr15  1  0.87508224  0.86214634  0.62484729  1
  Sr2+  Sr16  1  0.10860261  0.36735181  0.36988443  1
  Sr2+  Sr17  1  0.11384474  0.36576231  0.87295840  1
  Sr2+  Sr18  1  0.13400517  0.87804516  0.37062494  1
  Sr2+  Sr19  1  0.12003176  0.87520169  0.87089993  1
  Sr2+  Sr20  1  0.61536217  0.36916452  0.37580129  1
  Sr2+  Sr21  1  0.61125761  0.36580886  0.87216699  1
  Sr2+  Sr22  1  0.61806932  0.86485876  0.37441450  1
  Sr2+  Sr23  1  0.61482319  0.88301174  0.87598222  1
  Sr2+  Sr24  1  0.35742080  0.12513968  0.37210035  1
  Sr2+  Sr25  1  0.38088934  0.12582529  0.87904223  1
  Sr2+  Sr26  1  0.36566657  0.62334340  0.37172328  1
  Sr2+  Sr27  1  0.36526761  0.63553085  0.87859360  1
  Sr2+  Sr28  1  0.89769303  0.12614416  0.37942698  1
  Sr2+  Sr29  1  0.89710915  0.12176094  0.86905403  1
  Sr2+  Sr30  1  0.86645624  0.62284421  0.37855397  1
  Sr2+  Sr31  1  0.87725279  0.63275349  0.86374982  1
  Sr2+  Sr32  1  0.12518488  0.11862671  0.37381811  1
  Sr2+  Sr33  1  0.12413681  0.12097697  0.87611359  1
  Sr2+  Sr34  1  0.11922311  0.62566367  0.36097915  1
  Sr2+  Sr35  1  0.11370107  0.61313096  0.87512044  1
  Sr2+  Sr36  1  0.62119456  0.13058375  0.37222982  1
  Sr2+  Sr37  1  0.62489435  0.12001968  0.86509237  1
  Sr2+  Sr38  1  0.61485647  0.61958019  0.37313394  1
  Sr2+  Sr39  1  0.61663429  0.62665698  0.87558858  1
  Sr2+  Sr40  1  0.37319765  0.36667168  0.37496618  1
  Sr2+  Sr41  1  0.36920731  0.35914869  0.86868224  1
  Sr2+  Sr42  1  0.36656253  0.88464744  0.38137563  1
  Sr2+  Sr43  1  0.36956414  0.88691344  0.87216177  1
  Sr2+  Sr44  1  0.86601889  0.36346183  0.37667783  1
  Sr2+  Sr45  1  0.86550768  0.36579217  0.87787995  1
  Sr2+  Sr46  1  0.87298099  0.86110135  0.37374779  1
  Sr2+  Sr47  1  0.86929734  0.88195039  0.87513954  1
  Sr2+  Sr48  1  0.13485571  0.38038692  0.11728586  1
  Sr2+  Sr49  1  0.13731225  0.38718208  0.63620546  1
  Sr2+  Sr50  1  0.13160351  0.86274336  0.12356517  1
  Sr2+  Sr51  1  0.14409955  0.86554273  0.62313667  1
  Sr2+  Sr52  1  0.63753455  0.37506478  0.12112359  1
  Sr2+  Sr53  1  0.62527631  0.37565966  0.62706215  1
  Sr2+  Sr54  1  0.63740078  0.86991509  0.11746434  1
  Sr2+  Sr55  1  0.62991634  0.86904625  0.63042389  1
  Sr2+  Sr56  1  0.38153463  0.12865455  0.12871751  1
  Sr2+  Sr57  1  0.38003788  0.11959944  0.60896497  1
  Sr2+  Sr58  1  0.35301643  0.62406402  0.12155353  1
  Sr2+  Sr59  1  0.39869355  0.62694804  0.62478039  1
  Sr2+  Sr60  1  0.88983014  0.12082087  0.12725609  1
  Sr2+  Sr61  1  0.88201346  0.12866773  0.62050370  1
  Sr2+  Sr62  1  0.87841346  0.63288578  0.13083768  1
  Sr2+  Sr63  1  0.89035621  0.63139672  0.62394115  1
  Ca2+  Ca64  1  -0.00247732  -0.00461839  0.50500218  1
  Ca2+  Ca65  1  0.50131360  0.49606559  0.00389374  1
  Ca2+  Ca66  1  -0.00484632  0.49955095  0.00263994  1
  Ca2+  Ca67  1  0.00279376  0.50327095  0.49799893  1
  Ca2+  Ca68  1  0.50611866  0.00094059  0.49922767  1
  Ca2+  Ca69  1  0.75002363  0.74701183  -0.00267146  1
  Ca2+  Ca70  1  0.74982692  0.24560907  -0.00055679  1
  Ca2+  Ca71  1  0.24990932  0.74357577  0.49856497  1
  Ca2+  Ca72  1  0.25107565  0.25640348  0.49812944  1
  Ca2+  Ca73  1  0.24647078  0.75335136  -0.00222982  1
  Ca2+  Ca74  1  0.00017427  0.75016267  0.25017821  1
  Ca2+  Ca75  1  0.49740316  0.24783446  0.74454364  1
  Ca2+  Ca76  1  0.24877621  0.00140768  0.74949229  1
  Ca2+  Ca77  1  0.25494019  0.50256730  0.75121174  1
  Ca2+  Ca78  1  0.25013925  0.00181955  0.24238521  1
  Ca2+  Ca79  1  0.75167531  0.00365219  0.24992769  1
  Ca2+  Ca80  1  0.49976508  0.74612074  0.24642974  1
  Ca2+  Ca81  1  0.50240971  0.75080123  0.75416883  1
  Ca2+  Ca82  1  0.00141416  0.24808255  0.74464250  1
  Ca2+  Ca83  1  0.75044733  0.50046824  0.74869064  1
  Ca2+  Ca84  1  -0.00103138  0.25003765  0.24869325  1
  Nb5+  Nb85  1  0.50035294  0.50185348  0.49647655  1
  Nb5+  Nb86  1  0.50063999  -0.00274767  0.00261825  1
  Nb5+  Nb87  1  0.00571741  -0.00424792  0.00144144  1
  Nb5+  Nb88  1  0.74794320  0.74395993  0.50016955  1
  Nb5+  Nb89  1  0.74640085  0.24267656  0.49731735  1
  Nb5+  Nb90  1  0.24835498  0.24931945  -0.00213969  1
  Nb5+  Nb91  1  0.74197842  0.49766786  0.25502544  1
  Nb5+  Nb92  1  0.50104366  0.25184630  0.24913803  1
  Nb5+  Nb93  1  0.00335024  0.75363510  0.75020108  1
  Nb5+  Nb94  1  0.24532879  0.49688258  0.25247906  1
  Nb5+  Nb95  1  0.75239821  -0.00051784  0.74887225  1
  Nb5+  Nb96  1  0.00149310  -0.00167311  0.25329920  1
  Nb5+  Nb97  1  -0.00018475  -0.00609799  0.74435353  1
  Nb5+  Nb98  1  -0.01099949  0.49995451  0.25037443  1
  Nb5+  Nb99  1  -0.00439146  0.49353878  0.75361831  1
  Nb5+  Nb100  1  0.49978469  -0.00404226  0.25174267  1
  Nb5+  Nb101  1  0.49547673  -0.00070289  0.74718201  1
  Nb5+  Nb102  1  0.49558653  0.49905856  0.24720000  1
  Nb5+  Nb103  1  0.50006711  0.50357186  0.76161563  1
  Nb5+  Nb104  1  0.24528782  0.25437297  0.24831110  1
  Nb5+  Nb105  1  0.25143336  0.24701507  0.74050377  1
  Nb5+  Nb106  1  0.25451822  0.75478556  0.24848163  1
  Nb5+  Nb107  1  0.25574735  0.74849770  0.74943056  1
  Nb5+  Nb108  1  0.74874922  0.24720905  0.25098150  1
  Nb5+  Nb109  1  0.75284980  0.25348810  0.74891236  1
  Nb5+  Nb110  1  0.75167036  0.75173588  0.24874612  1
  Nb5+  Nb111  1  0.74958343  0.75179335  0.75336746  1
  Nb5+  Nb112  1  0.00692610  0.25475937  0.50699485  1
  Nb5+  Nb113  1  -0.00578000  0.25000188  0.99774911  1
  Nb5+  Nb114  1  0.00528167  0.75302926  0.49768318  1
  Nb5+  Nb115  1  0.00117270  0.74629544  1.00068493  1
  Nb5+  Nb116  1  0.50064413  0.25002031  0.50083798  1
  Nb5+  Nb117  1  0.50128206  0.24765155  1.00072101  1
  Nb5+  Nb118  1  0.49870357  0.75093975  0.49741237  1
  Nb5+  Nb119  1  0.50334627  0.74126093  1.00427764  1
  Nb5+  Nb120  1  0.25409278  -0.00001508  0.00395008  1
  Nb5+  Nb121  1  0.25100396  0.00021107  0.50029007  1
  Nb5+  Nb122  1  0.25381049  0.49637027  -0.00694604  1
  Nb5+  Nb123  1  0.24601211  0.49905063  0.49579950  1
  Nb5+  Nb124  1  0.75783439  0.00435160  -0.00147437  1
  Nb5+  Nb125  1  0.74809529  -0.00748298  0.49680938  1
  Nb5+  Nb126  1  0.75348084  0.49893698  -0.00740656  1
  Nb5+  Nb127  1  0.74765983  0.49453917  0.49973902  1
  O2-  O128  1  -0.02238569  -0.00884935  0.11686664  1
  O2-  O129  1  -0.03594032  -0.01642512  0.63766419  1
  O2-  O130  1  0.01291001  0.46772124  0.13812598  1
  O2-  O131  1  0.02129530  0.48561527  0.63538687  1
  O2-  O132  1  0.47259040  -0.00744444  0.11853048  1
  O2-  O133  1  0.47883917  -0.02043100  0.63582653  1
  O2-  O134  1  0.52210609  0.47070807  0.13899957  1
  O2-  O135  1  0.51966622  0.48517800  0.61156403  1
  O2-  O136  1  0.01730787  0.00926017  0.36791030  1
  O2-  O137  1  0.01420681  0.00723733  0.87926757  1
  O2-  O138  1  -0.00702907  0.53576517  0.36441732  1
  O2-  O139  1  -0.01600070  0.52696105  0.86725591  1
  O2-  O140  1  0.52899660  0.01031263  0.36243855  1
  O2-  O141  1  0.51148841  0.02291063  0.88559393  1
  O2-  O142  1  0.48783471  0.51918229  0.37336580  1
  O2-  O143  1  0.48151881  0.53052044  0.87044025  1
  O2-  O144  1  0.26423260  0.23674387  0.12710563  1
  O2-  O145  1  0.26655026  0.22122521  0.63084619  1
  O2-  O146  1  0.22721131  0.72965054  0.13287941  1
  O2-  O147  1  0.22880863  0.73079457  0.63381643  1
  O2-  O148  1  0.76438617  0.24668326  0.13757287  1
  O2-  O149  1  0.75952300  0.23439532  0.61532050  1
  O2-  O150  1  0.74809969  0.72984844  0.13559044  1
  O2-  O151  1  0.74238395  0.74546295  0.62143453  1
  O2-  O152  1  0.23814069  0.28007594  0.36248997  1
  O2-  O153  1  0.23654083  0.27369249  0.88544669  1
  O2-  O154  1  0.27042867  0.76852076  0.36551203  1
  O2-  O155  1  0.26138192  0.77970275  0.86511898  1
  O2-  O156  1  0.72583651  0.26242646  0.37761489  1
  O2-  O157  1  0.73324632  0.26958205  0.86190448  1
  O2-  O158  1  0.75381405  0.76427523  0.38253612  1
  O2-  O159  1  0.77226308  0.76254021  0.86450318  1
  O2-  O160  1  -0.02347264  0.25688337  0.11419068  1
  O2-  O161  1  -0.03723262  0.26517735  0.61521565  1
  O2-  O162  1  -0.00347795  0.77116057  0.11423168  1
  O2-  O163  1  0.00467738  0.77285297  0.63170030  1
  O2-  O164  1  0.48175875  0.26360051  0.13179276  1
  O2-  O165  1  0.48198104  0.27750643  0.61114147  1
  O2-  O166  1  0.51532064  0.78297147  0.11579656  1
  O2-  O167  1  0.51139491  0.76475040  0.61640840  1
  O2-  O168  1  0.24152021  -0.01740314  0.37916724  1
  O2-  O169  1  0.22800902  -0.01505157  0.88928298  1
  O2-  O170  1  0.28035459  0.48504663  0.36529045  1
  O2-  O171  1  0.28182531  0.48180310  0.88402674  1
  O2-  O172  1  0.72182022  -0.01709664  0.38619822  1
  O2-  O173  1  0.73525728  -0.01973783  0.87634415  1
  O2-  O174  1  0.77159912  0.49389125  0.37568601  1
  O2-  O175  1  0.78598016  0.49880941  0.88341773  1
  O2-  O176  1  0.02020507  0.23047100  0.38783760  1
  O2-  O177  1  0.02136075  0.22976561  0.88250364  1
  O2-  O178  1  -0.00755997  0.73014553  0.38691681  1
  O2-  O179  1  -0.00421359  0.73773172  0.87140997  1
  O2-  O180  1  0.51993820  0.24386473  0.37356349  1
  O2-  O181  1  0.51481912  0.22900343  0.88709290  1
  O2-  O182  1  0.50473556  0.72786761  0.38288336  1
  O2-  O183  1  0.48978430  0.72358612  0.88678849  1
  O2-  O184  1  0.25246632  0.04207311  0.11292586  1
  O2-  O185  1  0.26445479  0.02626308  0.61662319  1
  O2-  O186  1  0.23351641  0.50975352  0.13195743  1
  O2-  O187  1  0.23068173  0.51575829  0.60951691  1
  O2-  O188  1  0.76549127  0.02490314  0.11343598  1
  O2-  O189  1  0.76907378  0.01463290  0.63437157  1
  O2-  O190  1  0.72734063  0.50015969  0.13854821  1
  O2-  O191  1  0.72013872  0.50285345  0.61161609  1
  O2-  O192  1  0.13362996  0.27531414  0.22853469  1
  O2-  O193  1  0.13506092  0.27970621  0.74060016  1
  O2-  O194  1  0.13495379  0.75898881  0.27073876  1
  O2-  O195  1  0.11941078  0.77328350  0.75629680  1
  O2-  O196  1  0.62087038  0.27855962  0.23926478  1
  O2-  O197  1  0.63541118  0.25855053  0.72505089  1
  O2-  O198  1  0.63565621  0.76452918  0.26327011  1
  O2-  O199  1  0.63708254  0.77881253  0.75969419  1
  O2-  O200  1  0.38031399  0.24195226  0.26557163  1
  O2-  O201  1  0.36395521  0.23301987  0.77819916  1
  O2-  O202  1  0.36702998  0.71917891  0.23451799  1
  O2-  O203  1  0.36827554  0.72288643  0.73937844  1
  O2-  O204  1  0.86114705  0.23601153  0.27834951  1
  O2-  O205  1  0.86385721  0.21622431  0.75737830  1
  O2-  O206  1  0.86523991  0.72195465  0.26396397  1
  O2-  O207  1  0.87627368  0.73784006  0.73603122  1
  O2-  O208  1  0.27102627  0.37863193  0.22979411  1
  O2-  O209  1  0.27382861  0.36705878  0.72815853  1
  O2-  O210  1  0.27357107  0.86657989  0.22575465  1
  O2-  O211  1  0.27022126  0.86660747  0.72339315  1
  O2-  O212  1  0.76443738  0.37715511  0.24953322  1
  O2-  O213  1  0.77865249  0.36436191  0.72964975  1
  O2-  O214  1  0.77215246  0.86568539  0.23777996  1
  O2-  O215  1  0.76844404  0.87720248  0.73346088  1
  O2-  O216  1  0.23551222  0.14001941  0.26941960  1
  O2-  O217  1  0.22070610  0.13537271  0.76813059  1
  O2-  O218  1  0.23931920  0.61574663  0.26418570  1
  O2-  O219  1  0.22623846  0.63588753  0.77871916  1
  O2-  O220  1  0.71505570  0.13714955  0.25793764  1
  O2-  O221  1  0.73118327  0.11739886  0.75972563  1
  O2-  O222  1  0.73327546  0.61780069  0.26588596  1
  O2-  O223  1  0.72980214  0.63717366  0.75729535  1
  O2-  O224  1  0.13116716  0.48412412  0.26985167  1
  O2-  O225  1  0.11658350  0.48633588  0.77064224  1
  O2-  O226  1  0.11463841  0.96441197  0.23327674  1
  O2-  O227  1  0.11167792  0.97001196  0.73186621  1
  O2-  O228  1  0.62868933  0.48234339  0.27623111  1
  O2-  O229  1  0.61724991  0.47602556  0.76895588  1
  O2-  O230  1  0.61161611  0.98716821  0.21272478  1
  O2-  O231  1  0.62996746  0.98106949  0.74296301  1
  O2-  O232  1  0.38767355  0.03441598  0.25621553  1
  O2-  O233  1  0.38406881  0.01710507  0.77404461  1
  O2-  O234  1  0.38113032  0.51380836  0.23137633  1
  O2-  O235  1  0.38896094  0.51632419  0.72000005  1
  O2-  O236  1  0.88493629  0.03602483  0.25702799  1
  O2-  O237  1  0.87007511  0.00669091  0.77702599  1
  O2-  O238  1  0.87283168  0.51223862  0.23584128  1
  O2-  O239  1  0.88405174  0.52304365  0.72397607  1
  O2-  O240  1  0.48731604  0.37656726  0.27285169  1
  O2-  O241  1  0.48275968  0.38347045  0.76944535  1
  O2-  O242  1  0.47351263  0.88498379  0.26480051  1
  O2-  O243  1  0.49164800  0.88573652  0.78180099  1
  O2-  O244  1  0.98469473  0.38521747  0.28247054  1
  O2-  O245  1  0.97424349  0.38199284  0.77242561  1
  O2-  O246  1  0.96420168  0.88453475  0.25692194  1
  O2-  O247  1  0.97821046  0.87298686  0.77259941  1
  O2-  O248  1  0.02942897  0.11489800  0.23129506  1
  O2-  O249  1  0.01275390  0.10938207  0.74018592  1
  O2-  O250  1  0.01550610  0.61413211  0.22018841  1
  O2-  O251  1  0.01408652  0.63491486  0.73917470  1
  O2-  O252  1  0.52144254  0.13640360  0.23823009  1
  O2-  O253  1  0.52415505  0.11326043  0.73568781  1
  O2-  O254  1  0.52837198  0.60994862  0.23724439  1
  O2-  O255  1  0.52829560  0.61575957  0.73024398  1
  O2-  O256  1  0.13604997  0.47627686  -0.01270209  1
  O2-  O257  1  0.13750222  0.47132342  0.47358321  1
  O2-  O258  1  0.11936044  0.98164843  0.01815729  1
  O2-  O259  1  0.13297002  0.98153403  0.51849570  1
  O2-  O260  1  0.63692070  0.46431088  -0.01683325  1
  O2-  O261  1  0.62729582  0.49215575  0.47057775  1
  O2-  O262  1  0.61513027  0.98289995  0.01682659  1
  O2-  O263  1  0.63814884  0.99100435  0.53907713  1
  O2-  O264  1  0.36809961  0.01600905  -0.01657671  1
  O2-  O265  1  0.37148079  0.02359655  0.48402687  1
  O2-  O266  1  0.36608110  0.50496429  0.03160965  1
  O2-  O267  1  0.38572918  0.52446635  0.51050046  1
  O2-  O268  1  0.87184748  0.01891283  -0.02011795  1
  O2-  O269  1  0.85834126  0.02996810  0.48970088  1
  O2-  O270  1  0.86236983  0.52087371  0.03800750  1
  O2-  O271  1  0.86116756  0.52080721  0.51631856  1
  O2-  O272  1  0.47426546  0.36014159  -0.01495956  1
  O2-  O273  1  0.49083168  0.38280350  0.47784177  1
  O2-  O274  1  0.47562568  0.88508978  -0.01830482  1
  O2-  O275  1  0.48628265  0.86603500  0.47778234  1
  O2-  O276  1  0.98338359  0.36368031  -0.02343108  1
  O2-  O277  1  0.97554654  0.36758310  0.48084703  1
  O2-  O278  1  0.97244736  0.88128377  -0.01350883  1
  O2-  O279  1  0.96228024  0.86340577  0.49364546  1
  O2-  O280  1  0.01362674  0.11763781  0.01153798  1
  O2-  O281  1  0.00818098  0.13429930  0.52302572  1
  O2-  O282  1  0.03298631  0.63505306  0.01120405  1
  O2-  O283  1  0.01538138  0.63973787  0.53222144  1
  O2-  O284  1  0.50006444  0.12563074  0.02412493  1
  O2-  O285  1  0.52388255  0.13848540  0.52007758  1
  O2-  O286  1  0.52416332  0.63123131  0.02805315  1
  O2-  O287  1  0.52609784  0.62311223  0.51186959  1
  O2-  O288  1  0.12595202  0.25973436  0.02005459  1
  O2-  O289  1  0.11683157  0.27551381  0.53144723  1
  O2-  O290  1  0.11307161  0.78528155  -0.01181311  1
  O2-  O291  1  0.11602164  0.78236066  0.49139736  1
  O2-  O292  1  0.61287493  0.26251210  0.02224212  1
  O2-  O293  1  0.62523012  0.27632964  0.50966838  1
  O2-  O294  1  0.61599845  0.77664918  -0.01718859  1
  O2-  O295  1  0.63018470  0.77214590  0.49677098  1
  O2-  O296  1  0.36809344  0.23135014  -0.00712042  1
  O2-  O297  1  0.38792294  0.23287731  0.47626539  1
  O2-  O298  1  0.38333463  0.73689151  0.01747459  1
  O2-  O299  1  0.38630039  0.72829465  0.51131133  1
  O2-  O300  1  0.88273069  0.22313819  -0.02163950  1
  O2-  O301  1  0.86130181  0.23703328  0.47717936  1
  O2-  O302  1  0.88514704  0.72152102  -0.00309557  1
  O2-  O303  1  0.86681119  0.72989424  0.50638374  1
  O2-  O304  1  0.26212976  0.36958351  0.02108066  1
  O2-  O305  1  0.28826427  0.38898834  0.50866985  1
  O2-  O306  1  0.26396868  0.88935585  0.03321133  1
  O2-  O307  1  0.27491022  0.88258199  0.51572196  1
  O2-  O308  1  0.77764092  0.38045334  0.01106461  1
  O2-  O309  1  0.76277227  0.37789255  0.50513445  1
  O2-  O310  1  0.76182971  0.88646887  0.01945683  1
  O2-  O311  1  0.76855681  0.87751584  0.51214290  1
  O2-  O312  1  0.23008738  0.13118614  -0.01830352  1
  O2-  O313  1  0.22810499  0.12077783  0.47988757  1
  O2-  O314  1  0.23949150  0.61320313  -0.01527028  1
  O2-  O315  1  0.23908410  0.61198468  0.46172331  1
  O2-  O316  1  0.71501507  0.11308707  -0.01636954  1
  O2-  O317  1  0.72190493  0.12912707  0.48960615  1
  O2-  O318  1  0.71528589  0.61213257  -0.00480378  1
  O2-  O319  1  0.72889526  0.62868198  0.48809992  1
