# generated using pymatgen
data_Sr64Ca21Nb43O192
_symmetry_space_group_name_H-M   'P 1'
_cell_length_a   16.58135097
_cell_length_b   16.57722334
_cell_length_c   16.72719786
_cell_angle_alpha   89.99638053
_cell_angle_beta   90.01742801
_cell_angle_gamma   90.00165231
_symmetry_Int_Tables_number   1
_chemical_formula_structural   Sr64Ca21Nb43O192
_chemical_formula_sum   'Sr64 Ca21 Nb43 O192'
_cell_volume   4597.85078805
_cell_formula_units_Z   1
loop_
 _symmetry_equiv_pos_site_id
 _symmetry_equiv_pos_as_xyz
  1  'x, y, z'
loop_
 _atom_type_symbol
 _atom_type_oxidation_number
  Sr2+  2.0
  Ca2+  2.0
  Nb5+  5.0
  O2-  -2.0
loop_
 _atom_site_type_symbol
 _atom_site_label
 _atom_site_symmetry_multiplicity
 _atom_site_fract_x
 _atom_site_fract_y
 _atom_site_fract_z
 _atom_site_occupancy
  Sr2+  Sr0  1  0.13078551  0.12780795  0.12212107  1
  Sr2+  Sr1  1  0.13011568  0.12680973  0.62474440  1
  Sr2+  Sr2  1  0.10990879  0.62195446  0.12601669  1
  Sr2+  Sr3  1  0.12340351  0.62910591  0.62748276  1
  Sr2+  Sr4  1  0.62763012  0.14575069  0.12129376  1
  Sr2+  Sr5  1  0.62768244  0.13340740  0.62587656  1
  Sr2+  Sr6  1  0.62738710  0.62628141  0.12752657  1
  Sr2+  Sr7  1  0.62874575  0.61989338  0.62667154  1
  Sr2+  Sr8  1  0.37915971  0.37200805  0.12507421  1
  Sr2+  Sr9  1  0.37309880  0.36581182  0.62048710  1
  Sr2+  Sr10  1  0.36543561  0.87415717  0.13652316  1
  Sr2+  Sr11  1  0.38056411  0.86326284  0.63093639  1
  Sr2+  Sr12  1  0.86820625  0.36603852  0.12964107  1
  Sr2+  Sr13  1  0.87778274  0.37073038  0.62812394  1
  Sr2+  Sr14  1  0.87281221  0.86811945  0.12533438  1
  Sr2+  Sr15  1  0.87428247  0.88265408  0.62302964  1
  Sr2+  Sr16  1  0.11298561  0.38113181  0.38598329  1
  Sr2+  Sr17  1  0.11010246  0.37785040  0.87972402  1
  Sr2+  Sr18  1  0.12232693  0.88652004  0.36681929  1
  Sr2+  Sr19  1  0.13096045  0.88476476  0.87020919  1
  Sr2+  Sr20  1  0.62108827  0.38571477  0.37983457  1
  Sr2+  Sr21  1  0.61566484  0.38540702  0.87475072  1
  Sr2+  Sr22  1  0.61079790  0.88029070  0.37390780  1
  Sr2+  Sr23  1  0.62104780  0.87799272  0.88048714  1
  Sr2+  Sr24  1  0.36414736  0.12459534  0.37681050  1
  Sr2+  Sr25  1  0.36626137  0.12645176  0.87958478  1
  Sr2+  Sr26  1  0.37846526  0.63367724  0.37714893  1
  Sr2+  Sr27  1  0.36831875  0.63117860  0.87354344  1
  Sr2+  Sr28  1  0.88108790  0.13375207  0.37178163  1
  Sr2+  Sr29  1  0.88719456  0.13426163  0.86255899  1
  Sr2+  Sr30  1  0.88464131  0.62913826  0.38158064  1
  Sr2+  Sr31  1  0.88000730  0.63161603  0.86949621  1
  Sr2+  Sr32  1  0.12056406  0.13314459  0.37901220  1
  Sr2+  Sr33  1  0.11973773  0.13807158  0.87719872  1
  Sr2+  Sr34  1  0.12038719  0.63092620  0.37859666  1
  Sr2+  Sr35  1  0.11755018  0.63569505  0.86614367  1
  Sr2+  Sr36  1  0.61888800  0.13196307  0.38321025  1
  Sr2+  Sr37  1  0.61906640  0.13855266  0.87377063  1
  Sr2+  Sr38  1  0.62677670  0.63561218  0.38247565  1
  Sr2+  Sr39  1  0.62343455  0.63472837  0.87810551  1
  Sr2+  Sr40  1  0.36025153  0.39183537  0.37374076  1
  Sr2+  Sr41  1  0.36775208  0.39028677  0.87519786  1
  Sr2+  Sr42  1  0.37491161  0.89556151  0.37634189  1
  Sr2+  Sr43  1  0.36751875  0.88303031  0.87193949  1
  Sr2+  Sr44  1  0.87276045  0.38534008  0.38057901  1
  Sr2+  Sr45  1  0.87872516  0.38373876  0.87583702  1
  Sr2+  Sr46  1  0.88264229  0.89161903  0.37043228  1
  Sr2+  Sr47  1  0.87813171  0.88738174  0.87250509  1
  Sr2+  Sr48  1  0.13985682  0.36536932  0.12938933  1
  Sr2+  Sr49  1  0.13700312  0.36484248  0.62717139  1
  Sr2+  Sr50  1  0.10931257  0.86833815  0.12405817  1
  Sr2+  Sr51  1  0.13868230  0.86226321  0.62395667  1
  Sr2+  Sr52  1  0.62314206  0.37728301  0.13225857  1
  Sr2+  Sr53  1  0.62479868  0.36900512  0.62543513  1
  Sr2+  Sr54  1  0.63022904  0.86736361  0.11900929  1
  Sr2+  Sr55  1  0.63560792  0.87898921  0.62171755  1
  Sr2+  Sr56  1  0.38309396  0.12203826  0.12328106  1
  Sr2+  Sr57  1  0.38727527  0.12107586  0.62295130  1
  Sr2+  Sr58  1  0.36835814  0.61415769  0.13057968  1
  Sr2+  Sr59  1  0.35834881  0.62455568  0.61899848  1
  Sr2+  Sr60  1  0.87306389  0.11362037  0.13587510  1
  Sr2+  Sr61  1  0.86393542  0.11652773  0.62718104  1
  Sr2+  Sr62  1  0.86331965  0.62172368  0.12767604  1
  Sr2+  Sr63  1  0.87387244  0.61937122  0.62947448  1
  Ca2+  Ca64  1  -0.00493345  0.50097741  0.00273814  1
  Ca2+  Ca65  1  -0.00040981  0.50097954  0.50371674  1
  Ca2+  Ca66  1  -0.00219338  0.00037405  -0.00051970  1
  Ca2+  Ca67  1  0.49748838  0.50052624  0.49990746  1
  Ca2+  Ca68  1  0.00041670  0.00055292  0.50253654  1
  Ca2+  Ca69  1  0.75104952  0.25053632  0.49943907  1
  Ca2+  Ca70  1  0.24976169  0.75258434  0.00386223  1
  Ca2+  Ca71  1  0.75211419  0.25051107  -0.00250507  1
  Ca2+  Ca72  1  0.75353434  0.74962844  0.50016378  1
  Ca2+  Ca73  1  0.24946764  0.75208339  0.49297735  1
  Ca2+  Ca74  1  0.24984488  0.49739930  0.74811710  1
  Ca2+  Ca75  1  0.00337657  0.25467066  0.24753712  1
  Ca2+  Ca76  1  0.24743589  0.00283988  0.24824967  1
  Ca2+  Ca77  1  0.50179716  0.74642109  0.75243079  1
  Ca2+  Ca78  1  -0.00302499  0.75497694  0.74834264  1
  Ca2+  Ca79  1  0.25127112  0.00513526  0.74674859  1
  Ca2+  Ca80  1  0.74569253  -0.00209749  0.24818386  1
  Ca2+  Ca81  1  0.24630255  0.50135363  0.24733404  1
  Ca2+  Ca82  1  0.00247190  0.25175807  0.74695523  1
  Ca2+  Ca83  1  0.49826029  0.25045617  0.25447252  1
  Ca2+  Ca84  1  0.49776934  0.24959435  0.75268818  1
  Nb5+  Nb85  1  0.50158660  0.51020252  0.00059282  1
  Nb5+  Nb86  1  0.50005046  -0.00158821  0.50933788  1
  Nb5+  Nb87  1  0.50244439  0.00327550  0.00719946  1
  Nb5+  Nb88  1  0.25136266  0.24860548  0.50300185  1
  Nb5+  Nb89  1  0.25355647  0.25095991  0.00284170  1
  Nb5+  Nb90  1  0.75170222  0.74847282  -0.00161063  1
  Nb5+  Nb91  1  0.49343766  0.74976754  0.24831474  1
  Nb5+  Nb92  1  0.74909360  0.50301993  0.25697817  1
  Nb5+  Nb93  1  0.74522961  0.50485580  0.75825429  1
  Nb5+  Nb94  1  0.74397387  0.00601554  0.75374604  1
  Nb5+  Nb95  1  -0.00847509  0.74859180  0.25072805  1
  Nb5+  Nb96  1  0.00153562  0.00541486  0.24604511  1
  Nb5+  Nb97  1  0.00419163  -0.00407339  0.74516410  1
  Nb5+  Nb98  1  -0.00111937  0.49809382  0.24671547  1
  Nb5+  Nb99  1  0.00291907  0.49684974  0.74667493  1
  Nb5+  Nb100  1  0.50602490  0.00392594  0.25233243  1
  Nb5+  Nb101  1  0.50158898  0.00007478  0.76199634  1
  Nb5+  Nb102  1  0.50083297  0.50519422  0.25381539  1
  Nb5+  Nb103  1  0.49702430  0.49964848  0.74765279  1
  Nb5+  Nb104  1  0.25328924  0.25125175  0.25901747  1
  Nb5+  Nb105  1  0.25467650  0.25040197  0.75944732  1
  Nb5+  Nb106  1  0.23782077  0.75092817  0.24875066  1
  Nb5+  Nb107  1  0.25144154  0.74911938  0.75092290  1
  Nb5+  Nb108  1  0.74857092  0.24894449  0.25193949  1
  Nb5+  Nb109  1  0.75261492  0.25995565  0.75327018  1
  Nb5+  Nb110  1  0.74715459  0.74999778  0.25300969  1
  Nb5+  Nb111  1  0.74706222  0.75553012  0.74931940  1
  Nb5+  Nb112  1  -0.00224326  0.24463206  0.50276691  1
  Nb5+  Nb113  1  -0.00538976  0.24654110  1.00620317  1
  Nb5+  Nb114  1  0.00215310  0.75391742  0.50407835  1
  Nb5+  Nb115  1  0.00050111  0.75348640  0.99548161  1
  Nb5+  Nb116  1  0.49796085  0.25324075  0.49339463  1
  Nb5+  Nb117  1  0.49898031  0.26008520  0.99620888  1
  Nb5+  Nb118  1  0.50624304  0.75049891  0.50547913  1
  Nb5+  Nb119  1  0.49620594  0.75304518  1.00308247  1
  Nb5+  Nb120  1  0.24989779  -0.00413643  0.00205049  1
  Nb5+  Nb121  1  0.24903224  -0.00293914  0.50309277  1
  Nb5+  Nb122  1  0.24268160  0.50009362  0.00304934  1
  Nb5+  Nb123  1  0.24591502  0.50213506  0.50017842  1
  Nb5+  Nb124  1  0.74863955  0.00387678  -0.00405829  1
  Nb5+  Nb125  1  0.74757909  0.00093771  0.49207081  1
  Nb5+  Nb126  1  0.74982098  0.49986912  0.00339178  1
  Nb5+  Nb127  1  0.74975666  0.49941218  0.51064950  1
  O2-  O128  1  -0.03221663  -0.00850318  0.13293968  1
  O2-  O129  1  -0.03652080  0.00574352  0.63371397  1
  O2-  O130  1  -0.03332917  0.51701931  0.13492476  1
  O2-  O131  1  -0.03684084  0.49985268  0.63449181  1
  O2-  O132  1  0.48221128  -0.01465888  0.12072744  1
  O2-  O133  1  0.48422431  -0.01667707  0.62290692  1
  O2-  O134  1  0.48807547  0.49334321  0.12163891  1
  O2-  O135  1  0.48433520  0.47835445  0.63562395  1
  O2-  O136  1  0.01861011  -0.00259467  0.36493527  1
  O2-  O137  1  0.01526837  -0.01502780  0.86497228  1
  O2-  O138  1  0.01341048  0.50674842  0.36366767  1
  O2-  O139  1  0.01234500  0.50004548  0.86642898  1
  O2-  O140  1  0.51997426  0.00757742  0.36978644  1
  O2-  O141  1  0.52418077  0.00831224  0.87674187  1
  O2-  O142  1  0.52816200  0.51712503  0.36433289  1
  O2-  O143  1  0.52283363  0.51338621  0.88474570  1
  O2-  O144  1  0.23751778  0.24515536  0.11818552  1
  O2-  O145  1  0.23665868  0.24576874  0.61895471  1
  O2-  O146  1  0.23573069  0.78295115  0.13433204  1
  O2-  O147  1  0.23237841  0.74428562  0.63016772  1
  O2-  O148  1  0.72433364  0.26496722  0.13285980  1
  O2-  O149  1  0.72324875  0.25280110  0.63641189  1
  O2-  O150  1  0.73760560  0.75212131  0.12374213  1
  O2-  O151  1  0.72009426  0.74895959  0.63800809  1
  O2-  O152  1  0.27473171  0.25289718  0.37382074  1
  O2-  O153  1  0.27779904  0.25327424  0.87464356  1
  O2-  O154  1  0.25650704  0.71649310  0.36075091  1
  O2-  O155  1  0.27622645  0.75192462  0.86940169  1
  O2-  O156  1  0.78412089  0.25469570  0.36469741  1
  O2-  O157  1  0.78700859  0.24868402  0.86617681  1
  O2-  O158  1  0.76655080  0.72925894  0.36352300  1
  O2-  O159  1  0.76822255  0.74036458  0.88198710  1
  O2-  O160  1  0.03919091  0.25639247  0.11443036  1
  O2-  O161  1  0.03320471  0.25698732  0.61491698  1
  O2-  O162  1  0.01269489  0.74907840  0.12838231  1
  O2-  O163  1  0.02803724  0.75788674  0.61619135  1
  O2-  O164  1  0.51662106  0.26134190  0.11439936  1
  O2-  O165  1  0.51170915  0.26183260  0.61286832  1
  O2-  O166  1  0.52293819  0.76043386  0.12783631  1
  O2-  O167  1  0.52119431  0.77392284  0.61628817  1
  O2-  O168  1  0.24285426  0.00127868  0.38490614  1
  O2-  O169  1  0.24102723  -0.00516096  0.88314195  1
  O2-  O170  1  0.22377630  0.48782877  0.38159449  1
  O2-  O171  1  0.24546681  0.48691289  0.88642656  1
  O2-  O172  1  0.72152128  -0.00752380  0.38201833  1
  O2-  O173  1  0.72372104  -0.01140702  0.87364843  1
  O2-  O174  1  0.72667006  0.50204257  0.36977203  1
  O2-  O175  1  0.72312418  0.50072328  0.87415557  1
  O2-  O176  1  -0.00435061  0.23256000  0.38194509  1
  O2-  O177  1  -0.00447183  0.24704430  0.88609083  1
  O2-  O178  1  -0.01730546  0.74732252  0.36819854  1
  O2-  O179  1  -0.02550185  0.75034079  0.88381838  1
  O2-  O180  1  0.48624976  0.20973899  0.38458305  1
  O2-  O181  1  0.48252209  0.22089621  0.88721132  1
  O2-  O182  1  0.49308060  0.73542288  0.36504162  1
  O2-  O183  1  0.48620958  0.72887402  0.89100491  1
  O2-  O184  1  0.27906311  0.01463634  0.11484515  1
  O2-  O185  1  0.27366581  0.02431669  0.61424534  1
  O2-  O186  1  0.28035130  0.48837448  0.11303293  1
  O2-  O187  1  0.28066648  0.49295997  0.61388746  1
  O2-  O188  1  0.76678456  -0.00613596  0.11022025  1
  O2-  O189  1  0.75514279  0.00154726  0.63419629  1
  O2-  O190  1  0.76194708  0.50040436  0.12024221  1
  O2-  O191  1  0.76291284  0.50305999  0.62830189  1
  O2-  O192  1  0.13923293  0.28905007  0.26527110  1
  O2-  O193  1  0.13889804  0.28398922  0.76621594  1
  O2-  O194  1  0.12179148  0.76781121  0.26339833  1
  O2-  O195  1  0.13312941  0.77409749  0.77259622  1
  O2-  O196  1  0.63465325  0.27685634  0.27637394  1
  O2-  O197  1  0.63655864  0.26390911  0.78079565  1
  O2-  O198  1  0.63062881  0.76393038  0.26204588  1
  O2-  O199  1  0.63555292  0.75998712  0.78735193  1
  O2-  O200  1  0.36613370  0.21816003  0.23304031  1
  O2-  O201  1  0.36584439  0.21800767  0.73093777  1
  O2-  O202  1  0.38084816  0.73169642  0.23109386  1
  O2-  O203  1  0.36900663  0.72178845  0.72943241  1
  O2-  O204  1  0.86584141  0.23794192  0.21957563  1
  O2-  O205  1  0.86452472  0.22817692  0.72275150  1
  O2-  O206  1  0.87639171  0.72895044  0.23227013  1
  O2-  O207  1  0.85929799  0.72149047  0.73962107  1
  O2-  O208  1  0.28387761  0.36633148  0.23951196  1
  O2-  O209  1  0.28469010  0.36460480  0.74057274  1
  O2-  O210  1  0.27254175  0.86313951  0.27138451  1
  O2-  O211  1  0.27535975  0.86837501  0.74071162  1
  O2-  O212  1  0.76709858  0.38702974  0.24765342  1
  O2-  O213  1  0.77001995  0.37672602  0.74998502  1
  O2-  O214  1  0.77624154  0.86162832  0.25189779  1
  O2-  O215  1  0.76682812  0.87063281  0.75161007  1
  O2-  O216  1  0.21587638  0.13789576  0.25427628  1
  O2-  O217  1  0.21561515  0.13734737  0.75710874  1
  O2-  O218  1  0.23425666  0.63620670  0.21418098  1
  O2-  O219  1  0.22183554  0.63072845  0.75456551  1
  O2-  O220  1  0.72674249  0.13473268  0.24771775  1
  O2-  O221  1  0.72567363  0.12050096  0.75609997  1
  O2-  O222  1  0.73583927  0.62436795  0.23449976  1
  O2-  O223  1  0.72589475  0.61948365  0.75086237  1
  O2-  O224  1  0.11064139  0.48594522  0.21813227  1
  O2-  O225  1  0.11401340  0.47623156  0.72628682  1
  O2-  O226  1  0.11471375  0.97152553  0.22798073  1
  O2-  O227  1  0.11452291  0.97518508  0.72095065  1
  O2-  O228  1  0.62774197  0.49308112  0.22878846  1
  O2-  O229  1  0.63062754  0.47257354  0.73508489  1
  O2-  O230  1  0.61358781  0.96092107  0.23258267  1
  O2-  O231  1  0.62565716  0.97045330  0.74022812  1
  O2-  O232  1  0.38812425  0.01232555  0.26269589  1
  O2-  O233  1  0.38836201  0.02376526  0.76905673  1
  O2-  O234  1  0.38706321  0.52937929  0.26419991  1
  O2-  O235  1  0.38720649  0.52454653  0.77134868  1
  O2-  O236  1  0.88141978  0.01960794  0.27287657  1
  O2-  O237  1  0.85921916  0.01617480  0.77206559  1
  O2-  O238  1  0.86529207  0.52593063  0.26868368  1
  O2-  O239  1  0.86171622  0.51718254  0.77197789  1
  O2-  O240  1  0.48576401  0.38943039  0.25878991  1
  O2-  O241  1  0.49106853  0.38532449  0.78217160  1
  O2-  O242  1  0.48031562  0.86784155  0.25980807  1
  O2-  O243  1  0.48016816  0.88272675  0.76422764  1
  O2-  O244  1  0.96670834  0.38752660  0.25117936  1
  O2-  O245  1  0.96738249  0.38293480  0.75475666  1
  O2-  O246  1  0.97917787  0.86791772  0.25072471  1
  O2-  O247  1  0.96100923  0.88413414  0.74628789  1
  O2-  O248  1  0.02164429  0.11802785  0.23553935  1
  O2-  O249  1  0.01002754  0.11435242  0.75877133  1
  O2-  O250  1  0.01864034  0.63039965  0.25230356  1
  O2-  O251  1  0.01387748  0.61754307  0.74780287  1
  O2-  O252  1  0.52983836  0.11342886  0.23076366  1
  O2-  O253  1  0.52946238  0.11176871  0.73538147  1
  O2-  O254  1  0.52061172  0.62957055  0.23461427  1
  O2-  O255  1  0.53496863  0.61093350  0.74422550  1
  O2-  O256  1  0.13349062  0.46896092  0.01799776  1
  O2-  O257  1  0.13395251  0.46962660  0.52235473  1
  O2-  O258  1  0.13788285  0.97827160  0.02103756  1
  O2-  O259  1  0.13739331  0.97542777  0.51967082  1
  O2-  O260  1  0.62323106  0.48005263  0.01516430  1
  O2-  O261  1  0.63334105  0.46784066  0.51249897  1
  O2-  O262  1  0.61977405  0.97157593  0.01001775  1
  O2-  O263  1  0.61801088  0.97673623  0.51038157  1
  O2-  O264  1  0.38903638  0.01477915  -0.02227642  1
  O2-  O265  1  0.38575188  0.01844259  0.48064160  1
  O2-  O266  1  0.38479077  0.52198888  -0.01540723  1
  O2-  O267  1  0.36466296  0.51674248  0.46894889  1
  O2-  O268  1  0.85918752  0.02054621  -0.03167352  1
  O2-  O269  1  0.86079033  0.02406359  0.47831717  1
  O2-  O270  1  0.85863146  0.52786712  -0.02256630  1
  O2-  O271  1  0.86200438  0.52085117  0.47813729  1
  O2-  O272  1  0.48162266  0.37572829  -0.01422295  1
  O2-  O273  1  0.47466659  0.36366765  0.47166992  1
  O2-  O274  1  0.48618681  0.86924602  -0.01053056  1
  O2-  O275  1  0.48387017  0.87740836  0.48261527  1
  O2-  O276  1  0.97399415  0.36543309  -0.00010410  1
  O2-  O277  1  0.98360956  0.36319846  0.48737629  1
  O2-  O278  1  0.96557481  0.86564535  0.00889575  1
  O2-  O279  1  0.96457491  0.86699244  0.49425248  1
  O2-  O280  1  0.03265386  0.13155651  0.00157414  1
  O2-  O281  1  0.03665956  0.13075542  0.50524511  1
  O2-  O282  1  0.02198276  0.63650486  -0.00027125  1
  O2-  O283  1  0.03042942  0.63547494  0.49646233  1
  O2-  O284  1  0.51947011  0.11717546  0.01806803  1
  O2-  O285  1  0.51996779  0.11571170  0.51786733  1
  O2-  O286  1  0.52420525  0.62356694  0.01532952  1
  O2-  O287  1  0.52699023  0.63501206  0.51159993  1
  O2-  O288  1  0.14081153  0.26772987  -0.02235081  1
  O2-  O289  1  0.13760785  0.26678147  0.47916900  1
  O2-  O290  1  0.11289398  0.78169614  -0.01729808  1
  O2-  O291  1  0.11571475  0.78263146  0.47313258  1
  O2-  O292  1  0.61458608  0.26392065  -0.02343000  1
  O2-  O293  1  0.61423411  0.26491686  0.47707389  1
  O2-  O294  1  0.62614454  0.76278787  -0.01009351  1
  O2-  O295  1  0.61791495  0.77042640  0.47105263  1
  O2-  O296  1  0.37887572  0.23103994  0.01767945  1
  O2-  O297  1  0.37503610  0.22632108  0.51394066  1
  O2-  O298  1  0.38739934  0.72773156  0.02992770  1
  O2-  O299  1  0.38828117  0.72990818  0.50729682  1
  O2-  O300  1  0.88537232  0.21943357  0.02909820  1
  O2-  O301  1  0.88659521  0.22094269  0.52182437  1
  O2-  O302  1  0.86720963  0.72778484  0.01923731  1
  O2-  O303  1  0.88643818  0.71923526  0.51733132  1
  O2-  O304  1  0.27983321  0.36736435  0.00228308  1
  O2-  O305  1  0.27575093  0.36610345  0.50071562  1
  O2-  O306  1  0.28605953  0.88644115  0.00194002  1
  O2-  O307  1  0.28333037  0.88588637  0.50882082  1
  O2-  O308  1  0.76992141  0.38638650  -0.00465830  1
  O2-  O309  1  0.77765429  0.38290613  0.50273535  1
  O2-  O310  1  0.76084881  0.86858828  -0.00424952  1
  O2-  O311  1  0.76385075  0.88578388  0.51556037  1
  O2-  O312  1  0.24406343  0.12770983  -0.01112724  1
  O2-  O313  1  0.23669747  0.12857219  0.48861816  1
  O2-  O314  1  0.22580530  0.61452515  0.00604305  1
  O2-  O315  1  0.22593725  0.61537382  0.50834054  1
  O2-  O316  1  0.71525029  0.11392894  -0.00252231  1
  O2-  O317  1  0.71960043  0.11490382  0.50696490  1
  O2-  O318  1  0.72372987  0.62629655  0.00418862  1
  O2-  O319  1  0.72076868  0.61470198  0.50474347  1
