# generated using pymatgen
data_Sr64Ca21Nb43O192
_symmetry_space_group_name_H-M   'P 1'
_cell_length_a   16.53126615
_cell_length_b   16.51921447
_cell_length_c   16.68137135
_cell_angle_alpha   90.03485242
_cell_angle_beta   89.96804878
_cell_angle_gamma   89.96607014
_symmetry_Int_Tables_number   1
_chemical_formula_structural   Sr64Ca21Nb43O192
_chemical_formula_sum   'Sr64 Ca21 Nb43 O192'
_cell_volume   4555.40543951
_cell_formula_units_Z   1
loop_
 _symmetry_equiv_pos_site_id
 _symmetry_equiv_pos_as_xyz
  1  'x, y, z'
loop_
 _atom_type_symbol
 _atom_type_oxidation_number
  Sr2+  2.0
  Ca2+  2.0
  Nb5+  5.0
  O2-  -2.0
loop_
 _atom_site_type_symbol
 _atom_site_label
 _atom_site_symmetry_multiplicity
 _atom_site_fract_x
 _atom_site_fract_y
 _atom_site_fract_z
 _atom_site_occupancy
  Sr2+  Sr0  1  0.11699563  0.12779706  0.12039082  1
  Sr2+  Sr1  1  0.12216663  0.12214702  0.62911885  1
  Sr2+  Sr2  1  0.12804823  0.59608548  0.12580643  1
  Sr2+  Sr3  1  0.11961280  0.63822387  0.62015334  1
  Sr2+  Sr4  1  0.63224979  0.13209867  0.12499276  1
  Sr2+  Sr5  1  0.61759800  0.12855029  0.62283267  1
  Sr2+  Sr6  1  0.62425017  0.63763487  0.12276327  1
  Sr2+  Sr7  1  0.62702651  0.62178531  0.63122944  1
  Sr2+  Sr8  1  0.37654245  0.37751223  0.11574547  1
  Sr2+  Sr9  1  0.36998059  0.37014146  0.62018491  1
  Sr2+  Sr10  1  0.38706699  0.87165229  0.13247793  1
  Sr2+  Sr11  1  0.36607088  0.87411171  0.62748351  1
  Sr2+  Sr12  1  0.88630608  0.37879042  0.12898702  1
  Sr2+  Sr13  1  0.87464055  0.37432351  0.62667087  1
  Sr2+  Sr14  1  0.88079175  0.87956991  0.12212569  1
  Sr2+  Sr15  1  0.88476129  0.86463548  0.61857969  1
  Sr2+  Sr16  1  0.12285965  0.36870452  0.36793852  1
  Sr2+  Sr17  1  0.13135885  0.37606357  0.87745330  1
  Sr2+  Sr18  1  0.12081528  0.86807872  0.37527876  1
  Sr2+  Sr19  1  0.13546045  0.88009432  0.87451142  1
  Sr2+  Sr20  1  0.62861735  0.37825665  0.37496400  1
  Sr2+  Sr21  1  0.62657517  0.37780884  0.87857187  1
  Sr2+  Sr22  1  0.63090694  0.87618689  0.36879222  1
  Sr2+  Sr23  1  0.62216902  0.86162772  0.87738400  1
  Sr2+  Sr24  1  0.38098200  0.12607380  0.38008016  1
  Sr2+  Sr25  1  0.37970250  0.12230378  0.87707487  1
  Sr2+  Sr26  1  0.37060675  0.63131130  0.37411907  1
  Sr2+  Sr27  1  0.36281648  0.62283093  0.87822206  1
  Sr2+  Sr28  1  0.85570792  0.12182760  0.37073599  1
  Sr2+  Sr29  1  0.87175147  0.11822169  0.87391287  1
  Sr2+  Sr30  1  0.88823670  0.62467864  0.36446870  1
  Sr2+  Sr31  1  0.86201473  0.63069304  0.87536014  1
  Sr2+  Sr32  1  0.12345271  0.12027694  0.36472799  1
  Sr2+  Sr33  1  0.12631972  0.11865109  0.87635112  1
  Sr2+  Sr34  1  0.13072068  0.63825130  0.36588486  1
  Sr2+  Sr35  1  0.12365201  0.61683203  0.88482136  1
  Sr2+  Sr36  1  0.62022180  0.11782158  0.37062430  1
  Sr2+  Sr37  1  0.61693178  0.13606225  0.87995341  1
  Sr2+  Sr38  1  0.61889114  0.61442127  0.37531029  1
  Sr2+  Sr39  1  0.62338444  0.63728539  0.87355168  1
  Sr2+  Sr40  1  0.38084005  0.38846597  0.37616414  1
  Sr2+  Sr41  1  0.38543513  0.36806660  0.87784107  1
  Sr2+  Sr42  1  0.38314804  0.86884805  0.37979322  1
  Sr2+  Sr43  1  0.37955428  0.86915014  0.86919452  1
  Sr2+  Sr44  1  0.87273002  0.37510736  0.37294326  1
  Sr2+  Sr45  1  0.87226222  0.38629014  0.86651169  1
  Sr2+  Sr46  1  0.87177106  0.87916985  0.37492927  1
  Sr2+  Sr47  1  0.87657159  0.86592761  0.87805091  1
  Sr2+  Sr48  1  0.12875788  0.37571547  0.12724190  1
  Sr2+  Sr49  1  0.11119971  0.36359864  0.62045319  1
  Sr2+  Sr50  1  0.11869129  0.87458897  0.12139977  1
  Sr2+  Sr51  1  0.12416056  0.87522626  0.62508356  1
  Sr2+  Sr52  1  0.60735211  0.37331495  0.11755912  1
  Sr2+  Sr53  1  0.62685356  0.38345187  0.62913407  1
  Sr2+  Sr54  1  0.63090291  0.87393923  0.12356702  1
  Sr2+  Sr55  1  0.62462041  0.87746195  0.62236723  1
  Sr2+  Sr56  1  0.39807657  0.13241086  0.12347768  1
  Sr2+  Sr57  1  0.36669610  0.12782203  0.62465692  1
  Sr2+  Sr58  1  0.36181292  0.61165669  0.13015058  1
  Sr2+  Sr59  1  0.37734928  0.62327521  0.61876117  1
  Sr2+  Sr60  1  0.87847216  0.12792052  0.12410009  1
  Sr2+  Sr61  1  0.88010187  0.13375994  0.62982104  1
  Sr2+  Sr62  1  0.87213764  0.62786331  0.12177173  1
  Sr2+  Sr63  1  0.87003823  0.61707943  0.63162555  1
  Ca2+  Ca64  1  -0.00217440  0.00351090  0.49870685  1
  Ca2+  Ca65  1  0.50049436  0.50482823  -0.00419067  1
  Ca2+  Ca66  1  -0.00087502  0.50092791  0.50120869  1
  Ca2+  Ca67  1  -0.00343357  0.49678672  -0.00111465  1
  Ca2+  Ca68  1  0.50179841  -0.00498118  -0.00096357  1
  Ca2+  Ca69  1  0.75067031  0.24927139  0.50299763  1
  Ca2+  Ca70  1  0.75612186  0.25380448  0.00107770  1
  Ca2+  Ca71  1  0.24895303  0.24637323  0.00193771  1
  Ca2+  Ca72  1  0.24931634  0.75205258  -0.00017140  1
  Ca2+  Ca73  1  0.74872256  0.74582886  0.49728960  1
  Ca2+  Ca74  1  0.74573853  0.50008611  0.24563842  1
  Ca2+  Ca75  1  0.25149776  0.00126699  0.25159309  1
  Ca2+  Ca76  1  0.49813017  0.74696776  0.74658652  1
  Ca2+  Ca77  1  0.00184546  0.75127054  0.24439944  1
  Ca2+  Ca78  1  0.49841476  0.24991466  0.74517974  1
  Ca2+  Ca79  1  0.50290453  0.74611294  0.25132795  1
  Ca2+  Ca80  1  0.49969934  0.25232353  0.25368499  1
  Ca2+  Ca81  1  0.24881159  0.49903623  0.74397327  1
  Ca2+  Ca82  1  0.25122898  0.49702891  0.25789084  1
  Ca2+  Ca83  1  0.00207578  0.74871812  0.75263235  1
  Ca2+  Ca84  1  0.75038461  -0.00017707  0.75115626  1
  Nb5+  Nb85  1  0.50220134  0.50497142  0.49877625  1
  Nb5+  Nb86  1  0.50193633  0.00260571  0.50245228  1
  Nb5+  Nb87  1  -0.00060769  -0.00085779  -0.00109476  1
  Nb5+  Nb88  1  0.24969405  0.74850283  0.50198369  1
  Nb5+  Nb89  1  0.75065321  0.75137459  0.00147444  1
  Nb5+  Nb90  1  0.24676037  0.24368407  0.49849905  1
  Nb5+  Nb91  1  0.74903590  0.50058552  0.75343624  1
  Nb5+  Nb92  1  -0.00271953  0.24922349  0.24554911  1
  Nb5+  Nb93  1  0.75011527  0.00002547  0.24695220  1
  Nb5+  Nb94  1  0.25325767  0.00456584  0.75117262  1
  Nb5+  Nb95  1  0.00100199  0.24840342  0.75026383  1
  Nb5+  Nb96  1  -0.00320843  0.00040598  0.25348189  1
  Nb5+  Nb97  1  -0.00152208  -0.00018170  0.74958849  1
  Nb5+  Nb98  1  0.00069066  0.50067994  0.25153642  1
  Nb5+  Nb99  1  0.00600400  0.49996144  0.74757743  1
  Nb5+  Nb100  1  0.49921548  -0.00014988  0.24733154  1
  Nb5+  Nb101  1  0.50531350  -0.00430724  0.75223347  1
  Nb5+  Nb102  1  0.49977038  0.49729121  0.24548263  1
  Nb5+  Nb103  1  0.49500754  0.50091612  0.75045794  1
  Nb5+  Nb104  1  0.25316879  0.24721588  0.24963917  1
  Nb5+  Nb105  1  0.25030931  0.25052753  0.75254169  1
  Nb5+  Nb106  1  0.25209240  0.75792961  0.24086042  1
  Nb5+  Nb107  1  0.24641603  0.74707608  0.74865571  1
  Nb5+  Nb108  1  0.75059410  0.25552350  0.24909551  1
  Nb5+  Nb109  1  0.74780204  0.25092133  0.75327408  1
  Nb5+  Nb110  1  0.75062275  0.74775716  0.25376304  1
  Nb5+  Nb111  1  0.75363802  0.75454672  0.74474027  1
  Nb5+  Nb112  1  -0.00140248  0.24283737  0.49156782  1
  Nb5+  Nb113  1  -0.00269567  0.25132067  0.99264760  1
  Nb5+  Nb114  1  -0.00374043  0.74649840  0.49724323  1
  Nb5+  Nb115  1  0.00386750  0.74746266  1.00000189  1
  Nb5+  Nb116  1  0.50143044  0.25701240  0.50301196  1
  Nb5+  Nb117  1  0.50118122  0.24977739  0.99952443  1
  Nb5+  Nb118  1  0.50276190  0.75653998  0.50078111  1
  Nb5+  Nb119  1  0.49162054  0.74645915  1.00273778  1
  Nb5+  Nb120  1  0.25402363  0.00023510  0.00732753  1
  Nb5+  Nb121  1  0.24967004  -0.00305182  0.49900110  1
  Nb5+  Nb122  1  0.25027025  0.49674638  -0.00372589  1
  Nb5+  Nb123  1  0.24726222  0.49364499  0.50161477  1
  Nb5+  Nb124  1  0.74985156  -0.00100670  -0.00497304  1
  Nb5+  Nb125  1  0.74938027  0.00196053  0.50750914  1
  Nb5+  Nb126  1  0.75026410  0.50041248  0.00579907  1
  Nb5+  Nb127  1  0.75184953  0.50407241  0.49741396  1
  O2-  O128  1  0.00943052  -0.00329519  0.12443777  1
  O2-  O129  1  0.01873643  -0.00073986  0.63526125  1
  O2-  O130  1  0.00194532  0.47961679  0.13347359  1
  O2-  O131  1  -0.02836946  0.49482292  0.63420787  1
  O2-  O132  1  0.51304481  -0.01842057  0.13449025  1
  O2-  O133  1  0.51870166  -0.00011760  0.62192712  1
  O2-  O134  1  0.48431856  0.49926956  0.13117223  1
  O2-  O135  1  0.49709520  0.51366636  0.61790115  1
  O2-  O136  1  -0.02593011  0.02008712  0.36550043  1
  O2-  O137  1  -0.01057373  0.00973713  0.87812680  1
  O2-  O138  1  -0.01229554  0.48900245  0.36831997  1
  O2-  O139  1  0.01012725  0.49108839  0.86468621  1
  O2-  O140  1  0.48971232  0.00620756  0.38166420  1
  O2-  O141  1  0.47619748  -0.00073572  0.86434378  1
  O2-  O142  1  0.51821663  0.48853272  0.37950405  1
  O2-  O143  1  0.50175873  0.47488990  0.86189026  1
  O2-  O144  1  0.25700362  0.27753501  0.13868411  1
  O2-  O145  1  0.25149083  0.26594949  0.62197305  1
  O2-  O146  1  0.25215933  0.78657501  0.13006318  1
  O2-  O147  1  0.23852247  0.77361727  0.62189509  1
  O2-  O148  1  0.76093935  0.22430071  0.13536607  1
  O2-  O149  1  0.77530451  0.24131831  0.63812644  1
  O2-  O150  1  0.74722451  0.73759116  0.12139758  1
  O2-  O151  1  0.74218730  0.73371342  0.63210689  1
  O2-  O152  1  0.23701557  0.22212320  0.38336872  1
  O2-  O153  1  0.22688513  0.23754877  0.86465472  1
  O2-  O154  1  0.25411535  0.73711977  0.38383006  1
  O2-  O155  1  0.26541701  0.74120884  0.86317491  1
  O2-  O156  1  0.75352210  0.26104309  0.36824283  1
  O2-  O157  1  0.75487909  0.28144319  0.86672778  1
  O2-  O158  1  0.75996724  0.77547426  0.36531663  1
  O2-  O159  1  0.75699724  0.76452001  0.87694342  1
  O2-  O160  1  -0.01320161  0.25239830  0.12738232  1
  O2-  O161  1  -0.00425352  0.24257324  0.62901119  1
  O2-  O162  1  -0.00492861  0.77550569  0.11378119  1
  O2-  O163  1  0.01247142  0.75921502  0.61613436  1
  O2-  O164  1  0.49561712  0.25297275  0.11997412  1
  O2-  O165  1  0.47887025  0.22935887  0.61344800  1
  O2-  O166  1  0.51275401  0.76295063  0.11749914  1
  O2-  O167  1  0.51261076  0.72981931  0.61324380  1
  O2-  O168  1  0.26402026  0.02869206  0.38931156  1
  O2-  O169  1  0.25883382  0.02658484  0.86638269  1
  O2-  O170  1  0.24030802  0.53078642  0.39149171  1
  O2-  O171  1  0.23643354  0.51675558  0.87771971  1
  O2-  O172  1  0.76188404  -0.01170068  0.37209165  1
  O2-  O173  1  0.77902899  -0.01467127  0.88465504  1
  O2-  O174  1  0.73758301  0.48759112  0.38309093  1
  O2-  O175  1  0.74538738  0.48719110  0.87339206  1
  O2-  O176  1  0.01009680  0.24625056  0.37485373  1
  O2-  O177  1  0.01920090  0.24927947  0.87545538  1
  O2-  O178  1  0.00253415  0.74566633  0.37915572  1
  O2-  O179  1  -0.01778485  0.74219529  0.88487442  1
  O2-  O180  1  0.50463661  0.23662517  0.38843409  1
  O2-  O181  1  0.50487334  0.25056230  0.87862263  1
  O2-  O182  1  0.48197251  0.74264478  0.38624004  1
  O2-  O183  1  0.50087543  0.75520697  0.88259452  1
  O2-  O184  1  0.23762457  -0.02602717  0.11699881  1
  O2-  O185  1  0.23856482  -0.00977701  0.62445844  1
  O2-  O186  1  0.25801490  0.48644366  0.11996234  1
  O2-  O187  1  0.28459661  0.49664560  0.61228592  1
  O2-  O188  1  0.73454702  0.01097754  0.12687131  1
  O2-  O189  1  0.71760076  0.00967621  0.61851899  1
  O2-  O190  1  0.74472659  0.53685639  0.11491080  1
  O2-  O191  1  0.75344975  0.51319060  0.62977524  1
  O2-  O192  1  0.11595829  0.27081603  0.24724922  1
  O2-  O193  1  0.12268678  0.26856970  0.73880323  1
  O2-  O194  1  0.13477248  0.78262498  0.25613805  1
  O2-  O195  1  0.13453672  0.78761110  0.75368788  1
  O2-  O196  1  0.63655979  0.27339556  0.24336904  1
  O2-  O197  1  0.63561402  0.27293430  0.73708164  1
  O2-  O198  1  0.63752082  0.78236029  0.24394113  1
  O2-  O199  1  0.63621507  0.76887699  0.75784434  1
  O2-  O200  1  0.36364761  0.21565561  0.25840727  1
  O2-  O201  1  0.36268158  0.21931513  0.75691340  1
  O2-  O202  1  0.36751432  0.72373402  0.24092279  1
  O2-  O203  1  0.36242935  0.73621365  0.72450169  1
  O2-  O204  1  0.88023267  0.22376845  0.26108536  1
  O2-  O205  1  0.88396571  0.22751664  0.76474980  1
  O2-  O206  1  0.86690002  0.72514241  0.24074401  1
  O2-  O207  1  0.86726699  0.71734871  0.74690151  1
  O2-  O208  1  0.25774872  0.35890244  0.29236883  1
  O2-  O209  1  0.27747032  0.36396242  0.76039900  1
  O2-  O210  1  0.28030097  0.86873464  0.27708572  1
  O2-  O211  1  0.26911629  0.88664186  0.75955720  1
  O2-  O212  1  0.78481315  0.36602675  0.23931763  1
  O2-  O213  1  0.77297042  0.38053994  0.73755379  1
  O2-  O214  1  0.77476249  0.88259201  0.23467050  1
  O2-  O215  1  0.78351099  0.86607434  0.73459688  1
  O2-  O216  1  0.21270324  0.13626116  0.23838419  1
  O2-  O217  1  0.22920597  0.12549051  0.73000089  1
  O2-  O218  1  0.22446869  0.63841456  0.23560126  1
  O2-  O219  1  0.21756954  0.63634059  0.73657029  1
  O2-  O220  1  0.73430112  0.12128426  0.26585125  1
  O2-  O221  1  0.73198898  0.13671953  0.77437253  1
  O2-  O222  1  0.72400676  0.63655039  0.26826856  1
  O2-  O223  1  0.73153632  0.62033184  0.76347216  1
  O2-  O224  1  0.11720225  0.46952531  0.25243123  1
  O2-  O225  1  0.11530141  0.46316399  0.73310868  1
  O2-  O226  1  0.11162702  0.98480630  0.26940099  1
  O2-  O227  1  0.12631574  0.99077738  0.76553382  1
  O2-  O228  1  0.61384930  0.45746605  0.24434469  1
  O2-  O229  1  0.63068518  0.47722379  0.74559553  1
  O2-  O230  1  0.63146687  0.98236814  0.26254026  1
  O2-  O231  1  0.61596302  0.96415397  0.76479023  1
  O2-  O232  1  0.38673872  0.02763325  0.23930687  1
  O2-  O233  1  0.36976880  0.02418824  0.73325402  1
  O2-  O234  1  0.38500983  0.52715363  0.27183166  1
  O2-  O235  1  0.38428594  0.53406341  0.75405087  1
  O2-  O236  1  0.87048669  0.02425850  0.23451100  1
  O2-  O237  1  0.88667795  0.03264569  0.74016671  1
  O2-  O238  1  0.88180589  0.52483699  0.24348716  1
  O2-  O239  1  0.87180325  0.51694576  0.76408783  1
  O2-  O240  1  0.46073098  0.38136188  0.25006252  1
  O2-  O241  1  0.48257600  0.38526697  0.71942453  1
  O2-  O242  1  0.48534028  0.88398340  0.26864761  1
  O2-  O243  1  0.46910421  0.88324851  0.73586419  1
  O2-  O244  1  0.97359606  0.36583893  0.25730863  1
  O2-  O245  1  0.97682150  0.36628011  0.74987676  1
  O2-  O246  1  0.97111608  0.88778344  0.25613328  1
  O2-  O247  1  0.97603725  0.88661932  0.75644785  1
  O2-  O248  1  0.01710966  0.12739016  0.23945082  1
  O2-  O249  1  0.02428754  0.12826940  0.75466802  1
  O2-  O250  1  0.02788361  0.61446853  0.24960536  1
  O2-  O251  1  0.03058032  0.61307870  0.74554519  1
  O2-  O252  1  0.53213354  0.11513996  0.24521446  1
  O2-  O253  1  0.52899761  0.11280651  0.74772677  1
  O2-  O254  1  0.53624316  0.61201801  0.25010923  1
  O2-  O255  1  0.53402104  0.61236834  0.75348639  1
  O2-  O256  1  0.13115068  0.46854414  0.00419877  1
  O2-  O257  1  0.13577049  0.48105385  0.52370087  1
  O2-  O258  1  0.11636246  0.97723401  -0.00765016  1
  O2-  O259  1  0.13616786  0.98030380  0.48702054  1
  O2-  O260  1  0.63465847  0.47455084  -0.00199604  1
  O2-  O261  1  0.61870228  0.47148456  0.50810516  1
  O2-  O262  1  0.63807041  0.96805551  -0.01371556  1
  O2-  O263  1  0.61791278  0.97188377  0.48693375  1
  O2-  O264  1  0.36532143  0.02827383  0.01536591  1
  O2-  O265  1  0.37941588  0.01504656  0.51685949  1
  O2-  O266  1  0.36616200  0.52731952  -0.00813775  1
  O2-  O267  1  0.38298633  0.51139839  0.48125202  1
  O2-  O268  1  0.87629621  0.01589732  0.01955506  1
  O2-  O269  1  0.86163935  0.02848284  0.51985153  1
  O2-  O270  1  0.86487001  0.53227891  -0.01052859  1
  O2-  O271  1  0.86199795  0.53774096  0.49201275  1
  O2-  O272  1  0.47561970  0.36766299  0.00245003  1
  O2-  O273  1  0.47596698  0.37227334  0.50521581  1
  O2-  O274  1  0.46178710  0.86476867  -0.00134023  1
  O2-  O275  1  0.47692061  0.87391257  0.50941967  1
  O2-  O276  1  0.96367392  0.36138471  -0.00788994  1
  O2-  O277  1  0.98349200  0.35999551  0.50580017  1
  O2-  O278  1  0.97495948  0.88221486  -0.00892374  1
  O2-  O279  1  0.97768351  0.86789814  0.49095552  1
  O2-  O280  1  0.02048668  0.12022727  0.00161326  1
  O2-  O281  1  0.04248267  0.13438630  0.50208511  1
  O2-  O282  1  0.02524242  0.63403031  0.01423383  1
  O2-  O283  1  0.03736069  0.63355665  0.49610137  1
  O2-  O284  1  0.52904401  0.12944943  0.00768404  1
  O2-  O285  1  0.51980089  0.11894144  0.50157532  1
  O2-  O286  1  0.53789196  0.63584761  -0.00089060  1
  O2-  O287  1  0.51453149  0.62122288  0.49019891  1
  O2-  O288  1  0.11154577  0.26613550  0.01949133  1
  O2-  O289  1  0.13055984  0.27466915  0.50088203  1
  O2-  O290  1  0.11455848  0.78110101  -0.01065939  1
  O2-  O291  1  0.13293042  0.77563551  0.49520096  1
  O2-  O292  1  0.62095349  0.27336086  0.00064645  1
  O2-  O293  1  0.61468575  0.27315730  0.51885882  1
  O2-  O294  1  0.63313408  0.77638801  -0.00046604  1
  O2-  O295  1  0.61503588  0.77963635  0.48881556  1
  O2-  O296  1  0.38251975  0.21942912  -0.00597230  1
  O2-  O297  1  0.36727799  0.23917519  0.49205077  1
  O2-  O298  1  0.38247110  0.71040087  0.01056447  1
  O2-  O299  1  0.37130532  0.74168941  0.51366659  1
  O2-  O300  1  0.88673675  0.21044460  -0.00718505  1
  O2-  O301  1  0.88743998  0.21382472  0.49300182  1
  O2-  O302  1  0.87187450  0.73278265  0.00502272  1
  O2-  O303  1  0.88423613  0.71949236  0.50716327  1
  O2-  O304  1  0.27591937  0.38034693  -0.02128387  1
  O2-  O305  1  0.26676523  0.37755875  0.48441762  1
  O2-  O306  1  0.26180586  0.89118656  -0.03667425  1
  O2-  O307  1  0.27334416  0.88089129  0.49012001  1
  O2-  O308  1  0.77930559  0.38975305  0.02359808  1
  O2-  O309  1  0.77312341  0.38684717  0.51386596  1
  O2-  O310  1  0.77454844  0.87302450  0.01425960  1
  O2-  O311  1  0.77144900  0.88434908  0.51239659  1
  O2-  O312  1  0.21428828  0.11152566  0.00538929  1
  O2-  O313  1  0.23931344  0.12763712  0.52512123  1
  O2-  O314  1  0.21921972  0.61742323  0.01055219  1
  O2-  O315  1  0.23979794  0.63306207  0.52317213  1
  O2-  O316  1  0.72966774  0.11321421  -0.01467459  1
  O2-  O317  1  0.71669417  0.11477715  0.48453466  1
  O2-  O318  1  0.73074933  0.63412079  -0.01953874  1
  O2-  O319  1  0.70611330  0.61401566  0.49843892  1
