# generated using pymatgen
data_Sr64Ca21Nb43O192
_symmetry_space_group_name_H-M   'P 1'
_cell_length_a   16.57726488
_cell_length_b   16.60462827
_cell_length_c   16.74781593
_cell_angle_alpha   89.97366591
_cell_angle_beta   89.98778505
_cell_angle_gamma   90.03642201
_symmetry_Int_Tables_number   1
_chemical_formula_structural   Sr64Ca21Nb43O192
_chemical_formula_sum   'Sr64 Ca21 Nb43 O192'
_cell_volume   4609.99091766
_cell_formula_units_Z   1
loop_
 _symmetry_equiv_pos_site_id
 _symmetry_equiv_pos_as_xyz
  1  'x, y, z'
loop_
 _atom_type_symbol
 _atom_type_oxidation_number
  Sr2+  2.0
  Ca2+  2.0
  Nb5+  5.0
  O2-  -2.0
loop_
 _atom_site_type_symbol
 _atom_site_label
 _atom_site_symmetry_multiplicity
 _atom_site_fract_x
 _atom_site_fract_y
 _atom_site_fract_z
 _atom_site_occupancy
  Sr2+  Sr0  1  0.11582349  0.10951685  0.12631424  1
  Sr2+  Sr1  1  0.11748356  0.11101555  0.61600013  1
  Sr2+  Sr2  1  0.12480905  0.63672457  0.13007470  1
  Sr2+  Sr3  1  0.12816047  0.63714870  0.62023499  1
  Sr2+  Sr4  1  0.63094037  0.11439040  0.12746622  1
  Sr2+  Sr5  1  0.63364530  0.11445500  0.62450117  1
  Sr2+  Sr6  1  0.62703479  0.61262504  0.12319362  1
  Sr2+  Sr7  1  0.62963465  0.63210345  0.63360056  1
  Sr2+  Sr8  1  0.37313909  0.37439096  0.13008815  1
  Sr2+  Sr9  1  0.37136164  0.38544067  0.62777896  1
  Sr2+  Sr10  1  0.37350431  0.87736368  0.12680126  1
  Sr2+  Sr11  1  0.37443062  0.86965469  0.60519372  1
  Sr2+  Sr12  1  0.86565138  0.38603046  0.12844503  1
  Sr2+  Sr13  1  0.87068252  0.38596801  0.62154545  1
  Sr2+  Sr14  1  0.86350911  0.87813668  0.13039311  1
  Sr2+  Sr15  1  0.86918993  0.87611160  0.62713043  1
  Sr2+  Sr16  1  0.10184575  0.37659820  0.37255528  1
  Sr2+  Sr17  1  0.10369402  0.37268600  0.87162454  1
  Sr2+  Sr18  1  0.13185002  0.87066950  0.39769897  1
  Sr2+  Sr19  1  0.12062418  0.87144429  0.87768392  1
  Sr2+  Sr20  1  0.61465729  0.36934083  0.37097874  1
  Sr2+  Sr21  1  0.62145538  0.37123726  0.87751752  1
  Sr2+  Sr22  1  0.62286061  0.86291969  0.36937680  1
  Sr2+  Sr23  1  0.62021613  0.87486791  0.87368677  1
  Sr2+  Sr24  1  0.37950518  0.12914463  0.37186132  1
  Sr2+  Sr25  1  0.36826810  0.13096637  0.87657771  1
  Sr2+  Sr26  1  0.36715484  0.62485411  0.38821746  1
  Sr2+  Sr27  1  0.37439071  0.62787847  0.87176394  1
  Sr2+  Sr28  1  0.89333632  0.13350248  0.37423247  1
  Sr2+  Sr29  1  0.88166181  0.13143541  0.87084622  1
  Sr2+  Sr30  1  0.89390906  0.61919042  0.37710687  1
  Sr2+  Sr31  1  0.88751271  0.61413443  0.87697547  1
  Sr2+  Sr32  1  0.13414187  0.12970303  0.37990076  1
  Sr2+  Sr33  1  0.12430192  0.13997428  0.87350529  1
  Sr2+  Sr34  1  0.13350744  0.62042889  0.37371030  1
  Sr2+  Sr35  1  0.13743047  0.61046290  0.87414697  1
  Sr2+  Sr36  1  0.62339591  0.13273067  0.37840389  1
  Sr2+  Sr37  1  0.62719130  0.12684403  0.86916231  1
  Sr2+  Sr38  1  0.63683384  0.62047242  0.37787150  1
  Sr2+  Sr39  1  0.61404401  0.61413697  0.87618906  1
  Sr2+  Sr40  1  0.37388222  0.37096610  0.36913718  1
  Sr2+  Sr41  1  0.36577326  0.37122985  0.87650758  1
  Sr2+  Sr42  1  0.37285311  0.89931953  0.37850664  1
  Sr2+  Sr43  1  0.38215289  0.86967302  0.87220534  1
  Sr2+  Sr44  1  0.86839634  0.37862776  0.38060922  1
  Sr2+  Sr45  1  0.86953675  0.36798967  0.87349110  1
  Sr2+  Sr46  1  0.88266277  0.85356611  0.37316520  1
  Sr2+  Sr47  1  0.87829403  0.87367272  0.87230011  1
  Sr2+  Sr48  1  0.11585111  0.37805214  0.13197617  1
  Sr2+  Sr49  1  0.11508436  0.38298706  0.62949187  1
  Sr2+  Sr50  1  0.09597705  0.87054544  0.12242359  1
  Sr2+  Sr51  1  0.11376297  0.87265394  0.62305527  1
  Sr2+  Sr52  1  0.62461534  0.37463832  0.12746893  1
  Sr2+  Sr53  1  0.62991355  0.37549556  0.60737487  1
  Sr2+  Sr54  1  0.61055233  0.87312422  0.12156412  1
  Sr2+  Sr55  1  0.62816636  0.87145081  0.63627699  1
  Sr2+  Sr56  1  0.36811771  0.11805985  0.12720698  1
  Sr2+  Sr57  1  0.36677169  0.11541188  0.61127312  1
  Sr2+  Sr58  1  0.37000567  0.62771073  0.13454612  1
  Sr2+  Sr59  1  0.38392397  0.63525322  0.62744716  1
  Sr2+  Sr60  1  0.87524321  0.12072522  0.12719055  1
  Sr2+  Sr61  1  0.87321016  0.12722303  0.61834294  1
  Sr2+  Sr62  1  0.87352517  0.64404563  0.12913336  1
  Sr2+  Sr63  1  0.86815577  0.63354402  0.61871368  1
  Ca2+  Ca64  1  0.00389670  0.50025567  0.50390675  1
  Ca2+  Ca65  1  -0.00763296  -0.00242622  0.49974555  1
  Ca2+  Ca66  1  0.50672696  -0.00003443  0.50041053  1
  Ca2+  Ca67  1  0.50112740  0.50230706  0.49961522  1
  Ca2+  Ca68  1  0.00213569  0.49825415  0.00164253  1
  Ca2+  Ca69  1  0.74913261  0.75071894  -0.00173942  1
  Ca2+  Ca70  1  0.74986428  0.75431549  0.50066825  1
  Ca2+  Ca71  1  0.25190341  0.25579927  0.49709928  1
  Ca2+  Ca72  1  0.25097114  0.75187338  -0.00129701  1
  Ca2+  Ca73  1  0.25356870  0.74666238  0.49940458  1
  Ca2+  Ca74  1  0.49860378  0.24902109  0.74910206  1
  Ca2+  Ca75  1  -0.00074653  0.24734685  0.24829451  1
  Ca2+  Ca76  1  0.24491556  -0.00002186  0.24586782  1
  Ca2+  Ca77  1  0.00426854  0.75019233  0.25297349  1
  Ca2+  Ca78  1  0.75022100  0.00045418  0.25445683  1
  Ca2+  Ca79  1  0.49838830  0.74554679  0.25045586  1
  Ca2+  Ca80  1  -0.00173328  0.74539545  0.75178742  1
  Ca2+  Ca81  1  0.25202946  0.00157307  0.75214789  1
  Ca2+  Ca82  1  0.74905337  0.50306848  0.25236478  1
  Ca2+  Ca83  1  -0.00126033  0.24697293  0.74479452  1
  Ca2+  Ca84  1  0.74689265  0.49767399  0.75197909  1
  Nb5+  Nb85  1  -0.01115595  0.00076350  -0.00319489  1
  Nb5+  Nb86  1  0.49497952  0.00004012  -0.00224128  1
  Nb5+  Nb87  1  0.49621747  0.49047916  -0.00180938  1
  Nb5+  Nb88  1  0.74941028  0.24905377  0.49353072  1
  Nb5+  Nb89  1  0.74529521  0.25009658  -0.00161468  1
  Nb5+  Nb90  1  0.24187256  0.25298128  0.00265384  1
  Nb5+  Nb91  1  0.50231255  0.75034708  0.75167747  1
  Nb5+  Nb92  1  0.25136359  0.49951375  0.75526280  1
  Nb5+  Nb93  1  0.25021529  0.49615880  0.25444766  1
  Nb5+  Nb94  1  0.75225221  0.00046449  0.75177119  1
  Nb5+  Nb95  1  0.49992561  0.24957119  0.24450997  1
  Nb5+  Nb96  1  0.00098435  -0.00419173  0.25829193  1
  Nb5+  Nb97  1  0.00072666  -0.00209463  0.75080359  1
  Nb5+  Nb98  1  -0.00387698  0.50166545  0.24268842  1
  Nb5+  Nb99  1  -0.00536477  0.50311303  0.74667436  1
  Nb5+  Nb100  1  0.50057501  0.00005264  0.25003189  1
  Nb5+  Nb101  1  0.49951799  0.00144456  0.74909724  1
  Nb5+  Nb102  1  0.49683415  0.50164170  0.25032782  1
  Nb5+  Nb103  1  0.49863266  0.49378531  0.75070451  1
  Nb5+  Nb104  1  0.24677098  0.25151059  0.24628089  1
  Nb5+  Nb105  1  0.24820998  0.24959868  0.74034058  1
  Nb5+  Nb106  1  0.25678573  0.75695720  0.24930459  1
  Nb5+  Nb107  1  0.24905019  0.75491978  0.75235552  1
  Nb5+  Nb108  1  0.75110833  0.24742999  0.24550032  1
  Nb5+  Nb109  1  0.74888871  0.24989045  0.74251201  1
  Nb5+  Nb110  1  0.74619594  0.75088374  0.25181370  1
  Nb5+  Nb111  1  0.75172823  0.74403268  0.75862236  1
  Nb5+  Nb112  1  0.00408017  0.25004417  0.49892905  1
  Nb5+  Nb113  1  -0.00905013  0.24812794  1.00440432  1
  Nb5+  Nb114  1  0.00174335  0.74634282  0.50239860  1
  Nb5+  Nb115  1  0.00126189  0.74198139  0.99355784  1
  Nb5+  Nb116  1  0.49826670  0.25245038  0.50513500  1
  Nb5+  Nb117  1  0.49589147  0.24331727  1.00356364  1
  Nb5+  Nb118  1  0.50689924  0.74758744  0.49498946  1
  Nb5+  Nb119  1  0.50010649  0.74214861  1.00137680  1
  Nb5+  Nb120  1  0.24166906  -0.00017345  -0.00502711  1
  Nb5+  Nb121  1  0.24935038  0.00186012  0.50102056  1
  Nb5+  Nb122  1  0.24894678  0.49630880  0.00765865  1
  Nb5+  Nb123  1  0.25184378  0.49498632  0.51057710  1
  Nb5+  Nb124  1  0.74563102  -0.00031231  0.00000214  1
  Nb5+  Nb125  1  0.74771218  -0.00089683  0.49351254  1
  Nb5+  Nb126  1  0.75227030  0.50378484  0.00083519  1
  Nb5+  Nb127  1  0.74831406  0.50644071  0.50237838  1
  O2-  O128  1  -0.01121632  0.02291780  0.11206476  1
  O2-  O129  1  -0.01802076  0.02199919  0.63880018  1
  O2-  O130  1  0.03651612  0.51465007  0.13161331  1
  O2-  O131  1  0.03638987  0.51897744  0.63811741  1
  O2-  O132  1  0.48346411  -0.00943210  0.11713727  1
  O2-  O133  1  0.47685901  -0.01351369  0.63824455  1
  O2-  O134  1  0.50911463  0.47824952  0.11496611  1
  O2-  O135  1  0.51436804  0.47698609  0.63833825  1
  O2-  O136  1  0.00776868  -0.03508116  0.36735100  1
  O2-  O137  1  0.00792246  -0.02373045  0.88015007  1
  O2-  O138  1  -0.01514469  0.47822222  0.36194415  1
  O2-  O139  1  -0.02003439  0.47196425  0.86590700  1
  O2-  O140  1  0.51887504  0.01991135  0.36199066  1
  O2-  O141  1  0.52585432  0.01550730  0.88450755  1
  O2-  O142  1  0.48001117  0.52290973  0.36104130  1
  O2-  O143  1  0.48184132  0.51969314  0.88167317  1
  O2-  O144  1  0.24695864  0.27500560  0.12143752  1
  O2-  O145  1  0.24831859  0.27917530  0.63155868  1
  O2-  O146  1  0.28283004  0.75368098  0.13047894  1
  O2-  O147  1  0.27633029  0.75142630  0.63834211  1
  O2-  O148  1  0.74402119  0.24910980  0.12567911  1
  O2-  O149  1  0.73656154  0.24566272  0.62615583  1
  O2-  O150  1  0.76799507  0.75386571  0.13295763  1
  O2-  O151  1  0.76351764  0.75280073  0.63974208  1
  O2-  O152  1  0.26877235  0.23725974  0.35931142  1
  O2-  O153  1  0.25916688  0.24254507  0.88535881  1
  O2-  O154  1  0.22837137  0.73871122  0.36336634  1
  O2-  O155  1  0.24325953  0.71729112  0.86350226  1
  O2-  O156  1  0.75156912  0.25004106  0.37596758  1
  O2-  O157  1  0.75582188  0.25083902  0.88134691  1
  O2-  O158  1  0.72248036  0.74760506  0.36991497  1
  O2-  O159  1  0.73825064  0.78097054  0.86684613  1
  O2-  O160  1  0.01015865  0.21638919  0.11478959  1
  O2-  O161  1  0.00636541  0.21607868  0.61275847  1
  O2-  O162  1  -0.00512350  0.73443637  0.11310735  1
  O2-  O163  1  -0.00899808  0.71498231  0.61920161  1
  O2-  O164  1  0.50592779  0.27596332  0.11986524  1
  O2-  O165  1  0.49917143  0.28201832  0.61506967  1
  O2-  O166  1  0.48070294  0.76599302  0.11257912  1
  O2-  O167  1  0.48938780  0.76792476  0.63634089  1
  O2-  O168  1  0.22865170  0.00918171  0.38139334  1
  O2-  O169  1  0.24005093  0.04295114  0.88620663  1
  O2-  O170  1  0.26903237  0.50613524  0.36765742  1
  O2-  O171  1  0.27191159  0.51031357  0.87169047  1
  O2-  O172  1  0.71038254  -0.00097636  0.38667929  1
  O2-  O173  1  0.73048284  0.00299316  0.87870762  1
  O2-  O174  1  0.77832388  0.51253341  0.38612185  1
  O2-  O175  1  0.76609952  0.48363168  0.88691748  1
  O2-  O176  1  -0.02447778  0.27259958  0.38306819  1
  O2-  O177  1  -0.01079567  0.26506480  0.88638378  1
  O2-  O178  1  0.01501354  0.77759390  0.38568677  1
  O2-  O179  1  0.00099356  0.78294933  0.88348425  1
  O2-  O180  1  0.49906661  0.23268784  0.36117909  1
  O2-  O181  1  0.50039071  0.23187040  0.88908797  1
  O2-  O182  1  0.52588833  0.72647813  0.38395832  1
  O2-  O183  1  0.52099534  0.73849751  0.87336780  1
  O2-  O184  1  0.27355323  -0.00523369  0.10696804  1
  O2-  O185  1  0.27752238  -0.00881983  0.61859085  1
  O2-  O186  1  0.23816748  0.47729600  0.12051238  1
  O2-  O187  1  0.23943990  0.48193819  0.62672590  1
  O2-  O188  1  0.76711539  0.01384873  0.11440815  1
  O2-  O189  1  0.76992044  0.01226555  0.63659543  1
  O2-  O190  1  0.72570436  0.48781184  0.11486562  1
  O2-  O191  1  0.72162121  0.49188557  0.61971527  1
  O2-  O192  1  0.13522569  0.27684025  0.25769218  1
  O2-  O193  1  0.13576528  0.27215915  0.76911475  1
  O2-  O194  1  0.14084186  0.75932573  0.22042737  1
  O2-  O195  1  0.13490997  0.76546191  0.73563135  1
  O2-  O196  1  0.61991374  0.27520429  0.24675489  1
  O2-  O197  1  0.63446647  0.26794801  0.76553244  1
  O2-  O198  1  0.63034606  0.78697967  0.23681078  1
  O2-  O199  1  0.62318334  0.76164940  0.73928653  1
  O2-  O200  1  0.38041796  0.23866768  0.23085698  1
  O2-  O201  1  0.36365866  0.22612253  0.75404270  1
  O2-  O202  1  0.36635008  0.71129116  0.26744265  1
  O2-  O203  1  0.38352245  0.74115446  0.76887617  1
  O2-  O204  1  0.86315111  0.22090961  0.24308535  1
  O2-  O205  1  0.86306557  0.21899937  0.74758171  1
  O2-  O206  1  0.86554062  0.72075450  0.27034048  1
  O2-  O207  1  0.86438355  0.72093812  0.77067474  1
  O2-  O208  1  0.27608694  0.37433937  0.25138390  1
  O2-  O209  1  0.27721043  0.38040527  0.75671013  1
  O2-  O210  1  0.28433418  0.86784716  0.25830587  1
  O2-  O211  1  0.26424644  0.86602289  0.77630658  1
  O2-  O212  1  0.76963350  0.36500630  0.25507491  1
  O2-  O213  1  0.77780723  0.36241572  0.74820700  1
  O2-  O214  1  0.77999125  0.86823232  0.26245527  1
  O2-  O215  1  0.76194956  0.88273681  0.74419627  1
  O2-  O216  1  0.23476982  0.13848024  0.22363311  1
  O2-  O217  1  0.22349036  0.13688052  0.72582558  1
  O2-  O218  1  0.23602789  0.60969261  0.23112949  1
  O2-  O219  1  0.23897296  0.61555153  0.73316123  1
  O2-  O220  1  0.71399473  0.13688982  0.25588892  1
  O2-  O221  1  0.72648143  0.12342254  0.75514457  1
  O2-  O222  1  0.71225703  0.63369790  0.24383056  1
  O2-  O223  1  0.72142405  0.63284656  0.76719004  1
  O2-  O224  1  0.13535621  0.47364133  0.26258477  1
  O2-  O225  1  0.13649702  0.48140943  0.77055430  1
  O2-  O226  1  0.11370439  0.98376117  0.21801924  1
  O2-  O227  1  0.11396757  0.97590146  0.74017773  1
  O2-  O228  1  0.61075262  0.47769817  0.25854372  1
  O2-  O229  1  0.61130728  0.49050693  0.78108288  1
  O2-  O230  1  0.61366941  0.99043012  0.21880523  1
  O2-  O231  1  0.62708647  0.98306825  0.74420619  1
  O2-  O232  1  0.38440457  0.03035243  0.25450881  1
  O2-  O233  1  0.38995256  0.01039412  0.78428916  1
  O2-  O234  1  0.37359110  0.50341574  0.22408978  1
  O2-  O235  1  0.37745681  0.51853647  0.73616052  1
  O2-  O236  1  0.88655775  0.03026714  0.25515992  1
  O2-  O237  1  0.86685984  0.01386263  0.77831392  1
  O2-  O238  1  0.88437668  0.52020668  0.21994111  1
  O2-  O239  1  0.88298524  0.52296467  0.72569076  1
  O2-  O240  1  0.48032232  0.37369678  0.25769623  1
  O2-  O241  1  0.47761225  0.38409650  0.77632529  1
  O2-  O242  1  0.47822982  0.88684913  0.26005232  1
  O2-  O243  1  0.49994158  0.87476055  0.77271726  1
  O2-  O244  1  0.98906962  0.38211188  0.22214035  1
  O2-  O245  1  0.99207298  0.38330005  0.72557242  1
  O2-  O246  1  0.97735368  0.88390199  0.22215331  1
  O2-  O247  1  0.96742850  0.88353688  0.74037486  1
  O2-  O248  1  0.02873835  0.11422320  0.27386852  1
  O2-  O249  1  0.01049706  0.11229954  0.78052890  1
  O2-  O250  1  0.02547100  0.61400516  0.26797284  1
  O2-  O251  1  0.01910986  0.61237762  0.78542242  1
  O2-  O252  1  0.51516990  0.13408837  0.22349363  1
  O2-  O253  1  0.52466156  0.11406951  0.73951364  1
  O2-  O254  1  0.50924927  0.61113685  0.21497671  1
  O2-  O255  1  0.51112045  0.62809403  0.74098111  1
  O2-  O256  1  0.13962382  0.47674963  -0.02470927  1
  O2-  O257  1  0.13923051  0.46313763  0.48822800  1
  O2-  O258  1  0.12530200  0.99014069  0.00929480  1
  O2-  O259  1  0.13097841  0.98252582  0.52200181  1
  O2-  O260  1  0.61593777  0.48342969  -0.01662950  1
  O2-  O261  1  0.63590340  0.47671993  0.47328908  1
  O2-  O262  1  0.62752600  0.99223738  0.01761222  1
  O2-  O263  1  0.63919277  0.98814572  0.54086967  1
  O2-  O264  1  0.38195485  0.02193526  -0.01714529  1
  O2-  O265  1  0.36971248  0.02442797  0.47970291  1
  O2-  O266  1  0.37605366  0.50896253  0.01326535  1
  O2-  O267  1  0.36874293  0.52814614  0.52172665  1
  O2-  O268  1  0.87367536  0.02347938  -0.01859260  1
  O2-  O269  1  0.85859757  0.03835597  0.48942577  1
  O2-  O270  1  0.86490430  0.52148018  0.02226645  1
  O2-  O271  1  0.86652625  0.50937839  0.52929979  1
  O2-  O272  1  0.48515255  0.37445415  -0.02010400  1
  O2-  O273  1  0.49030050  0.36441413  0.46589384  1
  O2-  O274  1  0.48937698  0.88473443  -0.01373100  1
  O2-  O275  1  0.47728060  0.86618679  0.48140181  1
  O2-  O276  1  0.98509488  0.36167000  0.02776264  1
  O2-  O277  1  0.98447248  0.36387126  0.52812990  1
  O2-  O278  1  0.97517240  0.88516537  0.01796688  1
  O2-  O279  1  0.98375618  0.86405147  0.53232573  1
  O2-  O280  1  0.01342987  0.12314461  -0.02406906  1
  O2-  O281  1  0.01367817  0.13156238  0.47029485  1
  O2-  O282  1  0.02708387  0.63153024  -0.02619200  1
  O2-  O283  1  0.02295250  0.63020596  0.47262255  1
  O2-  O284  1  0.51553293  0.12926592  0.02251164  1
  O2-  O285  1  0.53051624  0.13818090  0.51119327  1
  O2-  O286  1  0.51222176  0.62539683  0.01165971  1
  O2-  O287  1  0.52813893  0.63477368  0.52921849  1
  O2-  O288  1  0.12621969  0.26604526  -0.00762075  1
  O2-  O289  1  0.11698285  0.26653247  0.48011559  1
  O2-  O290  1  0.11681089  0.77889041  0.00384666  1
  O2-  O291  1  0.12113100  0.76572530  0.52168994  1
  O2-  O292  1  0.62658732  0.26802443  -0.00122180  1
  O2-  O293  1  0.62776699  0.27254355  0.49165102  1
  O2-  O294  1  0.61306247  0.77451773  0.00649593  1
  O2-  O295  1  0.61726754  0.78290465  0.51980374  1
  O2-  O296  1  0.37949670  0.23523604  0.01066634  1
  O2-  O297  1  0.38709450  0.22201702  0.49865954  1
  O2-  O298  1  0.38739812  0.74792808  -0.03055510  1
  O2-  O299  1  0.38875535  0.72460725  0.49990010  1
  O2-  O300  1  0.87303792  0.23014280  0.00813957  1
  O2-  O301  1  0.86604740  0.23133015  0.50651672  1
  O2-  O302  1  0.88305296  0.72128680  -0.01307027  1
  O2-  O303  1  0.88339986  0.72800919  0.48374403  1
  O2-  O304  1  0.27496971  0.37235120  -0.00691758  1
  O2-  O305  1  0.29359651  0.38562109  0.49165654  1
  O2-  O306  1  0.26188321  0.89113615  -0.03269043  1
  O2-  O307  1  0.26987156  0.88242914  0.48729207  1
  O2-  O308  1  0.76771977  0.36788762  0.00499899  1
  O2-  O309  1  0.76712295  0.36848166  0.50416379  1
  O2-  O310  1  0.77070497  0.88909973  0.00206541  1
  O2-  O311  1  0.78194347  0.88925880  0.49873435  1
  O2-  O312  1  0.23819031  0.13655636  0.02260027  1
  O2-  O313  1  0.23057847  0.12060838  0.51613029  1
  O2-  O314  1  0.23778080  0.61130164  0.01524394  1
  O2-  O315  1  0.22592757  0.61024449  0.49835157  1
  O2-  O316  1  0.73178304  0.13087180  -0.00172724  1
  O2-  O317  1  0.72337620  0.13231633  0.50098690  1
  O2-  O318  1  0.71963213  0.61409212  -0.00630514  1
  O2-  O319  1  0.72741483  0.61907784  0.51275502  1
