# generated using pymatgen
data_Sr64Ca21Nb43O192
_symmetry_space_group_name_H-M   'P 1'
_cell_length_a   16.60778240
_cell_length_b   16.60777090
_cell_length_c   16.75114973
_cell_angle_alpha   89.88053266
_cell_angle_beta   90.02634906
_cell_angle_gamma   89.96663066
_symmetry_Int_Tables_number   1
_chemical_formula_structural   Sr64Ca21Nb43O192
_chemical_formula_sum   'Sr64 Ca21 Nb43 O192'
_cell_volume   4620.26140457
_cell_formula_units_Z   1
loop_
 _symmetry_equiv_pos_site_id
 _symmetry_equiv_pos_as_xyz
  1  'x, y, z'
loop_
 _atom_type_symbol
 _atom_type_oxidation_number
  Sr2+  2.0
  Ca2+  2.0
  Nb5+  5.0
  O2-  -2.0
loop_
 _atom_site_type_symbol
 _atom_site_label
 _atom_site_symmetry_multiplicity
 _atom_site_fract_x
 _atom_site_fract_y
 _atom_site_fract_z
 _atom_site_occupancy
  Sr2+  Sr0  1  0.12379600  0.15235396  0.12502373  1
  Sr2+  Sr1  1  0.12932650  0.13261526  0.63015124  1
  Sr2+  Sr2  1  0.12595360  0.60277745  0.12694753  1
  Sr2+  Sr3  1  0.12453855  0.60449948  0.62235352  1
  Sr2+  Sr4  1  0.62805986  0.12685832  0.12195363  1
  Sr2+  Sr5  1  0.62789309  0.13655485  0.62697791  1
  Sr2+  Sr6  1  0.62720394  0.63111044  0.11633036  1
  Sr2+  Sr7  1  0.62822039  0.62693370  0.62695114  1
  Sr2+  Sr8  1  0.35994052  0.38716561  0.12995634  1
  Sr2+  Sr9  1  0.37075015  0.38052337  0.62491632  1
  Sr2+  Sr10  1  0.37691479  0.88030147  0.13229292  1
  Sr2+  Sr11  1  0.36658799  0.88509165  0.62569791  1
  Sr2+  Sr12  1  0.87937939  0.39016389  0.12118330  1
  Sr2+  Sr13  1  0.88157033  0.38755337  0.62460142  1
  Sr2+  Sr14  1  0.88286682  0.88194155  0.12531846  1
  Sr2+  Sr15  1  0.87828731  0.87786997  0.63145612  1
  Sr2+  Sr16  1  0.11927905  0.36368581  0.36660339  1
  Sr2+  Sr17  1  0.11250926  0.36924578  0.87485971  1
  Sr2+  Sr18  1  0.12212163  0.86420009  0.38125531  1
  Sr2+  Sr19  1  0.12979033  0.86987403  0.87502178  1
  Sr2+  Sr20  1  0.63320601  0.37405591  0.37819702  1
  Sr2+  Sr21  1  0.62216860  0.36762643  0.87489567  1
  Sr2+  Sr22  1  0.62268123  0.87220226  0.36788626  1
  Sr2+  Sr23  1  0.62801447  0.86546898  0.87174478  1
  Sr2+  Sr24  1  0.38858602  0.11796537  0.37836495  1
  Sr2+  Sr25  1  0.37918243  0.11666603  0.86844631  1
  Sr2+  Sr26  1  0.39035223  0.62069449  0.37429649  1
  Sr2+  Sr27  1  0.38052983  0.62965444  0.88647612  1
  Sr2+  Sr28  1  0.86612161  0.11875494  0.38247143  1
  Sr2+  Sr29  1  0.88841568  0.11775080  0.87415708  1
  Sr2+  Sr30  1  0.86823705  0.61959104  0.36719136  1
  Sr2+  Sr31  1  0.85829389  0.62097827  0.87373866  1
  Sr2+  Sr32  1  0.12653274  0.12330706  0.37186219  1
  Sr2+  Sr33  1  0.12888291  0.11719109  0.86989723  1
  Sr2+  Sr34  1  0.12107801  0.61357039  0.37873173  1
  Sr2+  Sr35  1  0.12438213  0.60970371  0.87307578  1
  Sr2+  Sr36  1  0.63483692  0.11710179  0.37528511  1
  Sr2+  Sr37  1  0.61876034  0.12719146  0.87368017  1
  Sr2+  Sr38  1  0.61844477  0.60865126  0.37517003  1
  Sr2+  Sr39  1  0.62966839  0.60372886  0.87399916  1
  Sr2+  Sr40  1  0.38454237  0.36564572  0.37113537  1
  Sr2+  Sr41  1  0.38197940  0.35272989  0.87311741  1
  Sr2+  Sr42  1  0.37958099  0.86496795  0.37973145  1
  Sr2+  Sr43  1  0.37843060  0.87293249  0.87495417  1
  Sr2+  Sr44  1  0.86450279  0.35534966  0.37749548  1
  Sr2+  Sr45  1  0.86233527  0.37785415  0.87336109  1
  Sr2+  Sr46  1  0.87324618  0.87651594  0.37227679  1
  Sr2+  Sr47  1  0.86952854  0.86119231  0.87309756  1
  Sr2+  Sr48  1  0.12522910  0.37975370  0.12487853  1
  Sr2+  Sr49  1  0.12725365  0.38256322  0.63664400  1
  Sr2+  Sr50  1  0.12455885  0.87665515  0.12932482  1
  Sr2+  Sr51  1  0.13038378  0.87534212  0.61568973  1
  Sr2+  Sr52  1  0.62958185  0.38349764  0.11338796  1
  Sr2+  Sr53  1  0.62248558  0.38140651  0.62692348  1
  Sr2+  Sr54  1  0.63613958  0.88672801  0.12648172  1
  Sr2+  Sr55  1  0.63657750  0.87600675  0.62426946  1
  Sr2+  Sr56  1  0.36113610  0.13159571  0.12712901  1
  Sr2+  Sr57  1  0.36902754  0.13047344  0.63200164  1
  Sr2+  Sr58  1  0.36240249  0.63628309  0.12743834  1
  Sr2+  Sr59  1  0.36885189  0.62562170  0.62101727  1
  Sr2+  Sr60  1  0.89069406  0.12928887  0.12331294  1
  Sr2+  Sr61  1  0.88576914  0.13739636  0.61840695  1
  Sr2+  Sr62  1  0.88753437  0.63467406  0.12414610  1
  Sr2+  Sr63  1  0.88440216  0.63446230  0.63632478  1
  Ca2+  Ca64  1  0.00136825  0.00050753  0.49850142  1
  Ca2+  Ca65  1  0.50311764  -0.00360278  0.50209203  1
  Ca2+  Ca66  1  -0.00131073  0.49840262  0.49689619  1
  Ca2+  Ca67  1  -0.00352746  0.50497960  -0.00256689  1
  Ca2+  Ca68  1  0.49482664  0.49860502  0.00078660  1
  Ca2+  Ca69  1  0.74915733  0.75082479  0.00194975  1
  Ca2+  Ca70  1  0.75136802  0.24625531  -0.00155002  1
  Ca2+  Ca71  1  0.25134854  0.25040676  0.49829312  1
  Ca2+  Ca72  1  0.75243254  0.75033053  0.49563747  1
  Ca2+  Ca73  1  0.24975979  0.24918729  -0.00175724  1
  Ca2+  Ca74  1  0.25338121  0.50128165  0.75421081  1
  Ca2+  Ca75  1  0.49944643  0.75018617  0.74931948  1
  Ca2+  Ca76  1  0.25112217  0.00089552  0.24948226  1
  Ca2+  Ca77  1  0.00678878  0.75078208  0.75214784  1
  Ca2+  Ca78  1  0.74635392  0.49658668  0.74489166  1
  Ca2+  Ca79  1  0.75056317  0.00339608  0.75253436  1
  Ca2+  Ca80  1  0.25237500  0.50418764  0.25462012  1
  Ca2+  Ca81  1  0.50149847  0.24966330  0.25035327  1
  Ca2+  Ca82  1  -0.00435233  0.24939470  0.25229922  1
  Ca2+  Ca83  1  0.74878552  0.50003360  0.24977927  1
  Ca2+  Ca84  1  -0.00099961  0.24991873  0.75199221  1
  Nb5+  Nb85  1  0.50696647  -0.00292900  -0.00128838  1
  Nb5+  Nb86  1  0.49918740  0.49637242  0.50175384  1
  Nb5+  Nb87  1  0.00970807  -0.00177970  0.00099457  1
  Nb5+  Nb88  1  0.25189741  0.74820103  0.50680794  1
  Nb5+  Nb89  1  0.74975015  0.24823973  0.50284901  1
  Nb5+  Nb90  1  0.24675691  0.75534369  0.00775091  1
  Nb5+  Nb91  1  0.25025038  -0.00270727  0.75092065  1
  Nb5+  Nb92  1  0.49973945  0.24949985  0.74736364  1
  Nb5+  Nb93  1  0.00729070  0.75154658  0.24856058  1
  Nb5+  Nb94  1  0.75323639  0.00088147  0.24627765  1
  Nb5+  Nb95  1  0.50621648  0.75028633  0.24773323  1
  Nb5+  Nb96  1  0.00357240  -0.00059324  0.25067933  1
  Nb5+  Nb97  1  0.00049112  -0.00208730  0.74573199  1
  Nb5+  Nb98  1  -0.00524879  0.49656388  0.25378300  1
  Nb5+  Nb99  1  -0.00236277  0.50194047  0.75284643  1
  Nb5+  Nb100  1  0.50224956  0.00148613  0.24961497  1
  Nb5+  Nb101  1  0.50282176  -0.00202146  0.74723415  1
  Nb5+  Nb102  1  0.50085890  0.49671390  0.24349168  1
  Nb5+  Nb103  1  0.49356324  0.50107066  0.75497366  1
  Nb5+  Nb104  1  0.25089960  0.25165538  0.25366377  1
  Nb5+  Nb105  1  0.25037129  0.25266083  0.75080730  1
  Nb5+  Nb106  1  0.25316579  0.75023685  0.26039943  1
  Nb5+  Nb107  1  0.24666142  0.74663255  0.75763975  1
  Nb5+  Nb108  1  0.75284504  0.24950166  0.24167755  1
  Nb5+  Nb109  1  0.75351656  0.24588797  0.75057667  1
  Nb5+  Nb110  1  0.75650572  0.74907095  0.25181463  1
  Nb5+  Nb111  1  0.74943703  0.74976417  0.74777277  1
  Nb5+  Nb112  1  0.00868995  0.25511882  0.50417621  1
  Nb5+  Nb113  1  -0.00509547  0.25611461  0.99726103  1
  Nb5+  Nb114  1  -0.00305933  0.74687807  0.49908391  1
  Nb5+  Nb115  1  0.00370103  0.75053651  0.99817368  1
  Nb5+  Nb116  1  0.50323181  0.24596132  0.49766086  1
  Nb5+  Nb117  1  0.49442391  0.24783251  1.00871253  1
  Nb5+  Nb118  1  0.50018470  0.74826286  0.50355359  1
  Nb5+  Nb119  1  0.50018419  0.75508822  1.00142730  1
  Nb5+  Nb120  1  0.25695229  -0.00148588  0.00297939  1
  Nb5+  Nb121  1  0.25216825  0.00292927  0.49585316  1
  Nb5+  Nb122  1  0.25317269  0.49681417  -0.00616734  1
  Nb5+  Nb123  1  0.25211670  0.49449031  0.49385360  1
  Nb5+  Nb124  1  0.76142215  0.00232538  -0.00050443  1
  Nb5+  Nb125  1  0.74977809  -0.00146831  0.50718914  1
  Nb5+  Nb126  1  0.74714373  0.50131484  0.00240453  1
  Nb5+  Nb127  1  0.75210339  0.50387113  0.50144692  1
  O2-  O128  1  0.00689425  -0.02315879  0.12519266  1
  O2-  O129  1  0.01584160  -0.02697243  0.63499198  1
  O2-  O130  1  0.01360669  0.48324984  0.13407078  1
  O2-  O131  1  0.01932900  0.48044594  0.63221356  1
  O2-  O132  1  0.52349147  0.00290215  0.12133426  1
  O2-  O133  1  0.52899468  0.00958407  0.63668285  1
  O2-  O134  1  0.53049207  0.50871063  0.13392364  1
  O2-  O135  1  0.52212431  0.51415556  0.61788862  1
  O2-  O136  1  -0.02341249  0.01467164  0.36169415  1
  O2-  O137  1  -0.00383806  0.01548808  0.88502577  1
  O2-  O138  1  -0.01355993  0.53511091  0.36469695  1
  O2-  O139  1  -0.01847938  0.53393666  0.86658185  1
  O2-  O140  1  0.48216407  -0.01643628  0.36314922  1
  O2-  O141  1  0.47655620  -0.00764965  0.88256184  1
  O2-  O142  1  0.47738151  0.49139561  0.38051694  1
  O2-  O143  1  0.46371885  0.48315941  0.86456863  1
  O2-  O144  1  0.27648429  0.26176596  0.13282493  1
  O2-  O145  1  0.27446808  0.25054784  0.63398257  1
  O2-  O146  1  0.26335446  0.77431886  0.12108576  1
  O2-  O147  1  0.26718589  0.76379542  0.62099895  1
  O2-  O148  1  0.76869942  0.22289955  0.13312017  1
  O2-  O149  1  0.75874071  0.22564220  0.62080401  1
  O2-  O150  1  0.76005217  0.72975481  0.13672698  1
  O2-  O151  1  0.76360775  0.73467228  0.62939557  1
  O2-  O152  1  0.21635004  0.24254823  0.36765952  1
  O2-  O153  1  0.23544145  0.23078587  0.86481471  1
  O2-  O154  1  0.23458555  0.73675522  0.37297802  1
  O2-  O155  1  0.23426648  0.74256999  0.87386529  1
  O2-  O156  1  0.72840183  0.25556757  0.38334750  1
  O2-  O157  1  0.73568362  0.26952730  0.86261568  1
  O2-  O158  1  0.74532794  0.78757214  0.36285553  1
  O2-  O159  1  0.74044098  0.76630524  0.86799764  1
  O2-  O160  1  -0.02660448  0.26100607  0.11593658  1
  O2-  O161  1  -0.02823599  0.26579088  0.61810082  1
  O2-  O162  1  -0.00855282  0.77270390  0.12670194  1
  O2-  O163  1  -0.01460608  0.76733393  0.61196044  1
  O2-  O164  1  0.48391212  0.21877332  0.11796649  1
  O2-  O165  1  0.48706058  0.23273584  0.62640084  1
  O2-  O166  1  0.47811788  0.74147553  0.12949603  1
  O2-  O167  1  0.48842395  0.72312314  0.61397301  1
  O2-  O168  1  0.27484681  0.01549477  0.38451681  1
  O2-  O169  1  0.26242357  0.01139350  0.87508591  1
  O2-  O170  1  0.26967275  0.53512623  0.38588325  1
  O2-  O171  1  0.26434213  0.53917549  0.88432195  1
  O2-  O172  1  0.76908475  -0.00634386  0.36494789  1
  O2-  O173  1  0.77941352  -0.00937156  0.88641093  1
  O2-  O174  1  0.76731791  0.47546953  0.38728463  1
  O2-  O175  1  0.76702978  0.49480377  0.88129368  1
  O2-  O176  1  0.02281696  0.23334421  0.38702210  1
  O2-  O177  1  0.02374492  0.22640079  0.88649372  1
  O2-  O178  1  0.01781322  0.73650094  0.36463782  1
  O2-  O179  1  0.03309558  0.74434643  0.88807680  1
  O2-  O180  1  0.51756006  0.27713019  0.38750068  1
  O2-  O181  1  0.51368848  0.25894122  0.86851417  1
  O2-  O182  1  0.50467978  0.76158987  0.36804488  1
  O2-  O183  1  0.50272137  0.77520617  0.88773399  1
  O2-  O184  1  0.24417201  -0.02991862  0.11362932  1
  O2-  O185  1  0.23759089  -0.01614572  0.63282710  1
  O2-  O186  1  0.23325375  0.48690646  0.11406895  1
  O2-  O187  1  0.23478503  0.49011429  0.61286009  1
  O2-  O188  1  0.73126693  0.01369521  0.12666793  1
  O2-  O189  1  0.72143510  0.00676602  0.61710459  1
  O2-  O190  1  0.71702424  0.50850892  0.11840765  1
  O2-  O191  1  0.71387317  0.50257052  0.61194744  1
  O2-  O192  1  0.13114029  0.27597208  0.22872283  1
  O2-  O193  1  0.13576844  0.26487864  0.73062771  1
  O2-  O194  1  0.12500576  0.77374788  0.24221876  1
  O2-  O195  1  0.13953576  0.79075139  0.73729572  1
  O2-  O196  1  0.63634633  0.26880881  0.23390420  1
  O2-  O197  1  0.61630313  0.26594285  0.73157430  1
  O2-  O198  1  0.62222233  0.76700087  0.23525892  1
  O2-  O199  1  0.63159586  0.77983670  0.73422067  1
  O2-  O200  1  0.36659986  0.22551311  0.28052608  1
  O2-  O201  1  0.37833507  0.22921599  0.76506477  1
  O2-  O202  1  0.37240672  0.73475038  0.26314039  1
  O2-  O203  1  0.36348388  0.73054713  0.76184049  1
  O2-  O204  1  0.86247951  0.22642741  0.28193364  1
  O2-  O205  1  0.86416665  0.21766162  0.76213434  1
  O2-  O206  1  0.87559078  0.73923208  0.26100528  1
  O2-  O207  1  0.86889562  0.72668618  0.76508058  1
  O2-  O208  1  0.27537751  0.37017032  0.26453478  1
  O2-  O209  1  0.27404730  0.36527178  0.76290201  1
  O2-  O210  1  0.26969487  0.86600060  0.26392367  1
  O2-  O211  1  0.27746323  0.88040382  0.76118113  1
  O2-  O212  1  0.77646437  0.36335643  0.23480047  1
  O2-  O213  1  0.76464265  0.36025078  0.72331420  1
  O2-  O214  1  0.76256813  0.87897672  0.22741903  1
  O2-  O215  1  0.77491166  0.86970213  0.73528367  1
  O2-  O216  1  0.22820024  0.13315156  0.23293865  1
  O2-  O217  1  0.23912329  0.11824761  0.73930032  1
  O2-  O218  1  0.23482443  0.64145142  0.22245581  1
  O2-  O219  1  0.22110231  0.63779046  0.73486390  1
  O2-  O220  1  0.72972209  0.11837041  0.25890805  1
  O2-  O221  1  0.71229725  0.13476231  0.75529174  1
  O2-  O222  1  0.73558499  0.63893717  0.28066749  1
  O2-  O223  1  0.71966081  0.63224314  0.75757226  1
  O2-  O224  1  0.11484286  0.49472934  0.26705015  1
  O2-  O225  1  0.11827936  0.47930844  0.77249302  1
  O2-  O226  1  0.11481629  0.97675352  0.26941592  1
  O2-  O227  1  0.13331079  0.98253908  0.76943139  1
  O2-  O228  1  0.61303084  0.48819096  0.28124504  1
  O2-  O229  1  0.60803142  0.47077839  0.76395405  1
  O2-  O230  1  0.62753461  0.97737960  0.25848112  1
  O2-  O231  1  0.61207776  0.98498103  0.78360077  1
  O2-  O232  1  0.38939211  0.01571826  0.22312823  1
  O2-  O233  1  0.37539428  0.02014468  0.73984293  1
  O2-  O234  1  0.38823768  0.53196802  0.23448622  1
  O2-  O235  1  0.38461068  0.50891679  0.71207216  1
  O2-  O236  1  0.87047989  0.01092556  0.22700277  1
  O2-  O237  1  0.88856032  0.02680016  0.73428858  1
  O2-  O238  1  0.88189285  0.52951740  0.23037445  1
  O2-  O239  1  0.88076705  0.51456847  0.72614725  1
  O2-  O240  1  0.47362324  0.38493584  0.23612661  1
  O2-  O241  1  0.47644724  0.36639888  0.73627834  1
  O2-  O242  1  0.48825397  0.87146643  0.23856154  1
  O2-  O243  1  0.47434099  0.88639194  0.73944006  1
  O2-  O244  1  0.97495874  0.38552783  0.27407165  1
  O2-  O245  1  0.97975838  0.38292508  0.77748820  1
  O2-  O246  1  0.97883919  0.87339266  0.25931162  1
  O2-  O247  1  0.98153920  0.88647182  0.77751285  1
  O2-  O248  1  0.01543943  0.11256387  0.22715928  1
  O2-  O249  1  0.03245069  0.11252002  0.74566194  1
  O2-  O250  1  0.01315379  0.63773789  0.22539096  1
  O2-  O251  1  0.02152336  0.61846984  0.72786925  1
  O2-  O252  1  0.52563542  0.11314988  0.26536840  1
  O2-  O253  1  0.50966493  0.12518400  0.76218679  1
  O2-  O254  1  0.51913184  0.63255680  0.25865538  1
  O2-  O255  1  0.51341971  0.61337138  0.77100663  1
  O2-  O256  1  0.13355522  0.48955066  -0.02183638  1
  O2-  O257  1  0.13797141  0.48166941  0.47364237  1
  O2-  O258  1  0.12303342  0.97689666  -0.00904263  1
  O2-  O259  1  0.13763040  0.97276041  0.48639167  1
  O2-  O260  1  0.62753972  0.47488691  -0.02375753  1
  O2-  O261  1  0.61659090  0.48505223  0.47802938  1
  O2-  O262  1  0.61808759  0.97218654  -0.01688519  1
  O2-  O263  1  0.63762928  0.97858246  0.47122258  1
  O2-  O264  1  0.37139345  0.01780086  0.01493705  1
  O2-  O265  1  0.36676938  0.01460952  0.52907472  1
  O2-  O266  1  0.36396821  0.53254545  0.02110258  1
  O2-  O267  1  0.38030225  0.51792005  0.51835848  1
  O2-  O268  1  0.87461188  0.01979360  0.01985966  1
  O2-  O269  1  0.86483772  0.02833435  0.51239922  1
  O2-  O270  1  0.86272581  0.52666954  0.02253304  1
  O2-  O271  1  0.86294956  0.51795661  0.52876876  1
  O2-  O272  1  0.47046672  0.36102398  0.01853006  1
  O2-  O273  1  0.48574703  0.37867342  0.51944709  1
  O2-  O274  1  0.47113242  0.88014543  0.01452728  1
  O2-  O275  1  0.47124790  0.86117030  0.50998390  1
  O2-  O276  1  0.97474453  0.36810317  -0.02334460  1
  O2-  O277  1  0.97212976  0.36593332  0.47900460  1
  O2-  O278  1  0.97772270  0.87973191  -0.00849102  1
  O2-  O279  1  0.99178618  0.86228726  0.46982132  1
  O2-  O280  1  0.01585330  0.11392604  0.02291742  1
  O2-  O281  1  0.01658627  0.13550725  0.52425564  1
  O2-  O282  1  0.02311283  0.64064310  0.02517813  1
  O2-  O283  1  0.03559051  0.63582880  0.50589589  1
  O2-  O284  1  0.51864241  0.11512892  -0.00961626  1
  O2-  O285  1  0.52262022  0.13309673  0.48116246  1
  O2-  O286  1  0.51290783  0.63980046  -0.01097899  1
  O2-  O287  1  0.51031494  0.62558665  0.48050047  1
  O2-  O288  1  0.11379719  0.26933390  0.02169011  1
  O2-  O289  1  0.11808310  0.28115364  0.52565002  1
  O2-  O290  1  0.12929583  0.78378747  0.01401909  1
  O2-  O291  1  0.13498872  0.77099914  0.50382800  1
  O2-  O292  1  0.61215139  0.26499353  0.00975857  1
  O2-  O293  1  0.62338234  0.26380595  0.52505081  1
  O2-  O294  1  0.61030720  0.77632556  0.02380746  1
  O2-  O295  1  0.61366854  0.77036354  0.50627202  1
  O2-  O296  1  0.38470892  0.22156901  -0.02564979  1
  O2-  O297  1  0.38798555  0.23079931  0.48547055  1
  O2-  O298  1  0.36805851  0.74096110  -0.00876101  1
  O2-  O299  1  0.37047917  0.73115746  0.47982767  1
  O2-  O300  1  0.88366294  0.21755652  -0.01941661  1
  O2-  O301  1  0.86487212  0.23065308  0.48539690  1
  O2-  O302  1  0.88886362  0.73550896  -0.01660609  1
  O2-  O303  1  0.88748372  0.71969329  0.47949722  1
  O2-  O304  1  0.27621520  0.38615622  -0.02298402  1
  O2-  O305  1  0.28330629  0.38501315  0.48259423  1
  O2-  O306  1  0.26269253  0.87674031  -0.02596217  1
  O2-  O307  1  0.27265564  0.87137463  0.49051566  1
  O2-  O308  1  0.77001976  0.38205852  0.01605946  1
  O2-  O309  1  0.76034560  0.36687200  0.51420271  1
  O2-  O310  1  0.76110913  0.88692130  0.02248964  1
  O2-  O311  1  0.77950378  0.88547355  0.51437870  1
  O2-  O312  1  0.22594193  0.10981866  0.01427747  1
  O2-  O313  1  0.22445227  0.11433844  0.51268383  1
  O2-  O314  1  0.22777284  0.64164429  0.01613424  1
  O2-  O315  1  0.23828784  0.63149086  0.51895054  1
  O2-  O316  1  0.71619064  0.11035290  -0.00843783  1
  O2-  O317  1  0.72850146  0.12471064  0.49019804  1
  O2-  O318  1  0.71941061  0.61905874  -0.01060115  1
  O2-  O319  1  0.72853337  0.61454319  0.47966686  1
