# generated using pymatgen
data_Sr64Ca21Nb43O192
_symmetry_space_group_name_H-M   'P 1'
_cell_length_a   16.59692908
_cell_length_b   16.56964468
_cell_length_c   16.72653719
_cell_angle_alpha   90.00693924
_cell_angle_beta   89.93750875
_cell_angle_gamma   90.11554482
_symmetry_Int_Tables_number   1
_chemical_formula_structural   Sr64Ca21Nb43O192
_chemical_formula_sum   'Sr64 Ca21 Nb43 O192'
_cell_volume   4599.87287775
_cell_formula_units_Z   1
loop_
 _symmetry_equiv_pos_site_id
 _symmetry_equiv_pos_as_xyz
  1  'x, y, z'
loop_
 _atom_type_symbol
 _atom_type_oxidation_number
  Sr2+  2.0
  Ca2+  2.0
  Nb5+  5.0
  O2-  -2.0
loop_
 _atom_site_type_symbol
 _atom_site_label
 _atom_site_symmetry_multiplicity
 _atom_site_fract_x
 _atom_site_fract_y
 _atom_site_fract_z
 _atom_site_occupancy
  Sr2+  Sr0  1  0.13198050  0.14179975  0.12867566  1
  Sr2+  Sr1  1  0.13312403  0.12588997  0.62708655  1
  Sr2+  Sr2  1  0.12986596  0.63888046  0.12181536  1
  Sr2+  Sr3  1  0.13542976  0.63565336  0.62280368  1
  Sr2+  Sr4  1  0.61825445  0.13122227  0.12132243  1
  Sr2+  Sr5  1  0.62514884  0.13684421  0.61512175  1
  Sr2+  Sr6  1  0.63193273  0.64049166  0.13031913  1
  Sr2+  Sr7  1  0.61107801  0.62865258  0.62380712  1
  Sr2+  Sr8  1  0.37389654  0.36623884  0.13653770  1
  Sr2+  Sr9  1  0.37436012  0.39436917  0.62195236  1
  Sr2+  Sr10  1  0.37065490  0.87562283  0.11690324  1
  Sr2+  Sr11  1  0.36343204  0.89392015  0.63328848  1
  Sr2+  Sr12  1  0.87745362  0.39081748  0.12493147  1
  Sr2+  Sr13  1  0.87542788  0.37940346  0.61526649  1
  Sr2+  Sr14  1  0.88046785  0.88288175  0.13283900  1
  Sr2+  Sr15  1  0.88072253  0.87736541  0.62124265  1
  Sr2+  Sr16  1  0.11739475  0.36192906  0.36153192  1
  Sr2+  Sr17  1  0.11078205  0.36938446  0.87528366  1
  Sr2+  Sr18  1  0.11392819  0.87095125  0.37690199  1
  Sr2+  Sr19  1  0.11948554  0.85940520  0.87079609  1
  Sr2+  Sr20  1  0.62105346  0.37596335  0.36900129  1
  Sr2+  Sr21  1  0.63303522  0.36771608  0.87130687  1
  Sr2+  Sr22  1  0.62292884  0.87333768  0.37668480  1
  Sr2+  Sr23  1  0.61964267  0.87911021  0.87289788  1
  Sr2+  Sr24  1  0.35284025  0.11881437  0.37453082  1
  Sr2+  Sr25  1  0.39292382  0.11383102  0.87725753  1
  Sr2+  Sr26  1  0.39047932  0.61647358  0.37968302  1
  Sr2+  Sr27  1  0.37873773  0.61600497  0.88054226  1
  Sr2+  Sr28  1  0.87357759  0.12009293  0.37803651  1
  Sr2+  Sr29  1  0.86572493  0.12236666  0.87441437  1
  Sr2+  Sr30  1  0.86161251  0.62217525  0.37523891  1
  Sr2+  Sr31  1  0.87777384  0.61621375  0.86852686  1
  Sr2+  Sr32  1  0.12650080  0.11755931  0.36803841  1
  Sr2+  Sr33  1  0.10925446  0.12199295  0.87648804  1
  Sr2+  Sr34  1  0.12712744  0.61695813  0.37627775  1
  Sr2+  Sr35  1  0.12620730  0.61435602  0.87632370  1
  Sr2+  Sr36  1  0.62713576  0.13073349  0.37384164  1
  Sr2+  Sr37  1  0.62945842  0.12264880  0.87735505  1
  Sr2+  Sr38  1  0.62490074  0.64654035  0.37647237  1
  Sr2+  Sr39  1  0.62933557  0.60290707  0.87080098  1
  Sr2+  Sr40  1  0.37144497  0.37139743  0.37502762  1
  Sr2+  Sr41  1  0.36292172  0.37019644  0.86619473  1
  Sr2+  Sr42  1  0.36692384  0.87079858  0.38294104  1
  Sr2+  Sr43  1  0.37922387  0.86964266  0.87593946  1
  Sr2+  Sr44  1  0.86761015  0.36759211  0.37243301  1
  Sr2+  Sr45  1  0.87065048  0.36711100  0.87825584  1
  Sr2+  Sr46  1  0.86738130  0.86427168  0.37765764  1
  Sr2+  Sr47  1  0.86439641  0.86404150  0.87023515  1
  Sr2+  Sr48  1  0.13562958  0.38673106  0.12740545  1
  Sr2+  Sr49  1  0.14172518  0.37739876  0.63248612  1
  Sr2+  Sr50  1  0.13006847  0.87726121  0.11346208  1
  Sr2+  Sr51  1  0.12711763  0.88303238  0.62540120  1
  Sr2+  Sr52  1  0.62170533  0.38208208  0.12573729  1
  Sr2+  Sr53  1  0.60908380  0.37956763  0.62638417  1
  Sr2+  Sr54  1  0.61387683  0.88257324  0.12725605  1
  Sr2+  Sr55  1  0.62089316  0.88892179  0.61730603  1
  Sr2+  Sr56  1  0.36907474  0.12562890  0.12508249  1
  Sr2+  Sr57  1  0.36821044  0.13282563  0.62304994  1
  Sr2+  Sr58  1  0.36570461  0.63507381  0.12956524  1
  Sr2+  Sr59  1  0.36783507  0.62748780  0.61450246  1
  Sr2+  Sr60  1  0.88529442  0.12835273  0.12559745  1
  Sr2+  Sr61  1  0.88736506  0.12834050  0.62262142  1
  Sr2+  Sr62  1  0.88519078  0.63064210  0.12529943  1
  Sr2+  Sr63  1  0.89023714  0.63276618  0.61939884  1
  Ca2+  Ca64  1  0.50175785  0.49837938  0.00233149  1
  Ca2+  Ca65  1  -0.00026078  0.00129136  0.49934586  1
  Ca2+  Ca66  1  0.00030956  0.49809153  0.49801290  1
  Ca2+  Ca67  1  0.49656427  0.00549688  0.49869346  1
  Ca2+  Ca68  1  -0.00189286  -0.00092547  -0.00094712  1
  Ca2+  Ca69  1  0.24898059  0.25231876  -0.00265897  1
  Ca2+  Ca70  1  0.75175848  0.75043406  -0.00181400  1
  Ca2+  Ca71  1  0.24989774  0.75303603  0.50130304  1
  Ca2+  Ca72  1  0.75161500  0.74990313  0.50701918  1
  Ca2+  Ca73  1  0.24489269  0.25065835  0.49967290  1
  Ca2+  Ca74  1  0.75118538  0.49911956  0.74692753  1
  Ca2+  Ca75  1  0.49268692  0.75027133  0.25022860  1
  Ca2+  Ca76  1  0.24865004  0.50327604  0.74910807  1
  Ca2+  Ca77  1  0.25157262  -0.00771182  0.24729643  1
  Ca2+  Ca78  1  0.25093214  0.50735458  0.24995688  1
  Ca2+  Ca79  1  0.00278725  0.75105704  0.24744719  1
  Ca2+  Ca80  1  0.50030094  0.74872279  0.74942013  1
  Ca2+  Ca81  1  0.50066796  0.24803052  0.75148606  1
  Ca2+  Ca82  1  0.50065081  0.24326796  0.25271853  1
  Ca2+  Ca83  1  0.24839352  0.00418199  0.75853335  1
  Ca2+  Ca84  1  -0.00401019  0.24936634  0.24693355  1
  Nb5+  Nb85  1  0.50319873  0.49881713  0.49725736  1
  Nb5+  Nb86  1  0.50012209  -0.00065752  0.00289956  1
  Nb5+  Nb87  1  0.00306005  0.49869858  -0.00004757  1
  Nb5+  Nb88  1  0.74914595  0.25123888  0.49360725  1
  Nb5+  Nb89  1  0.25096822  0.74931249  -0.00456608  1
  Nb5+  Nb90  1  0.75033063  0.24923058  -0.00137029  1
  Nb5+  Nb91  1  -0.00174184  0.24668556  0.74860973  1
  Nb5+  Nb92  1  0.74902168  0.50435505  0.25063980  1
  Nb5+  Nb93  1  0.00107876  0.74286444  0.74883683  1
  Nb5+  Nb94  1  0.74719085  0.00613826  0.24291237  1
  Nb5+  Nb95  1  0.75060193  0.00260355  0.74212251  1
  Nb5+  Nb96  1  0.00434896  -0.00354830  0.24936135  1
  Nb5+  Nb97  1  -0.00204444  -0.00793599  0.75590654  1
  Nb5+  Nb98  1  -0.00019739  0.50273753  0.25313067  1
  Nb5+  Nb99  1  -0.00119053  0.49048029  0.74678629  1
  Nb5+  Nb100  1  0.49720859  -0.00097274  0.25259322  1
  Nb5+  Nb101  1  0.50121387  0.00447236  0.74543998  1
  Nb5+  Nb102  1  0.50151620  0.50207696  0.24218444  1
  Nb5+  Nb103  1  0.49628571  0.49773207  0.75476769  1
  Nb5+  Nb104  1  0.24848082  0.25036169  0.25033832  1
  Nb5+  Nb105  1  0.25153624  0.24722389  0.75529870  1
  Nb5+  Nb106  1  0.24713320  0.75386521  0.25736878  1
  Nb5+  Nb107  1  0.25514265  0.74687877  0.75302863  1
  Nb5+  Nb108  1  0.75324148  0.25371323  0.24029810  1
  Nb5+  Nb109  1  0.75513821  0.24973114  0.74122257  1
  Nb5+  Nb110  1  0.75310476  0.75870432  0.24816632  1
  Nb5+  Nb111  1  0.74529961  0.75077722  0.74647738  1
  Nb5+  Nb112  1  0.00290146  0.25203167  0.49883691  1
  Nb5+  Nb113  1  -0.00150715  0.25298889  1.00477288  1
  Nb5+  Nb114  1  0.00334772  0.74665004  0.49422810  1
  Nb5+  Nb115  1  -0.00370924  0.75069335  0.99372304  1
  Nb5+  Nb116  1  0.49618100  0.24636236  0.49770850  1
  Nb5+  Nb117  1  0.49678019  0.25148883  1.00088288  1
  Nb5+  Nb118  1  0.49608844  0.75920270  0.50693875  1
  Nb5+  Nb119  1  0.50651675  0.74623190  0.99698031  1
  Nb5+  Nb120  1  0.24427021  0.00172962  -0.00736394  1
  Nb5+  Nb121  1  0.24706254  -0.00064331  0.50029555  1
  Nb5+  Nb122  1  0.25939498  0.50158529  0.00404540  1
  Nb5+  Nb123  1  0.24364095  0.49688767  0.49091599  1
  Nb5+  Nb124  1  0.75270467  -0.00233681  -0.00149603  1
  Nb5+  Nb125  1  0.75184123  0.00093915  0.49260727  1
  Nb5+  Nb126  1  0.75026188  0.50126661  0.00101561  1
  Nb5+  Nb127  1  0.74498673  0.50028926  0.50376594  1
  O2-  O128  1  0.00698158  -0.03355891  0.13125304  1
  O2-  O129  1  0.00335291  -0.01397375  0.63881202  1
  O2-  O130  1  0.00870750  0.47504214  0.11705232  1
  O2-  O131  1  0.01723306  0.47372367  0.63538998  1
  O2-  O132  1  0.52421349  0.01296313  0.11935881  1
  O2-  O133  1  0.53114905  0.01763377  0.63597210  1
  O2-  O134  1  0.53627108  0.52132577  0.13427845  1
  O2-  O135  1  0.52450315  0.50518760  0.61737897  1
  O2-  O136  1  -0.01078846  0.02937573  0.36415466  1
  O2-  O137  1  -0.01920956  0.03019392  0.86608409  1
  O2-  O138  1  -0.01738616  0.53176826  0.36306480  1
  O2-  O139  1  -0.01814450  0.51086795  0.88075904  1
  O2-  O140  1  0.48851673  -0.02682899  0.36459375  1
  O2-  O141  1  0.49173647  -0.01697593  0.88240972  1
  O2-  O142  1  0.48688893  0.47677002  0.37920541  1
  O2-  O143  1  0.46859278  0.48492481  0.86700860  1
  O2-  O144  1  0.27292941  0.24075629  0.13105736  1
  O2-  O145  1  0.24928919  0.22951393  0.63598641  1
  O2-  O146  1  0.26063598  0.74598365  0.11447114  1
  O2-  O147  1  0.26192710  0.74163322  0.63730047  1
  O2-  O148  1  0.77403900  0.24014900  0.12724809  1
  O2-  O149  1  0.77434218  0.23978022  0.62814206  1
  O2-  O150  1  0.77139525  0.73680119  0.13379940  1
  O2-  O151  1  0.79019051  0.74942089  0.63896781  1
  O2-  O152  1  0.21940473  0.25389129  0.36624171  1
  O2-  O153  1  0.22899724  0.27968622  0.86705317  1
  O2-  O154  1  0.22908817  0.77051388  0.36848626  1
  O2-  O155  1  0.22784026  0.75378967  0.87650856  1
  O2-  O156  1  0.73039800  0.25591408  0.37875271  1
  O2-  O157  1  0.73742620  0.25375847  0.88169881  1
  O2-  O158  1  0.73359277  0.76159121  0.36808311  1
  O2-  O159  1  0.73749744  0.77623030  0.86232108  1
  O2-  O160  1  -0.03476176  0.26581644  0.11388190  1
  O2-  O161  1  -0.02697015  0.26662392  0.63528895  1
  O2-  O162  1  -0.01873844  0.76264405  0.10862460  1
  O2-  O163  1  -0.02050808  0.76294870  0.63558215  1
  O2-  O164  1  0.48834931  0.21838558  0.11514534  1
  O2-  O165  1  0.49019937  0.22833671  0.61641088  1
  O2-  O166  1  0.48008233  0.72916344  0.11137661  1
  O2-  O167  1  0.48755519  0.71531386  0.61664181  1
  O2-  O168  1  0.26805925  -0.00806456  0.38194536  1
  O2-  O169  1  0.29310704  -0.00128865  0.88725304  1
  O2-  O170  1  0.28743246  0.50271053  0.38079879  1
  O2-  O171  1  0.27063979  0.49868048  0.88564088  1
  O2-  O172  1  0.76583760  -0.00030360  0.37474586  1
  O2-  O173  1  0.76325786  -0.00177845  0.88071466  1
  O2-  O174  1  0.76857250  0.48960164  0.36887358  1
  O2-  O175  1  0.77254831  0.49817284  0.88636733  1
  O2-  O176  1  0.01861000  0.23437668  0.38601640  1
  O2-  O177  1  0.00952639  0.24311677  0.87461635  1
  O2-  O178  1  0.03010730  0.73370228  0.38295933  1
  O2-  O179  1  0.02457806  0.72905752  0.87276647  1
  O2-  O180  1  0.53168820  0.26174299  0.38590811  1
  O2-  O181  1  0.53168241  0.26206657  0.88918824  1
  O2-  O182  1  0.51413452  0.76844424  0.38710180  1
  O2-  O183  1  0.50644459  0.78100850  0.88452145  1
  O2-  O184  1  0.24403602  -0.01105278  0.10996286  1
  O2-  O185  1  0.23318249  0.00478741  0.62229152  1
  O2-  O186  1  0.22129237  0.51750790  0.11446365  1
  O2-  O187  1  0.22929321  0.50424469  0.61093825  1
  O2-  O188  1  0.72821254  0.00356925  0.12757052  1
  O2-  O189  1  0.73230404  0.01267469  0.62865727  1
  O2-  O190  1  0.73526885  0.49499945  0.12793001  1
  O2-  O191  1  0.72352432  0.49068010  0.61481843  1
  O2-  O192  1  0.12899464  0.26935115  0.22230340  1
  O2-  O193  1  0.11106456  0.27642982  0.74046438  1
  O2-  O194  1  0.13572877  0.78768678  0.22639404  1
  O2-  O195  1  0.11543693  0.77807258  0.73873710  1
  O2-  O196  1  0.63807680  0.26345345  0.23245101  1
  O2-  O197  1  0.64021942  0.26331063  0.73470894  1
  O2-  O198  1  0.63418682  0.75782406  0.23104771  1
  O2-  O199  1  0.63733639  0.77754085  0.71967479  1
  O2-  O200  1  0.36600349  0.23573372  0.27613347  1
  O2-  O201  1  0.36318354  0.22425753  0.77296152  1
  O2-  O202  1  0.36002928  0.70922661  0.26222386  1
  O2-  O203  1  0.36494253  0.72269170  0.77474627  1
  O2-  O204  1  0.86217240  0.23100228  0.27934360  1
  O2-  O205  1  0.87588534  0.23085179  0.77152586  1
  O2-  O206  1  0.86635113  0.72919173  0.27108628  1
  O2-  O207  1  0.88366079  0.73840432  0.77779326  1
  O2-  O208  1  0.26588362  0.37041383  0.24406513  1
  O2-  O209  1  0.26616394  0.36633044  0.73123732  1
  O2-  O210  1  0.29642576  0.86249533  0.24360176  1
  O2-  O211  1  0.26856878  0.86619537  0.75445291  1
  O2-  O212  1  0.76928104  0.37063868  0.24403096  1
  O2-  O213  1  0.77765917  0.36306680  0.75205370  1
  O2-  O214  1  0.77019879  0.87543967  0.24303432  1
  O2-  O215  1  0.77342138  0.88693800  0.74146096  1
  O2-  O216  1  0.22776941  0.12928918  0.25192734  1
  O2-  O217  1  0.20978158  0.13664547  0.76865698  1
  O2-  O218  1  0.20906679  0.63887472  0.25241346  1
  O2-  O219  1  0.21315309  0.63577450  0.75659465  1
  O2-  O220  1  0.73263108  0.12249296  0.25323304  1
  O2-  O221  1  0.74033922  0.12611844  0.76396753  1
  O2-  O222  1  0.73258658  0.61916698  0.25819701  1
  O2-  O223  1  0.72840531  0.63709526  0.75800441  1
  O2-  O224  1  0.11249828  0.47987136  0.26389426  1
  O2-  O225  1  0.11175096  0.48643954  0.77757643  1
  O2-  O226  1  0.11621219  0.97804839  0.26651869  1
  O2-  O227  1  0.11170561  0.98274174  0.77186075  1
  O2-  O228  1  0.63380460  0.47849197  0.26141819  1
  O2-  O229  1  0.61658802  0.47529321  0.77116511  1
  O2-  O230  1  0.63487994  0.97222869  0.26460901  1
  O2-  O231  1  0.63401980  0.98712869  0.76836707  1
  O2-  O232  1  0.38799811  0.03114608  0.23848408  1
  O2-  O233  1  0.38716536  0.02433928  0.73046234  1
  O2-  O234  1  0.38860666  0.51294228  0.22089780  1
  O2-  O235  1  0.38445095  0.52271387  0.72143922  1
  O2-  O236  1  0.86494185  0.01469884  0.23116303  1
  O2-  O237  1  0.87021555  0.02229949  0.74023479  1
  O2-  O238  1  0.86855775  0.51531383  0.22894202  1
  O2-  O239  1  0.88667559  0.52765035  0.73579846  1
  O2-  O240  1  0.49511907  0.38227246  0.23545959  1
  O2-  O241  1  0.48052787  0.38114554  0.73041777  1
  O2-  O242  1  0.49147437  0.88562285  0.21761206  1
  O2-  O243  1  0.48566454  0.88689609  0.74024474  1
  O2-  O244  1  0.97268203  0.38612570  0.26400663  1
  O2-  O245  1  0.97531776  0.37724082  0.76873712  1
  O2-  O246  1  0.96873562  0.88416876  0.27257568  1
  O2-  O247  1  0.97785225  0.87790943  0.77140111  1
  O2-  O248  1  0.00979022  0.11332693  0.21729966  1
  O2-  O249  1  0.01443549  0.13188026  0.73561038  1
  O2-  O250  1  0.01008418  0.61441856  0.21437377  1
  O2-  O251  1  0.01730619  0.62814301  0.73422094  1
  O2-  O252  1  0.53929855  0.10907645  0.25716270  1
  O2-  O253  1  0.51831504  0.11526445  0.78229381  1
  O2-  O254  1  0.51841722  0.61234021  0.28065526  1
  O2-  O255  1  0.52785720  0.61383498  0.76266972  1
  O2-  O256  1  0.11882086  0.48320010  -0.01791582  1
  O2-  O257  1  0.13383986  0.47599315  0.46075842  1
  O2-  O258  1  0.13440256  0.97775772  -0.03130663  1
  O2-  O259  1  0.13156777  0.96724634  0.48907771  1
  O2-  O260  1  0.63741126  0.47092760  -0.01756450  1
  O2-  O261  1  0.62656757  0.47079557  0.48131492  1
  O2-  O262  1  0.63007179  0.98239223  -0.01094780  1
  O2-  O263  1  0.63499143  0.97986043  0.48826764  1
  O2-  O264  1  0.38494589  0.01734970  0.01938220  1
  O2-  O265  1  0.36570602  0.03580483  0.51456231  1
  O2-  O266  1  0.36908269  0.52991440  0.02216694  1
  O2-  O267  1  0.38729562  0.51458089  0.51670019  1
  O2-  O268  1  0.86377706  0.02740120  0.01969192  1
  O2-  O269  1  0.86431422  0.02835629  0.51467043  1
  O2-  O270  1  0.87324855  0.51239703  0.02124218  1
  O2-  O271  1  0.86104665  0.51507884  0.51830978  1
  O2-  O272  1  0.48934172  0.36355614  0.03017185  1
  O2-  O273  1  0.49152851  0.37008825  0.51672815  1
  O2-  O274  1  0.48779583  0.87935508  0.01803827  1
  O2-  O275  1  0.47784997  0.86955106  0.53227914  1
  O2-  O276  1  0.97853036  0.37683590  -0.01829567  1
  O2-  O277  1  0.96334455  0.36441004  0.48943749  1
  O2-  O278  1  0.98613630  0.86296702  -0.03136235  1
  O2-  O279  1  0.97188307  0.86319421  0.48858071  1
  O2-  O280  1  0.01824971  0.13778263  0.01446339  1
  O2-  O281  1  0.01132878  0.13898655  0.53126913  1
  O2-  O282  1  0.01441528  0.61768098  0.01265031  1
  O2-  O283  1  0.01973416  0.63162094  0.52803007  1
  O2-  O284  1  0.52050271  0.11925954  -0.01559315  1
  O2-  O285  1  0.53387470  0.13496205  0.48945999  1
  O2-  O286  1  0.51694799  0.63420234  -0.03172057  1
  O2-  O287  1  0.52427749  0.61348385  0.48319577  1
  O2-  O288  1  0.11112376  0.27820373  0.01810049  1
  O2-  O289  1  0.11034620  0.28301416  0.52217253  1
  O2-  O290  1  0.12381096  0.76159274  0.01065316  1
  O2-  O291  1  0.11437689  0.77308421  0.52712591  1
  O2-  O292  1  0.63448739  0.26261994  0.02488387  1
  O2-  O293  1  0.63796103  0.26616151  0.52874973  1
  O2-  O294  1  0.61704130  0.76812793  0.02026288  1
  O2-  O295  1  0.61649415  0.76608202  0.52036922  1
  O2-  O296  1  0.38624757  0.23522527  -0.02724770  1
  O2-  O297  1  0.38454915  0.23157558  0.47614430  1
  O2-  O298  1  0.36947130  0.73640205  -0.02016062  1
  O2-  O299  1  0.38502546  0.72458456  0.48314610  1
  O2-  O300  1  0.87080382  0.23257981  -0.01806850  1
  O2-  O301  1  0.86778316  0.22710639  0.48868262  1
  O2-  O302  1  0.88533426  0.72305109  -0.02600256  1
  O2-  O303  1  0.88492074  0.72029132  0.48469104  1
  O2-  O304  1  0.27312236  0.38762381  0.01763426  1
  O2-  O305  1  0.27882940  0.38339557  0.50366531  1
  O2-  O306  1  0.26469724  0.86982373  -0.00448915  1
  O2-  O307  1  0.28383362  0.88457619  0.51087717  1
  O2-  O308  1  0.77060083  0.36830623  0.00880381  1
  O2-  O309  1  0.77074394  0.36948374  0.49916234  1
  O2-  O310  1  0.77776689  0.88571845  0.01099850  1
  O2-  O311  1  0.77311904  0.88757265  0.50991034  1
  O2-  O312  1  0.22478825  0.11631646  -0.00340263  1
  O2-  O313  1  0.21644887  0.11665934  0.48853759  1
  O2-  O314  1  0.23244889  0.62887796  -0.01043451  1
  O2-  O315  1  0.23133945  0.61683754  0.49257062  1
  O2-  O316  1  0.73180152  0.12757643  -0.00065971  1
  O2-  O317  1  0.72869989  0.12743979  0.49393748  1
  O2-  O318  1  0.72519464  0.61393227  0.00250866  1
  O2-  O319  1  0.72420688  0.61257495  0.48961069  1
