# generated using pymatgen
data_Sr64Ca21Nb43O192
_symmetry_space_group_name_H-M   'P 1'
_cell_length_a   16.53882932
_cell_length_b   16.55955138
_cell_length_c   16.71629575
_cell_angle_alpha   89.99403292
_cell_angle_beta   89.98758592
_cell_angle_gamma   90.01153001
_symmetry_Int_Tables_number   1
_chemical_formula_structural   Sr64Ca21Nb43O192
_chemical_formula_sum   'Sr64 Ca21 Nb43 O192'
_cell_volume   4578.18520126
_cell_formula_units_Z   1
loop_
 _symmetry_equiv_pos_site_id
 _symmetry_equiv_pos_as_xyz
  1  'x, y, z'
loop_
 _atom_type_symbol
 _atom_type_oxidation_number
  Sr2+  2.0
  Ca2+  2.0
  Nb5+  5.0
  O2-  -2.0
loop_
 _atom_site_type_symbol
 _atom_site_label
 _atom_site_symmetry_multiplicity
 _atom_site_fract_x
 _atom_site_fract_y
 _atom_site_fract_z
 _atom_site_occupancy
  Sr2+  Sr0  1  0.11972229  0.12016271  0.11936046  1
  Sr2+  Sr1  1  0.12283219  0.12418412  0.62636679  1
  Sr2+  Sr2  1  0.12204732  0.64094170  0.12873722  1
  Sr2+  Sr3  1  0.12304735  0.62508669  0.61920270  1
  Sr2+  Sr4  1  0.63024215  0.13045081  0.12291786  1
  Sr2+  Sr5  1  0.62022483  0.11967753  0.62383715  1
  Sr2+  Sr6  1  0.61661824  0.62461522  0.12686879  1
  Sr2+  Sr7  1  0.61902212  0.63750990  0.63002974  1
  Sr2+  Sr8  1  0.36860427  0.38020944  0.12799309  1
  Sr2+  Sr9  1  0.36690727  0.37762582  0.61515905  1
  Sr2+  Sr10  1  0.36429746  0.88003474  0.12387873  1
  Sr2+  Sr11  1  0.36973565  0.87260966  0.62256348  1
  Sr2+  Sr12  1  0.86031871  0.37719291  0.12905381  1
  Sr2+  Sr13  1  0.86648327  0.39073263  0.62458775  1
  Sr2+  Sr14  1  0.87061611  0.87710736  0.12960376  1
  Sr2+  Sr15  1  0.86270522  0.87708792  0.62483309  1
  Sr2+  Sr16  1  0.14412424  0.37286755  0.37234970  1
  Sr2+  Sr17  1  0.11576629  0.37075302  0.87222074  1
  Sr2+  Sr18  1  0.12685511  0.86325168  0.36858803  1
  Sr2+  Sr19  1  0.12660403  0.87627964  0.88034095  1
  Sr2+  Sr20  1  0.64154578  0.36687462  0.37247254  1
  Sr2+  Sr21  1  0.62801301  0.37381647  0.87876924  1
  Sr2+  Sr22  1  0.62531789  0.88095637  0.38015917  1
  Sr2+  Sr23  1  0.62968344  0.87013153  0.86762232  1
  Sr2+  Sr24  1  0.39071113  0.12538780  0.36817748  1
  Sr2+  Sr25  1  0.37433365  0.12435187  0.87331503  1
  Sr2+  Sr26  1  0.37374725  0.62090520  0.38102572  1
  Sr2+  Sr27  1  0.38536016  0.62770355  0.87212395  1
  Sr2+  Sr28  1  0.88998053  0.13245983  0.37984388  1
  Sr2+  Sr29  1  0.88176239  0.12516586  0.87427898  1
  Sr2+  Sr30  1  0.88515476  0.62462868  0.37390600  1
  Sr2+  Sr31  1  0.89357866  0.61533439  0.87220634  1
  Sr2+  Sr32  1  0.13128534  0.12638190  0.37325870  1
  Sr2+  Sr33  1  0.12960650  0.12718882  0.87376491  1
  Sr2+  Sr34  1  0.12927171  0.60890457  0.37146739  1
  Sr2+  Sr35  1  0.13627893  0.61248148  0.86953024  1
  Sr2+  Sr36  1  0.62855211  0.12910983  0.38082172  1
  Sr2+  Sr37  1  0.63726590  0.13349019  0.86963356  1
  Sr2+  Sr38  1  0.63963470  0.61384210  0.36657087  1
  Sr2+  Sr39  1  0.62246192  0.62100164  0.87774979  1
  Sr2+  Sr40  1  0.38175151  0.36756703  0.36365648  1
  Sr2+  Sr41  1  0.37938820  0.37843383  0.88428460  1
  Sr2+  Sr42  1  0.38445931  0.88557477  0.37632576  1
  Sr2+  Sr43  1  0.37759789  0.86693761  0.86980286  1
  Sr2+  Sr44  1  0.87778984  0.38169753  0.38574859  1
  Sr2+  Sr45  1  0.87427951  0.37445172  0.87376062  1
  Sr2+  Sr46  1  0.87862009  0.85661409  0.38203947  1
  Sr2+  Sr47  1  0.87685766  0.87616813  0.87073820  1
  Sr2+  Sr48  1  0.12095717  0.37887540  0.12978669  1
  Sr2+  Sr49  1  0.10770896  0.38207276  0.62206539  1
  Sr2+  Sr50  1  0.11218204  0.87618646  0.12672550  1
  Sr2+  Sr51  1  0.13129328  0.87514980  0.62151676  1
  Sr2+  Sr52  1  0.60842356  0.37454099  0.12356857  1
  Sr2+  Sr53  1  0.61907921  0.37295056  0.60807993  1
  Sr2+  Sr54  1  0.62428531  0.87288838  0.13066964  1
  Sr2+  Sr55  1  0.62137381  0.87598199  0.62606961  1
  Sr2+  Sr56  1  0.36296867  0.12994066  0.12579884  1
  Sr2+  Sr57  1  0.36954735  0.11969148  0.62527267  1
  Sr2+  Sr58  1  0.37167130  0.62334479  0.12602155  1
  Sr2+  Sr59  1  0.36408860  0.63705492  0.62327132  1
  Sr2+  Sr60  1  0.87391360  0.12315309  0.12192142  1
  Sr2+  Sr61  1  0.87896460  0.12648759  0.62507637  1
  Sr2+  Sr62  1  0.86402361  0.64132287  0.12695260  1
  Sr2+  Sr63  1  0.88863994  0.62213805  0.62434718  1
  Ca2+  Ca64  1  -0.00177873  -0.00295459  0.49819298  1
  Ca2+  Ca65  1  0.00105000  0.50020579  0.49620654  1
  Ca2+  Ca66  1  0.50176199  0.50256257  0.49768325  1
  Ca2+  Ca67  1  0.49972752  0.00123112  -0.00515767  1
  Ca2+  Ca68  1  0.00180492  0.49982683  0.00534072  1
  Ca2+  Ca69  1  0.25262303  0.24918002  0.50088734  1
  Ca2+  Ca70  1  0.24886936  0.75145300  0.49570705  1
  Ca2+  Ca71  1  0.74930055  0.74815358  0.50017931  1
  Ca2+  Ca72  1  0.74900795  0.75270497  -0.00137160  1
  Ca2+  Ca73  1  0.25038047  0.74961671  0.00080840  1
  Ca2+  Ca74  1  0.75268464  0.49754804  0.24759726  1
  Ca2+  Ca75  1  0.75016716  -0.00055098  0.25275626  1
  Ca2+  Ca76  1  0.49852651  0.25198916  0.75055421  1
  Ca2+  Ca77  1  0.24941292  -0.00109855  0.25007498  1
  Ca2+  Ca78  1  0.00035104  0.75206876  0.75188273  1
  Ca2+  Ca79  1  0.50646722  0.24880578  0.24698431  1
  Ca2+  Ca80  1  0.74434643  0.50086375  0.75109468  1
  Ca2+  Ca81  1  -0.00158598  0.24987981  0.24899789  1
  Ca2+  Ca82  1  0.49757995  0.75420874  0.25289652  1
  Ca2+  Ca83  1  0.25432185  0.49826010  0.75155456  1
  Ca2+  Ca84  1  -0.00254405  0.24771532  0.74899329  1
  Nb5+  Nb85  1  0.49925594  0.00089946  0.50216987  1
  Nb5+  Nb86  1  -0.00216253  0.00028831  -0.00183373  1
  Nb5+  Nb87  1  0.49892848  0.49974455  0.00208873  1
  Nb5+  Nb88  1  0.75025343  0.25021550  -0.00042529  1
  Nb5+  Nb89  1  0.75174288  0.24747188  0.50150920  1
  Nb5+  Nb90  1  0.24420146  0.25185740  -0.00014603  1
  Nb5+  Nb91  1  0.75399325  0.00368305  0.74920137  1
  Nb5+  Nb92  1  0.49837154  0.75218419  0.74777213  1
  Nb5+  Nb93  1  0.25344358  -0.00007673  0.75018629  1
  Nb5+  Nb94  1  0.00010021  0.74848090  0.24897753  1
  Nb5+  Nb95  1  0.25097424  0.50047581  0.24892211  1
  Nb5+  Nb96  1  -0.00282510  -0.00237242  0.25466019  1
  Nb5+  Nb97  1  0.00550190  -0.00210249  0.74917725  1
  Nb5+  Nb98  1  -0.00335661  0.49847175  0.24099171  1
  Nb5+  Nb99  1  0.00101421  0.49968695  0.75159341  1
  Nb5+  Nb100  1  0.50290838  0.00291277  0.24033901  1
  Nb5+  Nb101  1  0.50351835  -0.00038219  0.75236971  1
  Nb5+  Nb102  1  0.50083310  0.49983397  0.25494082  1
  Nb5+  Nb103  1  0.49848680  0.50002435  0.74399466  1
  Nb5+  Nb104  1  0.24865577  0.24586903  0.24840962  1
  Nb5+  Nb105  1  0.25159050  0.25453369  0.75003413  1
  Nb5+  Nb106  1  0.25465439  0.75021773  0.25330766  1
  Nb5+  Nb107  1  0.24384044  0.75006227  0.74972177  1
  Nb5+  Nb108  1  0.75392735  0.24453567  0.25374779  1
  Nb5+  Nb109  1  0.75157173  0.25308022  0.74636860  1
  Nb5+  Nb110  1  0.74507878  0.75325100  0.25285080  1
  Nb5+  Nb111  1  0.75121208  0.74578843  0.75009944  1
  Nb5+  Nb112  1  0.00483307  0.25086829  0.49910057  1
  Nb5+  Nb113  1  -0.00682658  0.25015095  1.00331523  1
  Nb5+  Nb114  1  0.00233952  0.74916610  0.50472762  1
  Nb5+  Nb115  1  0.00081854  0.74792572  0.99513005  1
  Nb5+  Nb116  1  0.49834554  0.24995551  0.50356753  1
  Nb5+  Nb117  1  0.49570375  0.24659593  0.99655508  1
  Nb5+  Nb118  1  0.50344543  0.74967727  0.49424625  1
  Nb5+  Nb119  1  0.49751611  0.75451487  1.00368161  1
  Nb5+  Nb120  1  0.25087166  -0.00023357  -0.00191535  1
  Nb5+  Nb121  1  0.24935699  0.00280091  0.49439803  1
  Nb5+  Nb122  1  0.24852590  0.50148634  0.00294497  1
  Nb5+  Nb123  1  0.25156260  0.49610184  0.50521031  1
  Nb5+  Nb124  1  0.74654970  -0.00294636  -0.00119453  1
  Nb5+  Nb125  1  0.75130421  0.00306469  0.49900760  1
  Nb5+  Nb126  1  0.75097291  0.50389792  0.00517312  1
  Nb5+  Nb127  1  0.74472990  0.50577367  0.50352448  1
  O2-  O128  1  0.01470342  0.01399636  0.11505354  1
  O2-  O129  1  0.00693409  0.02131977  0.63573922  1
  O2-  O130  1  0.04064615  0.51882023  0.13373704  1
  O2-  O131  1  0.01850609  0.52202468  0.63317999  1
  O2-  O132  1  0.51628132  0.02253944  0.12858123  1
  O2-  O133  1  0.49701644  0.01895867  0.62967553  1
  O2-  O134  1  0.51304831  0.51391669  0.12304163  1
  O2-  O135  1  0.53020374  0.51484321  0.63498655  1
  O2-  O136  1  -0.02691903  -0.02452373  0.36370662  1
  O2-  O137  1  -0.00439756  -0.02453558  0.87760290  1
  O2-  O138  1  -0.01860981  0.49305277  0.35944193  1
  O2-  O139  1  -0.01957271  0.47767506  0.87066903  1
  O2-  O140  1  0.49986026  -0.01404893  0.38537659  1
  O2-  O141  1  0.48909804  -0.03000518  0.86260837  1
  O2-  O142  1  0.46658807  0.49271021  0.36473645  1
  O2-  O143  1  0.47408053  0.49521285  0.88502192  1
  O2-  O144  1  0.25354536  0.26630226  0.11935018  1
  O2-  O145  1  0.24326668  0.27478154  0.63755602  1
  O2-  O146  1  0.25554383  0.77268002  0.13617811  1
  O2-  O147  1  0.25220580  0.77447738  0.63303979  1
  O2-  O148  1  0.75723308  0.24978854  0.12057958  1
  O2-  O149  1  0.74410448  0.26008862  0.62585188  1
  O2-  O150  1  0.75090131  0.77716069  0.13292225  1
  O2-  O151  1  0.74519607  0.77348926  0.63576550  1
  O2-  O152  1  0.25093054  0.22976692  0.36404088  1
  O2-  O153  1  0.25785472  0.22772841  0.88465335  1
  O2-  O154  1  0.23177725  0.71940157  0.36441519  1
  O2-  O155  1  0.25513886  0.72859203  0.86543945  1
  O2-  O156  1  0.75240026  0.23413031  0.37740116  1
  O2-  O157  1  0.75749420  0.23891148  0.87781190  1
  O2-  O158  1  0.75298124  0.72033791  0.36641767  1
  O2-  O159  1  0.74543654  0.76266973  0.86429486  1
  O2-  O160  1  0.00412267  0.21426235  0.11453607  1
  O2-  O161  1  0.00425310  0.21728671  0.61462359  1
  O2-  O162  1  -0.00347202  0.73483248  0.12513548  1
  O2-  O163  1  0.00666889  0.72551684  0.61782181  1
  O2-  O164  1  0.51613157  0.23196128  0.11112839  1
  O2-  O165  1  0.52427897  0.23445795  0.61852466  1
  O2-  O166  1  0.51654714  0.74198923  0.11636020  1
  O2-  O167  1  0.49982035  0.73477596  0.62621581  1
  O2-  O168  1  0.25718844  0.03217563  0.38409318  1
  O2-  O169  1  0.24941764  0.02402073  0.87177004  1
  O2-  O170  1  0.26427945  0.51862539  0.36651595  1
  O2-  O171  1  0.27132203  0.52095850  0.89009280  1
  O2-  O172  1  0.73496993  0.01933024  0.38735007  1
  O2-  O173  1  0.75122967  0.01655977  0.86997710  1
  O2-  O174  1  0.76927114  0.51500103  0.38466210  1
  O2-  O175  1  0.75952042  0.49514398  0.88902814  1
  O2-  O176  1  -0.02048357  0.26960521  0.38390712  1
  O2-  O177  1  -0.00619742  0.27091674  0.88677849  1
  O2-  O178  1  0.00345129  0.76981608  0.36676276  1
  O2-  O179  1  -0.00389351  0.78173693  0.88514392  1
  O2-  O180  1  0.49660019  0.26020036  0.38491047  1
  O2-  O181  1  0.50003997  0.28489962  0.88503043  1
  O2-  O182  1  0.49754647  0.78595029  0.38548347  1
  O2-  O183  1  0.48938529  0.76290433  0.86771135  1
  O2-  O184  1  0.24217466  -0.01990623  0.11270481  1
  O2-  O185  1  0.24849053  -0.02105249  0.63301507  1
  O2-  O186  1  0.24117544  0.47293597  0.12661803  1
  O2-  O187  1  0.23764320  0.46819482  0.61697131  1
  O2-  O188  1  0.73915199  -0.00398518  0.11336048  1
  O2-  O189  1  0.74727266  -0.00790349  0.62874891  1
  O2-  O190  1  0.72918862  0.46608170  0.11485295  1
  O2-  O191  1  0.72945468  0.47440835  0.61811253  1
  O2-  O192  1  0.13419297  0.27856394  0.24736068  1
  O2-  O193  1  0.13504029  0.25305851  0.77087748  1
  O2-  O194  1  0.12329896  0.76280757  0.23993266  1
  O2-  O195  1  0.13289424  0.78292678  0.75378968  1
  O2-  O196  1  0.64032660  0.28328016  0.24416244  1
  O2-  O197  1  0.63610180  0.26378328  0.76651171  1
  O2-  O198  1  0.63240359  0.77791311  0.25798314  1
  O2-  O199  1  0.61688125  0.77502812  0.74786501  1
  O2-  O200  1  0.36804152  0.23693923  0.24127560  1
  O2-  O201  1  0.36382256  0.21490388  0.74939614  1
  O2-  O202  1  0.36566354  0.71742653  0.25597404  1
  O2-  O203  1  0.37500805  0.74403525  0.74467070  1
  O2-  O204  1  0.86651590  0.20940798  0.24567025  1
  O2-  O205  1  0.86288754  0.21432074  0.74888418  1
  O2-  O206  1  0.88132605  0.73015017  0.25182684  1
  O2-  O207  1  0.86442509  0.72285237  0.74824079  1
  O2-  O208  1  0.26915429  0.37747821  0.26353562  1
  O2-  O209  1  0.27340296  0.36344628  0.77879825  1
  O2-  O210  1  0.26698627  0.86288313  0.28185764  1
  O2-  O211  1  0.26440511  0.88176315  0.77303678  1
  O2-  O212  1  0.78768458  0.36143442  0.26602932  1
  O2-  O213  1  0.77790345  0.36436849  0.75763206  1
  O2-  O214  1  0.77977026  0.86558555  0.27313857  1
  O2-  O215  1  0.76364028  0.88498132  0.75870563  1
  O2-  O216  1  0.22625162  0.13398988  0.22464473  1
  O2-  O217  1  0.22868761  0.11671845  0.73479776  1
  O2-  O218  1  0.23413426  0.61732236  0.22491851  1
  O2-  O219  1  0.22781902  0.63613473  0.72781920  1
  O2-  O220  1  0.71453582  0.13269949  0.24437830  1
  O2-  O221  1  0.72233089  0.12063540  0.73911990  1
  O2-  O222  1  0.73421880  0.63472763  0.22219854  1
  O2-  O223  1  0.71493822  0.63637463  0.74706036  1
  O2-  O224  1  0.13188381  0.48295150  0.26735054  1
  O2-  O225  1  0.12001285  0.48146192  0.77036128  1
  O2-  O226  1  0.11414988  0.97099798  0.25435934  1
  O2-  O227  1  0.12263089  0.97841854  0.75501798  1
  O2-  O228  1  0.61591128  0.48247212  0.27383080  1
  O2-  O229  1  0.60816331  0.49167329  0.78725046  1
  O2-  O230  1  0.61422822  0.96234365  0.25397348  1
  O2-  O231  1  0.62118434  0.98114987  0.74960478  1
  O2-  O232  1  0.38319342  0.03247323  0.24614999  1
  O2-  O233  1  0.37134070  0.01485535  0.74777707  1
  O2-  O234  1  0.37144825  0.51411670  0.22973692  1
  O2-  O235  1  0.38641814  0.53819569  0.73971196  1
  O2-  O236  1  0.88526277  0.00826296  0.21814679  1
  O2-  O237  1  0.86948581  0.02193088  0.74785688  1
  O2-  O238  1  0.88636384  0.52143135  0.21593284  1
  O2-  O239  1  0.88107859  0.52302470  0.73803964  1
  O2-  O240  1  0.48355044  0.38460029  0.22766487  1
  O2-  O241  1  0.46988272  0.38850182  0.73260798  1
  O2-  O242  1  0.46212435  0.88842265  0.23493853  1
  O2-  O243  1  0.48297017  0.87516146  0.72727304  1
  O2-  O244  1  0.98638120  0.38479853  0.22193549  1
  O2-  O245  1  0.98561041  0.38202204  0.72477090  1
  O2-  O246  1  0.98678444  0.86871064  0.22722801  1
  O2-  O247  1  0.96632932  0.88710366  0.73535929  1
  O2-  O248  1  0.02042303  0.11094706  0.27126181  1
  O2-  O249  1  0.00947702  0.11116368  0.78071934  1
  O2-  O250  1  0.01896665  0.62921307  0.26305564  1
  O2-  O251  1  0.01798274  0.61836268  0.77949287  1
  O2-  O252  1  0.52450696  0.11444973  0.27576890  1
  O2-  O253  1  0.51459614  0.11293984  0.77315241  1
  O2-  O254  1  0.52082542  0.61747425  0.25666876  1
  O2-  O255  1  0.51780328  0.63493659  0.76341819  1
  O2-  O256  1  0.13768215  0.47287217  -0.01632983  1
  O2-  O257  1  0.13547589  0.47678347  0.47967775  1
  O2-  O258  1  0.12515444  0.99242382  -0.01331720  1
  O2-  O259  1  0.13548102  0.97884393  0.49393434  1
  O2-  O260  1  0.61684841  0.47784998  -0.01137375  1
  O2-  O261  1  0.63358573  0.46920313  0.47745399  1
  O2-  O262  1  0.63465806  0.97281612  -0.01489011  1
  O2-  O263  1  0.62180434  0.98692115  0.51312668  1
  O2-  O264  1  0.36405423  0.03011826  0.00290071  1
  O2-  O265  1  0.38071086  0.02386578  0.50411047  1
  O2-  O266  1  0.37520178  0.50486041  0.02438420  1
  O2-  O267  1  0.36876713  0.52339248  0.51985427  1
  O2-  O268  1  0.87972242  0.02534665  -0.00116771  1
  O2-  O269  1  0.86301427  0.03091774  0.50674272  1
  O2-  O270  1  0.86441318  0.52224454  0.02178947  1
  O2-  O271  1  0.86412208  0.51085805  0.52270092  1
  O2-  O272  1  0.48507703  0.37627518  0.01986634  1
  O2-  O273  1  0.48485291  0.36551801  0.52135931  1
  O2-  O274  1  0.46729284  0.86615289  0.01223430  1
  O2-  O275  1  0.48142600  0.88430547  0.52227246  1
  O2-  O276  1  0.98328982  0.36186550  0.03163431  1
  O2-  O277  1  0.97782314  0.36431669  0.52648559  1
  O2-  O278  1  0.98193314  0.88298357  0.01986523  1
  O2-  O279  1  0.96556854  0.86439408  0.51590816  1
  O2-  O280  1  0.01605889  0.12204471  -0.02391742  1
  O2-  O281  1  0.01720689  0.13182295  0.46954446  1
  O2-  O282  1  0.02627834  0.63591120  -0.02527801  1
  O2-  O283  1  0.02682635  0.63519284  0.47620484  1
  O2-  O284  1  0.51946139  0.13683049  -0.03310011  1
  O2-  O285  1  0.52073960  0.12201609  0.48975978  1
  O2-  O286  1  0.51704026  0.61906363  -0.01006866  1
  O2-  O287  1  0.52896687  0.63866655  0.47381044  1
  O2-  O288  1  0.12685061  0.26483952  -0.00277429  1
  O2-  O289  1  0.11838733  0.27254196  0.49324434  1
  O2-  O290  1  0.11606526  0.77826856  0.00973888  1
  O2-  O291  1  0.11572873  0.78666022  0.49948332  1
  O2-  O292  1  0.63304554  0.26811325  -0.00358543  1
  O2-  O293  1  0.62988982  0.26490055  0.49073344  1
  O2-  O294  1  0.61227946  0.76669355  -0.02047217  1
  O2-  O295  1  0.61595102  0.78372208  0.50811469  1
  O2-  O296  1  0.37890041  0.23234504  0.00320682  1
  O2-  O297  1  0.38570954  0.22514064  0.51443901  1
  O2-  O298  1  0.38491857  0.71699454  -0.00063608  1
  O2-  O299  1  0.38543254  0.73194464  0.50320170  1
  O2-  O300  1  0.87648185  0.22494845  -0.00014816  1
  O2-  O301  1  0.86786382  0.22433480  0.50547997  1
  O2-  O302  1  0.88371677  0.72614372  -0.00002298  1
  O2-  O303  1  0.88425893  0.72152176  0.49220982  1
  O2-  O304  1  0.27035998  0.36809980  -0.01244400  1
  O2-  O305  1  0.28120157  0.38312640  0.47283412  1
  O2-  O306  1  0.26851931  0.88766611  -0.02595913  1
  O2-  O307  1  0.28131430  0.88927849  0.48830790  1
  O2-  O308  1  0.77699684  0.36492537  -0.00774049  1
  O2-  O309  1  0.76811348  0.36484069  0.49028591  1
  O2-  O310  1  0.78412527  0.88899443  -0.01162794  1
  O2-  O311  1  0.76841314  0.88807931  0.48964169  1
  O2-  O312  1  0.23290937  0.12997802  0.01852796  1
  O2-  O313  1  0.23820415  0.11479741  0.53421046  1
  O2-  O314  1  0.23254399  0.61260255  0.02811476  1
  O2-  O315  1  0.23119755  0.61442947  0.51635060  1
  O2-  O316  1  0.73339414  0.12549407  0.00272991  1
  O2-  O317  1  0.72525251  0.12815244  0.51757289  1
  O2-  O318  1  0.72016333  0.61464976  0.01361306  1
  O2-  O319  1  0.71715791  0.61579492  0.51880250  1
