# generated using pymatgen
data_Sr64Ca21Nb43O192
_symmetry_space_group_name_H-M   'P 1'
_cell_length_a   16.55112762
_cell_length_b   16.55474712
_cell_length_c   16.70856374
_cell_angle_alpha   90.05361225
_cell_angle_beta   90.05178286
_cell_angle_gamma   90.07155160
_symmetry_Int_Tables_number   1
_chemical_formula_structural   Sr64Ca21Nb43O192
_chemical_formula_sum   'Sr64 Ca21 Nb43 O192'
_cell_volume   4578.13454192
_cell_formula_units_Z   1
loop_
 _symmetry_equiv_pos_site_id
 _symmetry_equiv_pos_as_xyz
  1  'x, y, z'
loop_
 _atom_type_symbol
 _atom_type_oxidation_number
  Sr2+  2.0
  Ca2+  2.0
  Nb5+  5.0
  O2-  -2.0
loop_
 _atom_site_type_symbol
 _atom_site_label
 _atom_site_symmetry_multiplicity
 _atom_site_fract_x
 _atom_site_fract_y
 _atom_site_fract_z
 _atom_site_occupancy
  Sr2+  Sr0  1  0.13255538  0.12040089  0.12105752  1
  Sr2+  Sr1  1  0.13261439  0.10849527  0.63061465  1
  Sr2+  Sr2  1  0.13251537  0.62233226  0.12674404  1
  Sr2+  Sr3  1  0.12262639  0.63145745  0.62102981  1
  Sr2+  Sr4  1  0.62979995  0.11296820  0.12463282  1
  Sr2+  Sr5  1  0.64166888  0.11320246  0.62629645  1
  Sr2+  Sr6  1  0.62362467  0.62409677  0.13384015  1
  Sr2+  Sr7  1  0.62622765  0.61855450  0.62308742  1
  Sr2+  Sr8  1  0.38385808  0.38160995  0.11789482  1
  Sr2+  Sr9  1  0.38278819  0.38835434  0.62349239  1
  Sr2+  Sr10  1  0.38307111  0.87134686  0.12420295  1
  Sr2+  Sr11  1  0.38102197  0.86238749  0.62267001  1
  Sr2+  Sr12  1  0.88530494  0.37364022  0.12854211  1
  Sr2+  Sr13  1  0.87802940  0.37694048  0.62727039  1
  Sr2+  Sr14  1  0.87703099  0.87196171  0.12261394  1
  Sr2+  Sr15  1  0.88354077  0.86057170  0.62678804  1
  Sr2+  Sr16  1  0.10827227  0.37355835  0.37255219  1
  Sr2+  Sr17  1  0.12147087  0.36123902  0.87863281  1
  Sr2+  Sr18  1  0.11638334  0.88393596  0.37609885  1
  Sr2+  Sr19  1  0.10473604  0.88368185  0.87413286  1
  Sr2+  Sr20  1  0.61725388  0.36661613  0.38089398  1
  Sr2+  Sr21  1  0.62699635  0.37820434  0.86530933  1
  Sr2+  Sr22  1  0.61795734  0.87868039  0.36973310  1
  Sr2+  Sr23  1  0.62099730  0.87778280  0.86821072  1
  Sr2+  Sr24  1  0.36236128  0.13203738  0.37097087  1
  Sr2+  Sr25  1  0.36418022  0.13179080  0.87410145  1
  Sr2+  Sr26  1  0.36322709  0.62867022  0.37214237  1
  Sr2+  Sr27  1  0.36569044  0.63182581  0.86639868  1
  Sr2+  Sr28  1  0.85686433  0.13755869  0.37328488  1
  Sr2+  Sr29  1  0.88870575  0.12720550  0.87505772  1
  Sr2+  Sr30  1  0.86998670  0.62227560  0.38049002  1
  Sr2+  Sr31  1  0.86370776  0.62816808  0.87648888  1
  Sr2+  Sr32  1  0.12182053  0.13975306  0.36499134  1
  Sr2+  Sr33  1  0.12203422  0.12467815  0.88041126  1
  Sr2+  Sr34  1  0.11253677  0.62954157  0.37784072  1
  Sr2+  Sr35  1  0.11585789  0.63477616  0.87176341  1
  Sr2+  Sr36  1  0.61965584  0.11993256  0.38265611  1
  Sr2+  Sr37  1  0.61031715  0.13079382  0.87575610  1
  Sr2+  Sr38  1  0.61328937  0.62422157  0.37216455  1
  Sr2+  Sr39  1  0.62191483  0.62865744  0.87306166  1
  Sr2+  Sr40  1  0.36875440  0.37633878  0.38376390  1
  Sr2+  Sr41  1  0.37342376  0.35777939  0.86747656  1
  Sr2+  Sr42  1  0.37086869  0.89225039  0.37612812  1
  Sr2+  Sr43  1  0.37719444  0.88628794  0.86908607  1
  Sr2+  Sr44  1  0.87140105  0.36425487  0.37491817  1
  Sr2+  Sr45  1  0.86734593  0.38393284  0.87111276  1
  Sr2+  Sr46  1  0.86580340  0.89288938  0.37108004  1
  Sr2+  Sr47  1  0.86724924  0.87813320  0.88333482  1
  Sr2+  Sr48  1  0.13339140  0.37414080  0.12338932  1
  Sr2+  Sr49  1  0.11994830  0.37619904  0.62728745  1
  Sr2+  Sr50  1  0.12028358  0.87737633  0.12276320  1
  Sr2+  Sr51  1  0.13574731  0.86705062  0.62387951  1
  Sr2+  Sr52  1  0.62758522  0.37033593  0.11907224  1
  Sr2+  Sr53  1  0.63065070  0.37681176  0.62636894  1
  Sr2+  Sr54  1  0.63495721  0.86202773  0.12350284  1
  Sr2+  Sr55  1  0.63054186  0.86845838  0.61815000  1
  Sr2+  Sr56  1  0.38020194  0.12349245  0.11951929  1
  Sr2+  Sr57  1  0.38216153  0.12138987  0.62649016  1
  Sr2+  Sr58  1  0.37309097  0.62415995  0.13210664  1
  Sr2+  Sr59  1  0.35337790  0.62668499  0.62439593  1
  Sr2+  Sr60  1  0.88921627  0.12096412  0.12750795  1
  Sr2+  Sr61  1  0.87988598  0.12760988  0.62635212  1
  Sr2+  Sr62  1  0.86386913  0.62648872  0.11548168  1
  Sr2+  Sr63  1  0.88801887  0.61866031  0.62680729  1
  Ca2+  Ca64  1  0.00152816  0.49964339  -0.00001584  1
  Ca2+  Ca65  1  0.49822772  0.00039525  0.50311494  1
  Ca2+  Ca66  1  0.49813544  0.50233133  -0.00232195  1
  Ca2+  Ca67  1  0.50055953  -0.00060437  0.00025583  1
  Ca2+  Ca68  1  0.00082091  0.00373988  0.49819038  1
  Ca2+  Ca69  1  0.75059309  0.74811510  0.49875766  1
  Ca2+  Ca70  1  0.25129552  0.75045943  -0.00035128  1
  Ca2+  Ca71  1  0.75124483  0.24909622  -0.00301906  1
  Ca2+  Ca72  1  0.24880080  0.24798902  0.49960971  1
  Ca2+  Ca73  1  0.25137669  0.75250989  0.49525223  1
  Ca2+  Ca74  1  0.25104454  0.49496253  0.75199351  1
  Ca2+  Ca75  1  0.74814711  0.49734250  0.25317642  1
  Ca2+  Ca76  1  0.50152400  0.25302313  0.24963988  1
  Ca2+  Ca77  1  -0.00350618  0.75062051  0.75162600  1
  Ca2+  Ca78  1  -0.00148530  0.24943461  0.24880836  1
  Ca2+  Ca79  1  -0.00163327  0.74816098  0.24967815  1
  Ca2+  Ca80  1  0.25166504  -0.00241859  0.75358071  1
  Ca2+  Ca81  1  0.74725280  0.00232824  0.24799646  1
  Ca2+  Ca82  1  0.00248416  0.24974390  0.74824363  1
  Ca2+  Ca83  1  0.75242964  -0.00070919  0.75225589  1
  Ca2+  Ca84  1  0.50089089  0.25190203  0.74518268  1
  Nb5+  Nb85  1  0.49446861  0.50473145  0.49990337  1
  Nb5+  Nb86  1  -0.00199818  0.00095218  0.00187323  1
  Nb5+  Nb87  1  -0.00607732  0.49954925  0.49918533  1
  Nb5+  Nb88  1  0.25056564  0.24914524  0.00238864  1
  Nb5+  Nb89  1  0.74833758  0.25113579  0.50266143  1
  Nb5+  Nb90  1  0.74584382  0.75038010  -0.00216305  1
  Nb5+  Nb91  1  0.50217594  0.74866299  0.74218296  1
  Nb5+  Nb92  1  0.75142382  0.50257136  0.74746036  1
  Nb5+  Nb93  1  0.24618896  0.50402275  0.25332383  1
  Nb5+  Nb94  1  0.49810207  0.75159194  0.24488319  1
  Nb5+  Nb95  1  0.24910122  0.00463800  0.24996465  1
  Nb5+  Nb96  1  -0.00061539  0.00328659  0.25459210  1
  Nb5+  Nb97  1  -0.00253340  -0.00272459  0.74331224  1
  Nb5+  Nb98  1  -0.00331666  0.50269554  0.24795199  1
  Nb5+  Nb99  1  0.00398330  0.50064659  0.75608228  1
  Nb5+  Nb100  1  0.50208746  0.00333747  0.24640685  1
  Nb5+  Nb101  1  0.50381563  0.00345605  0.74746290  1
  Nb5+  Nb102  1  0.49797647  0.49714992  0.25514381  1
  Nb5+  Nb103  1  0.49927742  0.50538005  0.75224703  1
  Nb5+  Nb104  1  0.25601183  0.25871534  0.24736943  1
  Nb5+  Nb105  1  0.24964462  0.24505839  0.74084649  1
  Nb5+  Nb106  1  0.25003461  0.76119389  0.24851708  1
  Nb5+  Nb107  1  0.24631086  0.75285053  0.75602578  1
  Nb5+  Nb108  1  0.74447511  0.25140126  0.24227344  1
  Nb5+  Nb109  1  0.74865037  0.24609118  0.75319247  1
  Nb5+  Nb110  1  0.75339390  0.74873634  0.25311117  1
  Nb5+  Nb111  1  0.74898235  0.74952607  0.74558506  1
  Nb5+  Nb112  1  0.00265857  0.24849931  0.50459253  1
  Nb5+  Nb113  1  -0.00324250  0.25253158  1.00049817  1
  Nb5+  Nb114  1  -0.00396336  0.75553786  0.49416769  1
  Nb5+  Nb115  1  0.00168047  0.74675888  1.00218923  1
  Nb5+  Nb116  1  0.50098244  0.24635765  0.50637147  1
  Nb5+  Nb117  1  0.50385175  0.25545571  0.99886275  1
  Nb5+  Nb118  1  0.49851942  0.74951703  0.49002240  1
  Nb5+  Nb119  1  0.49618725  0.74325102  0.99125427  1
  Nb5+  Nb120  1  0.25045171  -0.00434763  0.00059082  1
  Nb5+  Nb121  1  0.25160983  0.00219293  0.50303526  1
  Nb5+  Nb122  1  0.25134886  0.49882914  -0.00479292  1
  Nb5+  Nb123  1  0.23933139  0.49740985  0.49978215  1
  Nb5+  Nb124  1  0.74525024  0.00329761  0.00054084  1
  Nb5+  Nb125  1  0.75522583  -0.00480505  0.50341774  1
  Nb5+  Nb126  1  0.74865540  0.49828014  0.00271399  1
  Nb5+  Nb127  1  0.74533000  0.49784494  0.49619161  1
  O2-  O128  1  -0.01515312  -0.01801910  0.12334203  1
  O2-  O129  1  -0.02192793  -0.02120484  0.63180091  1
  O2-  O130  1  0.00873173  0.47528648  0.13594774  1
  O2-  O131  1  0.00522115  0.48135894  0.61916389  1
  O2-  O132  1  0.46642844  -0.00868404  0.13455518  1
  O2-  O133  1  0.46585751  -0.01474491  0.63610754  1
  O2-  O134  1  0.51418962  0.48571639  0.14053281  1
  O2-  O135  1  0.51642600  0.49102277  0.61765877  1
  O2-  O136  1  0.03263255  0.01909089  0.36418132  1
  O2-  O137  1  0.01616218  0.01618264  0.88447333  1
  O2-  O138  1  -0.00518277  0.52116836  0.37976416  1
  O2-  O139  1  -0.00525618  0.53036666  0.86615429  1
  O2-  O140  1  0.51857582  -0.00019021  0.36499745  1
  O2-  O141  1  0.53242658  0.00187642  0.86665665  1
  O2-  O142  1  0.48354858  0.52875864  0.38065490  1
  O2-  O143  1  0.49049084  0.53446022  0.86286180  1
  O2-  O144  1  0.23999914  0.23346010  0.12604936  1
  O2-  O145  1  0.24256369  0.21701796  0.63073805  1
  O2-  O146  1  0.24785897  0.72118114  0.13659400  1
  O2-  O147  1  0.23612550  0.73221819  0.63526878  1
  O2-  O148  1  0.72830532  0.23283465  0.13025409  1
  O2-  O149  1  0.74921884  0.23484888  0.62381011  1
  O2-  O150  1  0.73209077  0.73037126  0.11672119  1
  O2-  O151  1  0.72121110  0.73776069  0.63411305  1
  O2-  O152  1  0.26829541  0.26189773  0.36387738  1
  O2-  O153  1  0.25164017  0.26444867  0.88455485  1
  O2-  O154  1  0.27756074  0.76198260  0.36120894  1
  O2-  O155  1  0.28427024  0.76527352  0.86754060  1
  O2-  O156  1  0.75155519  0.26961732  0.38361520  1
  O2-  O157  1  0.75721576  0.27907900  0.86390936  1
  O2-  O158  1  0.76783555  0.77097820  0.36425200  1
  O2-  O159  1  0.75975660  0.75970010  0.87551792  1
  O2-  O160  1  0.00602594  0.27794545  0.11573324  1
  O2-  O161  1  -0.00440920  0.28629319  0.61586061  1
  O2-  O162  1  0.00021553  0.77946088  0.11580172  1
  O2-  O163  1  0.01610062  0.76945540  0.61457263  1
  O2-  O164  1  0.50158925  0.28233925  0.11581162  1
  O2-  O165  1  0.49927093  0.29300452  0.61413090  1
  O2-  O166  1  0.50819672  0.76160923  0.12778412  1
  O2-  O167  1  0.51582657  0.76246276  0.62681655  1
  O2-  O168  1  0.23820733  -0.02663866  0.36397652  1
  O2-  O169  1  0.22873351  -0.02610478  0.88981677  1
  O2-  O170  1  0.26046451  0.47952458  0.37290721  1
  O2-  O171  1  0.28071455  0.47998657  0.88654275  1
  O2-  O172  1  0.73112314  -0.01972666  0.38403737  1
  O2-  O173  1  0.74313427  -0.03115343  0.88741800  1
  O2-  O174  1  0.77163765  0.47806685  0.38664698  1
  O2-  O175  1  0.75466976  0.48826822  0.86690140  1
  O2-  O176  1  -0.00834312  0.22974615  0.38698966  1
  O2-  O177  1  0.00986559  0.22627559  0.88435728  1
  O2-  O178  1  -0.01559822  0.71807875  0.38237332  1
  O2-  O179  1  -0.01674691  0.72714927  0.88634301  1
  O2-  O180  1  0.51427390  0.23878110  0.38882476  1
  O2-  O181  1  0.48907529  0.22770906  0.88248647  1
  O2-  O182  1  0.48950714  0.73191823  0.37415078  1
  O2-  O183  1  0.49360358  0.73026809  0.87495509  1
  O2-  O184  1  0.26192275  0.02256834  0.12935374  1
  O2-  O185  1  0.26321425  0.02637235  0.61593001  1
  O2-  O186  1  0.23362535  0.50976642  0.13533224  1
  O2-  O187  1  0.23123490  0.51717342  0.61425925  1
  O2-  O188  1  0.77566769  0.02095020  0.11453400  1
  O2-  O189  1  0.76950404  0.02863972  0.61671509  1
  O2-  O190  1  0.73585207  0.52050018  0.11553454  1
  O2-  O191  1  0.74599701  0.51800645  0.62373812  1
  O2-  O192  1  0.13726331  0.26263010  0.26005130  1
  O2-  O193  1  0.13629039  0.28295438  0.75025298  1
  O2-  O194  1  0.13624472  0.77333334  0.26029940  1
  O2-  O195  1  0.13345065  0.76743635  0.77612796  1
  O2-  O196  1  0.63345458  0.29390132  0.25279560  1
  O2-  O197  1  0.63500593  0.28085739  0.74465495  1
  O2-  O198  1  0.61826296  0.76702897  0.25956817  1
  O2-  O199  1  0.62381094  0.76216206  0.76893101  1
  O2-  O200  1  0.36718831  0.21924195  0.23742764  1
  O2-  O201  1  0.36798240  0.21961115  0.74933118  1
  O2-  O202  1  0.37943512  0.73329580  0.23751931  1
  O2-  O203  1  0.38622128  0.72492023  0.73642906  1
  O2-  O204  1  0.86335980  0.22248981  0.24441765  1
  O2-  O205  1  0.86596098  0.22870563  0.74330782  1
  O2-  O206  1  0.86350584  0.72503555  0.22979754  1
  O2-  O207  1  0.86230740  0.72321669  0.73479191  1
  O2-  O208  1  0.27345692  0.37330892  0.23068376  1
  O2-  O209  1  0.28425249  0.36152687  0.73449029  1
  O2-  O210  1  0.27088328  0.87400025  0.22645165  1
  O2-  O211  1  0.27663744  0.86415436  0.72945473  1
  O2-  O212  1  0.78390554  0.36638814  0.23538673  1
  O2-  O213  1  0.76675661  0.38463899  0.73092845  1
  O2-  O214  1  0.75880099  0.86416552  0.22246741  1
  O2-  O215  1  0.77060264  0.86312255  0.73573161  1
  O2-  O216  1  0.23390362  0.11904524  0.26625532  1
  O2-  O217  1  0.22739609  0.13279618  0.77808096  1
  O2-  O218  1  0.23316211  0.61889015  0.27060280  1
  O2-  O219  1  0.24066855  0.63178326  0.77362972  1
  O2-  O220  1  0.71894204  0.13785889  0.27470027  1
  O2-  O221  1  0.71940178  0.13543041  0.76884121  1
  O2-  O222  1  0.72070872  0.63488150  0.26363448  1
  O2-  O223  1  0.73031526  0.62300957  0.76453421  1
  O2-  O224  1  0.13190846  0.47379882  0.26305921  1
  O2-  O225  1  0.11633332  0.47366002  0.76132517  1
  O2-  O226  1  0.13174265  0.98091773  0.23077673  1
  O2-  O227  1  0.11656732  0.96972537  0.73620509  1
  O2-  O228  1  0.61118265  0.49054306  0.28179184  1
  O2-  O229  1  0.62703510  0.48888835  0.74860371  1
  O2-  O230  1  0.61259783  0.97491382  0.22289128  1
  O2-  O231  1  0.61696231  0.96984512  0.72455459  1
  O2-  O232  1  0.37127307  0.01250288  0.26908377  1
  O2-  O233  1  0.38774130  0.01242722  0.78272211  1
  O2-  O234  1  0.37076090  0.52119027  0.24641268  1
  O2-  O235  1  0.38795333  0.51909660  0.72315023  1
  O2-  O236  1  0.88509197  0.02040699  0.27096960  1
  O2-  O237  1  0.88487065  0.02998391  0.76663281  1
  O2-  O238  1  0.88526505  0.53233041  0.24171694  1
  O2-  O239  1  0.87019711  0.52203940  0.74439087  1
  O2-  O240  1  0.47071598  0.38757021  0.27538963  1
  O2-  O241  1  0.49053611  0.39086638  0.77150836  1
  O2-  O242  1  0.47927201  0.86834923  0.26261881  1
  O2-  O243  1  0.48531423  0.86381880  0.76405287  1
  O2-  O244  1  0.98456440  0.38676932  0.27704491  1
  O2-  O245  1  0.96931076  0.38780809  0.76319796  1
  O2-  O246  1  0.98682076  0.88516489  0.26908341  1
  O2-  O247  1  0.97530811  0.88395954  0.77863638  1
  O2-  O248  1  0.02124615  0.11546182  0.22133565  1
  O2-  O249  1  0.02883736  0.11354702  0.73807319  1
  O2-  O250  1  0.03996840  0.61291084  0.24188819  1
  O2-  O251  1  0.01718174  0.61511420  0.72295465  1
  O2-  O252  1  0.52257866  0.11661805  0.23825413  1
  O2-  O253  1  0.52637879  0.11585945  0.73159593  1
  O2-  O254  1  0.51094388  0.62830931  0.24020428  1
  O2-  O255  1  0.52821940  0.62823308  0.73500424  1
  O2-  O256  1  0.13709308  0.46451853  -0.00453352  1
  O2-  O257  1  0.12466054  0.47771794  0.48804352  1
  O2-  O258  1  0.12140327  0.98961988  0.01975529  1
  O2-  O259  1  0.13485422  0.96910990  0.51340822  1
  O2-  O260  1  0.63428717  0.47795262  -0.01845841  1
  O2-  O261  1  0.62877699  0.48225549  0.48962965  1
  O2-  O262  1  0.63507532  0.98009412  0.02924079  1
  O2-  O263  1  0.63539777  0.98952641  0.52177857  1
  O2-  O264  1  0.36323610  0.01559523  -0.01757739  1
  O2-  O265  1  0.36601485  0.02645635  0.47417102  1
  O2-  O266  1  0.36283553  0.51118948  0.03353282  1
  O2-  O267  1  0.37969533  0.51781657  0.51532989  1
  O2-  O268  1  0.87871612  0.01502127  -0.01456404  1
  O2-  O269  1  0.86650165  0.02654510  0.47318861  1
  O2-  O270  1  0.86497161  0.52800467  -0.00506345  1
  O2-  O271  1  0.87738677  0.51548101  0.51025305  1
  O2-  O272  1  0.46796161  0.36893818  -0.02077423  1
  O2-  O273  1  0.48799394  0.38798315  0.47763232  1
  O2-  O274  1  0.47616147  0.86067438  -0.00872481  1
  O2-  O275  1  0.47563624  0.86313099  0.48905679  1
  O2-  O276  1  0.97940229  0.36463185  -0.02748417  1
  O2-  O277  1  0.98334226  0.38179671  0.47721423  1
  O2-  O278  1  0.98500526  0.88030445  -0.01694671  1
  O2-  O279  1  0.97290382  0.86674068  0.47331127  1
  O2-  O280  1  0.01406889  0.12074632  0.02219539  1
  O2-  O281  1  0.01427643  0.13764115  0.53630408  1
  O2-  O282  1  0.01722331  0.63475355  0.02878518  1
  O2-  O283  1  0.02095707  0.61592857  0.51525827  1
  O2-  O284  1  0.51842517  0.13715404  0.02443070  1
  O2-  O285  1  0.52519465  0.13714074  0.53210694  1
  O2-  O286  1  0.53706584  0.63541671  0.01484122  1
  O2-  O287  1  0.52927712  0.62310981  0.50783974  1
  O2-  O288  1  0.12687276  0.25996974  0.00099562  1
  O2-  O289  1  0.11505997  0.27752426  0.49421972  1
  O2-  O290  1  0.11515342  0.76941250  -0.01594116  1
  O2-  O291  1  0.11586254  0.76225548  0.47860075  1
  O2-  O292  1  0.61660193  0.28007293  -0.01407632  1
  O2-  O293  1  0.62989424  0.27567209  0.50627023  1
  O2-  O294  1  0.62748064  0.77396882  -0.01452816  1
  O2-  O295  1  0.61581798  0.77125025  0.48444667  1
  O2-  O296  1  0.36800666  0.22806472  0.00679325  1
  O2-  O297  1  0.38637060  0.22911905  0.50232661  1
  O2-  O298  1  0.38624939  0.71244003  0.00775714  1
  O2-  O299  1  0.38751510  0.71977111  0.51575216  1
  O2-  O300  1  0.88452399  0.22138571  0.00751556  1
  O2-  O301  1  0.87115943  0.24223158  0.50353046  1
  O2-  O302  1  0.86943018  0.73708559  0.00904969  1
  O2-  O303  1  0.88374713  0.72226297  0.51998066  1
  O2-  O304  1  0.26533231  0.36648135  0.02285282  1
  O2-  O305  1  0.27690733  0.38581224  0.51335247  1
  O2-  O306  1  0.25995494  0.88456444  0.03445993  1
  O2-  O307  1  0.28119142  0.88493850  0.51100909  1
  O2-  O308  1  0.77769019  0.38624105  0.01755327  1
  O2-  O309  1  0.76421736  0.37735283  0.52364366  1
  O2-  O310  1  0.76677823  0.86860354  0.01808329  1
  O2-  O311  1  0.77735028  0.88332882  0.52276484  1
  O2-  O312  1  0.23206063  0.12385964  -0.00863213  1
  O2-  O313  1  0.22070067  0.11329999  0.47003085  1
  O2-  O314  1  0.22252591  0.61103011  -0.01679107  1
  O2-  O315  1  0.24007624  0.61248618  0.47422447  1
  O2-  O316  1  0.72370813  0.11441769  -0.02327860  1
  O2-  O317  1  0.73156497  0.13471445  0.48530929  1
  O2-  O318  1  0.73365419  0.62948617  -0.01991740  1
  O2-  O319  1  0.73464177  0.61315461  0.47846857  1
