# generated using pymatgen
data_Sr64Ca21Nb43O192
_symmetry_space_group_name_H-M   'P 1'
_cell_length_a   16.55796791
_cell_length_b   16.63061300
_cell_length_c   16.75240609
_cell_angle_alpha   90.03621960
_cell_angle_beta   89.99373377
_cell_angle_gamma   90.00474722
_symmetry_Int_Tables_number   1
_chemical_formula_structural   Sr64Ca21Nb43O192
_chemical_formula_sum   'Sr64 Ca21 Nb43 O192'
_cell_volume   4613.09496838
_cell_formula_units_Z   1
loop_
 _symmetry_equiv_pos_site_id
 _symmetry_equiv_pos_as_xyz
  1  'x, y, z'
loop_
 _atom_type_symbol
 _atom_type_oxidation_number
  Sr2+  2.0
  Ca2+  2.0
  Nb5+  5.0
  O2-  -2.0
loop_
 _atom_site_type_symbol
 _atom_site_label
 _atom_site_symmetry_multiplicity
 _atom_site_fract_x
 _atom_site_fract_y
 _atom_site_fract_z
 _atom_site_occupancy
  Sr2+  Sr0  1  0.12705044  0.13409297  0.13554265  1
  Sr2+  Sr1  1  0.12620928  0.13170493  0.62890950  1
  Sr2+  Sr2  1  0.11866597  0.63616552  0.12181600  1
  Sr2+  Sr3  1  0.12559704  0.61680040  0.62907556  1
  Sr2+  Sr4  1  0.62121769  0.14130918  0.13066161  1
  Sr2+  Sr5  1  0.62008082  0.12660664  0.62857686  1
  Sr2+  Sr6  1  0.61338609  0.63362347  0.12685164  1
  Sr2+  Sr7  1  0.61889315  0.64135929  0.62240420  1
  Sr2+  Sr8  1  0.37650897  0.39446209  0.12257441  1
  Sr2+  Sr9  1  0.36676273  0.39845812  0.62862202  1
  Sr2+  Sr10  1  0.36434069  0.88145913  0.12938432  1
  Sr2+  Sr11  1  0.36996608  0.87072334  0.62234868  1
  Sr2+  Sr12  1  0.86119850  0.38409002  0.12439953  1
  Sr2+  Sr13  1  0.86757711  0.39624520  0.62760903  1
  Sr2+  Sr14  1  0.87206030  0.87831410  0.13122987  1
  Sr2+  Sr15  1  0.87449206  0.88100055  0.62524633  1
  Sr2+  Sr16  1  0.12267005  0.36272538  0.37375510  1
  Sr2+  Sr17  1  0.10990997  0.36980236  0.87216909  1
  Sr2+  Sr18  1  0.12436735  0.87052712  0.37883727  1
  Sr2+  Sr19  1  0.12805995  0.87139875  0.87262117  1
  Sr2+  Sr20  1  0.63577118  0.36528076  0.37790564  1
  Sr2+  Sr21  1  0.62301546  0.37459400  0.87972247  1
  Sr2+  Sr22  1  0.62637957  0.87265556  0.37715462  1
  Sr2+  Sr23  1  0.62997292  0.87002627  0.87165341  1
  Sr2+  Sr24  1  0.38342724  0.13072234  0.37961707  1
  Sr2+  Sr25  1  0.37093700  0.12648814  0.87429748  1
  Sr2+  Sr26  1  0.38035447  0.61767322  0.38377436  1
  Sr2+  Sr27  1  0.39420990  0.62181443  0.87185629  1
  Sr2+  Sr28  1  0.88555011  0.12948223  0.37662409  1
  Sr2+  Sr29  1  0.88018887  0.13238851  0.88279277  1
  Sr2+  Sr30  1  0.88838476  0.62156596  0.36764324  1
  Sr2+  Sr31  1  0.88347212  0.61800108  0.86694205  1
  Sr2+  Sr32  1  0.13308845  0.13571255  0.38154664  1
  Sr2+  Sr33  1  0.12943928  0.13294151  0.86716073  1
  Sr2+  Sr34  1  0.13230785  0.60293335  0.37208411  1
  Sr2+  Sr35  1  0.12941340  0.61682153  0.87588028  1
  Sr2+  Sr36  1  0.62992922  0.12887175  0.38415418  1
  Sr2+  Sr37  1  0.63493443  0.13146646  0.87198268  1
  Sr2+  Sr38  1  0.63534472  0.60530861  0.37539223  1
  Sr2+  Sr39  1  0.62858600  0.61445879  0.87406532  1
  Sr2+  Sr40  1  0.37081329  0.37467419  0.37621240  1
  Sr2+  Sr41  1  0.38646292  0.38281248  0.87207228  1
  Sr2+  Sr42  1  0.37840849  0.86908840  0.38143790  1
  Sr2+  Sr43  1  0.37128629  0.86268382  0.87765720  1
  Sr2+  Sr44  1  0.87947739  0.38177787  0.37827916  1
  Sr2+  Sr45  1  0.88076189  0.38066598  0.88262199  1
  Sr2+  Sr46  1  0.88200410  0.86466020  0.37438655  1
  Sr2+  Sr47  1  0.87542672  0.86486717  0.87871713  1
  Sr2+  Sr48  1  0.12224097  0.38086570  0.13403636  1
  Sr2+  Sr49  1  0.11899159  0.38293203  0.62823182  1
  Sr2+  Sr50  1  0.11180079  0.88262076  0.12513366  1
  Sr2+  Sr51  1  0.12253042  0.88250380  0.62662785  1
  Sr2+  Sr52  1  0.61103404  0.37681588  0.12858569  1
  Sr2+  Sr53  1  0.61941160  0.37868438  0.61430909  1
  Sr2+  Sr54  1  0.60883281  0.88756518  0.12711630  1
  Sr2+  Sr55  1  0.60954147  0.88104151  0.62423750  1
  Sr2+  Sr56  1  0.37256379  0.13248153  0.12681101  1
  Sr2+  Sr57  1  0.38209460  0.13000373  0.62755882  1
  Sr2+  Sr58  1  0.36461789  0.63113481  0.12190044  1
  Sr2+  Sr59  1  0.36785128  0.63307726  0.62501394  1
  Sr2+  Sr60  1  0.86883676  0.12696492  0.12240072  1
  Sr2+  Sr61  1  0.88366453  0.12570522  0.62906863  1
  Sr2+  Sr62  1  0.86889233  0.63601532  0.12572863  1
  Sr2+  Sr63  1  0.85838071  0.62759589  0.62051257  1
  Ca2+  Ca64  1  0.49978031  0.50100281  0.49985155  1
  Ca2+  Ca65  1  0.00078948  0.50008875  0.00432778  1
  Ca2+  Ca66  1  0.00168264  0.50117060  0.49994798  1
  Ca2+  Ca67  1  0.00329448  0.00242031  -0.00116934  1
  Ca2+  Ca68  1  0.49842221  0.00179966  -0.00132509  1
  Ca2+  Ca69  1  0.74772262  0.75101779  0.49548470  1
  Ca2+  Ca70  1  0.25029839  0.25171944  0.50437356  1
  Ca2+  Ca71  1  0.75284812  0.24754400  0.50283201  1
  Ca2+  Ca72  1  0.24819115  0.25148750  -0.00106690  1
  Ca2+  Ca73  1  0.24131540  0.74805921  0.49805987  1
  Ca2+  Ca74  1  0.74863074  0.50083581  0.75016902  1
  Ca2+  Ca75  1  -0.00273183  0.24649200  0.24766891  1
  Ca2+  Ca76  1  0.50044815  0.74942290  0.25214147  1
  Ca2+  Ca77  1  0.25282875  0.50211477  0.24754204  1
  Ca2+  Ca78  1  0.75059322  0.50104690  0.24801769  1
  Ca2+  Ca79  1  -0.00386478  0.25081673  0.75009051  1
  Ca2+  Ca80  1  0.25098456  0.50119389  0.75592552  1
  Ca2+  Ca81  1  0.49852277  0.25249548  0.25286862  1
  Ca2+  Ca82  1  0.50100672  0.25099504  0.75050300  1
  Ca2+  Ca83  1  0.50042720  0.75408469  0.75139202  1
  Ca2+  Ca84  1  0.00148014  0.75063635  0.74828578  1
  Nb5+  Nb85  1  0.00609411  -0.00296495  0.49793238  1
  Nb5+  Nb86  1  0.50261263  0.50284671  0.00251653  1
  Nb5+  Nb87  1  0.50307665  0.00045874  0.49816981  1
  Nb5+  Nb88  1  0.75105194  0.25639681  0.00006330  1
  Nb5+  Nb89  1  0.74250364  0.75589290  0.00140072  1
  Nb5+  Nb90  1  0.24333437  0.75347041  0.00311640  1
  Nb5+  Nb91  1  0.24725641  -0.00122924  0.75569947  1
  Nb5+  Nb92  1  0.24434372  -0.00189371  0.25885530  1
  Nb5+  Nb93  1  0.74681598  -0.00120793  0.75509187  1
  Nb5+  Nb94  1  0.74646932  -0.00005155  0.25692352  1
  Nb5+  Nb95  1  0.00345470  0.75027841  0.24934962  1
  Nb5+  Nb96  1  -0.00288338  0.00053246  0.25210997  1
  Nb5+  Nb97  1  -0.00464528  -0.00497466  0.75205236  1
  Nb5+  Nb98  1  0.00000469  0.49363618  0.24506760  1
  Nb5+  Nb99  1  0.00053317  0.50148903  0.74981928  1
  Nb5+  Nb100  1  0.49157661  0.00462405  0.25076061  1
  Nb5+  Nb101  1  0.49235385  -0.00234971  0.75421397  1
  Nb5+  Nb102  1  0.50047731  0.50003893  0.25532654  1
  Nb5+  Nb103  1  0.50808075  0.50454125  0.74305816  1
  Nb5+  Nb104  1  0.25636703  0.25322359  0.24884450  1
  Nb5+  Nb105  1  0.25416392  0.25396493  0.75351506  1
  Nb5+  Nb106  1  0.24849650  0.74739126  0.25212150  1
  Nb5+  Nb107  1  0.24839187  0.74971558  0.74937795  1
  Nb5+  Nb108  1  0.75556330  0.24967177  0.25213925  1
  Nb5+  Nb109  1  0.75447102  0.25592277  0.75038784  1
  Nb5+  Nb110  1  0.74666906  0.75074699  0.24758432  1
  Nb5+  Nb111  1  0.75128887  0.75234073  0.74527735  1
  Nb5+  Nb112  1  -0.00633410  0.25385335  0.50293730  1
  Nb5+  Nb113  1  0.00165641  0.25109775  1.00356088  1
  Nb5+  Nb114  1  -0.00205642  0.74559941  0.50172501  1
  Nb5+  Nb115  1  -0.00782799  0.75143111  0.99897622  1
  Nb5+  Nb116  1  0.49545169  0.25647147  0.50435421  1
  Nb5+  Nb117  1  0.49719701  0.24469265  0.99608756  1
  Nb5+  Nb118  1  0.49891711  0.74776149  0.49503130  1
  Nb5+  Nb119  1  0.49145249  0.75277405  1.00379913  1
  Nb5+  Nb120  1  0.24429948  0.00296243  0.00762643  1
  Nb5+  Nb121  1  0.25622343  0.00021012  0.50580856  1
  Nb5+  Nb122  1  0.25082664  0.49602280  -0.00539807  1
  Nb5+  Nb123  1  0.24894693  0.49873347  0.50085245  1
  Nb5+  Nb124  1  0.74631885  0.00275493  0.00790079  1
  Nb5+  Nb125  1  0.75450673  -0.00231054  0.50619224  1
  Nb5+  Nb126  1  0.74913521  0.51125558  0.00488425  1
  Nb5+  Nb127  1  0.74983031  0.49931645  0.49908185  1
  O2-  O128  1  0.02033765  0.01446481  0.13849143  1
  O2-  O129  1  0.00965571  0.01831035  0.61360802  1
  O2-  O130  1  0.03766902  0.51348238  0.13453310  1
  O2-  O131  1  0.02823047  0.50825843  0.63292137  1
  O2-  O132  1  0.51287651  0.02710287  0.13690594  1
  O2-  O133  1  0.50777425  0.02038398  0.61647362  1
  O2-  O134  1  0.52865009  0.51220202  0.11847066  1
  O2-  O135  1  0.53637021  0.51739911  0.63268442  1
  O2-  O136  1  -0.00738159  -0.02865870  0.37221728  1
  O2-  O137  1  -0.00936646  -0.03253065  0.86163292  1
  O2-  O138  1  -0.02226490  0.49568022  0.36330294  1
  O2-  O139  1  -0.02286702  0.49254731  0.86982388  1
  O2-  O140  1  0.48505795  -0.01856265  0.37579847  1
  O2-  O141  1  0.48789783  -0.03134434  0.86374360  1
  O2-  O142  1  0.46917209  0.48922130  0.36567804  1
  O2-  O143  1  0.48422431  0.49332668  0.88349245  1
  O2-  O144  1  0.25411434  0.23318535  0.13228330  1
  O2-  O145  1  0.23574839  0.25202449  0.63799595  1
  O2-  O146  1  0.26763648  0.76244304  0.12422647  1
  O2-  O147  1  0.26754693  0.75637550  0.63587374  1
  O2-  O148  1  0.75183007  0.25841013  0.12069960  1
  O2-  O149  1  0.74572963  0.27266525  0.63773955  1
  O2-  O150  1  0.77458704  0.76396458  0.11688124  1
  O2-  O151  1  0.77372609  0.76773659  0.63368047  1
  O2-  O152  1  0.24820825  0.24261197  0.36669085  1
  O2-  O153  1  0.25379682  0.21952834  0.86879292  1
  O2-  O154  1  0.21704527  0.74624903  0.36178801  1
  O2-  O155  1  0.23087789  0.75249730  0.88467461  1
  O2-  O156  1  0.74966492  0.22404961  0.36402343  1
  O2-  O157  1  0.75491293  0.22540995  0.88474099  1
  O2-  O158  1  0.72847946  0.73745046  0.35893288  1
  O2-  O159  1  0.73077337  0.73780649  0.88500072  1
  O2-  O160  1  -0.00101921  0.21123342  0.11482762  1
  O2-  O161  1  0.00698745  0.21955529  0.61587226  1
  O2-  O162  1  -0.01214093  0.73236658  0.12706949  1
  O2-  O163  1  -0.02291052  0.72792494  0.61247492  1
  O2-  O164  1  0.50445762  0.23571051  0.11372113  1
  O2-  O165  1  0.50876298  0.22159011  0.61788178  1
  O2-  O166  1  0.48895704  0.72270189  0.11759473  1
  O2-  O167  1  0.48287809  0.73363682  0.61436345  1
  O2-  O168  1  0.25789159  0.00507338  0.37436479  1
  O2-  O169  1  0.25507697  0.00707103  0.87261667  1
  O2-  O170  1  0.27084047  0.51512280  0.38245299  1
  O2-  O171  1  0.28199717  0.52790127  0.88641408  1
  O2-  O172  1  0.75816762  0.02394363  0.36808507  1
  O2-  O173  1  0.75551399  0.01949446  0.86810604  1
  O2-  O174  1  0.77057007  0.52765796  0.38194749  1
  O2-  O175  1  0.76697839  0.51800079  0.88874785  1
  O2-  O176  1  -0.01587925  0.26940952  0.38234654  1
  O2-  O177  1  -0.01294816  0.27474641  0.88564781  1
  O2-  O178  1  0.00948342  0.77196943  0.36463551  1
  O2-  O179  1  0.01055862  0.77571418  0.88776705  1
  O2-  O180  1  0.48892484  0.27677133  0.38613531  1
  O2-  O181  1  0.49938148  0.28292500  0.88490916  1
  O2-  O182  1  0.50694283  0.78507662  0.38272276  1
  O2-  O183  1  0.51383371  0.77322028  0.89007796  1
  O2-  O184  1  0.24304168  -0.00912406  0.12647343  1
  O2-  O185  1  0.24695208  -0.01462540  0.62361735  1
  O2-  O186  1  0.23871745  0.48811944  0.11146411  1
  O2-  O187  1  0.22988986  0.48788159  0.62088857  1
  O2-  O188  1  0.74371817  -0.02269422  0.12064893  1
  O2-  O189  1  0.74344294  -0.02826305  0.61928977  1
  O2-  O190  1  0.72995805  0.47145109  0.11390574  1
  O2-  O191  1  0.73384257  0.47177230  0.61677724  1
  O2-  O192  1  0.13449367  0.26640067  0.24415354  1
  O2-  O193  1  0.13315419  0.26191725  0.76783041  1
  O2-  O194  1  0.11998148  0.77246327  0.22704658  1
  O2-  O195  1  0.13677668  0.78627097  0.74541994  1
  O2-  O196  1  0.63693397  0.25633981  0.24223449  1
  O2-  O197  1  0.63905713  0.24822503  0.77047360  1
  O2-  O198  1  0.63787644  0.78007220  0.22411359  1
  O2-  O199  1  0.63716787  0.78336391  0.74239411  1
  O2-  O200  1  0.36801958  0.21211434  0.25304723  1
  O2-  O201  1  0.36815566  0.21580066  0.74941514  1
  O2-  O202  1  0.36165446  0.73057487  0.26894123  1
  O2-  O203  1  0.36401510  0.74067955  0.77889607  1
  O2-  O204  1  0.86601495  0.21111558  0.24209668  1
  O2-  O205  1  0.86319086  0.21170323  0.75468305  1
  O2-  O206  1  0.87681059  0.74108196  0.25725221  1
  O2-  O207  1  0.86524581  0.74187957  0.77952498  1
  O2-  O208  1  0.28248948  0.36532275  0.24753602  1
  O2-  O209  1  0.28177447  0.36530217  0.76324563  1
  O2-  O210  1  0.27024936  0.87718629  0.25550680  1
  O2-  O211  1  0.27654721  0.88180831  0.75763152  1
  O2-  O212  1  0.77946782  0.36172550  0.26310597  1
  O2-  O213  1  0.77361395  0.36471592  0.77718475  1
  O2-  O214  1  0.77421725  0.88041375  0.25841604  1
  O2-  O215  1  0.77252532  0.88071377  0.76882223  1
  O2-  O216  1  0.22633685  0.11265972  0.24929703  1
  O2-  O217  1  0.23180872  0.11294507  0.73771988  1
  O2-  O218  1  0.22389599  0.63680496  0.23093124  1
  O2-  O219  1  0.22332054  0.63735275  0.74726280  1
  O2-  O220  1  0.73638069  0.11101696  0.22227015  1
  O2-  O221  1  0.73685677  0.11074808  0.72452443  1
  O2-  O222  1  0.73732045  0.63859038  0.22144162  1
  O2-  O223  1  0.72895329  0.63920818  0.73384096  1
  O2-  O224  1  0.11808454  0.47692675  0.27386264  1
  O2-  O225  1  0.11790112  0.47451426  0.77131054  1
  O2-  O226  1  0.12929844  0.97328806  0.26118629  1
  O2-  O227  1  0.13001444  0.97881921  0.75517612  1
  O2-  O228  1  0.61850417  0.47292813  0.27274875  1
  O2-  O229  1  0.61861461  0.48565913  0.78252823  1
  O2-  O230  1  0.63147345  0.97844551  0.26052927  1
  O2-  O231  1  0.63052289  0.97772795  0.75371689  1
  O2-  O232  1  0.37380729  0.01780983  0.24247615  1
  O2-  O233  1  0.37631249  0.02033032  0.74359441  1
  O2-  O234  1  0.38802780  0.52567291  0.22141223  1
  O2-  O235  1  0.38823879  0.52368532  0.73116576  1
  O2-  O236  1  0.87931668  0.01185261  0.23980594  1
  O2-  O237  1  0.87733038  0.00824894  0.73408426  1
  O2-  O238  1  0.88663805  0.52539369  0.22320386  1
  O2-  O239  1  0.88289608  0.52989655  0.72895559  1
  O2-  O240  1  0.48457770  0.38555558  0.22299253  1
  O2-  O241  1  0.48670493  0.38707532  0.73451735  1
  O2-  O242  1  0.48740415  0.88798309  0.22932454  1
  O2-  O243  1  0.48739580  0.88736975  0.71454943  1
  O2-  O244  1  0.97893626  0.38168130  0.22726844  1
  O2-  O245  1  0.97409154  0.38403854  0.73565362  1
  O2-  O246  1  0.98608684  0.87495956  0.23159063  1
  O2-  O247  1  0.99489058  0.88502560  0.70989607  1
  O2-  O248  1  0.02056942  0.10980439  0.27924385  1
  O2-  O249  1  0.02063284  0.10838662  0.75913984  1
  O2-  O250  1  0.01952684  0.63434453  0.26369932  1
  O2-  O251  1  0.02643327  0.61979171  0.76755535  1
  O2-  O252  1  0.52193657  0.11398583  0.27963781  1
  O2-  O253  1  0.52559246  0.10887530  0.76361421  1
  O2-  O254  1  0.53367291  0.61568445  0.26222763  1
  O2-  O255  1  0.52027430  0.62180456  0.77084742  1
  O2-  O256  1  0.13866228  0.48756541  -0.03006442  1
  O2-  O257  1  0.13406877  0.46744804  0.47876474  1
  O2-  O258  1  0.13593642  0.96017237  -0.00881406  1
  O2-  O259  1  0.12066083  0.97572085  0.49235767  1
  O2-  O260  1  0.62636467  0.49091262  -0.01943941  1
  O2-  O261  1  0.63210092  0.47826134  0.47468281  1
  O2-  O262  1  0.63497088  0.97327858  -0.01616365  1
  O2-  O263  1  0.61810655  0.97837691  0.48913914  1
  O2-  O264  1  0.36166067  0.02395526  0.00553731  1
  O2-  O265  1  0.37060736  0.02231237  0.50618764  1
  O2-  O266  1  0.38516468  0.51915280  0.02222677  1
  O2-  O267  1  0.36745472  0.52887508  0.52424620  1
  O2-  O268  1  0.86364404  0.01142367  -0.00004476  1
  O2-  O269  1  0.86913089  0.01610905  0.50913752  1
  O2-  O270  1  0.86427980  0.51689674  0.02566712  1
  O2-  O271  1  0.86772906  0.51548085  0.52361126  1
  O2-  O272  1  0.49258838  0.38209332  0.01686068  1
  O2-  O273  1  0.48115403  0.36715311  0.53337973  1
  O2-  O274  1  0.48268848  0.86584520  0.03055458  1
  O2-  O275  1  0.47314765  0.88496164  0.51541072  1
  O2-  O276  1  0.96790990  0.36408848  0.02544513  1
  O2-  O277  1  0.97431732  0.36422892  0.52465463  1
  O2-  O278  1  0.98316299  0.86529812  0.02848946  1
  O2-  O279  1  0.96976428  0.88116050  0.50922019  1
  O2-  O280  1  0.01285619  0.13486734  -0.03492488  1
  O2-  O281  1  0.01058672  0.10949956  0.46874791  1
  O2-  O282  1  0.02482314  0.63806133  -0.00934798  1
  O2-  O283  1  0.02546672  0.63734626  0.47528854  1
  O2-  O284  1  0.52053253  0.13453555  -0.03065424  1
  O2-  O285  1  0.51153003  0.11640722  0.47566611  1
  O2-  O286  1  0.51940269  0.62644540  -0.01520600  1
  O2-  O287  1  0.52055736  0.63664243  0.47210807  1
  O2-  O288  1  0.11414165  0.28298650  0.00716373  1
  O2-  O289  1  0.11170506  0.25648144  0.48793617  1
  O2-  O290  1  0.12915816  0.76914063  0.02033256  1
  O2-  O291  1  0.10768119  0.78723259  0.51099323  1
  O2-  O292  1  0.63027545  0.26137817  0.00000038  1
  O2-  O293  1  0.61537711  0.25965981  0.49277682  1
  O2-  O294  1  0.62889493  0.76736054  0.02159570  1
  O2-  O295  1  0.61353153  0.77713187  0.51733472  1
  O2-  O296  1  0.38358105  0.22538311  -0.00131914  1
  O2-  O297  1  0.38274410  0.21734654  0.50395999  1
  O2-  O298  1  0.37691365  0.73354923  -0.01457551  1
  O2-  O299  1  0.37875196  0.73727034  0.48114146  1
  O2-  O300  1  0.86687535  0.22459548  0.00524471  1
  O2-  O301  1  0.88244131  0.20986609  0.50382474  1
  O2-  O302  1  0.87592435  0.73121866  -0.01471334  1
  O2-  O303  1  0.88320255  0.73842450  0.46864539  1
  O2-  O304  1  0.28190489  0.38573511  -0.01620626  1
  O2-  O305  1  0.28422079  0.38324805  0.49627842  1
  O2-  O306  1  0.27786577  0.87074276  -0.00286724  1
  O2-  O307  1  0.26453064  0.88484534  0.48796311  1
  O2-  O308  1  0.76426489  0.37006547  -0.01598358  1
  O2-  O309  1  0.76856999  0.38071537  0.47436423  1
  O2-  O310  1  0.76615096  0.86991719  -0.01649789  1
  O2-  O311  1  0.75747010  0.88827064  0.46518848  1
  O2-  O312  1  0.20985211  0.11160354  0.00615082  1
  O2-  O313  1  0.21898226  0.11064736  0.50573226  1
  O2-  O314  1  0.23884175  0.63442080  0.01491839  1
  O2-  O315  1  0.21758660  0.61629461  0.51000179  1
  O2-  O316  1  0.72747504  0.11705596  0.01680980  1
  O2-  O317  1  0.71892444  0.10828956  0.51192856  1
  O2-  O318  1  0.73196660  0.62707156  0.02070555  1
  O2-  O319  1  0.72678071  0.61746897  0.52336377  1
