# generated using pymatgen
data_Sr64Ca21Nb43O192
_symmetry_space_group_name_H-M   'P 1'
_cell_length_a   16.56607653
_cell_length_b   16.58026811
_cell_length_c   16.71601791
_cell_angle_alpha   89.98867914
_cell_angle_beta   89.95839726
_cell_angle_gamma   90.02244256
_symmetry_Int_Tables_number   1
_chemical_formula_structural   Sr64Ca21Nb43O192
_chemical_formula_sum   'Sr64 Ca21 Nb43 O192'
_cell_volume   4591.38682646
_cell_formula_units_Z   1
loop_
 _symmetry_equiv_pos_site_id
 _symmetry_equiv_pos_as_xyz
  1  'x, y, z'
loop_
 _atom_type_symbol
 _atom_type_oxidation_number
  Sr2+  2.0
  Ca2+  2.0
  Nb5+  5.0
  O2-  -2.0
loop_
 _atom_site_type_symbol
 _atom_site_label
 _atom_site_symmetry_multiplicity
 _atom_site_fract_x
 _atom_site_fract_y
 _atom_site_fract_z
 _atom_site_occupancy
  Sr2+  Sr0  1  0.12838766  0.13976457  0.11584748  1
  Sr2+  Sr1  1  0.13261027  0.13648210  0.62296889  1
  Sr2+  Sr2  1  0.13195708  0.61337308  0.13053891  1
  Sr2+  Sr3  1  0.13419123  0.62406087  0.62828091  1
  Sr2+  Sr4  1  0.64089034  0.14074004  0.12605257  1
  Sr2+  Sr5  1  0.63352221  0.13239014  0.62526421  1
  Sr2+  Sr6  1  0.62510347  0.63107662  0.12747693  1
  Sr2+  Sr7  1  0.63029648  0.61891092  0.61729993  1
  Sr2+  Sr8  1  0.37619018  0.38609617  0.12796685  1
  Sr2+  Sr9  1  0.37875856  0.37791239  0.62413142  1
  Sr2+  Sr10  1  0.38826594  0.87484819  0.12861299  1
  Sr2+  Sr11  1  0.38408055  0.88845861  0.62896780  1
  Sr2+  Sr12  1  0.88159237  0.36773629  0.12630223  1
  Sr2+  Sr13  1  0.87483568  0.37408444  0.63486254  1
  Sr2+  Sr14  1  0.88060394  0.88427620  0.12408620  1
  Sr2+  Sr15  1  0.88166712  0.87981027  0.62450911  1
  Sr2+  Sr16  1  0.11544374  0.37039684  0.37342999  1
  Sr2+  Sr17  1  0.11194916  0.36755285  0.87178620  1
  Sr2+  Sr18  1  0.10645742  0.87463136  0.37623409  1
  Sr2+  Sr19  1  0.11107877  0.87767814  0.87561491  1
  Sr2+  Sr20  1  0.61930980  0.37367421  0.37592242  1
  Sr2+  Sr21  1  0.61708057  0.37816257  0.87276827  1
  Sr2+  Sr22  1  0.63112037  0.87364041  0.37255281  1
  Sr2+  Sr23  1  0.63645988  0.87063394  0.87724508  1
  Sr2+  Sr24  1  0.36882433  0.12199907  0.38553155  1
  Sr2+  Sr25  1  0.36366917  0.12155071  0.87266624  1
  Sr2+  Sr26  1  0.36705280  0.62345270  0.37897403  1
  Sr2+  Sr27  1  0.36074908  0.62672621  0.86794360  1
  Sr2+  Sr28  1  0.85557504  0.11323642  0.37100506  1
  Sr2+  Sr29  1  0.87075792  0.10985739  0.87479332  1
  Sr2+  Sr30  1  0.88374555  0.62953828  0.37750733  1
  Sr2+  Sr31  1  0.86611028  0.62710549  0.87108178  1
  Sr2+  Sr32  1  0.12517384  0.11286105  0.38584344  1
  Sr2+  Sr33  1  0.12414202  0.10768877  0.87255950  1
  Sr2+  Sr34  1  0.12407557  0.64041508  0.37578358  1
  Sr2+  Sr35  1  0.11653356  0.63972738  0.86538876  1
  Sr2+  Sr36  1  0.62186524  0.10913806  0.37004589  1
  Sr2+  Sr37  1  0.60797655  0.11869861  0.87251642  1
  Sr2+  Sr38  1  0.61494203  0.63126169  0.37934985  1
  Sr2+  Sr39  1  0.62152966  0.62824586  0.87635645  1
  Sr2+  Sr40  1  0.36728816  0.36859937  0.37597471  1
  Sr2+  Sr41  1  0.37586261  0.36409923  0.87193604  1
  Sr2+  Sr42  1  0.36859719  0.88813309  0.36630463  1
  Sr2+  Sr43  1  0.36247087  0.87777181  0.87338033  1
  Sr2+  Sr44  1  0.86485264  0.35826911  0.37304962  1
  Sr2+  Sr45  1  0.86092691  0.37437622  0.87115066  1
  Sr2+  Sr46  1  0.87044354  0.87649901  0.37783463  1
  Sr2+  Sr47  1  0.87427713  0.86731154  0.88260171  1
  Sr2+  Sr48  1  0.13091483  0.38013925  0.12414628  1
  Sr2+  Sr49  1  0.10103383  0.37590925  0.62185801  1
  Sr2+  Sr50  1  0.12815186  0.88019879  0.12589653  1
  Sr2+  Sr51  1  0.13567313  0.87650271  0.63663617  1
  Sr2+  Sr52  1  0.64057043  0.38578761  0.12796097  1
  Sr2+  Sr53  1  0.63638984  0.38169996  0.63033680  1
  Sr2+  Sr54  1  0.63118082  0.87026333  0.12385728  1
  Sr2+  Sr55  1  0.63785884  0.88540549  0.62104701  1
  Sr2+  Sr56  1  0.38042328  0.13374780  0.12329145  1
  Sr2+  Sr57  1  0.38946369  0.13052214  0.62717165  1
  Sr2+  Sr58  1  0.38165551  0.61750424  0.12760035  1
  Sr2+  Sr59  1  0.38352654  0.61827531  0.62282044  1
  Sr2+  Sr60  1  0.88249477  0.12469197  0.12444309  1
  Sr2+  Sr61  1  0.88106909  0.12902359  0.62044385  1
  Sr2+  Sr62  1  0.88611810  0.63005355  0.12461197  1
  Sr2+  Sr63  1  0.89345162  0.61662298  0.62521385  1
  Ca2+  Ca64  1  0.00024819  0.00096918  0.49900422  1
  Ca2+  Ca65  1  0.50117924  -0.00048108  0.49991973  1
  Ca2+  Ca66  1  0.00119986  0.50193089  -0.00226707  1
  Ca2+  Ca67  1  0.00165559  0.50068864  0.49578236  1
  Ca2+  Ca68  1  0.49919708  -0.00042616  0.00090901  1
  Ca2+  Ca69  1  0.75025385  0.25209629  -0.00286434  1
  Ca2+  Ca70  1  0.75062692  0.74696002  0.49925107  1
  Ca2+  Ca71  1  0.74546307  0.25000923  0.50013603  1
  Ca2+  Ca72  1  0.24983925  0.74809786  0.00244963  1
  Ca2+  Ca73  1  0.25207779  0.75010226  0.50023478  1
  Ca2+  Ca74  1  0.49981381  0.74722243  0.74925751  1
  Ca2+  Ca75  1  0.49978381  0.25149571  0.24834012  1
  Ca2+  Ca76  1  0.24617306  0.00430548  0.24776733  1
  Ca2+  Ca77  1  0.24959332  0.49643689  0.75130232  1
  Ca2+  Ca78  1  0.00018608  0.24501106  0.75372961  1
  Ca2+  Ca79  1  0.25025431  0.00230752  0.74844849  1
  Ca2+  Ca80  1  0.75235049  0.00151768  0.75212569  1
  Ca2+  Ca81  1  0.74727029  -0.00286670  0.24496470  1
  Ca2+  Ca82  1  -0.00287794  0.75219260  0.75067380  1
  Ca2+  Ca83  1  0.75077595  0.50242829  0.25117007  1
  Ca2+  Ca84  1  0.00364328  0.24781410  0.25366937  1
  Nb5+  Nb85  1  0.50095026  0.49628818  0.50389454  1
  Nb5+  Nb86  1  0.50148670  0.49923714  0.00502529  1
  Nb5+  Nb87  1  0.00039824  0.00068710  0.00092757  1
  Nb5+  Nb88  1  0.24977682  0.25370963  0.49688527  1
  Nb5+  Nb89  1  0.75125540  0.74920868  0.00276315  1
  Nb5+  Nb90  1  0.24960531  0.25387755  -0.00798617  1
  Nb5+  Nb91  1  0.74959466  0.50326368  0.75008068  1
  Nb5+  Nb92  1  0.24996152  0.49762254  0.25311816  1
  Nb5+  Nb93  1  0.00457815  0.75265233  0.24886896  1
  Nb5+  Nb94  1  0.50223093  0.25024969  0.74897476  1
  Nb5+  Nb95  1  0.50113420  0.74992021  0.25017522  1
  Nb5+  Nb96  1  0.00157905  0.00528553  0.24752896  1
  Nb5+  Nb97  1  0.00095767  -0.00119899  0.74386457  1
  Nb5+  Nb98  1  -0.00419031  0.50056739  0.25212304  1
  Nb5+  Nb99  1  0.00272658  0.49943580  0.75299792  1
  Nb5+  Nb100  1  0.50006496  0.00633225  0.24122790  1
  Nb5+  Nb101  1  0.49958396  -0.00852069  0.75567998  1
  Nb5+  Nb102  1  0.49962689  0.49966416  0.25815617  1
  Nb5+  Nb103  1  0.50004302  0.50292569  0.75617786  1
  Nb5+  Nb104  1  0.24844476  0.24859589  0.24629500  1
  Nb5+  Nb105  1  0.25149850  0.25402812  0.74234420  1
  Nb5+  Nb106  1  0.25733181  0.75166113  0.24499462  1
  Nb5+  Nb107  1  0.25204167  0.74950470  0.74918460  1
  Nb5+  Nb108  1  0.75051039  0.25164087  0.24935183  1
  Nb5+  Nb109  1  0.74955181  0.24608774  0.75735309  1
  Nb5+  Nb110  1  0.75628050  0.74723635  0.25013209  1
  Nb5+  Nb111  1  0.74727375  0.74926554  0.74389510  1
  Nb5+  Nb112  1  -0.00622788  0.24598486  0.49482683  1
  Nb5+  Nb113  1  -0.00413985  0.25049597  0.99429095  1
  Nb5+  Nb114  1  0.00255779  0.75266875  0.50704314  1
  Nb5+  Nb115  1  0.00315800  0.75039149  1.00377816  1
  Nb5+  Nb116  1  0.50398742  0.24916448  0.49855932  1
  Nb5+  Nb117  1  0.50223529  0.25352652  1.00356043  1
  Nb5+  Nb118  1  0.49550463  0.75627128  0.49977753  1
  Nb5+  Nb119  1  0.49488726  0.74738024  0.99732736  1
  Nb5+  Nb120  1  0.25341004  -0.00113352  0.00713286  1
  Nb5+  Nb121  1  0.25284933  -0.00430910  0.50294101  1
  Nb5+  Nb122  1  0.24907959  0.49639349  -0.00462776  1
  Nb5+  Nb123  1  0.24834802  0.49687677  0.50119480  1
  Nb5+  Nb124  1  0.74448033  0.00458009  -0.00331040  1
  Nb5+  Nb125  1  0.74872213  -0.00014532  0.50128780  1
  Nb5+  Nb126  1  0.75358623  0.50435928  0.00165792  1
  Nb5+  Nb127  1  0.75468282  0.49800707  0.49426107  1
  O2-  O128  1  0.00944655  -0.02310587  0.11961707  1
  O2-  O129  1  0.00597655  -0.02650965  0.63215462  1
  O2-  O130  1  0.00869881  0.48049079  0.13515785  1
  O2-  O131  1  -0.01510342  0.47896459  0.63386529  1
  O2-  O132  1  0.51208770  -0.03854851  0.13146782  1
  O2-  O133  1  0.51814149  -0.02198416  0.63791932  1
  O2-  O134  1  0.50410139  0.48191160  0.12186930  1
  O2-  O135  1  0.50068445  0.47828087  0.62015778  1
  O2-  O136  1  -0.01110792  0.02294325  0.36110379  1
  O2-  O137  1  -0.00743463  0.01573823  0.88230558  1
  O2-  O138  1  0.01275018  0.53723902  0.36256249  1
  O2-  O139  1  -0.00191316  0.53464199  0.86583632  1
  O2-  O140  1  0.48101682  0.01956335  0.36054255  1
  O2-  O141  1  0.48172611  0.02973042  0.86830167  1
  O2-  O142  1  0.49829712  0.51948573  0.37330681  1
  O2-  O143  1  0.49982565  0.51735275  0.87255626  1
  O2-  O144  1  0.26435966  0.23641117  0.13054177  1
  O2-  O145  1  0.27207674  0.23571415  0.62887136  1
  O2-  O146  1  0.22557728  0.72769861  0.13542319  1
  O2-  O147  1  0.22315522  0.74275945  0.63297005  1
  O2-  O148  1  0.77361452  0.22897821  0.12997798  1
  O2-  O149  1  0.76300947  0.23383393  0.63893174  1
  O2-  O150  1  0.74281489  0.72492870  0.12198809  1
  O2-  O151  1  0.72437782  0.73382821  0.63345514  1
  O2-  O152  1  0.23844219  0.27159605  0.38263787  1
  O2-  O153  1  0.23840225  0.27553289  0.87960881  1
  O2-  O154  1  0.26098183  0.75134294  0.36144147  1
  O2-  O155  1  0.27538655  0.75694073  0.87022457  1
  O2-  O156  1  0.73148702  0.27797833  0.36567136  1
  O2-  O157  1  0.73185526  0.28567755  0.86717064  1
  O2-  O158  1  0.75844566  0.77271643  0.36274734  1
  O2-  O159  1  0.76149123  0.76243930  0.88403033  1
  O2-  O160  1  -0.00859694  0.26130027  0.11324967  1
  O2-  O161  1  -0.01671238  0.26722150  0.61548079  1
  O2-  O162  1  -0.00382196  0.77636403  0.12691003  1
  O2-  O163  1  0.00750651  0.78195125  0.61749371  1
  O2-  O164  1  0.46617111  0.26653871  0.11250137  1
  O2-  O165  1  0.47927640  0.26687061  0.63278723  1
  O2-  O166  1  0.51082173  0.75846411  0.12740833  1
  O2-  O167  1  0.50925281  0.77710199  0.61180224  1
  O2-  O168  1  0.27430444  0.00435437  0.38296859  1
  O2-  O169  1  0.25908727  -0.00599934  0.88809907  1
  O2-  O170  1  0.25892836  0.48124795  0.37108469  1
  O2-  O171  1  0.27390884  0.47999174  0.88578351  1
  O2-  O172  1  0.76330497  -0.01724207  0.38061528  1
  O2-  O173  1  0.77523608  -0.02429633  0.88560428  1
  O2-  O174  1  0.75203195  0.46877624  0.38432117  1
  O2-  O175  1  0.75091075  0.48968132  0.87609476  1
  O2-  O176  1  0.03905969  0.23445785  0.38637057  1
  O2-  O177  1  0.03964129  0.23177573  0.88707578  1
  O2-  O178  1  -0.00686996  0.73081911  0.36396527  1
  O2-  O179  1  -0.01490022  0.73348212  0.88977115  1
  O2-  O180  1  0.52280768  0.23448767  0.38599051  1
  O2-  O181  1  0.51680655  0.24862221  0.87431909  1
  O2-  O182  1  0.48605944  0.72065329  0.36369799  1
  O2-  O183  1  0.49019401  0.71499806  0.88719656  1
  O2-  O184  1  0.21798990  0.02237558  0.11557471  1
  O2-  O185  1  0.21985644  0.01339076  0.61527051  1
  O2-  O186  1  0.24980039  0.50523240  0.12652284  1
  O2-  O187  1  0.25730210  0.51357155  0.61439357  1
  O2-  O188  1  0.74160468  0.02229937  0.11188103  1
  O2-  O189  1  0.73037235  0.01651694  0.61937609  1
  O2-  O190  1  0.72951959  0.52006762  0.11376055  1
  O2-  O191  1  0.74389829  0.51866464  0.63215859  1
  O2-  O192  1  0.13701158  0.28766754  0.24105776  1
  O2-  O193  1  0.13891179  0.27670063  0.73195217  1
  O2-  O194  1  0.12076090  0.76727017  0.25804450  1
  O2-  O195  1  0.13227281  0.77074389  0.77395822  1
  O2-  O196  1  0.63295068  0.26973599  0.22133934  1
  O2-  O197  1  0.62153618  0.27237536  0.73589973  1
  O2-  O198  1  0.61724602  0.76293262  0.25593494  1
  O2-  O199  1  0.63388747  0.75921533  0.77824632  1
  O2-  O200  1  0.36287159  0.23305528  0.27587413  1
  O2-  O201  1  0.38373655  0.23452539  0.77033673  1
  O2-  O202  1  0.37266228  0.72879582  0.23059381  1
  O2-  O203  1  0.36695562  0.71543350  0.73362210  1
  O2-  O204  1  0.86926939  0.23374258  0.27474365  1
  O2-  O205  1  0.86444155  0.23564963  0.77609456  1
  O2-  O206  1  0.87177653  0.72798623  0.24289025  1
  O2-  O207  1  0.86149509  0.71798611  0.74514397  1
  O2-  O208  1  0.27450355  0.37867994  0.23990483  1
  O2-  O209  1  0.28831589  0.36476932  0.74414092  1
  O2-  O210  1  0.27013872  0.86493053  0.23188179  1
  O2-  O211  1  0.27935970  0.86683262  0.73645247  1
  O2-  O212  1  0.77375310  0.36988782  0.22507641  1
  O2-  O213  1  0.76362660  0.38233649  0.73659561  1
  O2-  O214  1  0.75451664  0.86060290  0.21729432  1
  O2-  O215  1  0.76732735  0.86345460  0.73284449  1
  O2-  O216  1  0.21701524  0.13976649  0.26649000  1
  O2-  O217  1  0.24087721  0.14065019  0.77428274  1
  O2-  O218  1  0.23529202  0.61701660  0.26236278  1
  O2-  O219  1  0.22473889  0.62942894  0.76580369  1
  O2-  O220  1  0.72799719  0.13330757  0.26722695  1
  O2-  O221  1  0.72241227  0.13661897  0.77629700  1
  O2-  O222  1  0.72086605  0.63597018  0.26584283  1
  O2-  O223  1  0.72832396  0.61998319  0.76962092  1
  O2-  O224  1  0.13151637  0.48414960  0.24990980  1
  O2-  O225  1  0.11549722  0.47055701  0.75042398  1
  O2-  O226  1  0.11278842  0.96488671  0.25560634  1
  O2-  O227  1  0.11667522  0.97142628  0.76459155  1
  O2-  O228  1  0.61324218  0.47879054  0.25516242  1
  O2-  O229  1  0.62590765  0.48069282  0.75450383  1
  O2-  O230  1  0.61276986  0.97626403  0.26588731  1
  O2-  O231  1  0.61682806  0.98650022  0.77784584  1
  O2-  O232  1  0.38124727  0.00907012  0.22294957  1
  O2-  O233  1  0.38538220  0.02213752  0.73051331  1
  O2-  O234  1  0.37396591  0.51935511  0.24497580  1
  O2-  O235  1  0.38693069  0.51894028  0.74390363  1
  O2-  O236  1  0.88410708  0.00870012  0.22746708  1
  O2-  O237  1  0.88607501  0.03783083  0.74025205  1
  O2-  O238  1  0.88478002  0.53135813  0.24650150  1
  O2-  O239  1  0.86772011  0.51901145  0.75258262  1
  O2-  O240  1  0.47316963  0.38642687  0.26531594  1
  O2-  O241  1  0.48917105  0.37915284  0.76353875  1
  O2-  O242  1  0.47493894  0.86196305  0.26414260  1
  O2-  O243  1  0.47678975  0.88066933  0.77642909  1
  O2-  O244  1  0.98064445  0.38885136  0.27750411  1
  O2-  O245  1  0.97632418  0.38337653  0.77611381  1
  O2-  O246  1  0.97513539  0.86807445  0.26448720  1
  O2-  O247  1  0.96852945  0.88601251  0.77254336  1
  O2-  O248  1  0.02263036  0.11496075  0.22075808  1
  O2-  O249  1  0.03654932  0.11439359  0.73891537  1
  O2-  O250  1  0.01570709  0.63439916  0.22239003  1
  O2-  O251  1  0.01893074  0.61654771  0.72357890  1
  O2-  O252  1  0.51889970  0.11682135  0.21513721  1
  O2-  O253  1  0.52208034  0.13529400  0.73527630  1
  O2-  O254  1  0.50947698  0.62011303  0.22928600  1
  O2-  O255  1  0.52475807  0.61178831  0.72392418  1
  O2-  O256  1  0.13727117  0.46546522  -0.00676487  1
  O2-  O257  1  0.13737292  0.46603760  0.49980563  1
  O2-  O258  1  0.12076368  0.98517013  -0.01278488  1
  O2-  O259  1  0.13627595  0.98584620  0.47286374  1
  O2-  O260  1  0.62045405  0.48359126  -0.01016337  1
  O2-  O261  1  0.61846025  0.47490155  0.49530930  1
  O2-  O262  1  0.63332814  0.97537367  -0.01417773  1
  O2-  O263  1  0.63117861  0.96652674  0.48766137  1
  O2-  O264  1  0.36475066  0.02768048  0.02032075  1
  O2-  O265  1  0.36739380  0.02668710  0.52325434  1
  O2-  O266  1  0.38025864  0.51556079  0.00936984  1
  O2-  O267  1  0.37959057  0.51094115  0.49579281  1
  O2-  O268  1  0.87828485  0.01420672  0.01284262  1
  O2-  O269  1  0.86568879  0.02885546  0.50981352  1
  O2-  O270  1  0.86561489  0.53230981  0.00446963  1
  O2-  O271  1  0.86601131  0.52715617  0.49754495  1
  O2-  O272  1  0.48276306  0.38127000  -0.01946992  1
  O2-  O273  1  0.48135401  0.37597134  0.48015566  1
  O2-  O274  1  0.47888828  0.86027543  -0.01998444  1
  O2-  O275  1  0.47061000  0.86384294  0.47169709  1
  O2-  O276  1  0.98024201  0.36481903  -0.02347853  1
  O2-  O277  1  0.98940533  0.36476870  0.47591429  1
  O2-  O278  1  0.98085872  0.87740640  -0.01166903  1
  O2-  O279  1  0.98007308  0.86603718  0.47254632  1
  O2-  O280  1  0.01504113  0.11986825  0.01815710  1
  O2-  O281  1  0.02578273  0.13432542  0.52238357  1
  O2-  O282  1  0.01786592  0.63837194  0.02995379  1
  O2-  O283  1  0.02557934  0.63422343  0.52234302  1
  O2-  O284  1  0.52174470  0.13947972  0.01326225  1
  O2-  O285  1  0.51450843  0.13669371  0.52583564  1
  O2-  O286  1  0.51921273  0.61709567  0.01870909  1
  O2-  O287  1  0.51780600  0.61365544  0.51545298  1
  O2-  O288  1  0.13406728  0.26847401  0.01988716  1
  O2-  O289  1  0.13828967  0.26900414  0.52593779  1
  O2-  O290  1  0.11475119  0.77594914  -0.00716097  1
  O2-  O291  1  0.11690479  0.76499303  0.47587763  1
  O2-  O292  1  0.61378826  0.27938590  0.02102802  1
  O2-  O293  1  0.61239818  0.27677400  0.52661568  1
  O2-  O294  1  0.62453342  0.76123807  -0.00190424  1
  O2-  O295  1  0.61034447  0.75462476  0.47230159  1
  O2-  O296  1  0.37224124  0.23559241  -0.02105550  1
  O2-  O297  1  0.37786662  0.23855019  0.49069422  1
  O2-  O298  1  0.38454301  0.72542986  0.02306958  1
  O2-  O299  1  0.38602972  0.71237073  0.50372031  1
  O2-  O300  1  0.88579103  0.22419370  -0.02387192  1
  O2-  O301  1  0.88256609  0.22629270  0.47347675  1
  O2-  O302  1  0.87082308  0.73790467  0.01270174  1
  O2-  O303  1  0.88588028  0.72182521  0.50121214  1
  O2-  O304  1  0.27371247  0.37017742  0.02062193  1
  O2-  O305  1  0.27955554  0.37316301  0.51044244  1
  O2-  O306  1  0.26986510  0.88572571  0.02468861  1
  O2-  O307  1  0.27885062  0.88395665  0.51372930  1
  O2-  O308  1  0.77417581  0.38968344  0.01572349  1
  O2-  O309  1  0.76485092  0.38617341  0.53235507  1
  O2-  O310  1  0.75944615  0.86784922  0.02040850  1
  O2-  O311  1  0.77389612  0.88136208  0.52235638  1
  O2-  O312  1  0.23341585  0.13555873  -0.01290004  1
  O2-  O313  1  0.23786924  0.13638973  0.48899013  1
  O2-  O314  1  0.22675625  0.60960834  -0.01351133  1
  O2-  O315  1  0.23329836  0.60973011  0.47899869  1
  O2-  O316  1  0.72955361  0.11655392  -0.02879981  1
  O2-  O317  1  0.71811275  0.11678918  0.48119381  1
  O2-  O318  1  0.73080605  0.62841893  -0.01905826  1
  O2-  O319  1  0.71774382  0.61010878  0.48767399  1
