# generated using pymatgen
data_Sr64Ca21Nb43O192
_symmetry_space_group_name_H-M   'P 1'
_cell_length_a   16.58758376
_cell_length_b   16.55853258
_cell_length_c   16.75157992
_cell_angle_alpha   90.00348473
_cell_angle_beta   90.02282985
_cell_angle_gamma   90.00649115
_symmetry_Int_Tables_number   1
_chemical_formula_structural   Sr64Ca21Nb43O192
_chemical_formula_sum   'Sr64 Ca21 Nb43 O192'
_cell_volume   4601.08981894
_cell_formula_units_Z   1
loop_
 _symmetry_equiv_pos_site_id
 _symmetry_equiv_pos_as_xyz
  1  'x, y, z'
loop_
 _atom_type_symbol
 _atom_type_oxidation_number
  Sr2+  2.0
  Ca2+  2.0
  Nb5+  5.0
  O2-  -2.0
loop_
 _atom_site_type_symbol
 _atom_site_label
 _atom_site_symmetry_multiplicity
 _atom_site_fract_x
 _atom_site_fract_y
 _atom_site_fract_z
 _atom_site_occupancy
  Sr2+  Sr0  1  0.11818297  0.12962725  0.12658280  1
  Sr2+  Sr1  1  0.12155214  0.11575051  0.62321982  1
  Sr2+  Sr2  1  0.11778229  0.63561847  0.12796704  1
  Sr2+  Sr3  1  0.11709841  0.63429984  0.62504882  1
  Sr2+  Sr4  1  0.63199967  0.10964264  0.12818476  1
  Sr2+  Sr5  1  0.61313607  0.12388280  0.62782040  1
  Sr2+  Sr6  1  0.62146780  0.63614033  0.11928951  1
  Sr2+  Sr7  1  0.63866772  0.63245910  0.62414126  1
  Sr2+  Sr8  1  0.38448655  0.37957558  0.12888581  1
  Sr2+  Sr9  1  0.38029468  0.37168076  0.63084153  1
  Sr2+  Sr10  1  0.38710196  0.87018862  0.12734521  1
  Sr2+  Sr11  1  0.37863445  0.88073785  0.62138780  1
  Sr2+  Sr12  1  0.87988505  0.35843675  0.12287903  1
  Sr2+  Sr13  1  0.88418446  0.37303285  0.63154178  1
  Sr2+  Sr14  1  0.87438629  0.87995208  0.12522050  1
  Sr2+  Sr15  1  0.88355700  0.88068175  0.62203610  1
  Sr2+  Sr16  1  0.13805299  0.37560873  0.37170423  1
  Sr2+  Sr17  1  0.12865085  0.37461323  0.87968714  1
  Sr2+  Sr18  1  0.12647775  0.87366487  0.36252700  1
  Sr2+  Sr19  1  0.13609069  0.88407059  0.88072102  1
  Sr2+  Sr20  1  0.63721830  0.38046754  0.37035800  1
  Sr2+  Sr21  1  0.64013066  0.37427370  0.86820221  1
  Sr2+  Sr22  1  0.61890063  0.87672196  0.35929953  1
  Sr2+  Sr23  1  0.61991495  0.87605198  0.90109414  1
  Sr2+  Sr24  1  0.37432802  0.13325897  0.37483312  1
  Sr2+  Sr25  1  0.37660717  0.12835463  0.87458537  1
  Sr2+  Sr26  1  0.39585485  0.62131999  0.37850291  1
  Sr2+  Sr27  1  0.37710988  0.62058333  0.87370142  1
  Sr2+  Sr28  1  0.85636632  0.12792402  0.37315552  1
  Sr2+  Sr29  1  0.86001257  0.13615552  0.88365952  1
  Sr2+  Sr30  1  0.86824505  0.61807336  0.37397707  1
  Sr2+  Sr31  1  0.86999332  0.61443944  0.87564745  1
  Sr2+  Sr32  1  0.12580258  0.13352585  0.36893773  1
  Sr2+  Sr33  1  0.12469292  0.12858962  0.88168747  1
  Sr2+  Sr34  1  0.12237747  0.62458929  0.36952349  1
  Sr2+  Sr35  1  0.12369462  0.61822427  0.88179459  1
  Sr2+  Sr36  1  0.61469132  0.13622757  0.36751611  1
  Sr2+  Sr37  1  0.61647063  0.12736257  0.88145444  1
  Sr2+  Sr38  1  0.62317562  0.62075381  0.37757799  1
  Sr2+  Sr39  1  0.62373619  0.63481510  0.87483108  1
  Sr2+  Sr40  1  0.38207447  0.38492179  0.37805862  1
  Sr2+  Sr41  1  0.37890703  0.37894570  0.86850763  1
  Sr2+  Sr42  1  0.37876811  0.88248197  0.37074501  1
  Sr2+  Sr43  1  0.38019570  0.89067376  0.88011886  1
  Sr2+  Sr44  1  0.87535149  0.37038531  0.37449920  1
  Sr2+  Sr45  1  0.87932418  0.37506244  0.88631947  1
  Sr2+  Sr46  1  0.87041040  0.87487360  0.36951698  1
  Sr2+  Sr47  1  0.86379361  0.89043899  0.88098811  1
  Sr2+  Sr48  1  0.11990157  0.37328596  0.12487018  1
  Sr2+  Sr49  1  0.12775006  0.37035527  0.62215084  1
  Sr2+  Sr50  1  0.14328094  0.87220450  0.13038739  1
  Sr2+  Sr51  1  0.13805538  0.87528359  0.62183194  1
  Sr2+  Sr52  1  0.63588921  0.36675256  0.13389904  1
  Sr2+  Sr53  1  0.62636616  0.36848143  0.62940337  1
  Sr2+  Sr54  1  0.60511185  0.87281060  0.12246512  1
  Sr2+  Sr55  1  0.64884593  0.87084903  0.62666523  1
  Sr2+  Sr56  1  0.37247967  0.11611123  0.13228799  1
  Sr2+  Sr57  1  0.37315311  0.12764256  0.62958465  1
  Sr2+  Sr58  1  0.39300272  0.62100398  0.12204541  1
  Sr2+  Sr59  1  0.38038141  0.64044080  0.62119755  1
  Sr2+  Sr60  1  0.86960499  0.13109005  0.12327908  1
  Sr2+  Sr61  1  0.88137579  0.11538772  0.62002098  1
  Sr2+  Sr62  1  0.88177757  0.62269511  0.11712983  1
  Sr2+  Sr63  1  0.87822104  0.62739281  0.63079047  1
  Ca2+  Ca64  1  -0.00074731  -0.00161490  0.00153127  1
  Ca2+  Ca65  1  0.50084069  0.49172469  -0.00463739  1
  Ca2+  Ca66  1  0.49740987  0.00785715  0.00242025  1
  Ca2+  Ca67  1  0.50096592  0.00156122  0.49949725  1
  Ca2+  Ca68  1  0.50247961  0.49733092  0.50532344  1
  Ca2+  Ca69  1  0.24932488  0.74606709  -0.00102518  1
  Ca2+  Ca70  1  0.75515477  0.74737932  0.00068453  1
  Ca2+  Ca71  1  0.25699585  0.25129381  -0.00153016  1
  Ca2+  Ca72  1  0.74288521  0.25260952  -0.00053727  1
  Ca2+  Ca73  1  0.74770843  0.25136642  0.50299386  1
  Ca2+  Ca74  1  0.75033843  0.00186367  0.75070940  1
  Ca2+  Ca75  1  -0.00058076  0.75341523  0.75125056  1
  Ca2+  Ca76  1  0.49702259  0.25381115  0.25039421  1
  Ca2+  Ca77  1  0.24795436  0.00263871  0.25421743  1
  Ca2+  Ca78  1  0.25284681  0.50252365  0.25074243  1
  Ca2+  Ca79  1  0.75103998  -0.00375666  0.25164035  1
  Ca2+  Ca80  1  0.50134024  0.74504824  0.25317975  1
  Ca2+  Ca81  1  0.50114443  0.75199259  0.74683588  1
  Ca2+  Ca82  1  -0.00057083  0.25273407  0.25394593  1
  Ca2+  Ca83  1  0.75229578  0.50264351  0.24625571  1
  Ca2+  Ca84  1  -0.00081779  0.24846298  0.74940095  1
  Nb5+  Nb85  1  0.00255187  -0.00462655  0.49680791  1
  Nb5+  Nb86  1  0.00141308  0.50010472  0.00544101  1
  Nb5+  Nb87  1  -0.00221573  0.49655555  0.50328132  1
  Nb5+  Nb88  1  0.25365625  0.75385543  0.49673447  1
  Nb5+  Nb89  1  0.25255400  0.25391868  0.50041956  1
  Nb5+  Nb90  1  0.75965355  0.75012801  0.49743858  1
  Nb5+  Nb91  1  0.25401910  0.50618033  0.74297429  1
  Nb5+  Nb92  1  -0.00396241  0.75167801  0.24905078  1
  Nb5+  Nb93  1  0.24684142  0.00697630  0.74949971  1
  Nb5+  Nb94  1  0.75665938  0.49944692  0.74791944  1
  Nb5+  Nb95  1  0.49994043  0.25018958  0.75389354  1
  Nb5+  Nb96  1  -0.00159325  0.00344331  0.24933659  1
  Nb5+  Nb97  1  0.00063272  0.00361479  0.75601339  1
  Nb5+  Nb98  1  -0.00390863  0.49973106  0.25534727  1
  Nb5+  Nb99  1  0.00737309  0.49773787  0.75313966  1
  Nb5+  Nb100  1  0.50037592  0.00304029  0.25167564  1
  Nb5+  Nb101  1  0.50169536  -0.00313168  0.74532050  1
  Nb5+  Nb102  1  0.50366186  0.49959612  0.24841489  1
  Nb5+  Nb103  1  0.50935244  0.50004590  0.74675531  1
  Nb5+  Nb104  1  0.25080476  0.25569703  0.24235062  1
  Nb5+  Nb105  1  0.24933652  0.25659084  0.74943925  1
  Nb5+  Nb106  1  0.25409999  0.74639918  0.25219470  1
  Nb5+  Nb107  1  0.24889848  0.75358673  0.75090926  1
  Nb5+  Nb108  1  0.74847823  0.24947049  0.25209871  1
  Nb5+  Nb109  1  0.75049032  0.24532349  0.74527987  1
  Nb5+  Nb110  1  0.75112101  0.74751250  0.24789154  1
  Nb5+  Nb111  1  0.75253474  0.75285711  0.75260689  1
  Nb5+  Nb112  1  -0.00023659  0.24297038  0.50082451  1
  Nb5+  Nb113  1  0.00244074  0.24661493  0.99983053  1
  Nb5+  Nb114  1  0.00509665  0.74731354  0.49810022  1
  Nb5+  Nb115  1  0.00144981  0.75319188  0.99366479  1
  Nb5+  Nb116  1  0.50120134  0.25540684  0.49991359  1
  Nb5+  Nb117  1  0.49920331  0.25243094  1.00785104  1
  Nb5+  Nb118  1  0.51188219  0.75277310  0.50370796  1
  Nb5+  Nb119  1  0.49833127  0.74553690  0.99688180  1
  Nb5+  Nb120  1  0.24996571  -0.00218884  0.00708538  1
  Nb5+  Nb121  1  0.24776878  0.00699474  0.49926604  1
  Nb5+  Nb122  1  0.25095830  0.49851166  0.00417945  1
  Nb5+  Nb123  1  0.24868899  0.50881463  0.50339008  1
  Nb5+  Nb124  1  0.75103174  -0.00046196  -0.00039405  1
  Nb5+  Nb125  1  0.74475560  0.00044746  0.50063516  1
  Nb5+  Nb126  1  0.74708324  0.50109282  0.00157095  1
  Nb5+  Nb127  1  0.75493136  0.49691140  0.50289699  1
  O2-  O128  1  -0.02996764  0.00608236  0.13813112  1
  O2-  O129  1  -0.01234644  0.00723387  0.61947752  1
  O2-  O130  1  0.00495569  0.50249380  0.12326396  1
  O2-  O131  1  0.00296749  0.49701489  0.62359217  1
  O2-  O132  1  0.47043667  -0.00324543  0.13384142  1
  O2-  O133  1  0.46447542  0.00696358  0.63330391  1
  O2-  O134  1  0.49188043  0.49491280  0.12958734  1
  O2-  O135  1  0.50242492  0.47012687  0.63601724  1
  O2-  O136  1  0.02940303  -0.00262024  0.38382680  1
  O2-  O137  1  0.03052140  -0.00384472  0.86571393  1
  O2-  O138  1  -0.00719890  0.50333865  0.37678672  1
  O2-  O139  1  -0.00112694  0.50413972  0.87151432  1
  O2-  O140  1  0.53081963  0.00795585  0.36797156  1
  O2-  O141  1  0.51531500  0.00892945  0.86250482  1
  O2-  O142  1  0.50292925  0.50742602  0.37090123  1
  O2-  O143  1  0.47738231  0.50173523  0.85938502  1
  O2-  O144  1  0.25094487  0.28293647  0.13157807  1
  O2-  O145  1  0.24785040  0.26232127  0.62598093  1
  O2-  O146  1  0.26684554  0.76322326  0.13848406  1
  O2-  O147  1  0.26676200  0.76328542  0.61623863  1
  O2-  O148  1  0.73061647  0.23087808  0.13388980  1
  O2-  O149  1  0.71314115  0.23777659  0.63374834  1
  O2-  O150  1  0.76935172  0.72167962  0.13794908  1
  O2-  O151  1  0.76674740  0.73008753  0.61811944  1
  O2-  O152  1  0.25077376  0.22884083  0.38653359  1
  O2-  O153  1  0.25635265  0.22636064  0.86075665  1
  O2-  O154  1  0.22268524  0.73706338  0.38419035  1
  O2-  O155  1  0.22644798  0.73028468  0.85992838  1
  O2-  O156  1  0.76312702  0.27417980  0.37117323  1
  O2-  O157  1  0.76427323  0.27740985  0.85891929  1
  O2-  O158  1  0.73353063  0.77008607  0.38539017  1
  O2-  O159  1  0.72953748  0.76587831  0.86332917  1
  O2-  O160  1  0.00935164  0.25930909  0.11924130  1
  O2-  O161  1  0.01044020  0.26878194  0.61365485  1
  O2-  O162  1  -0.02473949  0.74463024  0.13495128  1
  O2-  O163  1  -0.02316436  0.74757919  0.61115922  1
  O2-  O164  1  0.51168743  0.27658059  0.11848420  1
  O2-  O165  1  0.50683643  0.25774815  0.63010701  1
  O2-  O166  1  0.48256174  0.74640820  0.11893620  1
  O2-  O167  1  0.47306480  0.76303299  0.61437807  1
  O2-  O168  1  0.21866989  0.01384430  0.38908301  1
  O2-  O169  1  0.22322850  0.01368896  0.86331007  1
  O2-  O170  1  0.23653274  0.50870191  0.38978519  1
  O2-  O171  1  0.25065995  0.52187139  0.85762382  1
  O2-  O172  1  0.74113522  -0.03423846  0.39015779  1
  O2-  O173  1  0.73161278  -0.02649210  0.87999320  1
  O2-  O174  1  0.76885033  0.48457365  0.38704018  1
  O2-  O175  1  0.76487572  0.47786475  0.86320382  1
  O2-  O176  1  0.00806938  0.26914799  0.38901165  1
  O2-  O177  1  -0.01545780  0.25059322  0.88260339  1
  O2-  O178  1  0.01762501  0.75507789  0.37961183  1
  O2-  O179  1  0.03477675  0.75195669  0.88478319  1
  O2-  O180  1  0.48242842  0.24311425  0.38677602  1
  O2-  O181  1  0.48453100  0.23713454  0.86971760  1
  O2-  O182  1  0.51718483  0.73085873  0.38765059  1
  O2-  O183  1  0.52138988  0.74951907  0.87986912  1
  O2-  O184  1  0.27417526  -0.02003248  0.11791171  1
  O2-  O185  1  0.26306196  -0.01605917  0.62492113  1
  O2-  O186  1  0.24808036  0.47210872  0.11455811  1
  O2-  O187  1  0.23909251  0.47594559  0.62205724  1
  O2-  O188  1  0.77345832  0.01824334  0.11631650  1
  O2-  O189  1  0.78259233  0.00606747  0.61391375  1
  O2-  O190  1  0.74103368  0.53145861  0.11107985  1
  O2-  O191  1  0.74942199  0.52259388  0.62532586  1
  O2-  O192  1  0.13311781  0.27828035  0.25776616  1
  O2-  O193  1  0.13518861  0.27492984  0.75322279  1
  O2-  O194  1  0.11593650  0.76979117  0.24030892  1
  O2-  O195  1  0.13556818  0.75669034  0.71663143  1
  O2-  O196  1  0.63133758  0.27218525  0.26909310  1
  O2-  O197  1  0.61771723  0.26467724  0.76387308  1
  O2-  O198  1  0.63861278  0.77310384  0.23737452  1
  O2-  O199  1  0.63787126  0.75263861  0.71925420  1
  O2-  O200  1  0.36340505  0.21814648  0.24660901  1
  O2-  O201  1  0.37382105  0.23952565  0.73773967  1
  O2-  O202  1  0.36396518  0.72806923  0.27678823  1
  O2-  O203  1  0.36145494  0.71850150  0.75314519  1
  O2-  O204  1  0.86740449  0.22285192  0.24430895  1
  O2-  O205  1  0.86225736  0.23471045  0.71852491  1
  O2-  O206  1  0.88140186  0.73279710  0.27947994  1
  O2-  O207  1  0.86415741  0.71664482  0.76190333  1
  O2-  O208  1  0.27172750  0.36579239  0.28256512  1
  O2-  O209  1  0.26835619  0.37455205  0.75832204  1
  O2-  O210  1  0.25487309  0.86373452  0.27665055  1
  O2-  O211  1  0.26313493  0.87029470  0.76214133  1
  O2-  O212  1  0.77157826  0.36702633  0.22683085  1
  O2-  O213  1  0.75417449  0.38044795  0.72201731  1
  O2-  O214  1  0.78442353  0.86129885  0.24521802  1
  O2-  O215  1  0.77433638  0.86417143  0.72987759  1
  O2-  O216  1  0.21953264  0.13693845  0.23616046  1
  O2-  O217  1  0.23771540  0.12281596  0.72744590  1
  O2-  O218  1  0.21464458  0.63561292  0.24594032  1
  O2-  O219  1  0.23177929  0.61741765  0.72000009  1
  O2-  O220  1  0.73139191  0.13037768  0.27680523  1
  O2-  O221  1  0.73017747  0.13560922  0.77302448  1
  O2-  O222  1  0.73918029  0.63611980  0.28600181  1
  O2-  O223  1  0.72858965  0.61500780  0.76131774  1
  O2-  O224  1  0.11244319  0.47873151  0.25164152  1
  O2-  O225  1  0.12355844  0.47678455  0.75011350  1
  O2-  O226  1  0.11247031  0.97151980  0.23726844  1
  O2-  O227  1  0.13086336  0.97816677  0.72813702  1
  O2-  O228  1  0.61884390  0.46423579  0.24822927  1
  O2-  O229  1  0.62475739  0.47968231  0.75570062  1
  O2-  O230  1  0.61778457  0.97631588  0.22697106  1
  O2-  O231  1  0.61349894  0.99052999  0.71714147  1
  O2-  O232  1  0.38209046  0.01815844  0.27974786  1
  O2-  O233  1  0.36392282  0.01279081  0.76847871  1
  O2-  O234  1  0.38428141  0.53962261  0.25159087  1
  O2-  O235  1  0.36907374  0.51312745  0.73098888  1
  O2-  O236  1  0.88799597  0.00914683  0.28929016  1
  O2-  O237  1  0.88871202  0.03361105  0.76748283  1
  O2-  O238  1  0.88552882  0.53778831  0.24136904  1
  O2-  O239  1  0.87292194  0.51654679  0.74119588  1
  O2-  O240  1  0.46279918  0.38603439  0.25633740  1
  O2-  O241  1  0.48333976  0.36916340  0.75908793  1
  O2-  O242  1  0.48080244  0.87986822  0.25876488  1
  O2-  O243  1  0.47350508  0.88528321  0.75280970  1
  O2-  O244  1  0.96495996  0.38878120  0.25026404  1
  O2-  O245  1  0.97254452  0.38571010  0.75340982  1
  O2-  O246  1  0.97903959  0.87060425  0.25590532  1
  O2-  O247  1  0.97619551  0.88768235  0.74414260  1
  O2-  O248  1  0.02456416  0.11640185  0.25615702  1
  O2-  O249  1  0.03642296  0.11747342  0.74417652  1
  O2-  O250  1  0.02193778  0.62954265  0.25514759  1
  O2-  O251  1  0.01531092  0.61460743  0.74325111  1
  O2-  O252  1  0.52384725  0.11930804  0.23888690  1
  O2-  O253  1  0.50628215  0.12825960  0.74188580  1
  O2-  O254  1  0.54044009  0.61541651  0.24282711  1
  O2-  O255  1  0.51934233  0.61355041  0.73412859  1
  O2-  O256  1  0.11828446  0.47654455  -0.00907602  1
  O2-  O257  1  0.11684596  0.48520666  0.50164366  1
  O2-  O258  1  0.13289663  0.97062583  0.01422459  1
  O2-  O259  1  0.12411157  0.99029206  0.52544811  1
  O2-  O260  1  0.63669365  0.47561776  -0.01636370  1
  O2-  O261  1  0.64009757  0.48575300  0.49807514  1
  O2-  O262  1  0.63360328  0.97877622  0.01997226  1
  O2-  O263  1  0.63566446  0.98612053  0.53040398  1
  O2-  O264  1  0.36186908  0.01598733  -0.02963495  1
  O2-  O265  1  0.36129904  0.00845423  0.47911776  1
  O2-  O266  1  0.36193875  0.52806466  -0.00049709  1
  O2-  O267  1  0.36199566  0.52096220  0.50441861  1
  O2-  O268  1  0.86876665  0.01780932  -0.03113084  1
  O2-  O269  1  0.88647243  0.01372789  0.48231819  1
  O2-  O270  1  0.88236171  0.51908389  -0.00289266  1
  O2-  O271  1  0.88103214  0.52919197  0.50970021  1
  O2-  O272  1  0.45147485  0.36231389  -0.00840644  1
  O2-  O273  1  0.45828305  0.36546969  0.50505769  1
  O2-  O274  1  0.48251508  0.86734372  -0.00165889  1
  O2-  O275  1  0.48134613  0.86551163  0.48385986  1
  O2-  O276  1  0.98109298  0.38092813  -0.00014775  1
  O2-  O277  1  0.97449906  0.38325723  0.49995796  1
  O2-  O278  1  0.97026036  0.86350157  -0.00064571  1
  O2-  O279  1  0.99182974  0.87647339  0.50099688  1
  O2-  O280  1  0.02543297  0.13278332  0.00284378  1
  O2-  O281  1  0.02211123  0.12693681  0.49937945  1
  O2-  O282  1  0.02290118  0.61868019  0.00146937  1
  O2-  O283  1  0.01557534  0.62765722  0.49623411  1
  O2-  O284  1  0.53840502  0.13776235  0.01062600  1
  O2-  O285  1  0.51974349  0.13791961  0.51188705  1
  O2-  O286  1  0.52532417  0.62741272  0.00048169  1
  O2-  O287  1  0.50832661  0.63307017  0.52179487  1
  O2-  O288  1  0.11849978  0.27480771  -0.00899585  1
  O2-  O289  1  0.13146510  0.26028279  0.50280328  1
  O2-  O290  1  0.11173569  0.76013590  0.03699852  1
  O2-  O291  1  0.12108880  0.75915389  0.51834819  1
  O2-  O292  1  0.61090658  0.28539897  -0.02117394  1
  O2-  O293  1  0.61213825  0.28770496  0.49164167  1
  O2-  O294  1  0.62028442  0.76367843  0.01911051  1
  O2-  O295  1  0.62738330  0.76199406  0.52110137  1
  O2-  O296  1  0.38687201  0.20625401  0.01086974  1
  O2-  O297  1  0.36751075  0.22551016  0.51316893  1
  O2-  O298  1  0.38208286  0.72139159  -0.01672406  1
  O2-  O299  1  0.36525343  0.73316921  0.48141171  1
  O2-  O300  1  0.88162435  0.23463832  0.01281377  1
  O2-  O301  1  0.88551769  0.22466333  0.50627213  1
  O2-  O302  1  0.89048253  0.71496856  -0.01374320  1
  O2-  O303  1  0.87581774  0.74035406  0.47767346  1
  O2-  O304  1  0.25812064  0.38913740  -0.04033822  1
  O2-  O305  1  0.26150065  0.37130696  0.48995457  1
  O2-  O306  1  0.26164698  0.88070939  -0.02931866  1
  O2-  O307  1  0.25366140  0.87216549  0.48820039  1
  O2-  O308  1  0.77929624  0.38778428  0.01273840  1
  O2-  O309  1  0.77951087  0.38635960  0.52478423  1
  O2-  O310  1  0.77861358  0.88031487  0.01045108  1
  O2-  O311  1  0.76720169  0.86743761  0.52237829  1
  O2-  O312  1  0.22270697  0.11364628  0.01386862  1
  O2-  O313  1  0.23737205  0.12179076  0.52251275  1
  O2-  O314  1  0.21320172  0.61033184  0.00414947  1
  O2-  O315  1  0.22922106  0.62434497  0.51906718  1
  O2-  O316  1  0.73321191  0.11781603  -0.02336114  1
  O2-  O317  1  0.73750461  0.11412655  0.47848213  1
  O2-  O318  1  0.74280134  0.61269560  -0.03875757  1
  O2-  O319  1  0.73978702  0.62874886  0.48697242  1
