# generated using pymatgen
data_Sr64Ca21Nb43O192
_symmetry_space_group_name_H-M   'P 1'
_cell_length_a   16.56814586
_cell_length_b   16.58127755
_cell_length_c   16.73410643
_cell_angle_alpha   89.97317704
_cell_angle_beta   90.03184718
_cell_angle_gamma   90.02149632
_symmetry_Int_Tables_number   1
_chemical_formula_structural   Sr64Ca21Nb43O192
_chemical_formula_sum   'Sr64 Ca21 Nb43 O192'
_cell_volume   4597.20933699
_cell_formula_units_Z   1
loop_
 _symmetry_equiv_pos_site_id
 _symmetry_equiv_pos_as_xyz
  1  'x, y, z'
loop_
 _atom_type_symbol
 _atom_type_oxidation_number
  Sr2+  2.0
  Ca2+  2.0
  Nb5+  5.0
  O2-  -2.0
loop_
 _atom_site_type_symbol
 _atom_site_label
 _atom_site_symmetry_multiplicity
 _atom_site_fract_x
 _atom_site_fract_y
 _atom_site_fract_z
 _atom_site_occupancy
  Sr2+  Sr0  1  0.13645256  0.10997649  0.12605670  1
  Sr2+  Sr1  1  0.12052456  0.11108628  0.62796222  1
  Sr2+  Sr2  1  0.12410092  0.62521208  0.12393072  1
  Sr2+  Sr3  1  0.13011740  0.62081689  0.61521385  1
  Sr2+  Sr4  1  0.60754936  0.11712918  0.12729214  1
  Sr2+  Sr5  1  0.61940556  0.10445673  0.61952078  1
  Sr2+  Sr6  1  0.62346131  0.61933230  0.12687399  1
  Sr2+  Sr7  1  0.62319359  0.62047677  0.63253895  1
  Sr2+  Sr8  1  0.38089234  0.36243728  0.12178938  1
  Sr2+  Sr9  1  0.37469877  0.39365653  0.63185403  1
  Sr2+  Sr10  1  0.37005108  0.86711226  0.12711763  1
  Sr2+  Sr11  1  0.38061158  0.87838753  0.62230650  1
  Sr2+  Sr12  1  0.87703251  0.37012518  0.13422405  1
  Sr2+  Sr13  1  0.88048889  0.35513896  0.62284706  1
  Sr2+  Sr14  1  0.87054751  0.87027194  0.12805656  1
  Sr2+  Sr15  1  0.88513582  0.87136006  0.62138307  1
  Sr2+  Sr16  1  0.11508695  0.38467814  0.38031008  1
  Sr2+  Sr17  1  0.11646366  0.37691122  0.87780482  1
  Sr2+  Sr18  1  0.11117810  0.88254468  0.37199991  1
  Sr2+  Sr19  1  0.10634635  0.88482793  0.87218482  1
  Sr2+  Sr20  1  0.64314724  0.37601653  0.38016101  1
  Sr2+  Sr21  1  0.63497854  0.38656212  0.87528936  1
  Sr2+  Sr22  1  0.63354642  0.88750961  0.37609182  1
  Sr2+  Sr23  1  0.63656713  0.87561382  0.88010271  1
  Sr2+  Sr24  1  0.37233930  0.13128596  0.37528802  1
  Sr2+  Sr25  1  0.36688238  0.13277212  0.86781611  1
  Sr2+  Sr26  1  0.36110179  0.62386127  0.37993250  1
  Sr2+  Sr27  1  0.37078337  0.63322120  0.87230923  1
  Sr2+  Sr28  1  0.86534815  0.13310639  0.38420019  1
  Sr2+  Sr29  1  0.88730107  0.12731361  0.86776836  1
  Sr2+  Sr30  1  0.87906815  0.61977128  0.37596168  1
  Sr2+  Sr31  1  0.87082650  0.62832066  0.87633504  1
  Sr2+  Sr32  1  0.11668034  0.13906012  0.37255596  1
  Sr2+  Sr33  1  0.11804625  0.13292975  0.87130107  1
  Sr2+  Sr34  1  0.11463573  0.63981354  0.38345705  1
  Sr2+  Sr35  1  0.11612213  0.62990199  0.87473420  1
  Sr2+  Sr36  1  0.62391172  0.13504533  0.37554720  1
  Sr2+  Sr37  1  0.63847878  0.13806355  0.87668387  1
  Sr2+  Sr38  1  0.63387816  0.63771007  0.37713444  1
  Sr2+  Sr39  1  0.62590483  0.63294100  0.87665898  1
  Sr2+  Sr40  1  0.37668848  0.38095413  0.39522870  1
  Sr2+  Sr41  1  0.37016414  0.38008808  0.86815150  1
  Sr2+  Sr42  1  0.37111226  0.88831402  0.37802734  1
  Sr2+  Sr43  1  0.37798151  0.87729631  0.86576607  1
  Sr2+  Sr44  1  0.87484690  0.35412275  0.37284515  1
  Sr2+  Sr45  1  0.87511337  0.35537050  0.87997176  1
  Sr2+  Sr46  1  0.87583364  0.86288105  0.37891267  1
  Sr2+  Sr47  1  0.87200310  0.90144046  0.87524508  1
  Sr2+  Sr48  1  0.13617508  0.37062354  0.12140823  1
  Sr2+  Sr49  1  0.13862108  0.36721637  0.61313310  1
  Sr2+  Sr50  1  0.13028487  0.87094526  0.12988957  1
  Sr2+  Sr51  1  0.12956220  0.86796728  0.62029883  1
  Sr2+  Sr52  1  0.61175783  0.37378501  0.12491939  1
  Sr2+  Sr53  1  0.61943963  0.37547386  0.64112818  1
  Sr2+  Sr54  1  0.61754262  0.86497122  0.13218376  1
  Sr2+  Sr55  1  0.61739435  0.86918193  0.61106057  1
  Sr2+  Sr56  1  0.36928180  0.12343983  0.12692312  1
  Sr2+  Sr57  1  0.38004590  0.12239360  0.62681194  1
  Sr2+  Sr58  1  0.37727736  0.61902323  0.12170730  1
  Sr2+  Sr59  1  0.37703388  0.62418708  0.62804666  1
  Sr2+  Sr60  1  0.88212755  0.11248276  0.12615732  1
  Sr2+  Sr61  1  0.86892820  0.11388920  0.62697331  1
  Sr2+  Sr62  1  0.87456343  0.61667113  0.12858993  1
  Sr2+  Sr63  1  0.89194764  0.61871105  0.62446811  1
  Ca2+  Ca64  1  0.50675908  0.49957432  0.50026292  1
  Ca2+  Ca65  1  -0.00565574  0.49677057  0.49985489  1
  Ca2+  Ca66  1  0.00055181  0.00321085  0.49555779  1
  Ca2+  Ca67  1  0.50018791  -0.00150190  -0.00098470  1
  Ca2+  Ca68  1  0.00040786  0.00019148  0.00343203  1
  Ca2+  Ca69  1  0.74649055  0.25109144  0.50666383  1
  Ca2+  Ca70  1  0.25242454  0.75360366  0.50011591  1
  Ca2+  Ca71  1  0.25168278  0.24636810  0.49720318  1
  Ca2+  Ca72  1  0.74809079  0.74607261  0.50368684  1
  Ca2+  Ca73  1  0.74919800  0.25265973  0.00398625  1
  Ca2+  Ca74  1  0.50176037  0.24907746  0.75492827  1
  Ca2+  Ca75  1  0.00523215  0.25379711  0.74793978  1
  Ca2+  Ca76  1  0.00144019  0.24931894  0.24700996  1
  Ca2+  Ca77  1  0.00010674  0.74819963  0.75100986  1
  Ca2+  Ca78  1  0.24604031  0.50074160  0.75218673  1
  Ca2+  Ca79  1  -0.00158592  0.75141952  0.24622076  1
  Ca2+  Ca80  1  0.24928843  -0.00175256  0.74971449  1
  Ca2+  Ca81  1  0.74899681  0.00353767  0.24978869  1
  Ca2+  Ca82  1  0.49595046  0.74516627  0.25105614  1
  Ca2+  Ca83  1  0.25009465  0.49884043  0.25082912  1
  Ca2+  Ca84  1  0.74578313  -0.00506304  0.74693960  1
  Nb5+  Nb85  1  0.49885872  0.00117528  0.49682758  1
  Nb5+  Nb86  1  0.49596403  0.50100868  -0.00079098  1
  Nb5+  Nb87  1  -0.00548857  0.50082158  -0.00181241  1
  Nb5+  Nb88  1  0.74490270  0.75159408  0.00150185  1
  Nb5+  Nb89  1  0.24361061  0.74568409  -0.00500452  1
  Nb5+  Nb90  1  0.25101776  0.24275881  -0.00018508  1
  Nb5+  Nb91  1  0.24969039  -0.00208592  0.25114363  1
  Nb5+  Nb92  1  0.75500213  0.50407394  0.75896432  1
  Nb5+  Nb93  1  0.74874644  0.50154433  0.25606978  1
  Nb5+  Nb94  1  0.50188918  0.75016471  0.74904999  1
  Nb5+  Nb95  1  0.49872713  0.25278405  0.25330318  1
  Nb5+  Nb96  1  -0.00773523  0.00542386  0.25238944  1
  Nb5+  Nb97  1  -0.00121331  0.00013009  0.74712189  1
  Nb5+  Nb98  1  0.00247897  0.50011998  0.24820341  1
  Nb5+  Nb99  1  0.00372049  0.49333539  0.74490114  1
  Nb5+  Nb100  1  0.49622572  -0.00364057  0.24814997  1
  Nb5+  Nb101  1  0.50605697  0.00014255  0.75681387  1
  Nb5+  Nb102  1  0.50351854  0.49847693  0.25599718  1
  Nb5+  Nb103  1  0.50068858  0.50322170  0.75430150  1
  Nb5+  Nb104  1  0.25217838  0.25503095  0.25012660  1
  Nb5+  Nb105  1  0.24888565  0.24570497  0.74414113  1
  Nb5+  Nb106  1  0.25108971  0.74928196  0.25559575  1
  Nb5+  Nb107  1  0.24668590  0.75154908  0.75252069  1
  Nb5+  Nb108  1  0.74732569  0.24762088  0.24161981  1
  Nb5+  Nb109  1  0.74873162  0.24423646  0.74696124  1
  Nb5+  Nb110  1  0.75182258  0.75023437  0.25239244  1
  Nb5+  Nb111  1  0.74907123  0.74886691  0.74975871  1
  Nb5+  Nb112  1  0.00278948  0.24871213  0.49986640  1
  Nb5+  Nb113  1  0.00110141  0.24813189  1.00838522  1
  Nb5+  Nb114  1  -0.00067865  0.75101473  0.50239251  1
  Nb5+  Nb115  1  -0.00912219  0.74988151  0.99835961  1
  Nb5+  Nb116  1  0.50094551  0.24992210  0.50902451  1
  Nb5+  Nb117  1  0.50198943  0.24852993  0.99588926  1
  Nb5+  Nb118  1  0.49450617  0.74839161  0.48988965  1
  Nb5+  Nb119  1  0.49278083  0.74906935  1.00099797  1
  Nb5+  Nb120  1  0.25196315  -0.01112368  -0.00363029  1
  Nb5+  Nb121  1  0.24774844  0.00239926  0.50037908  1
  Nb5+  Nb122  1  0.24521720  0.49472917  0.00251391  1
  Nb5+  Nb123  1  0.25040750  0.49882023  0.49898079  1
  Nb5+  Nb124  1  0.74486261  0.00893548  0.00468040  1
  Nb5+  Nb125  1  0.75385267  -0.00179885  0.49632417  1
  Nb5+  Nb126  1  0.74940117  0.50148019  0.00445688  1
  Nb5+  Nb127  1  0.74928771  0.49917634  0.51511878  1
  O2-  O128  1  -0.02175205  -0.02007132  0.13525382  1
  O2-  O129  1  -0.02691980  -0.00344191  0.63078919  1
  O2-  O130  1  -0.02153236  0.48726081  0.11582396  1
  O2-  O131  1  -0.02861783  0.48175319  0.63571200  1
  O2-  O132  1  0.48102281  0.02144855  0.13517314  1
  O2-  O133  1  0.48307641  0.01064326  0.61645629  1
  O2-  O134  1  0.49530246  0.51302351  0.11859645  1
  O2-  O135  1  0.49339866  0.52044535  0.63841861  1
  O2-  O136  1  0.03295738  0.01577446  0.36250086  1
  O2-  O137  1  0.02014862  0.01355489  0.86861887  1
  O2-  O138  1  0.01194647  0.52142468  0.36137198  1
  O2-  O139  1  0.01517327  0.51543641  0.87879004  1
  O2-  O140  1  0.51256476  -0.00995834  0.37307767  1
  O2-  O141  1  0.51810619  -0.03005293  0.86577600  1
  O2-  O142  1  0.51768974  0.46787758  0.36420046  1
  O2-  O143  1  0.51722034  0.48811833  0.88086490  1
  O2-  O144  1  0.23639102  0.23025905  0.12391609  1
  O2-  O145  1  0.22298777  0.22729057  0.63425094  1
  O2-  O146  1  0.23021890  0.74336927  0.11272813  1
  O2-  O147  1  0.22850970  0.73824008  0.63869712  1
  O2-  O148  1  0.73231934  0.28926471  0.13358415  1
  O2-  O149  1  0.73782876  0.28848977  0.63791222  1
  O2-  O150  1  0.72830748  0.76047836  0.11939733  1
  O2-  O151  1  0.72127016  0.76156703  0.63969949  1
  O2-  O152  1  0.28495433  0.26375315  0.35950329  1
  O2-  O153  1  0.27546756  0.26350933  0.88894380  1
  O2-  O154  1  0.27913804  0.76320409  0.36441570  1
  O2-  O155  1  0.27996158  0.76414379  0.88261134  1
  O2-  O156  1  0.75708389  0.24240710  0.36180033  1
  O2-  O157  1  0.77162141  0.23081788  0.86670512  1
  O2-  O158  1  0.77052706  0.72591963  0.36394845  1
  O2-  O159  1  0.75537464  0.72812647  0.88368377  1
  O2-  O160  1  0.01828000  0.28671288  0.11661587  1
  O2-  O161  1  0.01983167  0.27624028  0.61508782  1
  O2-  O162  1  0.02675056  0.76112406  0.10837529  1
  O2-  O163  1  0.02286395  0.76768194  0.61943645  1
  O2-  O164  1  0.51498699  0.24466724  0.12028726  1
  O2-  O165  1  0.52614568  0.23192131  0.61853620  1
  O2-  O166  1  0.51867036  0.73138557  0.11392719  1
  O2-  O167  1  0.52434919  0.73887402  0.63537143  1
  O2-  O168  1  0.23976465  -0.02527556  0.36626703  1
  O2-  O169  1  0.22958887  -0.02372207  0.88537241  1
  O2-  O170  1  0.24568803  0.46634596  0.38261582  1
  O2-  O171  1  0.23742555  0.48055627  0.88770914  1
  O2-  O172  1  0.72143035  0.02237000  0.38209626  1
  O2-  O173  1  0.72088015  0.00567420  0.88572809  1
  O2-  O174  1  0.73093416  0.51697941  0.36778396  1
  O2-  O175  1  0.73809938  0.52311256  0.87687576  1
  O2-  O176  1  -0.02089498  0.22876659  0.37935922  1
  O2-  O177  1  -0.00810187  0.24032832  0.88959159  1
  O2-  O178  1  -0.02161353  0.73106471  0.38235312  1
  O2-  O179  1  -0.00775995  0.71867183  0.88547471  1
  O2-  O180  1  0.47801930  0.26160397  0.36600687  1
  O2-  O181  1  0.46473500  0.26086581  0.88773695  1
  O2-  O182  1  0.45929868  0.75555353  0.38251825  1
  O2-  O183  1  0.48433646  0.75597550  0.87994038  1
  O2-  O184  1  0.27294353  0.00697319  0.12778799  1
  O2-  O185  1  0.26427968  0.02875782  0.61179406  1
  O2-  O186  1  0.25817400  0.52940082  0.11421940  1
  O2-  O187  1  0.26180438  0.52566143  0.61853577  1
  O2-  O188  1  0.78138748  -0.00885111  0.11615231  1
  O2-  O189  1  0.76854110  -0.02723676  0.61239430  1
  O2-  O190  1  0.76818487  0.49087164  0.11862072  1
  O2-  O191  1  0.75973985  0.49589840  0.63229239  1
  O2-  O192  1  0.13890608  0.26487518  0.27140076  1
  O2-  O193  1  0.13852016  0.26741446  0.78183787  1
  O2-  O194  1  0.13607662  0.77854116  0.25793071  1
  O2-  O195  1  0.13742378  0.77343295  0.77864097  1
  O2-  O196  1  0.61759391  0.27207460  0.26140001  1
  O2-  O197  1  0.63632420  0.27507060  0.77687414  1
  O2-  O198  1  0.63311739  0.76643920  0.26486891  1
  O2-  O199  1  0.61918370  0.76042445  0.77883521  1
  O2-  O200  1  0.38101617  0.23766552  0.22489168  1
  O2-  O201  1  0.36820321  0.22323341  0.73737537  1
  O2-  O202  1  0.36189544  0.73332091  0.21503356  1
  O2-  O203  1  0.38428160  0.72374132  0.74356734  1
  O2-  O204  1  0.86222505  0.23510672  0.22649987  1
  O2-  O205  1  0.86738113  0.23759443  0.73061254  1
  O2-  O206  1  0.86395646  0.73785879  0.21514300  1
  O2-  O207  1  0.86130354  0.72495662  0.73739684  1
  O2-  O208  1  0.26473066  0.36476051  0.21683484  1
  O2-  O209  1  0.27559721  0.36302073  0.74044870  1
  O2-  O210  1  0.27073730  0.87806936  0.23449218  1
  O2-  O211  1  0.28551306  0.86325214  0.74208491  1
  O2-  O212  1  0.76377344  0.38413582  0.26566971  1
  O2-  O213  1  0.76626902  0.38960374  0.77465658  1
  O2-  O214  1  0.76819709  0.86635257  0.26086704  1
  O2-  O215  1  0.76040716  0.86037240  0.77957996  1
  O2-  O216  1  0.24383570  0.12139326  0.25723494  1
  O2-  O217  1  0.23797482  0.13151375  0.78251896  1
  O2-  O218  1  0.22623871  0.63558991  0.26785334  1
  O2-  O219  1  0.24157503  0.63595638  0.77936693  1
  O2-  O220  1  0.71921878  0.13832883  0.22479494  1
  O2-  O221  1  0.72592538  0.13383426  0.72596627  1
  O2-  O222  1  0.73106027  0.62301629  0.23188896  1
  O2-  O223  1  0.72184135  0.62628868  0.74816346  1
  O2-  O224  1  0.11346070  0.47612901  0.22964224  1
  O2-  O225  1  0.11407891  0.46288290  0.73494450  1
  O2-  O226  1  0.13535486  0.98530961  0.22930398  1
  O2-  O227  1  0.11638044  0.97497602  0.72424392  1
  O2-  O228  1  0.63005048  0.48323746  0.22614468  1
  O2-  O229  1  0.62741197  0.48850622  0.74539232  1
  O2-  O230  1  0.61235650  0.98498127  0.23313912  1
  O2-  O231  1  0.61306355  0.97427040  0.71555832  1
  O2-  O232  1  0.37571948  0.01616678  0.27108590  1
  O2-  O233  1  0.38857190  0.01474471  0.75756787  1
  O2-  O234  1  0.38930395  0.52052598  0.25895004  1
  O2-  O235  1  0.38549064  0.51476187  0.77191767  1
  O2-  O236  1  0.88268054  0.03639255  0.26977758  1
  O2-  O237  1  0.87881909  0.02109806  0.76764007  1
  O2-  O238  1  0.86596514  0.52358147  0.25486324  1
  O2-  O239  1  0.86855900  0.53189594  0.76152914  1
  O2-  O240  1  0.48899131  0.37486789  0.22664742  1
  O2-  O241  1  0.48936548  0.38612527  0.74096183  1
  O2-  O242  1  0.47792247  0.88288882  0.23744224  1
  O2-  O243  1  0.48143272  0.86609328  0.74016713  1
  O2-  O244  1  0.96749870  0.38743272  0.25832335  1
  O2-  O245  1  0.96890475  0.38623417  0.77605595  1
  O2-  O246  1  0.98228978  0.88616389  0.27086907  1
  O2-  O247  1  0.97782627  0.88225962  0.76793633  1
  O2-  O248  1  0.02483281  0.11720356  0.22202686  1
  O2-  O249  1  0.02268229  0.11930314  0.74186606  1
  O2-  O250  1  0.00671165  0.61533841  0.21976974  1
  O2-  O251  1  0.02592424  0.61127774  0.73392784  1
  O2-  O252  1  0.51460357  0.13267374  0.25965530  1
  O2-  O253  1  0.52981581  0.11256775  0.76868616  1
  O2-  O254  1  0.53076961  0.61105496  0.26365496  1
  O2-  O255  1  0.51901843  0.62527116  0.76876479  1
  O2-  O256  1  0.12615945  0.48920923  0.01584071  1
  O2-  O257  1  0.13193687  0.48054639  0.51219281  1
  O2-  O258  1  0.13778297  0.98876179  0.02815151  1
  O2-  O259  1  0.13631046  0.97697552  0.51500605  1
  O2-  O260  1  0.62924552  0.49361307  0.01205260  1
  O2-  O261  1  0.63493706  0.46016430  0.51733729  1
  O2-  O262  1  0.63454440  0.96844076  0.02730963  1
  O2-  O263  1  0.61810823  0.98261625  0.51217180  1
  O2-  O264  1  0.36455422  0.02007155  -0.02027242  1
  O2-  O265  1  0.38053622  0.01669399  0.47807726  1
  O2-  O266  1  0.37676952  0.51163784  -0.01231442  1
  O2-  O267  1  0.37145290  0.51598601  0.48500119  1
  O2-  O268  1  0.86310499  0.02254224  -0.02384372  1
  O2-  O269  1  0.86598566  0.01444834  0.47410080  1
  O2-  O270  1  0.87611664  0.51917861  -0.01517494  1
  O2-  O271  1  0.86027827  0.53715498  0.49622914  1
  O2-  O272  1  0.48845547  0.38151029  0.01192129  1
  O2-  O273  1  0.47418321  0.36214765  0.51859109  1
  O2-  O274  1  0.48044502  0.86249957  0.01545319  1
  O2-  O275  1  0.48309300  0.87900806  0.50698175  1
  O2-  O276  1  0.99260718  0.38302650  -0.01918295  1
  O2-  O277  1  0.97802132  0.36647559  0.47641427  1
  O2-  O278  1  0.98523383  0.86320758  -0.02381434  1
  O2-  O279  1  0.97894221  0.86879339  0.48706801  1
  O2-  O280  1  0.02211654  0.13657037  0.02453811  1
  O2-  O281  1  0.03405152  0.13419182  0.51159742  1
  O2-  O282  1  0.01706535  0.62029454  0.01439018  1
  O2-  O283  1  0.01952685  0.63171656  0.51677314  1
  O2-  O284  1  0.52185304  0.13483706  -0.01243656  1
  O2-  O285  1  0.52107237  0.11917181  0.48708250  1
  O2-  O286  1  0.51127789  0.62094029  -0.01407111  1
  O2-  O287  1  0.51676278  0.63489073  0.48540875  1
  O2-  O288  1  0.13396173  0.26999225  -0.01026465  1
  O2-  O289  1  0.12033787  0.27357010  0.47298124  1
  O2-  O290  1  0.13108238  0.76227359  -0.02662364  1
  O2-  O291  1  0.11822276  0.76893112  0.47574094  1
  O2-  O292  1  0.61318545  0.27523306  -0.02269147  1
  O2-  O293  1  0.61167957  0.26009254  0.46984092  1
  O2-  O294  1  0.62588029  0.75990241  -0.01460463  1
  O2-  O295  1  0.60986539  0.77446534  0.47938009  1
  O2-  O296  1  0.37184800  0.24057464  0.02566020  1
  O2-  O297  1  0.38799616  0.21552463  0.50665269  1
  O2-  O298  1  0.37694042  0.72721116  0.01401675  1
  O2-  O299  1  0.38692855  0.74087786  0.53877728  1
  O2-  O300  1  0.88565271  0.24305279  0.02409628  1
  O2-  O301  1  0.88348946  0.22598083  0.52148389  1
  O2-  O302  1  0.87556121  0.73313310  0.01759916  1
  O2-  O303  1  0.88100678  0.73765466  0.53002774  1
  O2-  O304  1  0.26249268  0.37947679  0.02257673  1
  O2-  O305  1  0.27257851  0.38051784  0.52733300  1
  O2-  O306  1  0.26898929  0.87268345  0.01306603  1
  O2-  O307  1  0.28060446  0.88786657  0.50821846  1
  O2-  O308  1  0.76177344  0.38995560  -0.02304803  1
  O2-  O309  1  0.77675444  0.38896347  0.48046968  1
  O2-  O310  1  0.77010646  0.86530684  -0.01052828  1
  O2-  O311  1  0.75449928  0.88049524  0.47089712  1
  O2-  O312  1  0.23633773  0.12764024  -0.01251640  1
  O2-  O313  1  0.23848836  0.11244422  0.46008807  1
  O2-  O314  1  0.23803495  0.62781846  -0.01953320  1
  O2-  O315  1  0.23434701  0.61724205  0.47342334  1
  O2-  O316  1  0.71671015  0.11992058  0.01735397  1
  O2-  O317  1  0.73419714  0.11488276  0.52522340  1
  O2-  O318  1  0.74181146  0.62556068  0.01559639  1
  O2-  O319  1  0.70807112  0.61190385  0.50791842  1
