# generated using pymatgen
data_Sr64Ca21Nb43O192
_symmetry_space_group_name_H-M   'P 1'
_cell_length_a   16.57532164
_cell_length_b   16.58571264
_cell_length_c   16.70365199
_cell_angle_alpha   89.94743574
_cell_angle_beta   89.96937204
_cell_angle_gamma   90.07267802
_symmetry_Int_Tables_number   1
_chemical_formula_structural   Sr64Ca21Nb43O192
_chemical_formula_sum   'Sr64 Ca21 Nb43 O192'
_cell_volume   4592.05350545
_cell_formula_units_Z   1
loop_
 _symmetry_equiv_pos_site_id
 _symmetry_equiv_pos_as_xyz
  1  'x, y, z'
loop_
 _atom_type_symbol
 _atom_type_oxidation_number
  Sr2+  2.0
  Ca2+  2.0
  Nb5+  5.0
  O2-  -2.0
loop_
 _atom_site_type_symbol
 _atom_site_label
 _atom_site_symmetry_multiplicity
 _atom_site_fract_x
 _atom_site_fract_y
 _atom_site_fract_z
 _atom_site_occupancy
  Sr2+  Sr0  1  0.12624498  0.12014791  0.11786209  1
  Sr2+  Sr1  1  0.12295209  0.11592091  0.61760361  1
  Sr2+  Sr2  1  0.12105626  0.64107356  0.12693593  1
  Sr2+  Sr3  1  0.11330830  0.63045241  0.62945286  1
  Sr2+  Sr4  1  0.61678026  0.13094754  0.12664964  1
  Sr2+  Sr5  1  0.62215255  0.13388237  0.63430324  1
  Sr2+  Sr6  1  0.61799380  0.62192240  0.11845014  1
  Sr2+  Sr7  1  0.61456824  0.62971428  0.62005768  1
  Sr2+  Sr8  1  0.37316828  0.36579859  0.12534206  1
  Sr2+  Sr9  1  0.37315369  0.36528048  0.62178758  1
  Sr2+  Sr10  1  0.36369197  0.89002678  0.12688342  1
  Sr2+  Sr11  1  0.36615267  0.89145252  0.62824618  1
  Sr2+  Sr12  1  0.86179525  0.36396092  0.12481535  1
  Sr2+  Sr13  1  0.86965916  0.35977686  0.62245311  1
  Sr2+  Sr14  1  0.86721171  0.88278883  0.12098109  1
  Sr2+  Sr15  1  0.87292506  0.88815309  0.62454959  1
  Sr2+  Sr16  1  0.11917776  0.38135016  0.37874589  1
  Sr2+  Sr17  1  0.12901691  0.37684981  0.87878559  1
  Sr2+  Sr18  1  0.14280564  0.86490713  0.37055048  1
  Sr2+  Sr19  1  0.13473842  0.86478806  0.87342376  1
  Sr2+  Sr20  1  0.63689963  0.37481951  0.37016088  1
  Sr2+  Sr21  1  0.62727186  0.38112067  0.86748933  1
  Sr2+  Sr22  1  0.63005271  0.86651972  0.36629415  1
  Sr2+  Sr23  1  0.63440647  0.86779713  0.86943663  1
  Sr2+  Sr24  1  0.38533615  0.12621399  0.37298711  1
  Sr2+  Sr25  1  0.38383868  0.12904921  0.87401259  1
  Sr2+  Sr26  1  0.35024533  0.62364504  0.37633131  1
  Sr2+  Sr27  1  0.37688052  0.61764735  0.87298514  1
  Sr2+  Sr28  1  0.88060757  0.11367878  0.37071230  1
  Sr2+  Sr29  1  0.88054822  0.12038085  0.86278678  1
  Sr2+  Sr30  1  0.87909511  0.62096855  0.37404192  1
  Sr2+  Sr31  1  0.89212286  0.62854307  0.87321870  1
  Sr2+  Sr32  1  0.13502076  0.11489304  0.37327345  1
  Sr2+  Sr33  1  0.13534004  0.12350426  0.87687864  1
  Sr2+  Sr34  1  0.12470494  0.62327028  0.37652842  1
  Sr2+  Sr35  1  0.12924283  0.61750620  0.86329611  1
  Sr2+  Sr36  1  0.62499765  0.11351135  0.37108450  1
  Sr2+  Sr37  1  0.63458672  0.11803495  0.86529691  1
  Sr2+  Sr38  1  0.62942501  0.62522057  0.38300077  1
  Sr2+  Sr39  1  0.62773145  0.63510964  0.87579346  1
  Sr2+  Sr40  1  0.38064551  0.38065897  0.37487350  1
  Sr2+  Sr41  1  0.37612281  0.38820624  0.87184177  1
  Sr2+  Sr42  1  0.38361057  0.85403703  0.37214768  1
  Sr2+  Sr43  1  0.38713306  0.86350272  0.86886815  1
  Sr2+  Sr44  1  0.87933510  0.38171419  0.36825831  1
  Sr2+  Sr45  1  0.88692850  0.38480787  0.88506625  1
  Sr2+  Sr46  1  0.87723529  0.86163362  0.36759238  1
  Sr2+  Sr47  1  0.87781842  0.86385660  0.87732476  1
  Sr2+  Sr48  1  0.11062017  0.36400204  0.12184288  1
  Sr2+  Sr49  1  0.11607940  0.36934324  0.62646985  1
  Sr2+  Sr50  1  0.11146114  0.88637644  0.12357572  1
  Sr2+  Sr51  1  0.12121102  0.87579857  0.62941239  1
  Sr2+  Sr52  1  0.61549712  0.37217636  0.12476437  1
  Sr2+  Sr53  1  0.61919088  0.36701397  0.62548433  1
  Sr2+  Sr54  1  0.61643786  0.87867916  0.11536525  1
  Sr2+  Sr55  1  0.61236663  0.88193380  0.62369438  1
  Sr2+  Sr56  1  0.36073127  0.13188111  0.12424305  1
  Sr2+  Sr57  1  0.36650217  0.13200240  0.61629034  1
  Sr2+  Sr58  1  0.36322627  0.62507928  0.12358226  1
  Sr2+  Sr59  1  0.36460386  0.61733754  0.62118328  1
  Sr2+  Sr60  1  0.89651148  0.12109542  0.12642068  1
  Sr2+  Sr61  1  0.87007962  0.12181970  0.62983012  1
  Sr2+  Sr62  1  0.86366414  0.62387719  0.11873075  1
  Sr2+  Sr63  1  0.87099369  0.62644634  0.62284924  1
  Ca2+  Ca64  1  0.00223714  0.50329318  0.00218425  1
  Ca2+  Ca65  1  -0.00194268  -0.00102499  -0.00523968  1
  Ca2+  Ca66  1  0.50212241  -0.00053397  0.50041512  1
  Ca2+  Ca67  1  -0.00272447  -0.00118034  0.49679929  1
  Ca2+  Ca68  1  0.49953430  -0.00004766  -0.00178892  1
  Ca2+  Ca69  1  0.75101166  0.75191348  0.50157476  1
  Ca2+  Ca70  1  0.24963474  0.74911441  0.50538414  1
  Ca2+  Ca71  1  0.25032606  0.75050395  -0.00126084  1
  Ca2+  Ca72  1  0.74966285  0.24419048  0.49812514  1
  Ca2+  Ca73  1  0.74611212  0.24761171  -0.00263205  1
  Ca2+  Ca74  1  0.74939381  0.50017358  0.75085250  1
  Ca2+  Ca75  1  0.24871021  0.00484748  0.75219656  1
  Ca2+  Ca76  1  0.00488960  0.25026215  0.75199569  1
  Ca2+  Ca77  1  0.25209438  0.00120311  0.25119596  1
  Ca2+  Ca78  1  -0.00166080  0.25212536  0.25378562  1
  Ca2+  Ca79  1  0.50165034  0.74216400  0.24881844  1
  Ca2+  Ca80  1  -0.00089985  0.75042614  0.24899393  1
  Ca2+  Ca81  1  0.49539499  0.25085496  0.75249727  1
  Ca2+  Ca82  1  0.24813865  0.49609250  0.24706291  1
  Ca2+  Ca83  1  0.25245133  0.49832071  0.74543350  1
  Ca2+  Ca84  1  0.50248374  0.74644047  0.74663532  1
  Nb5+  Nb85  1  0.50100800  0.49976006  -0.00471105  1
  Nb5+  Nb86  1  -0.00712338  0.50120176  0.50308730  1
  Nb5+  Nb87  1  0.49815096  0.49772294  0.49064151  1
  Nb5+  Nb88  1  0.24915878  0.25080483  0.49011576  1
  Nb5+  Nb89  1  0.25126891  0.25306138  -0.00565796  1
  Nb5+  Nb90  1  0.75147754  0.74982242  0.00086301  1
  Nb5+  Nb91  1  0.00003284  0.75318460  0.75006873  1
  Nb5+  Nb92  1  0.74993561  0.49490844  0.24864667  1
  Nb5+  Nb93  1  0.49961908  0.25074871  0.25040108  1
  Nb5+  Nb94  1  0.74641923  -0.00537251  0.24368798  1
  Nb5+  Nb95  1  0.74773064  -0.00388470  0.74296907  1
  Nb5+  Nb96  1  0.00259128  -0.00257585  0.25545834  1
  Nb5+  Nb97  1  0.00253442  -0.00031570  0.75464516  1
  Nb5+  Nb98  1  -0.00058159  0.50310678  0.24336023  1
  Nb5+  Nb99  1  -0.00284876  0.49710890  0.74726218  1
  Nb5+  Nb100  1  0.49683718  -0.00412525  0.24628622  1
  Nb5+  Nb101  1  0.49399746  0.00335176  0.74670803  1
  Nb5+  Nb102  1  0.50103654  0.50253633  0.24688278  1
  Nb5+  Nb103  1  0.50167134  0.50019750  0.73644901  1
  Nb5+  Nb104  1  0.24461086  0.25564852  0.24670035  1
  Nb5+  Nb105  1  0.24810682  0.25175308  0.74137925  1
  Nb5+  Nb106  1  0.25188646  0.75034971  0.24627604  1
  Nb5+  Nb107  1  0.25627989  0.75148479  0.75206590  1
  Nb5+  Nb108  1  0.74858120  0.23930862  0.24620811  1
  Nb5+  Nb109  1  0.75361122  0.25537654  0.75633303  1
  Nb5+  Nb110  1  0.74618127  0.74103193  0.24738644  1
  Nb5+  Nb111  1  0.75354256  0.75127852  0.74371189  1
  Nb5+  Nb112  1  0.00041231  0.24705458  0.50028412  1
  Nb5+  Nb113  1  -0.00468009  0.24972792  1.00142491  1
  Nb5+  Nb114  1  0.00024470  0.75391474  0.50141317  1
  Nb5+  Nb115  1  0.00165947  0.74905686  1.00370976  1
  Nb5+  Nb116  1  0.50357803  0.25175388  0.49640827  1
  Nb5+  Nb117  1  0.50013083  0.25421752  0.99585254  1
  Nb5+  Nb118  1  0.49758354  0.75124573  0.50548436  1
  Nb5+  Nb119  1  0.49571052  0.74783128  1.00270306  1
  Nb5+  Nb120  1  0.25396327  -0.00406843  -0.00555833  1
  Nb5+  Nb121  1  0.25244228  -0.00466980  0.49429075  1
  Nb5+  Nb122  1  0.24775008  0.49970447  0.00603476  1
  Nb5+  Nb123  1  0.24108689  0.49567238  0.50256420  1
  Nb5+  Nb124  1  0.74628730  0.00414099  -0.00577611  1
  Nb5+  Nb125  1  0.74849425  -0.00137718  0.48925571  1
  Nb5+  Nb126  1  0.74895093  0.50073236  -0.00336931  1
  Nb5+  Nb127  1  0.74551777  0.49277865  0.50543611  1
  O2-  O128  1  0.01318594  0.01950258  0.13558493  1
  O2-  O129  1  0.00507084  0.01653073  0.63567998  1
  O2-  O130  1  -0.00472104  0.53537511  0.13444719  1
  O2-  O131  1  -0.00892277  0.52658103  0.62257815  1
  O2-  O132  1  0.53329904  0.01125804  0.13446336  1
  O2-  O133  1  0.53437684  0.01488117  0.63381721  1
  O2-  O134  1  0.49282737  0.51572779  0.13138000  1
  O2-  O135  1  0.49734570  0.51202519  0.61985914  1
  O2-  O136  1  -0.03764744  -0.01756522  0.36544878  1
  O2-  O137  1  -0.03498283  -0.01721202  0.86471088  1
  O2-  O138  1  0.00140402  0.48148106  0.38469294  1
  O2-  O139  1  0.00983029  0.48124471  0.86385463  1
  O2-  O140  1  0.48575596  -0.00065751  0.36377891  1
  O2-  O141  1  0.47337066  -0.01218440  0.86438467  1
  O2-  O142  1  0.51816654  0.47556858  0.37698613  1
  O2-  O143  1  0.50812536  0.47988437  0.88141146  1
  O2-  O144  1  0.24384029  0.27212868  0.12940599  1
  O2-  O145  1  0.24728311  0.26787381  0.62355463  1
  O2-  O146  1  0.28233647  0.76392449  0.13164370  1
  O2-  O147  1  0.26121145  0.78345927  0.63769209  1
  O2-  O148  1  0.72657103  0.26918253  0.13352723  1
  O2-  O149  1  0.73843769  0.26843213  0.63588540  1
  O2-  O150  1  0.77466915  0.75704617  0.12414361  1
  O2-  O151  1  0.78217949  0.76636285  0.63529158  1
  O2-  O152  1  0.25761151  0.23065294  0.37518136  1
  O2-  O153  1  0.25836787  0.23511563  0.88101413  1
  O2-  O154  1  0.22495127  0.73298330  0.36766514  1
  O2-  O155  1  0.21902264  0.73336965  0.86562743  1
  O2-  O156  1  0.76272704  0.23510344  0.36220064  1
  O2-  O157  1  0.75790900  0.21195395  0.86630706  1
  O2-  O158  1  0.72528404  0.74107620  0.36346827  1
  O2-  O159  1  0.73791091  0.74233530  0.88157378  1
  O2-  O160  1  0.02446477  0.23314283  0.11840986  1
  O2-  O161  1  0.03141888  0.24017628  0.61481097  1
  O2-  O162  1  -0.01634813  0.71968944  0.11420830  1
  O2-  O163  1  -0.01823265  0.72843852  0.63384398  1
  O2-  O164  1  0.51029300  0.24547950  0.12858100  1
  O2-  O165  1  0.50620862  0.24154417  0.61309072  1
  O2-  O166  1  0.49352367  0.71046574  0.11447247  1
  O2-  O167  1  0.48173234  0.71022748  0.61685983  1
  O2-  O168  1  0.26860434  0.03554313  0.38346254  1
  O2-  O169  1  0.26611549  0.03958499  0.88536013  1
  O2-  O170  1  0.23559253  0.51171131  0.38445883  1
  O2-  O171  1  0.25110389  0.51208220  0.88631057  1
  O2-  O172  1  0.75698894  0.02005242  0.37361941  1
  O2-  O173  1  0.76483433  0.01472896  0.87978270  1
  O2-  O174  1  0.74041598  0.51565225  0.36779746  1
  O2-  O175  1  0.71979227  0.51325444  0.88659104  1
  O2-  O176  1  -0.00686843  0.28573870  0.38909371  1
  O2-  O177  1  -0.00334620  0.28164869  0.88740128  1
  O2-  O178  1  0.01761575  0.77231299  0.38821704  1
  O2-  O179  1  0.00712331  0.77304132  0.87159838  1
  O2-  O180  1  0.48570265  0.26910223  0.37095572  1
  O2-  O181  1  0.47330075  0.27354228  0.88679083  1
  O2-  O182  1  0.52421219  0.76105901  0.38817639  1
  O2-  O183  1  0.52455091  0.76244225  0.88742618  1
  O2-  O184  1  0.22821507  -0.01558581  0.11417872  1
  O2-  O185  1  0.22579563  -0.01173420  0.61233322  1
  O2-  O186  1  0.28238571  0.48263867  0.11636333  1
  O2-  O187  1  0.27471137  0.47482609  0.61218974  1
  O2-  O188  1  0.72964320  -0.01786847  0.13010644  1
  O2-  O189  1  0.73778650  -0.02520103  0.62960452  1
  O2-  O190  1  0.76172402  0.49114975  0.12815145  1
  O2-  O191  1  0.76140928  0.47084612  0.61598016  1
  O2-  O192  1  0.13389601  0.28014792  0.26339557  1
  O2-  O193  1  0.13604460  0.28774149  0.76241739  1
  O2-  O194  1  0.13344105  0.77313565  0.22348786  1
  O2-  O195  1  0.11663780  0.76891248  0.73649958  1
  O2-  O196  1  0.62194936  0.26627019  0.26353386  1
  O2-  O197  1  0.63291868  0.26602356  0.76347073  1
  O2-  O198  1  0.63668613  0.77602653  0.22450638  1
  O2-  O199  1  0.63969027  0.77579713  0.73756477  1
  O2-  O200  1  0.38092271  0.23237662  0.24232336  1
  O2-  O201  1  0.36149765  0.21341751  0.74460155  1
  O2-  O202  1  0.36868967  0.72735371  0.27386224  1
  O2-  O203  1  0.36843905  0.73468231  0.77626963  1
  O2-  O204  1  0.86235532  0.23420429  0.22443704  1
  O2-  O205  1  0.86894512  0.22809855  0.73576992  1
  O2-  O206  1  0.86287063  0.73912227  0.27053190  1
  O2-  O207  1  0.87488111  0.74126157  0.77396098  1
  O2-  O208  1  0.28371876  0.36442203  0.26670534  1
  O2-  O209  1  0.28163457  0.36447426  0.76305930  1
  O2-  O210  1  0.27212616  0.86796013  0.27215026  1
  O2-  O211  1  0.26549397  0.87064980  0.77817279  1
  O2-  O212  1  0.76587880  0.37879288  0.26167575  1
  O2-  O213  1  0.77520884  0.36545879  0.78443347  1
  O2-  O214  1  0.76438947  0.88100430  0.26391538  1
  O2-  O215  1  0.76788294  0.87800438  0.77175471  1
  O2-  O216  1  0.23295291  0.13806842  0.23160081  1
  O2-  O217  1  0.20828168  0.13819736  0.73799668  1
  O2-  O218  1  0.23130770  0.63097096  0.22961644  1
  O2-  O219  1  0.23540271  0.63695763  0.72293129  1
  O2-  O220  1  0.72314637  0.12503474  0.23702666  1
  O2-  O221  1  0.73398473  0.11520465  0.73250825  1
  O2-  O222  1  0.73151761  0.62550038  0.23145805  1
  O2-  O223  1  0.73506403  0.63710472  0.73476243  1
  O2-  O224  1  0.11137527  0.47294956  0.24445784  1
  O2-  O225  1  0.11576039  0.49578330  0.73236038  1
  O2-  O226  1  0.11505501  0.98244095  0.27522458  1
  O2-  O227  1  0.11339857  0.97272363  0.76813655  1
  O2-  O228  1  0.63027290  0.47612288  0.23999971  1
  O2-  O229  1  0.61658630  0.46499606  0.73922749  1
  O2-  O230  1  0.62785660  0.98960362  0.27234328  1
  O2-  O231  1  0.63266905  0.98451964  0.77382584  1
  O2-  O232  1  0.38633437  0.02198228  0.22423479  1
  O2-  O233  1  0.38279177  0.02030248  0.71825327  1
  O2-  O234  1  0.39003598  0.51569863  0.27213569  1
  O2-  O235  1  0.38776671  0.53076758  0.75433632  1
  O2-  O236  1  0.86051155  0.02311315  0.23583613  1
  O2-  O237  1  0.86743222  0.01367500  0.73606041  1
  O2-  O238  1  0.86772432  0.52141791  0.25762991  1
  O2-  O239  1  0.88338067  0.52967915  0.75705083  1
  O2-  O240  1  0.48994782  0.37523820  0.23607197  1
  O2-  O241  1  0.47031299  0.38493129  0.73819181  1
  O2-  O242  1  0.48243891  0.88175200  0.23758826  1
  O2-  O243  1  0.48744031  0.88333847  0.73049130  1
  O2-  O244  1  0.96489394  0.38941999  0.23543653  1
  O2-  O245  1  0.97724464  0.38634480  0.72422582  1
  O2-  O246  1  0.97529915  0.88493560  0.22664391  1
  O2-  O247  1  0.98080003  0.87223179  0.73065305  1
  O2-  O248  1  0.00353964  0.11728068  0.27503524  1
  O2-  O249  1  0.01369806  0.11461675  0.77549556  1
  O2-  O250  1  0.00889280  0.61496708  0.28330574  1
  O2-  O251  1  0.01489412  0.63316228  0.76695581  1
  O2-  O252  1  0.51854641  0.13327150  0.26091528  1
  O2-  O253  1  0.52232542  0.11756868  0.76936686  1
  O2-  O254  1  0.53695453  0.60971616  0.26655724  1
  O2-  O255  1  0.53546809  0.61131876  0.76380144  1
  O2-  O256  1  0.13676271  0.47065347  0.01384240  1
  O2-  O257  1  0.12598737  0.47931308  0.51352603  1
  O2-  O258  1  0.13413412  0.98693085  -0.02285960  1
  O2-  O259  1  0.13306829  0.99350849  0.47155549  1
  O2-  O260  1  0.62286297  0.48656874  0.02245715  1
  O2-  O261  1  0.62821694  0.47421616  0.50663826  1
  O2-  O262  1  0.63461024  0.96500215  -0.01538229  1
  O2-  O263  1  0.63528021  0.95993205  0.48409754  1
  O2-  O264  1  0.36705947  0.01967690  0.02688971  1
  O2-  O265  1  0.36655461  0.01746257  0.52353315  1
  O2-  O266  1  0.38489463  0.52146490  -0.00769813  1
  O2-  O267  1  0.38260220  0.51113266  0.48184869  1
  O2-  O268  1  0.85921771  0.01205221  0.02681273  1
  O2-  O269  1  0.86148006  0.03258131  0.51289075  1
  O2-  O270  1  0.86386014  0.52317830  -0.01399478  1
  O2-  O271  1  0.87649137  0.51623734  0.49436450  1
  O2-  O272  1  0.48295557  0.38287321  0.02308654  1
  O2-  O273  1  0.48272525  0.37789302  0.51396030  1
  O2-  O274  1  0.48227714  0.86007181  0.02856209  1
  O2-  O275  1  0.47644018  0.86278685  0.52542411  1
  O2-  O276  1  0.98148915  0.36936667  0.02884392  1
  O2-  O277  1  0.99014365  0.38350757  0.52784106  1
  O2-  O278  1  0.97321133  0.86386848  0.01504101  1
  O2-  O279  1  0.98498478  0.86455950  0.52819526  1
  O2-  O280  1  0.02033017  0.13579377  -0.02092099  1
  O2-  O281  1  0.02021173  0.13733684  0.47416518  1
  O2-  O282  1  0.02018367  0.63642626  -0.03219144  1
  O2-  O283  1  0.02266082  0.61698986  0.48839872  1
  O2-  O284  1  0.51769554  0.14010049  -0.01467773  1
  O2-  O285  1  0.50996722  0.13795946  0.47626160  1
  O2-  O286  1  0.52479667  0.61706265  -0.01617333  1
  O2-  O287  1  0.52527664  0.61098374  0.48732583  1
  O2-  O288  1  0.13461884  0.27446380  -0.00599298  1
  O2-  O289  1  0.13290260  0.27418185  0.48843403  1
  O2-  O290  1  0.11507806  0.77262505  0.02091798  1
  O2-  O291  1  0.11466882  0.75219118  0.53141728  1
  O2-  O292  1  0.61174673  0.28386615  -0.01089925  1
  O2-  O293  1  0.61543818  0.27705821  0.48576911  1
  O2-  O294  1  0.63244901  0.75865078  0.01834383  1
  O2-  O295  1  0.61667166  0.75601746  0.53124539  1
  O2-  O296  1  0.37476574  0.24186297  0.02002232  1
  O2-  O297  1  0.37264394  0.24389890  0.50330783  1
  O2-  O298  1  0.38561809  0.72544030  -0.02199115  1
  O2-  O299  1  0.38419895  0.72471201  0.47831908  1
  O2-  O300  1  0.88209911  0.23004837  0.01612209  1
  O2-  O301  1  0.88708842  0.23781316  0.52302057  1
  O2-  O302  1  0.87119852  0.72819170  -0.01403701  1
  O2-  O303  1  0.88760784  0.71876762  0.48929766  1
  O2-  O304  1  0.27538115  0.37293676  -0.01290331  1
  O2-  O305  1  0.26695926  0.37324886  0.47906059  1
  O2-  O306  1  0.27653563  0.88517305  -0.02677248  1
  O2-  O307  1  0.26826829  0.88338555  0.47240217  1
  O2-  O308  1  0.76992161  0.38607550  -0.00984906  1
  O2-  O309  1  0.77114315  0.38301435  0.47075772  1
  O2-  O310  1  0.76870335  0.86815813  -0.00595621  1
  O2-  O311  1  0.78653822  0.88475450  0.48503661  1
  O2-  O312  1  0.23787839  0.13753282  0.02124043  1
  O2-  O313  1  0.23583626  0.13673631  0.51742339  1
  O2-  O314  1  0.23318986  0.61419002  0.02469299  1
  O2-  O315  1  0.24221241  0.61087188  0.52049972  1
  O2-  O316  1  0.71480632  0.11245761  0.01319652  1
  O2-  O317  1  0.71068283  0.11067221  0.51436228  1
  O2-  O318  1  0.73486554  0.62571824  0.01922238  1
  O2-  O319  1  0.73469611  0.61052311  0.51327707  1
