# generated using pymatgen
data_Sr64Ca21Nb43O192
_symmetry_space_group_name_H-M   'P 1'
_cell_length_a   16.54200508
_cell_length_b   16.55573367
_cell_length_c   16.69374017
_cell_angle_alpha   90.02036950
_cell_angle_beta   90.06732041
_cell_angle_gamma   90.01356756
_symmetry_Int_Tables_number   1
_chemical_formula_structural   Sr64Ca21Nb43O192
_chemical_formula_sum   'Sr64 Ca21 Nb43 O192'
_cell_volume   4571.82808850
_cell_formula_units_Z   1
loop_
 _symmetry_equiv_pos_site_id
 _symmetry_equiv_pos_as_xyz
  1  'x, y, z'
loop_
 _atom_type_symbol
 _atom_type_oxidation_number
  Sr2+  2.0
  Ca2+  2.0
  Nb5+  5.0
  O2-  -2.0
loop_
 _atom_site_type_symbol
 _atom_site_label
 _atom_site_symmetry_multiplicity
 _atom_site_fract_x
 _atom_site_fract_y
 _atom_site_fract_z
 _atom_site_occupancy
  Sr2+  Sr0  1  0.12675259  0.11559271  0.11646141  1
  Sr2+  Sr1  1  0.11843295  0.11389569  0.62692597  1
  Sr2+  Sr2  1  0.12067417  0.63587622  0.12964541  1
  Sr2+  Sr3  1  0.13303410  0.62536631  0.62581641  1
  Sr2+  Sr4  1  0.61498658  0.11018939  0.12581655  1
  Sr2+  Sr5  1  0.62651741  0.10766152  0.62651729  1
  Sr2+  Sr6  1  0.62468765  0.61565093  0.12679336  1
  Sr2+  Sr7  1  0.62279702  0.62398909  0.62535281  1
  Sr2+  Sr8  1  0.37339105  0.36010587  0.12216070  1
  Sr2+  Sr9  1  0.36481954  0.37166589  0.62730393  1
  Sr2+  Sr10  1  0.36455691  0.87421441  0.13222497  1
  Sr2+  Sr11  1  0.37087122  0.86154378  0.62217173  1
  Sr2+  Sr12  1  0.87602829  0.37156593  0.13750467  1
  Sr2+  Sr13  1  0.87591926  0.36456527  0.62557571  1
  Sr2+  Sr14  1  0.87446968  0.86685744  0.12467767  1
  Sr2+  Sr15  1  0.87826511  0.87227899  0.61948436  1
  Sr2+  Sr16  1  0.11347508  0.38568106  0.37962356  1
  Sr2+  Sr17  1  0.13047412  0.38077525  0.87535738  1
  Sr2+  Sr18  1  0.13830699  0.88485730  0.37072337  1
  Sr2+  Sr19  1  0.12834760  0.88426562  0.87293337  1
  Sr2+  Sr20  1  0.62686638  0.37548259  0.38151301  1
  Sr2+  Sr21  1  0.63522325  0.38536567  0.87617479  1
  Sr2+  Sr22  1  0.62949831  0.88657159  0.36535977  1
  Sr2+  Sr23  1  0.62819836  0.87035871  0.88403036  1
  Sr2+  Sr24  1  0.39543006  0.13081923  0.37325480  1
  Sr2+  Sr25  1  0.38499829  0.13681121  0.87187583  1
  Sr2+  Sr26  1  0.37811929  0.63221318  0.38171716  1
  Sr2+  Sr27  1  0.38922187  0.63150657  0.87408749  1
  Sr2+  Sr28  1  0.87462296  0.13227082  0.37335046  1
  Sr2+  Sr29  1  0.88338719  0.12968322  0.87565973  1
  Sr2+  Sr30  1  0.88416467  0.62478194  0.37281713  1
  Sr2+  Sr31  1  0.87523919  0.62838800  0.87236440  1
  Sr2+  Sr32  1  0.12740076  0.12933780  0.37812797  1
  Sr2+  Sr33  1  0.12647323  0.13287291  0.87807443  1
  Sr2+  Sr34  1  0.13177092  0.63705657  0.37246469  1
  Sr2+  Sr35  1  0.13445242  0.63413272  0.87448695  1
  Sr2+  Sr36  1  0.63040899  0.13751174  0.37638116  1
  Sr2+  Sr37  1  0.62887517  0.11240174  0.87369246  1
  Sr2+  Sr38  1  0.63574498  0.63796144  0.37234144  1
  Sr2+  Sr39  1  0.63146452  0.63478013  0.87783946  1
  Sr2+  Sr40  1  0.37696093  0.37547236  0.37807000  1
  Sr2+  Sr41  1  0.38108366  0.38387199  0.87572641  1
  Sr2+  Sr42  1  0.37897281  0.88538805  0.37263072  1
  Sr2+  Sr43  1  0.38440346  0.88601905  0.86997564  1
  Sr2+  Sr44  1  0.86892284  0.37983419  0.37923817  1
  Sr2+  Sr45  1  0.88107727  0.37735034  0.86899305  1
  Sr2+  Sr46  1  0.87950506  0.87729808  0.37133754  1
  Sr2+  Sr47  1  0.87011755  0.87641302  0.88538942  1
  Sr2+  Sr48  1  0.13354346  0.36713956  0.12756444  1
  Sr2+  Sr49  1  0.11872407  0.37012814  0.62943445  1
  Sr2+  Sr50  1  0.11545662  0.87285741  0.12810663  1
  Sr2+  Sr51  1  0.13694371  0.87552650  0.61963734  1
  Sr2+  Sr52  1  0.60932777  0.37397842  0.12190622  1
  Sr2+  Sr53  1  0.62427926  0.36179181  0.62347657  1
  Sr2+  Sr54  1  0.61698506  0.86251101  0.12774726  1
  Sr2+  Sr55  1  0.60968277  0.86917193  0.61808360  1
  Sr2+  Sr56  1  0.36514732  0.12763258  0.11230464  1
  Sr2+  Sr57  1  0.37033731  0.11039289  0.63200059  1
  Sr2+  Sr58  1  0.37252177  0.61097010  0.12247187  1
  Sr2+  Sr59  1  0.36581259  0.62171978  0.62248594  1
  Sr2+  Sr60  1  0.87359416  0.11809536  0.13266458  1
  Sr2+  Sr61  1  0.87792590  0.11984187  0.62454179  1
  Sr2+  Sr62  1  0.87711651  0.61895605  0.13054782  1
  Sr2+  Sr63  1  0.88349079  0.61591210  0.62328401  1
  Ca2+  Ca64  1  0.49902761  0.49818585  0.50295745  1
  Ca2+  Ca65  1  0.49737725  -0.00192912  0.00120507  1
  Ca2+  Ca66  1  -0.00056275  0.49936371  0.00251401  1
  Ca2+  Ca67  1  0.00103478  0.50052233  0.50114251  1
  Ca2+  Ca68  1  -0.00167438  0.00009737  -0.00064417  1
  Ca2+  Ca69  1  0.25129473  0.24988785  0.50438846  1
  Ca2+  Ca70  1  0.75256130  0.25153486  -0.00077396  1
  Ca2+  Ca71  1  0.25033575  0.74956023  0.00103158  1
  Ca2+  Ca72  1  0.74859003  0.75115191  0.49798957  1
  Ca2+  Ca73  1  0.24931412  0.75026517  0.49817045  1
  Ca2+  Ca74  1  0.49920334  0.74596994  0.24987100  1
  Ca2+  Ca75  1  0.24849761  0.00235845  0.75213860  1
  Ca2+  Ca76  1  0.00672833  0.25259813  0.25288539  1
  Ca2+  Ca77  1  0.50480017  0.25054567  0.74818198  1
  Ca2+  Ca78  1  0.74955348  0.00081308  0.24763278  1
  Ca2+  Ca79  1  0.25138018  0.49692656  0.24747990  1
  Ca2+  Ca80  1  -0.00134984  0.75136738  0.74992487  1
  Ca2+  Ca81  1  0.24923343  0.00682058  0.25059763  1
  Ca2+  Ca82  1  0.50202902  0.74934366  0.74977965  1
  Ca2+  Ca83  1  0.75151853  -0.00443998  0.75008138  1
  Ca2+  Ca84  1  0.50032875  0.24966522  0.24872871  1
  Nb5+  Nb85  1  0.00308747  -0.00081100  0.49948719  1
  Nb5+  Nb86  1  0.50666269  -0.00081469  0.49956534  1
  Nb5+  Nb87  1  0.50050632  0.50078665  -0.00272852  1
  Nb5+  Nb88  1  0.75111523  0.74642442  0.00263701  1
  Nb5+  Nb89  1  0.24969738  0.25211741  -0.00270940  1
  Nb5+  Nb90  1  0.75162623  0.24946961  0.50025539  1
  Nb5+  Nb91  1  0.75536018  0.50296010  0.75262591  1
  Nb5+  Nb92  1  0.25625376  0.50127268  0.75332779  1
  Nb5+  Nb93  1  0.00102734  0.24995294  0.75047123  1
  Nb5+  Nb94  1  -0.00148491  0.75203978  0.25248931  1
  Nb5+  Nb95  1  0.74776456  0.49871332  0.25706565  1
  Nb5+  Nb96  1  -0.00116374  0.00403529  0.24821482  1
  Nb5+  Nb97  1  -0.00461469  -0.00403141  0.75167996  1
  Nb5+  Nb98  1  0.00267318  0.49907881  0.24948998  1
  Nb5+  Nb99  1  0.00784517  0.50028951  0.74686732  1
  Nb5+  Nb100  1  0.49548058  0.00185443  0.24495796  1
  Nb5+  Nb101  1  0.50326755  -0.00250727  0.75212751  1
  Nb5+  Nb102  1  0.49846209  0.49841236  0.25482640  1
  Nb5+  Nb103  1  0.50878179  0.50048219  0.74792445  1
  Nb5+  Nb104  1  0.25450606  0.24895300  0.25891783  1
  Nb5+  Nb105  1  0.25033320  0.24970615  0.74869351  1
  Nb5+  Nb106  1  0.25521083  0.74669831  0.24661378  1
  Nb5+  Nb107  1  0.25125215  0.75251076  0.75649374  1
  Nb5+  Nb108  1  0.74735005  0.25252317  0.24181995  1
  Nb5+  Nb109  1  0.75048617  0.24822232  0.75107498  1
  Nb5+  Nb110  1  0.75221810  0.75021509  0.25083060  1
  Nb5+  Nb111  1  0.75124379  0.75244340  0.74428341  1
  Nb5+  Nb112  1  0.00064673  0.24952168  0.49850762  1
  Nb5+  Nb113  1  -0.00146978  0.25121004  1.00604043  1
  Nb5+  Nb114  1  0.00181749  0.75153269  0.50438383  1
  Nb5+  Nb115  1  0.00028077  0.75062812  0.99653020  1
  Nb5+  Nb116  1  0.49671886  0.24766585  0.50914433  1
  Nb5+  Nb117  1  0.50732349  0.24978484  0.99234510  1
  Nb5+  Nb118  1  0.50162530  0.74540948  0.49487031  1
  Nb5+  Nb119  1  0.49518916  0.74989447  1.00609213  1
  Nb5+  Nb120  1  0.25242701  -0.00440726  -0.00347417  1
  Nb5+  Nb121  1  0.25976993  0.00489688  0.49852789  1
  Nb5+  Nb122  1  0.24636777  0.49810990  0.00170539  1
  Nb5+  Nb123  1  0.24745604  0.49806412  0.49455780  1
  Nb5+  Nb124  1  0.74784370  0.00299812  0.00307943  1
  Nb5+  Nb125  1  0.75802806  0.00080043  0.49554309  1
  Nb5+  Nb126  1  0.75436562  0.50007404  0.00524413  1
  Nb5+  Nb127  1  0.74752453  0.50141255  0.50743018  1
  O2-  O128  1  -0.02521054  -0.00410779  0.13563150  1
  O2-  O129  1  -0.02691748  -0.00444902  0.61840001  1
  O2-  O130  1  -0.03361773  0.49395816  0.13634019  1
  O2-  O131  1  -0.02703112  0.48633127  0.63406265  1
  O2-  O132  1  0.47771353  0.02939829  0.13417219  1
  O2-  O133  1  0.48891077  0.02165059  0.61774069  1
  O2-  O134  1  0.49541263  0.51977927  0.11542171  1
  O2-  O135  1  0.49284318  0.53274543  0.63767212  1
  O2-  O136  1  0.02034629  0.01055660  0.38190046  1
  O2-  O137  1  0.02247678  0.00509153  0.86319402  1
  O2-  O138  1  0.02124436  0.51897975  0.36641141  1
  O2-  O139  1  0.00715044  0.50156618  0.86368191  1
  O2-  O140  1  0.51196625  -0.02188911  0.38260495  1
  O2-  O141  1  0.51943084  -0.02436128  0.86595171  1
  O2-  O142  1  0.50534891  0.46730905  0.36567545  1
  O2-  O143  1  0.51334812  0.47630150  0.87624729  1
  O2-  O144  1  0.24180928  0.26456143  0.11517942  1
  O2-  O145  1  0.23448539  0.27883694  0.63784817  1
  O2-  O146  1  0.21835828  0.76501232  0.13342892  1
  O2-  O147  1  0.22612977  0.75397311  0.63774291  1
  O2-  O148  1  0.73473314  0.28229588  0.13205472  1
  O2-  O149  1  0.74373558  0.26060237  0.62351311  1
  O2-  O150  1  0.73442524  0.74875937  0.12635530  1
  O2-  O151  1  0.72427527  0.76132601  0.63354880  1
  O2-  O152  1  0.27355741  0.23245483  0.37061299  1
  O2-  O153  1  0.25623056  0.24003954  0.87260380  1
  O2-  O154  1  0.26297136  0.72849768  0.36421826  1
  O2-  O155  1  0.26650049  0.71949857  0.86925322  1
  O2-  O156  1  0.76862362  0.24557858  0.38004042  1
  O2-  O157  1  0.78047090  0.24809362  0.86274669  1
  O2-  O158  1  0.77031585  0.72569467  0.36348881  1
  O2-  O159  1  0.76920422  0.73708777  0.88422457  1
  O2-  O160  1  0.01998272  0.26549183  0.11757745  1
  O2-  O161  1  0.01201100  0.25643060  0.62543318  1
  O2-  O162  1  0.01290970  0.75680559  0.13081585  1
  O2-  O163  1  0.01873836  0.77895277  0.61536105  1
  O2-  O164  1  0.51461608  0.23624896  0.11065056  1
  O2-  O165  1  0.53932814  0.22754013  0.61669253  1
  O2-  O166  1  0.52940299  0.72732854  0.11640197  1
  O2-  O167  1  0.52946655  0.73997770  0.61356531  1
  O2-  O168  1  0.22422832  0.01580684  0.38651357  1
  O2-  O169  1  0.21501839  0.01001641  0.88403769  1
  O2-  O170  1  0.22449114  0.49894883  0.38184514  1
  O2-  O171  1  0.23118130  0.50780102  0.87560319  1
  O2-  O172  1  0.72310791  0.01581850  0.38321329  1
  O2-  O173  1  0.72046970  -0.00970188  0.88497048  1
  O2-  O174  1  0.72764400  0.50207070  0.37197579  1
  O2-  O175  1  0.73416967  0.51000035  0.86806090  1
  O2-  O176  1  -0.01048675  0.22724070  0.38536959  1
  O2-  O177  1  -0.01571385  0.24476639  0.86802284  1
  O2-  O178  1  -0.02501519  0.74522765  0.37218833  1
  O2-  O179  1  -0.02953345  0.74348306  0.88552072  1
  O2-  O180  1  0.48536332  0.26630272  0.39031132  1
  O2-  O181  1  0.47466748  0.26795977  0.88037211  1
  O2-  O182  1  0.46499505  0.76219196  0.38194111  1
  O2-  O183  1  0.48652346  0.76903486  0.88838503  1
  O2-  O184  1  0.27653261  0.00348777  0.11499368  1
  O2-  O185  1  0.26831212  -0.01681199  0.61688153  1
  O2-  O186  1  0.27938572  0.48273356  0.11174372  1
  O2-  O187  1  0.26683860  0.49220236  0.63614973  1
  O2-  O188  1  0.78533404  -0.00653830  0.11537427  1
  O2-  O189  1  0.76889551  0.00274230  0.61255329  1
  O2-  O190  1  0.76529257  0.49067844  0.12133150  1
  O2-  O191  1  0.76750464  0.49882963  0.62345551  1
  O2-  O192  1  0.14019613  0.29195338  0.26646361  1
  O2-  O193  1  0.11876002  0.27332858  0.76463299  1
  O2-  O194  1  0.11404742  0.76332599  0.27121681  1
  O2-  O195  1  0.13127572  0.76153451  0.78046723  1
  O2-  O196  1  0.63620014  0.27121389  0.27622609  1
  O2-  O197  1  0.64069523  0.28375446  0.76313331  1
  O2-  O198  1  0.63641249  0.76474304  0.26760473  1
  O2-  O199  1  0.63881790  0.75915882  0.78151178  1
  O2-  O200  1  0.36678697  0.21725883  0.22916940  1
  O2-  O201  1  0.36424181  0.23261968  0.73498453  1
  O2-  O202  1  0.36525889  0.72922960  0.21744410  1
  O2-  O203  1  0.36549644  0.72655514  0.73131177  1
  O2-  O204  1  0.86694267  0.23579953  0.23678630  1
  O2-  O205  1  0.87769937  0.23959702  0.72789964  1
  O2-  O206  1  0.87419894  0.73200294  0.22975376  1
  O2-  O207  1  0.86258979  0.71205034  0.73519114  1
  O2-  O208  1  0.29112526  0.36464330  0.25413324  1
  O2-  O209  1  0.26153494  0.37900414  0.77037754  1
  O2-  O210  1  0.26444044  0.86588946  0.26424902  1
  O2-  O211  1  0.26762493  0.86639464  0.77160200  1
  O2-  O212  1  0.77435183  0.38023998  0.25947391  1
  O2-  O213  1  0.77246883  0.38376644  0.74928037  1
  O2-  O214  1  0.77149740  0.86403065  0.25786851  1
  O2-  O215  1  0.78327860  0.86208731  0.75833580  1
  O2-  O216  1  0.20998583  0.13991724  0.23772131  1
  O2-  O217  1  0.22172173  0.13811070  0.73848292  1
  O2-  O218  1  0.22125342  0.63104508  0.23830566  1
  O2-  O219  1  0.22566402  0.61526782  0.74438219  1
  O2-  O220  1  0.73069260  0.13744421  0.22816420  1
  O2-  O221  1  0.72651947  0.13586875  0.74607572  1
  O2-  O222  1  0.73438555  0.61726982  0.23790351  1
  O2-  O223  1  0.72515591  0.61788828  0.73872607  1
  O2-  O224  1  0.11369899  0.48493347  0.22157875  1
  O2-  O225  1  0.12299856  0.47789716  0.73737789  1
  O2-  O226  1  0.11225734  0.97017461  0.24208055  1
  O2-  O227  1  0.11013546  0.98520682  0.71879204  1
  O2-  O228  1  0.63235827  0.47599593  0.23196547  1
  O2-  O229  1  0.62516072  0.47946795  0.73547780  1
  O2-  O230  1  0.61457510  0.97774586  0.23083517  1
  O2-  O231  1  0.61751791  0.97796452  0.72152761  1
  O2-  O232  1  0.38286571  0.01402980  0.28167774  1
  O2-  O233  1  0.38464403  0.02607719  0.76430223  1
  O2-  O234  1  0.38752583  0.53155630  0.26038123  1
  O2-  O235  1  0.37094090  0.51671526  0.76983427  1
  O2-  O236  1  0.88465080  0.01311894  0.28227207  1
  O2-  O237  1  0.88427101  0.03722807  0.75851516  1
  O2-  O238  1  0.86726789  0.51842575  0.26795886  1
  O2-  O239  1  0.87038409  0.52043672  0.76278883  1
  O2-  O240  1  0.48841336  0.38602402  0.21744505  1
  O2-  O241  1  0.47542111  0.38814209  0.73288639  1
  O2-  O242  1  0.47785682  0.88233007  0.23324792  1
  O2-  O243  1  0.47355470  0.88330530  0.72829578  1
  O2-  O244  1  0.97796570  0.38665645  0.27154726  1
  O2-  O245  1  0.98179636  0.37276085  0.75159976  1
  O2-  O246  1  0.97592000  0.86987512  0.25408903  1
  O2-  O247  1  0.96620094  0.88520712  0.75668119  1
  O2-  O248  1  0.01931242  0.11697924  0.23976577  1
  O2-  O249  1  0.01813417  0.13261672  0.74264776  1
  O2-  O250  1  0.00592894  0.62807053  0.24256157  1
  O2-  O251  1  0.01838729  0.61489742  0.73210542  1
  O2-  O252  1  0.52343791  0.11526402  0.27539992  1
  O2-  O253  1  0.52689145  0.11595226  0.76502501  1
  O2-  O254  1  0.53766941  0.60937259  0.26218133  1
  O2-  O255  1  0.51424806  0.61384167  0.78161900  1
  O2-  O256  1  0.13520488  0.46921803  0.01403112  1
  O2-  O257  1  0.13438791  0.47030495  0.52387408  1
  O2-  O258  1  0.13465759  0.98284118  0.02755231  1
  O2-  O259  1  0.11642491  0.98489910  0.51943021  1
  O2-  O260  1  0.62541563  0.48399050  0.00815929  1
  O2-  O261  1  0.63461421  0.46696546  0.51256591  1
  O2-  O262  1  0.63255449  0.97631571  0.03055866  1
  O2-  O263  1  0.62360630  0.98719318  0.51685743  1
  O2-  O264  1  0.36546151  0.02658788  -0.03034613  1
  O2-  O265  1  0.37558228  0.02230205  0.48404743  1
  O2-  O266  1  0.38019913  0.51470521  -0.02124139  1
  O2-  O267  1  0.36533748  0.52904764  0.49130022  1
  O2-  O268  1  0.86317023  0.01331178  -0.03274669  1
  O2-  O269  1  0.87283171  0.02333520  0.47805639  1
  O2-  O270  1  0.86355125  0.52858287  -0.01574936  1
  O2-  O271  1  0.86188548  0.51563048  0.47729260  1
  O2-  O272  1  0.48518709  0.37959103  0.01442572  1
  O2-  O273  1  0.48618525  0.36222179  0.53233436  1
  O2-  O274  1  0.48168734  0.86345052  0.02968813  1
  O2-  O275  1  0.48114911  0.88330712  0.51821861  1
  O2-  O276  1  0.97413007  0.36450887  -0.01390439  1
  O2-  O277  1  0.97566734  0.36356512  0.49018270  1
  O2-  O278  1  0.96960335  0.86538846  0.00617206  1
  O2-  O279  1  0.97424954  0.88363007  0.48968018  1
  O2-  O280  1  0.02896270  0.13584147  -0.00448384  1
  O2-  O281  1  0.01003515  0.12280850  0.51555188  1
  O2-  O282  1  0.02053766  0.63469709  0.01237592  1
  O2-  O283  1  0.01772160  0.63703323  0.51691121  1
  O2-  O284  1  0.51752249  0.13445018  -0.02478200  1
  O2-  O285  1  0.51826566  0.12134347  0.47904823  1
  O2-  O286  1  0.51703550  0.61890979  -0.02207813  1
  O2-  O287  1  0.52265620  0.63277379  0.47522808  1
  O2-  O288  1  0.12821271  0.27333921  -0.01631573  1
  O2-  O289  1  0.11526547  0.26782905  0.48643501  1
  O2-  O290  1  0.11281730  0.77496699  -0.02062918  1
  O2-  O291  1  0.11258640  0.77383264  0.47053781  1
  O2-  O292  1  0.61831200  0.27638842  -0.02281150  1
  O2-  O293  1  0.63336501  0.26532424  0.48505956  1
  O2-  O294  1  0.62946951  0.75961726  -0.01311736  1
  O2-  O295  1  0.61397449  0.78045881  0.47013558  1
  O2-  O296  1  0.37081283  0.23875678  0.00701469  1
  O2-  O297  1  0.38682541  0.22155224  0.52983291  1
  O2-  O298  1  0.38479847  0.71924827  0.01976385  1
  O2-  O299  1  0.38466183  0.73590678  0.52617640  1
  O2-  O300  1  0.88623085  0.21954706  0.01956313  1
  O2-  O301  1  0.87358455  0.23115899  0.51585634  1
  O2-  O302  1  0.86868044  0.72676476  0.02376102  1
  O2-  O303  1  0.88288167  0.73838692  0.52098831  1
  O2-  O304  1  0.26923193  0.37357531  -0.02020580  1
  O2-  O305  1  0.28529863  0.38350403  0.49661538  1
  O2-  O306  1  0.27869242  0.88298793  -0.01369486  1
  O2-  O307  1  0.26119507  0.88584129  0.48370132  1
  O2-  O308  1  0.76751027  0.38834099  -0.02182819  1
  O2-  O309  1  0.77069445  0.37208738  0.49739858  1
  O2-  O310  1  0.76542541  0.86436656  -0.00009405  1
  O2-  O311  1  0.77094115  0.88660715  0.48542288  1
  O2-  O312  1  0.23176960  0.13395521  0.00547450  1
  O2-  O313  1  0.22621343  0.11635598  0.52231806  1
  O2-  O314  1  0.22777019  0.61205235  0.01361484  1
  O2-  O315  1  0.22435053  0.61514983  0.51055433  1
  O2-  O316  1  0.72262547  0.11679500  0.00850617  1
  O2-  O317  1  0.73501900  0.13038517  0.50690347  1
  O2-  O318  1  0.72599006  0.62197629  0.00620181  1
  O2-  O319  1  0.72031156  0.61430378  0.50660976  1
