# generated using pymatgen
data_Sr64Ca21Nb43O192
_symmetry_space_group_name_H-M   'P 1'
_cell_length_a   16.58706143
_cell_length_b   16.59173909
_cell_length_c   16.74898584
_cell_angle_alpha   90.00248737
_cell_angle_beta   90.01755671
_cell_angle_gamma   90.01735818
_symmetry_Int_Tables_number   1
_chemical_formula_structural   Sr64Ca21Nb43O192
_chemical_formula_sum   'Sr64 Ca21 Nb43 O192'
_cell_volume   4609.45773483
_cell_formula_units_Z   1
loop_
 _symmetry_equiv_pos_site_id
 _symmetry_equiv_pos_as_xyz
  1  'x, y, z'
loop_
 _atom_type_symbol
 _atom_type_oxidation_number
  Sr2+  2.0
  Ca2+  2.0
  Nb5+  5.0
  O2-  -2.0
loop_
 _atom_site_type_symbol
 _atom_site_label
 _atom_site_symmetry_multiplicity
 _atom_site_fract_x
 _atom_site_fract_y
 _atom_site_fract_z
 _atom_site_occupancy
  Sr2+  Sr0  1  0.11126383  0.12355650  0.12838811  1
  Sr2+  Sr1  1  0.11757030  0.12983623  0.62953566  1
  Sr2+  Sr2  1  0.12960478  0.60279294  0.12772175  1
  Sr2+  Sr3  1  0.12198201  0.61136529  0.61820272  1
  Sr2+  Sr4  1  0.62923529  0.12504777  0.12642099  1
  Sr2+  Sr5  1  0.62767911  0.12525065  0.61634872  1
  Sr2+  Sr6  1  0.62459034  0.60597394  0.12550384  1
  Sr2+  Sr7  1  0.62969966  0.61193810  0.62286881  1
  Sr2+  Sr8  1  0.37613367  0.37622471  0.12511985  1
  Sr2+  Sr9  1  0.37296499  0.37187036  0.61141799  1
  Sr2+  Sr10  1  0.37122220  0.88057479  0.12660920  1
  Sr2+  Sr11  1  0.36889577  0.88014070  0.61603365  1
  Sr2+  Sr12  1  0.87630754  0.38751384  0.12202585  1
  Sr2+  Sr13  1  0.87740252  0.40253517  0.62672959  1
  Sr2+  Sr14  1  0.88213348  0.88639882  0.12662609  1
  Sr2+  Sr15  1  0.87896141  0.89099012  0.62710581  1
  Sr2+  Sr16  1  0.13358299  0.37354890  0.36876219  1
  Sr2+  Sr17  1  0.13212963  0.37040003  0.86304163  1
  Sr2+  Sr18  1  0.12819172  0.86883212  0.37446177  1
  Sr2+  Sr19  1  0.10348134  0.87254055  0.87766648  1
  Sr2+  Sr20  1  0.61620138  0.37372467  0.39028554  1
  Sr2+  Sr21  1  0.61342192  0.37239949  0.87652192  1
  Sr2+  Sr22  1  0.63664720  0.87211258  0.36997237  1
  Sr2+  Sr23  1  0.61959182  0.86827626  0.87339817  1
  Sr2+  Sr24  1  0.37593404  0.12841714  0.38210870  1
  Sr2+  Sr25  1  0.37566939  0.11827793  0.87818338  1
  Sr2+  Sr26  1  0.36628958  0.63090622  0.36678443  1
  Sr2+  Sr27  1  0.36821100  0.63237941  0.87385092  1
  Sr2+  Sr28  1  0.86348717  0.12862597  0.37479472  1
  Sr2+  Sr29  1  0.86775446  0.12422643  0.87187676  1
  Sr2+  Sr30  1  0.85588706  0.62327314  0.37640791  1
  Sr2+  Sr31  1  0.86994300  0.63180081  0.86787605  1
  Sr2+  Sr32  1  0.12788231  0.11159930  0.37057480  1
  Sr2+  Sr33  1  0.11888050  0.12817647  0.87063043  1
  Sr2+  Sr34  1  0.12948171  0.63498362  0.37497132  1
  Sr2+  Sr35  1  0.13526514  0.63781978  0.87761467  1
  Sr2+  Sr36  1  0.61566079  0.13102661  0.38217781  1
  Sr2+  Sr37  1  0.62480404  0.11752437  0.87482426  1
  Sr2+  Sr38  1  0.61924527  0.63547329  0.37055529  1
  Sr2+  Sr39  1  0.61118292  0.62633522  0.86550334  1
  Sr2+  Sr40  1  0.37769450  0.35227398  0.37667041  1
  Sr2+  Sr41  1  0.37827646  0.36268031  0.87094746  1
  Sr2+  Sr42  1  0.37466544  0.88582828  0.37674349  1
  Sr2+  Sr43  1  0.37452949  0.87067813  0.87612781  1
  Sr2+  Sr44  1  0.87763800  0.38858765  0.37552465  1
  Sr2+  Sr45  1  0.87468494  0.38444018  0.87063574  1
  Sr2+  Sr46  1  0.88431647  0.86749693  0.38987775  1
  Sr2+  Sr47  1  0.87292758  0.87874270  0.86992073  1
  Sr2+  Sr48  1  0.11814830  0.36378330  0.13015855  1
  Sr2+  Sr49  1  0.13626262  0.37322132  0.62744268  1
  Sr2+  Sr50  1  0.11977292  0.87626158  0.12429859  1
  Sr2+  Sr51  1  0.11721028  0.86960431  0.60787198  1
  Sr2+  Sr52  1  0.64160082  0.36971951  0.12147626  1
  Sr2+  Sr53  1  0.62667698  0.37360005  0.62017981  1
  Sr2+  Sr54  1  0.62785973  0.86953438  0.13264332  1
  Sr2+  Sr55  1  0.64104210  0.87243397  0.61889830  1
  Sr2+  Sr56  1  0.35225716  0.12309384  0.12539291  1
  Sr2+  Sr57  1  0.36249945  0.13474122  0.61867224  1
  Sr2+  Sr58  1  0.37428163  0.61795570  0.12500475  1
  Sr2+  Sr59  1  0.37400802  0.61833060  0.61605339  1
  Sr2+  Sr60  1  0.86396122  0.13371345  0.12396833  1
  Sr2+  Sr61  1  0.87153191  0.12881585  0.63120442  1
  Sr2+  Sr62  1  0.86528748  0.61346239  0.13004995  1
  Sr2+  Sr63  1  0.87984239  0.62396268  0.61785571  1
  Ca2+  Ca64  1  0.00418174  0.49381318  0.49579217  1
  Ca2+  Ca65  1  0.49618082  0.50493217  0.49692125  1
  Ca2+  Ca66  1  0.50161317  -0.00382792  0.50453650  1
  Ca2+  Ca67  1  0.00251474  0.49980641  -0.00294184  1
  Ca2+  Ca68  1  0.00125701  0.00757036  0.50151395  1
  Ca2+  Ca69  1  0.23906174  0.24879861  0.49731320  1
  Ca2+  Ca70  1  0.75752974  0.25280032  0.50609724  1
  Ca2+  Ca71  1  0.74819209  0.74837009  0.50086101  1
  Ca2+  Ca72  1  0.74728356  0.74928333  0.00183937  1
  Ca2+  Ca73  1  0.24644167  0.25013719  0.00156771  1
  Ca2+  Ca74  1  0.75118164  -0.00220350  0.24684815  1
  Ca2+  Ca75  1  0.00312462  0.75040051  0.74694325  1
  Ca2+  Ca76  1  0.74424583  0.49411135  0.25453377  1
  Ca2+  Ca77  1  0.50205773  0.24541580  0.74971408  1
  Ca2+  Ca78  1  0.25097193  -0.00112812  0.25053242  1
  Ca2+  Ca79  1  0.00044268  0.74897783  0.24829786  1
  Ca2+  Ca80  1  0.50193920  0.25048262  0.24631502  1
  Ca2+  Ca81  1  0.74894259  0.50117005  0.75135038  1
  Ca2+  Ca82  1  0.25225892  0.49664895  0.25262388  1
  Ca2+  Ca83  1  0.24842512  -0.00336319  0.75014572  1
  Ca2+  Ca84  1  0.25341918  0.50327396  0.75092120  1
  Nb5+  Nb85  1  -0.00841779  0.00322342  -0.00055779  1
  Nb5+  Nb86  1  0.49699531  -0.00430247  0.00166409  1
  Nb5+  Nb87  1  0.49615883  0.49378736  -0.00159878  1
  Nb5+  Nb88  1  0.24935810  0.75470420  -0.00112220  1
  Nb5+  Nb89  1  0.75069522  0.24947399  -0.00359364  1
  Nb5+  Nb90  1  0.25171604  0.74965301  0.49418465  1
  Nb5+  Nb91  1  0.49977541  0.75300242  0.74125603  1
  Nb5+  Nb92  1  -0.00390776  0.25365947  0.75159763  1
  Nb5+  Nb93  1  0.49805648  0.75016630  0.24334325  1
  Nb5+  Nb94  1  -0.00454716  0.24872206  0.25585061  1
  Nb5+  Nb95  1  0.74862176  0.00179231  0.75081491  1
  Nb5+  Nb96  1  -0.00781549  -0.00040028  0.25760285  1
  Nb5+  Nb97  1  0.00280071  0.00186244  0.75260802  1
  Nb5+  Nb98  1  0.00263094  0.50202909  0.25056624  1
  Nb5+  Nb99  1  0.00576921  0.50580503  0.75643642  1
  Nb5+  Nb100  1  0.50282647  0.00268156  0.25143575  1
  Nb5+  Nb101  1  0.50352042  0.00010941  0.74783023  1
  Nb5+  Nb102  1  0.49844772  0.49796902  0.25210056  1
  Nb5+  Nb103  1  0.49378880  0.49668694  0.74510221  1
  Nb5+  Nb104  1  0.25031614  0.24505704  0.24991506  1
  Nb5+  Nb105  1  0.25353721  0.24548992  0.75220922  1
  Nb5+  Nb106  1  0.24949358  0.75460615  0.24082631  1
  Nb5+  Nb107  1  0.24870031  0.75891749  0.73954447  1
  Nb5+  Nb108  1  0.74858031  0.25496101  0.25871543  1
  Nb5+  Nb109  1  0.75064359  0.25395757  0.75029638  1
  Nb5+  Nb110  1  0.75454292  0.74541172  0.24536177  1
  Nb5+  Nb111  1  0.75006543  0.74732749  0.75218473  1
  Nb5+  Nb112  1  -0.00269732  0.25062816  0.50606130  1
  Nb5+  Nb113  1  -0.00392388  0.25210735  1.00112528  1
  Nb5+  Nb114  1  -0.00035039  0.74342901  0.49868732  1
  Nb5+  Nb115  1  -0.00351025  0.74287956  1.00261946  1
  Nb5+  Nb116  1  0.49899763  0.24929016  0.50218548  1
  Nb5+  Nb117  1  0.50048125  0.23900489  1.00175906  1
  Nb5+  Nb118  1  0.49820290  0.75166199  0.49214260  1
  Nb5+  Nb119  1  0.50034941  0.74537601  0.99926947  1
  Nb5+  Nb120  1  0.23977323  -0.00219741  -0.00166998  1
  Nb5+  Nb121  1  0.24754070  0.00248722  0.50513502  1
  Nb5+  Nb122  1  0.25267644  0.49509420  -0.00037569  1
  Nb5+  Nb123  1  0.25223694  0.49799991  0.49667337  1
  Nb5+  Nb124  1  0.74476464  -0.00214770  -0.00156599  1
  Nb5+  Nb125  1  0.75395101  -0.00251351  0.49355926  1
  Nb5+  Nb126  1  0.74775055  0.50402009  -0.00926381  1
  Nb5+  Nb127  1  0.74756314  0.49886888  0.50082288  1
  O2-  O128  1  0.02177306  -0.00304246  0.11495470  1
  O2-  O129  1  0.02361067  0.00297156  0.63895368  1
  O2-  O130  1  -0.02403863  0.50662398  0.13171971  1
  O2-  O131  1  -0.01555111  0.51444459  0.63742254  1
  O2-  O132  1  0.52857169  -0.01030827  0.11432605  1
  O2-  O133  1  0.53103817  -0.02218719  0.64032689  1
  O2-  O134  1  0.47937724  0.50092603  0.11601688  1
  O2-  O135  1  0.47190506  0.49082718  0.63349720  1
  O2-  O136  1  -0.03380200  0.01082293  0.36785773  1
  O2-  O137  1  -0.02336873  0.00595837  0.87913431  1
  O2-  O138  1  0.01550402  0.46507089  0.36114781  1
  O2-  O139  1  0.01807303  0.46867090  0.86813924  1
  O2-  O140  1  0.48102985  0.00972179  0.36398813  1
  O2-  O141  1  0.49241402  0.01544587  0.88206619  1
  O2-  O142  1  0.52788625  0.51013494  0.36220959  1
  O2-  O143  1  0.51755704  0.50846126  0.88053738  1
  O2-  O144  1  0.25161688  0.27978692  0.13438735  1
  O2-  O145  1  0.25454561  0.26905630  0.63461523  1
  O2-  O146  1  0.25271957  0.77191116  0.12494002  1
  O2-  O147  1  0.25043905  0.76661828  0.62407964  1
  O2-  O148  1  0.74252197  0.23106343  0.11551474  1
  O2-  O149  1  0.74764457  0.21919568  0.64015510  1
  O2-  O150  1  0.72914627  0.71505501  0.13293814  1
  O2-  O151  1  0.72373906  0.73765276  0.63797712  1
  O2-  O152  1  0.23754826  0.21602047  0.36542905  1
  O2-  O153  1  0.23054948  0.23257751  0.86861297  1
  O2-  O154  1  0.25366566  0.73823586  0.37569595  1
  O2-  O155  1  0.25732244  0.74378984  0.88145651  1
  O2-  O156  1  0.76649058  0.27034716  0.36945900  1
  O2-  O157  1  0.76019124  0.26041562  0.87531896  1
  O2-  O158  1  0.75922654  0.77742644  0.36232472  1
  O2-  O159  1  0.75574722  0.78025005  0.86692742  1
  O2-  O160  1  -0.00500294  0.23400402  0.11726236  1
  O2-  O161  1  -0.00211323  0.23842175  0.62543752  1
  O2-  O162  1  0.00699702  0.77346141  0.11374706  1
  O2-  O163  1  0.02125177  0.73204607  0.61561948  1
  O2-  O164  1  0.51704114  0.27093927  0.11178383  1
  O2-  O165  1  0.48852429  0.26270188  0.61932708  1
  O2-  O166  1  0.50043420  0.76383499  0.12613910  1
  O2-  O167  1  0.50314810  0.77769291  0.63087182  1
  O2-  O168  1  0.27598165  0.01423366  0.38656490  1
  O2-  O169  1  0.27861355  0.00616372  0.88793894  1
  O2-  O170  1  0.22119351  0.51857543  0.38408600  1
  O2-  O171  1  0.23730398  0.52967123  0.88913659  1
  O2-  O172  1  0.77805180  -0.01888141  0.38266751  1
  O2-  O173  1  0.77513925  -0.00720864  0.87951661  1
  O2-  O174  1  0.73681670  0.46206193  0.38697551  1
  O2-  O175  1  0.73133632  0.46306369  0.88329887  1
  O2-  O176  1  -0.00800673  0.25743702  0.36952275  1
  O2-  O177  1  0.00103729  0.25253310  0.87178074  1
  O2-  O178  1  0.00742941  0.76566309  0.38246427  1
  O2-  O179  1  0.00031419  0.75700761  0.88576586  1
  O2-  O180  1  0.50253421  0.23858969  0.38039737  1
  O2-  O181  1  0.50059004  0.25158814  0.88618071  1
  O2-  O182  1  0.48737722  0.73293463  0.37622754  1
  O2-  O183  1  0.49274197  0.73966379  0.88200513  1
  O2-  O184  1  0.24235141  -0.02563078  0.11344484  1
  O2-  O185  1  0.22761133  -0.03170291  0.61734663  1
  O2-  O186  1  0.28027329  0.49750542  0.11503954  1
  O2-  O187  1  0.27820595  0.49457592  0.61656774  1
  O2-  O188  1  0.73518023  0.02263354  0.11095308  1
  O2-  O189  1  0.72964606  0.01585676  0.63780429  1
  O2-  O190  1  0.75820451  0.50737132  0.11009273  1
  O2-  O191  1  0.76701755  0.53175786  0.61981409  1
  O2-  O192  1  0.11671583  0.26212352  0.24560851  1
  O2-  O193  1  0.11564099  0.26507756  0.74448179  1
  O2-  O194  1  0.13687663  0.77950571  0.24993046  1
  O2-  O195  1  0.13881555  0.79019355  0.75463701  1
  O2-  O196  1  0.63569996  0.28062266  0.25821627  1
  O2-  O197  1  0.63682079  0.27507040  0.75666135  1
  O2-  O198  1  0.61577437  0.76632074  0.26076814  1
  O2-  O199  1  0.61905858  0.76673607  0.76427598  1
  O2-  O200  1  0.36596542  0.22369878  0.25236085  1
  O2-  O201  1  0.36652431  0.22192326  0.76361313  1
  O2-  O202  1  0.37772169  0.72813489  0.24247673  1
  O2-  O203  1  0.38179326  0.73291166  0.74785710  1
  O2-  O204  1  0.87705020  0.22388512  0.24632147  1
  O2-  O205  1  0.87751604  0.22658229  0.75433386  1
  O2-  O206  1  0.86701768  0.72052490  0.23794530  1
  O2-  O207  1  0.86554626  0.73216281  0.73797317  1
  O2-  O208  1  0.25999375  0.36131475  0.28095416  1
  O2-  O209  1  0.26329192  0.36531070  0.77265829  1
  O2-  O210  1  0.28072525  0.86592430  0.26484677  1
  O2-  O211  1  0.29101582  0.86688704  0.75766495  1
  O2-  O212  1  0.77517315  0.36269559  0.22160689  1
  O2-  O213  1  0.77856624  0.36398532  0.73565377  1
  O2-  O214  1  0.75903181  0.86114945  0.21299091  1
  O2-  O215  1  0.76581114  0.88164687  0.73605569  1
  O2-  O216  1  0.22866792  0.13042741  0.21768908  1
  O2-  O217  1  0.22554189  0.13106976  0.73212026  1
  O2-  O218  1  0.23257739  0.63748910  0.23849520  1
  O2-  O219  1  0.22919775  0.64271433  0.74552681  1
  O2-  O220  1  0.73095311  0.13583449  0.26394703  1
  O2-  O221  1  0.74108798  0.12116710  0.77506073  1
  O2-  O222  1  0.72997112  0.63007992  0.27676500  1
  O2-  O223  1  0.73573693  0.63614663  0.78264769  1
  O2-  O224  1  0.11750454  0.47612036  0.22245832  1
  O2-  O225  1  0.11841031  0.47287021  0.73519809  1
  O2-  O226  1  0.11160807  0.98544818  0.26616252  1
  O2-  O227  1  0.11335141  0.99350459  0.78688253  1
  O2-  O228  1  0.61095413  0.48325309  0.21668002  1
  O2-  O229  1  0.61270618  0.49544236  0.73275737  1
  O2-  O230  1  0.61587809  0.96680408  0.25553791  1
  O2-  O231  1  0.63516805  0.98408771  0.78116239  1
  O2-  O232  1  0.39073353  0.00911436  0.21489581  1
  O2-  O233  1  0.39183151  0.02277979  0.73505877  1
  O2-  O234  1  0.38598991  0.53387707  0.25575586  1
  O2-  O235  1  0.38630121  0.53335895  0.77122380  1
  O2-  O236  1  0.88442958  0.01907043  0.21380652  1
  O2-  O237  1  0.87321167  0.01664172  0.73912257  1
  O2-  O238  1  0.88296705  0.51417102  0.26871210  1
  O2-  O239  1  0.88560625  0.51377121  0.77490083  1
  O2-  O240  1  0.46608384  0.38630680  0.25396857  1
  O2-  O241  1  0.48120809  0.38443418  0.76590771  1
  O2-  O242  1  0.47881804  0.86839333  0.25760868  1
  O2-  O243  1  0.49192892  0.87637833  0.77574234  1
  O2-  O244  1  0.98206563  0.36262652  0.22871204  1
  O2-  O245  1  0.97573207  0.36716089  0.74066241  1
  O2-  O246  1  0.97253625  0.88523517  0.25327978  1
  O2-  O247  1  0.97912429  0.88662882  0.75611340  1
  O2-  O248  1  0.01739087  0.12657073  0.25016321  1
  O2-  O249  1  0.01061976  0.12614009  0.75529571  1
  O2-  O250  1  0.03004652  0.61399157  0.25948989  1
  O2-  O251  1  0.02797443  0.61721126  0.77402784  1
  O2-  O252  1  0.53094821  0.11422240  0.24028235  1
  O2-  O253  1  0.53753377  0.11203888  0.74652620  1
  O2-  O254  1  0.52001225  0.63104870  0.23647826  1
  O2-  O255  1  0.51984934  0.63601732  0.73756982  1
  O2-  O256  1  0.13972623  0.48170281  0.02466747  1
  O2-  O257  1  0.13720163  0.48783114  0.52965014  1
  O2-  O258  1  0.12624882  0.98286803  -0.02050266  1
  O2-  O259  1  0.13420197  0.97939646  0.47277440  1
  O2-  O260  1  0.61707485  0.47975328  0.01414290  1
  O2-  O261  1  0.62868784  0.48751365  0.52450804  1
  O2-  O262  1  0.63015701  0.98557213  -0.02199123  1
  O2-  O263  1  0.63655424  0.97241257  0.48801189  1
  O2-  O264  1  0.38547350  0.01988975  0.01786819  1
  O2-  O265  1  0.36662223  0.01134151  0.53106245  1
  O2-  O266  1  0.38105387  0.52756054  -0.01627985  1
  O2-  O267  1  0.36440311  0.53526958  0.47938947  1
  O2-  O268  1  0.87869092  0.01976618  0.01768043  1
  O2-  O269  1  0.86588572  0.01615993  0.53215642  1
  O2-  O270  1  0.86273655  0.52014369  -0.02366274  1
  O2-  O271  1  0.86690834  0.51691487  0.48331853  1
  O2-  O272  1  0.47574874  0.37959844  -0.00863526  1
  O2-  O273  1  0.47934711  0.36924588  0.48598169  1
  O2-  O274  1  0.48147474  0.88056037  -0.00948885  1
  O2-  O275  1  0.46629235  0.86419098  0.49521041  1
  O2-  O276  1  0.96707302  0.36296662  0.00330890  1
  O2-  O277  1  0.95406558  0.36089962  0.50524788  1
  O2-  O278  1  0.98312261  0.88318104  -0.00834291  1
  O2-  O279  1  0.98496253  0.86591696  0.51497965  1
  O2-  O280  1  0.02006436  0.12181903  -0.00871958  1
  O2-  O281  1  0.04413814  0.13960860  0.49203818  1
  O2-  O282  1  0.03862162  0.63594073  0.00334642  1
  O2-  O283  1  0.02850188  0.62937295  0.48425082  1
  O2-  O284  1  0.52820815  0.12526953  0.00740132  1
  O2-  O285  1  0.52162074  0.13031383  0.50918045  1
  O2-  O286  1  0.51809333  0.63100548  0.01023182  1
  O2-  O287  1  0.51102179  0.64148844  0.53057655  1
  O2-  O288  1  0.11059107  0.27262359  -0.00006288  1
  O2-  O289  1  0.10911339  0.29551774  0.49779582  1
  O2-  O290  1  0.13399806  0.77774544  -0.00367049  1
  O2-  O291  1  0.13336073  0.77086788  0.49297607  1
  O2-  O292  1  0.63096218  0.26413009  -0.01170343  1
  O2-  O293  1  0.61884682  0.27033465  0.50421837  1
  O2-  O294  1  0.61128020  0.77916681  -0.00010693  1
  O2-  O295  1  0.61187701  0.77323391  0.48481824  1
  O2-  O296  1  0.38569020  0.22151872  0.00497887  1
  O2-  O297  1  0.37783975  0.22887377  0.49421514  1
  O2-  O298  1  0.37789766  0.74245189  0.00865334  1
  O2-  O299  1  0.37040350  0.72933382  0.50577136  1
  O2-  O300  1  0.87312325  0.22272666  -0.00527183  1
  O2-  O301  1  0.88739510  0.20464391  0.49828289  1
  O2-  O302  1  0.88472384  0.71511359  0.00659551  1
  O2-  O303  1  0.88450251  0.72356535  0.49959899  1
  O2-  O304  1  0.27803486  0.38518718  -0.01974935  1
  O2-  O305  1  0.27383825  0.38453944  0.48234486  1
  O2-  O306  1  0.27534509  0.87440496  -0.00803467  1
  O2-  O307  1  0.27061525  0.86920490  0.48778281  1
  O2-  O308  1  0.76761718  0.36577154  0.01323349  1
  O2-  O309  1  0.75916001  0.38423022  0.53885030  1
  O2-  O310  1  0.77260113  0.88682571  0.01617446  1
  O2-  O311  1  0.76922582  0.88187744  0.52778111  1
  O2-  O312  1  0.23330719  0.11243772  0.01836368  1
  O2-  O313  1  0.23170927  0.11495496  0.52842704  1
  O2-  O314  1  0.23912503  0.63829497  0.01978013  1
  O2-  O315  1  0.23036045  0.63410262  0.51477966  1
  O2-  O316  1  0.73768020  0.12512083  -0.02023598  1
  O2-  O317  1  0.72790258  0.11384363  0.48512569  1
  O2-  O318  1  0.71881008  0.61360782  -0.02647063  1
  O2-  O319  1  0.72748152  0.61626066  0.47261020  1
