# generated using pymatgen
data_Sr64Ca21Nb43O192
_symmetry_space_group_name_H-M   'P 1'
_cell_length_a   16.57739787
_cell_length_b   16.58735345
_cell_length_c   16.69887517
_cell_angle_alpha   90.06432205
_cell_angle_beta   90.02880581
_cell_angle_gamma   89.92557733
_symmetry_Int_Tables_number   1
_chemical_formula_structural   Sr64Ca21Nb43O192
_chemical_formula_sum   'Sr64 Ca21 Nb43 O192'
_cell_volume   4591.76848964
_cell_formula_units_Z   1
loop_
 _symmetry_equiv_pos_site_id
 _symmetry_equiv_pos_as_xyz
  1  'x, y, z'
loop_
 _atom_type_symbol
 _atom_type_oxidation_number
  Sr2+  2.0
  Ca2+  2.0
  Nb5+  5.0
  O2-  -2.0
loop_
 _atom_site_type_symbol
 _atom_site_label
 _atom_site_symmetry_multiplicity
 _atom_site_fract_x
 _atom_site_fract_y
 _atom_site_fract_z
 _atom_site_occupancy
  Sr2+  Sr0  1  0.13050693  0.13225214  0.12968610  1
  Sr2+  Sr1  1  0.12954351  0.11539618  0.62668649  1
  Sr2+  Sr2  1  0.12884128  0.60621662  0.11939163  1
  Sr2+  Sr3  1  0.13576507  0.61267256  0.63000878  1
  Sr2+  Sr4  1  0.62268483  0.11705134  0.12123890  1
  Sr2+  Sr5  1  0.63391368  0.12714611  0.63294876  1
  Sr2+  Sr6  1  0.62869033  0.61845700  0.12732850  1
  Sr2+  Sr7  1  0.62094230  0.60845810  0.62071220  1
  Sr2+  Sr8  1  0.36724244  0.37404835  0.12030377  1
  Sr2+  Sr9  1  0.38657668  0.36393631  0.62432925  1
  Sr2+  Sr10  1  0.37698346  0.87223637  0.12801131  1
  Sr2+  Sr11  1  0.37680811  0.86834386  0.62517914  1
  Sr2+  Sr12  1  0.89282906  0.36294278  0.12654143  1
  Sr2+  Sr13  1  0.87697875  0.36091429  0.61696642  1
  Sr2+  Sr14  1  0.87904524  0.86428712  0.12114165  1
  Sr2+  Sr15  1  0.88843618  0.86449629  0.63018577  1
  Sr2+  Sr16  1  0.12213917  0.38313236  0.36725476  1
  Sr2+  Sr17  1  0.10976347  0.37978174  0.87405314  1
  Sr2+  Sr18  1  0.10623974  0.88350105  0.38089230  1
  Sr2+  Sr19  1  0.11437769  0.88558700  0.86582244  1
  Sr2+  Sr20  1  0.61828904  0.37800731  0.37693852  1
  Sr2+  Sr21  1  0.62420188  0.38381094  0.87602213  1
  Sr2+  Sr22  1  0.62060820  0.88069368  0.37590390  1
  Sr2+  Sr23  1  0.62397959  0.87700483  0.87588004  1
  Sr2+  Sr24  1  0.37512261  0.13041666  0.36438111  1
  Sr2+  Sr25  1  0.37378817  0.12661629  0.87170959  1
  Sr2+  Sr26  1  0.36908351  0.63106992  0.38293161  1
  Sr2+  Sr27  1  0.37258814  0.63689531  0.87468938  1
  Sr2+  Sr28  1  0.86204196  0.13392008  0.37587405  1
  Sr2+  Sr29  1  0.86248549  0.13748321  0.88287242  1
  Sr2+  Sr30  1  0.86245561  0.63325669  0.37406263  1
  Sr2+  Sr31  1  0.85863417  0.62213539  0.88034360  1
  Sr2+  Sr32  1  0.12027816  0.13352415  0.36939442  1
  Sr2+  Sr33  1  0.12136102  0.14068999  0.86574816  1
  Sr2+  Sr34  1  0.12380990  0.63200640  0.38438841  1
  Sr2+  Sr35  1  0.12054546  0.61619830  0.87536336  1
  Sr2+  Sr36  1  0.62198870  0.13998861  0.37384975  1
  Sr2+  Sr37  1  0.61315588  0.14431421  0.87595910  1
  Sr2+  Sr38  1  0.61200268  0.62812701  0.37362197  1
  Sr2+  Sr39  1  0.61941893  0.63768519  0.87761320  1
  Sr2+  Sr40  1  0.37529527  0.37465328  0.37842682  1
  Sr2+  Sr41  1  0.36818218  0.36539338  0.88140823  1
  Sr2+  Sr42  1  0.37409360  0.87870236  0.37626559  1
  Sr2+  Sr43  1  0.37824553  0.88363266  0.87366163  1
  Sr2+  Sr44  1  0.86505474  0.38186294  0.37119911  1
  Sr2+  Sr45  1  0.87464920  0.39188017  0.87637859  1
  Sr2+  Sr46  1  0.86957501  0.89006056  0.37775056  1
  Sr2+  Sr47  1  0.86834834  0.87181198  0.87049192  1
  Sr2+  Sr48  1  0.12991056  0.37116511  0.11414846  1
  Sr2+  Sr49  1  0.12646065  0.36379934  0.63287088  1
  Sr2+  Sr50  1  0.11584046  0.87034014  0.13194032  1
  Sr2+  Sr51  1  0.12787265  0.86599832  0.62510809  1
  Sr2+  Sr52  1  0.63234325  0.36678323  0.12728417  1
  Sr2+  Sr53  1  0.64007186  0.37348731  0.62306170  1
  Sr2+  Sr54  1  0.62980929  0.87163920  0.12421103  1
  Sr2+  Sr55  1  0.63493388  0.86820538  0.62797363  1
  Sr2+  Sr56  1  0.36979460  0.11350056  0.11770271  1
  Sr2+  Sr57  1  0.37481844  0.11689168  0.62333190  1
  Sr2+  Sr58  1  0.36550455  0.62433322  0.13538781  1
  Sr2+  Sr59  1  0.38268651  0.62177167  0.62441162  1
  Sr2+  Sr60  1  0.87662566  0.11939753  0.13015772  1
  Sr2+  Sr61  1  0.89315556  0.12662670  0.62146608  1
  Sr2+  Sr62  1  0.89245004  0.62033464  0.12463776  1
  Sr2+  Sr63  1  0.88231794  0.61071810  0.62838641  1
  Ca2+  Ca64  1  0.00028779  0.00123730  0.50169707  1
  Ca2+  Ca65  1  0.50112585  0.00036120  0.50111885  1
  Ca2+  Ca66  1  0.00250962  0.49706045  0.49867430  1
  Ca2+  Ca67  1  0.00230655  -0.00290422  -0.00025541  1
  Ca2+  Ca68  1  0.49782458  0.50409623  0.00065244  1
  Ca2+  Ca69  1  0.74845223  0.75095960  0.49884280  1
  Ca2+  Ca70  1  0.74861311  0.25061012  0.00338878  1
  Ca2+  Ca71  1  0.24792470  0.75353799  -0.00175184  1
  Ca2+  Ca72  1  0.24903978  0.24527889  -0.00029172  1
  Ca2+  Ca73  1  0.25149930  0.24663543  0.50037793  1
  Ca2+  Ca74  1  0.75087269  0.50392050  0.24767083  1
  Ca2+  Ca75  1  -0.00047996  0.74700291  0.25190662  1
  Ca2+  Ca76  1  0.50020932  0.25320657  0.74921853  1
  Ca2+  Ca77  1  0.74979448  0.00416162  0.75333182  1
  Ca2+  Ca78  1  0.74807773  0.50217457  0.74951275  1
  Ca2+  Ca79  1  0.49870921  0.24871475  0.24535929  1
  Ca2+  Ca80  1  0.24924582  0.50198001  0.25186202  1
  Ca2+  Ca81  1  -0.00331970  0.25109798  0.75051817  1
  Ca2+  Ca82  1  0.00062345  0.74610717  0.75246925  1
  Ca2+  Ca83  1  0.00056425  0.24902967  0.25311618  1
  Ca2+  Ca84  1  0.25414975  0.49979174  0.75070877  1
  Nb5+  Nb85  1  -0.00224354  0.49808655  0.00132060  1
  Nb5+  Nb86  1  0.49805791  0.49707090  0.49750822  1
  Nb5+  Nb87  1  0.50092819  0.00046248  -0.00221731  1
  Nb5+  Nb88  1  0.74670860  0.75061603  0.00187978  1
  Nb5+  Nb89  1  0.74904586  0.24992378  0.49961016  1
  Nb5+  Nb90  1  0.25066826  0.75220958  0.49942221  1
  Nb5+  Nb91  1  0.25173671  -0.00249637  0.74386355  1
  Nb5+  Nb92  1  0.74171632  -0.00013620  0.25055888  1
  Nb5+  Nb93  1  0.49915675  0.75121190  0.25321738  1
  Nb5+  Nb94  1  0.24508474  -0.00501906  0.24619973  1
  Nb5+  Nb95  1  0.50117426  0.75079537  0.75296455  1
  Nb5+  Nb96  1  -0.00922489  -0.00065838  0.25233873  1
  Nb5+  Nb97  1  -0.00747604  0.00431805  0.75677722  1
  Nb5+  Nb98  1  0.00285250  0.50177282  0.25443057  1
  Nb5+  Nb99  1  -0.00151268  0.49797443  0.74496134  1
  Nb5+  Nb100  1  0.49695154  0.00013471  0.24992053  1
  Nb5+  Nb101  1  0.50101688  -0.00078490  0.74602908  1
  Nb5+  Nb102  1  0.49257403  0.49721840  0.24554088  1
  Nb5+  Nb103  1  0.49841379  0.49944329  0.75453239  1
  Nb5+  Nb104  1  0.25580423  0.25501789  0.25149404  1
  Nb5+  Nb105  1  0.25452325  0.25273524  0.74798959  1
  Nb5+  Nb106  1  0.24566599  0.75576326  0.25282414  1
  Nb5+  Nb107  1  0.25163920  0.75231372  0.75316133  1
  Nb5+  Nb108  1  0.74913118  0.25311738  0.24675516  1
  Nb5+  Nb109  1  0.75200398  0.25618310  0.75658521  1
  Nb5+  Nb110  1  0.74941084  0.75254941  0.24864236  1
  Nb5+  Nb111  1  0.74933324  0.74606062  0.74193064  1
  Nb5+  Nb112  1  0.00695212  0.25288839  0.49584294  1
  Nb5+  Nb113  1  0.00235287  0.24030249  1.00190626  1
  Nb5+  Nb114  1  -0.00672997  0.74233652  0.50202319  1
  Nb5+  Nb115  1  0.00139795  0.75086851  0.99193024  1
  Nb5+  Nb116  1  0.50292644  0.24424208  0.50363172  1
  Nb5+  Nb117  1  0.49793315  0.25598767  1.00197951  1
  Nb5+  Nb118  1  0.50009407  0.75226655  0.50474397  1
  Nb5+  Nb119  1  0.50072232  0.75037003  1.00902222  1
  Nb5+  Nb120  1  0.24648547  -0.01004656  -0.00701026  1
  Nb5+  Nb121  1  0.24835337  -0.00019316  0.49128691  1
  Nb5+  Nb122  1  0.25484601  0.50140380  -0.00772133  1
  Nb5+  Nb123  1  0.25069304  0.49327886  0.50415861  1
  Nb5+  Nb124  1  0.75008335  0.00013737  -0.00096828  1
  Nb5+  Nb125  1  0.75354185  0.00148402  0.50936381  1
  Nb5+  Nb126  1  0.74909089  0.49484640  0.01035027  1
  Nb5+  Nb127  1  0.75100900  0.50572224  0.49293331  1
  O2-  O128  1  -0.00881631  -0.03105280  0.13691125  1
  O2-  O129  1  -0.02238645  -0.01435368  0.63848567  1
  O2-  O130  1  -0.02158013  0.48831931  0.12020648  1
  O2-  O131  1  -0.02746593  0.48299162  0.63298843  1
  O2-  O132  1  0.48530605  -0.00527191  0.12215133  1
  O2-  O133  1  0.47165652  -0.00731287  0.63527869  1
  O2-  O134  1  0.46361046  0.50663375  0.13330257  1
  O2-  O135  1  0.47984095  0.49764161  0.61644437  1
  O2-  O136  1  0.02527428  0.01666001  0.36501089  1
  O2-  O137  1  0.03767315  0.01460500  0.86694627  1
  O2-  O138  1  0.03440010  0.51151364  0.36553979  1
  O2-  O139  1  0.01238433  0.51234149  0.88298099  1
  O2-  O140  1  0.51293718  -0.00652335  0.36418861  1
  O2-  O141  1  0.51463953  -0.00439894  0.87740984  1
  O2-  O142  1  0.51974725  0.50517468  0.37532015  1
  O2-  O143  1  0.52923951  0.51134845  0.86465403  1
  O2-  O144  1  0.22552836  0.24880534  0.13599313  1
  O2-  O145  1  0.22298446  0.23622724  0.63397727  1
  O2-  O146  1  0.23433277  0.76113006  0.13697416  1
  O2-  O147  1  0.24307589  0.74921318  0.62102878  1
  O2-  O148  1  0.72564861  0.22667086  0.13662676  1
  O2-  O149  1  0.72628497  0.23977663  0.61541497  1
  O2-  O150  1  0.71786182  0.74446700  0.12455074  1
  O2-  O151  1  0.71618536  0.72971758  0.63330084  1
  O2-  O152  1  0.28362835  0.24701209  0.36850542  1
  O2-  O153  1  0.27723871  0.24229287  0.86579388  1
  O2-  O154  1  0.27772195  0.75832285  0.37778223  1
  O2-  O155  1  0.28287077  0.76194279  0.86340201  1
  O2-  O156  1  0.76716655  0.26094395  0.37622237  1
  O2-  O157  1  0.77801936  0.27247892  0.86814274  1
  O2-  O158  1  0.76758855  0.77645917  0.36164397  1
  O2-  O159  1  0.75679344  0.77102081  0.88421335  1
  O2-  O160  1  0.01832100  0.27093144  0.11772488  1
  O2-  O161  1  0.00485644  0.27810985  0.61479162  1
  O2-  O162  1  0.00922378  0.76722351  0.11096320  1
  O2-  O163  1  0.01315913  0.77244980  0.61664528  1
  O2-  O164  1  0.53480382  0.24935285  0.11427315  1
  O2-  O165  1  0.52494911  0.27621339  0.61535305  1
  O2-  O166  1  0.51499394  0.76083772  0.12430495  1
  O2-  O167  1  0.51638569  0.75935266  0.62137432  1
  O2-  O168  1  0.23955371  -0.01664575  0.37522720  1
  O2-  O169  1  0.24196525  -0.01427946  0.87556364  1
  O2-  O170  1  0.23098173  0.49767037  0.38767901  1
  O2-  O171  1  0.21529911  0.48901728  0.88193486  1
  O2-  O172  1  0.73681318  -0.02171993  0.36726467  1
  O2-  O173  1  0.74171772  -0.02986251  0.88820003  1
  O2-  O174  1  0.73367455  0.47091789  0.38031396  1
  O2-  O175  1  0.74196155  0.48204482  0.89073653  1
  O2-  O176  1  -0.01261912  0.21536050  0.38516510  1
  O2-  O177  1  -0.02043980  0.22889471  0.88568467  1
  O2-  O178  1  -0.00863938  0.71461491  0.38482369  1
  O2-  O179  1  -0.03864087  0.72680713  0.88417820  1
  O2-  O180  1  0.48367571  0.24205229  0.38549192  1
  O2-  O181  1  0.47773614  0.23635162  0.88467536  1
  O2-  O182  1  0.48237186  0.74586543  0.36982584  1
  O2-  O183  1  0.48798186  0.74380113  0.87092532  1
  O2-  O184  1  0.26453566  -0.00610519  0.13078384  1
  O2-  O185  1  0.26962775  0.00560531  0.62735039  1
  O2-  O186  1  0.26619702  0.51079274  0.11353618  1
  O2-  O187  1  0.27086385  0.52645151  0.61536279  1
  O2-  O188  1  0.75403163  0.02117737  0.12940401  1
  O2-  O189  1  0.76532861  0.03544611  0.61766974  1
  O2-  O190  1  0.76316111  0.54211894  0.11655774  1
  O2-  O191  1  0.75497040  0.52487902  0.61049562  1
  O2-  O192  1  0.13865730  0.25736774  0.27956945  1
  O2-  O193  1  0.13640306  0.26516978  0.77279096  1
  O2-  O194  1  0.13614420  0.77783610  0.27582399  1
  O2-  O195  1  0.13990504  0.77906134  0.75986424  1
  O2-  O196  1  0.63375937  0.26547007  0.27557759  1
  O2-  O197  1  0.63299174  0.27937158  0.76812555  1
  O2-  O198  1  0.61856597  0.77615872  0.26319443  1
  O2-  O199  1  0.61950978  0.77305256  0.76355945  1
  O2-  O200  1  0.36625398  0.21571573  0.22686745  1
  O2-  O201  1  0.36871334  0.22344780  0.72341518  1
  O2-  O202  1  0.38099027  0.74174748  0.23164501  1
  O2-  O203  1  0.38200217  0.73697749  0.72787608  1
  O2-  O204  1  0.86382461  0.22210839  0.24100464  1
  O2-  O205  1  0.86266490  0.22763053  0.72440878  1
  O2-  O206  1  0.86093769  0.73724603  0.22277818  1
  O2-  O207  1  0.86280241  0.73020779  0.72448022  1
  O2-  O208  1  0.27978538  0.36752493  0.24902330  1
  O2-  O209  1  0.27899764  0.36558061  0.74000773  1
  O2-  O210  1  0.28136848  0.87761214  0.25322215  1
  O2-  O211  1  0.27787707  0.87707228  0.74010527  1
  O2-  O212  1  0.76757391  0.36567225  0.22692808  1
  O2-  O213  1  0.76673751  0.36933014  0.72145620  1
  O2-  O214  1  0.76223019  0.88054831  0.22718661  1
  O2-  O215  1  0.76521173  0.86497477  0.73498855  1
  O2-  O216  1  0.23452620  0.11140458  0.25812393  1
  O2-  O217  1  0.23731410  0.11370491  0.75856056  1
  O2-  O218  1  0.23943871  0.64036494  0.25622850  1
  O2-  O219  1  0.23333637  0.63845997  0.75981737  1
  O2-  O220  1  0.73098872  0.11707656  0.26968212  1
  O2-  O221  1  0.72134500  0.13876875  0.76807565  1
  O2-  O222  1  0.72412683  0.64138041  0.26873625  1
  O2-  O223  1  0.73141552  0.63754012  0.78245780  1
  O2-  O224  1  0.11729808  0.47130679  0.22499428  1
  O2-  O225  1  0.11792258  0.47770821  0.73023957  1
  O2-  O226  1  0.13224669  0.97436862  0.23933216  1
  O2-  O227  1  0.13745758  0.97618855  0.73263672  1
  O2-  O228  1  0.61058816  0.48948833  0.22567347  1
  O2-  O229  1  0.61160039  0.48920355  0.72002716  1
  O2-  O230  1  0.62489751  0.98061506  0.23464684  1
  O2-  O231  1  0.61447165  0.97429440  0.73269569  1
  O2-  O232  1  0.37898056  0.01439873  0.25949986  1
  O2-  O233  1  0.37657244  0.01048588  0.77232343  1
  O2-  O234  1  0.38398892  0.53224272  0.27544874  1
  O2-  O235  1  0.38865698  0.54150846  0.75932741  1
  O2-  O236  1  0.87317641  0.01568488  0.26317109  1
  O2-  O237  1  0.88329171  0.02422329  0.78464783  1
  O2-  O238  1  0.88552942  0.52993663  0.27041675  1
  O2-  O239  1  0.88274343  0.52539386  0.76806085  1
  O2-  O240  1  0.47319093  0.38419515  0.25402935  1
  O2-  O241  1  0.46761405  0.38877944  0.76184898  1
  O2-  O242  1  0.48489307  0.87488775  0.24731681  1
  O2-  O243  1  0.48134438  0.87151865  0.75496523  1
  O2-  O244  1  0.97227152  0.38460700  0.26189876  1
  O2-  O245  1  0.98536358  0.38461397  0.77840016  1
  O2-  O246  1  0.98479141  0.88159564  0.27845817  1
  O2-  O247  1  0.98585567  0.88382044  0.77205493  1
  O2-  O248  1  0.01765965  0.11124685  0.22431876  1
  O2-  O249  1  0.02598055  0.11612000  0.73326464  1
  O2-  O250  1  0.02342450  0.61537913  0.22257561  1
  O2-  O251  1  0.02848914  0.61460777  0.73955550  1
  O2-  O252  1  0.52213137  0.11258136  0.24528173  1
  O2-  O253  1  0.51969423  0.11376606  0.74726988  1
  O2-  O254  1  0.51914027  0.63516989  0.24265431  1
  O2-  O255  1  0.52276251  0.63514892  0.73825703  1
  O2-  O256  1  0.11647645  0.48826218  0.01846493  1
  O2-  O257  1  0.13818466  0.47714818  0.52754428  1
  O2-  O258  1  0.13848269  0.95656900  0.01113980  1
  O2-  O259  1  0.13736345  0.96754820  0.51821647  1
  O2-  O260  1  0.63289621  0.48227814  0.02395909  1
  O2-  O261  1  0.61890261  0.48848446  0.51303637  1
  O2-  O262  1  0.62027367  0.98022066  0.01651987  1
  O2-  O263  1  0.63717939  0.97736372  0.51120148  1
  O2-  O264  1  0.38239134  0.01888037  -0.01460659  1
  O2-  O265  1  0.36440443  0.02574789  0.48459140  1
  O2-  O266  1  0.36547048  0.51430562  -0.03930258  1
  O2-  O267  1  0.38034234  0.51612425  0.47892632  1
  O2-  O268  1  0.86408685  0.02185961  -0.00268204  1
  O2-  O269  1  0.86463149  0.01710614  0.47136291  1
  O2-  O270  1  0.87422353  0.51681575  -0.01158155  1
  O2-  O271  1  0.86557595  0.51895980  0.47950926  1
  O2-  O272  1  0.47298078  0.36904154  -0.00123985  1
  O2-  O273  1  0.48569847  0.37989644  0.48715159  1
  O2-  O274  1  0.48342273  0.87389984  -0.00512924  1
  O2-  O275  1  0.47706812  0.86514620  0.49342473  1
  O2-  O276  1  0.98113274  0.38000986  -0.01297175  1
  O2-  O277  1  0.96999777  0.36438713  0.47357652  1
  O2-  O278  1  0.97338454  0.86410731  -0.02187174  1
  O2-  O279  1  0.98346564  0.86013325  0.47682836  1
  O2-  O280  1  0.02787234  0.12914007  0.01996230  1
  O2-  O281  1  0.01635413  0.13581818  0.52903709  1
  O2-  O282  1  0.00917711  0.62433772  0.01590396  1
  O2-  O283  1  0.03612584  0.63203358  0.52151442  1
  O2-  O284  1  0.52015980  0.11682826  0.00266789  1
  O2-  O285  1  0.53001644  0.13308279  0.51536930  1
  O2-  O286  1  0.53012877  0.63819744  0.00327218  1
  O2-  O287  1  0.51188971  0.62604165  0.50209187  1
  O2-  O288  1  0.11588719  0.26955397  -0.02304761  1
  O2-  O289  1  0.11838394  0.27784349  0.47928013  1
  O2-  O290  1  0.11207606  0.76040319  -0.03744502  1
  O2-  O291  1  0.13699855  0.77000941  0.48311936  1
  O2-  O292  1  0.61617332  0.27075485  -0.02846180  1
  O2-  O293  1  0.62703570  0.26704437  0.47684267  1
  O2-  O294  1  0.62179280  0.77599161  -0.01334247  1
  O2-  O295  1  0.61290852  0.76357224  0.47556669  1
  O2-  O296  1  0.38480499  0.22936904  0.02759292  1
  O2-  O297  1  0.38854876  0.23353646  0.52704126  1
  O2-  O298  1  0.38711003  0.72625114  0.01538864  1
  O2-  O299  1  0.37930395  0.73029463  0.51320093  1
  O2-  O300  1  0.88313897  0.22875203  0.02451298  1
  O2-  O301  1  0.86546576  0.23210220  0.51346499  1
  O2-  O302  1  0.86095602  0.73707087  0.02351695  1
  O2-  O303  1  0.88155492  0.71876059  0.51938609  1
  O2-  O304  1  0.26604406  0.38205410  0.00781203  1
  O2-  O305  1  0.28296150  0.38312808  0.51118505  1
  O2-  O306  1  0.29297260  0.88328067  0.00490474  1
  O2-  O307  1  0.28000720  0.87236679  0.50551700  1
  O2-  O308  1  0.76854267  0.38493717  0.03698391  1
  O2-  O309  1  0.76020863  0.37253448  0.51357256  1
  O2-  O310  1  0.75858911  0.87672230  0.02632829  1
  O2-  O311  1  0.77423203  0.88593789  0.52789957  1
  O2-  O312  1  0.23618072  0.10591124  0.00947164  1
  O2-  O313  1  0.21751113  0.11128687  0.49172709  1
  O2-  O314  1  0.22897875  0.61901711  -0.00875500  1
  O2-  O315  1  0.24102968  0.63343164  0.48872447  1
  O2-  O316  1  0.72230208  0.11301573  -0.01889903  1
  O2-  O317  1  0.73050729  0.12813755  0.47956919  1
  O2-  O318  1  0.72771413  0.63539713  -0.01566127  1
  O2-  O319  1  0.72858734  0.61702948  0.46683620  1
