# generated using pymatgen
data_Sr64Ca21Nb43O192
_symmetry_space_group_name_H-M   'P 1'
_cell_length_a   16.55562374
_cell_length_b   16.53393551
_cell_length_c   16.70383459
_cell_angle_alpha   90.01181415
_cell_angle_beta   90.06818124
_cell_angle_gamma   89.97108710
_symmetry_Int_Tables_number   1
_chemical_formula_structural   Sr64Ca21Nb43O192
_chemical_formula_sum   'Sr64 Ca21 Nb43 O192'
_cell_volume   4572.33029959
_cell_formula_units_Z   1
loop_
 _symmetry_equiv_pos_site_id
 _symmetry_equiv_pos_as_xyz
  1  'x, y, z'
loop_
 _atom_type_symbol
 _atom_type_oxidation_number
  Sr2+  2.0
  Ca2+  2.0
  Nb5+  5.0
  O2-  -2.0
loop_
 _atom_site_type_symbol
 _atom_site_label
 _atom_site_symmetry_multiplicity
 _atom_site_fract_x
 _atom_site_fract_y
 _atom_site_fract_z
 _atom_site_occupancy
  Sr2+  Sr0  1  0.12757503  0.11504591  0.13086604  1
  Sr2+  Sr1  1  0.13648044  0.12823056  0.61823942  1
  Sr2+  Sr2  1  0.13101675  0.62129889  0.14247566  1
  Sr2+  Sr3  1  0.12809327  0.61227760  0.62332911  1
  Sr2+  Sr4  1  0.63495430  0.12020636  0.13323490  1
  Sr2+  Sr5  1  0.62951057  0.11239536  0.62475428  1
  Sr2+  Sr6  1  0.63089565  0.60679547  0.12383234  1
  Sr2+  Sr7  1  0.63718415  0.62063305  0.62465842  1
  Sr2+  Sr8  1  0.38360670  0.36472340  0.12719399  1
  Sr2+  Sr9  1  0.37592968  0.36006096  0.62569310  1
  Sr2+  Sr10  1  0.37343959  0.86011095  0.13046067  1
  Sr2+  Sr11  1  0.38855789  0.87317000  0.62180460  1
  Sr2+  Sr12  1  0.88102526  0.36843988  0.12395540  1
  Sr2+  Sr13  1  0.89245622  0.36608264  0.62224522  1
  Sr2+  Sr14  1  0.87793071  0.89512765  0.12254627  1
  Sr2+  Sr15  1  0.87455407  0.86901197  0.62767967  1
  Sr2+  Sr16  1  0.11160365  0.38343640  0.37047268  1
  Sr2+  Sr17  1  0.12908977  0.38651646  0.87323000  1
  Sr2+  Sr18  1  0.12792412  0.88685566  0.37132856  1
  Sr2+  Sr19  1  0.12572107  0.87704345  0.87783348  1
  Sr2+  Sr20  1  0.62358952  0.38148597  0.37302035  1
  Sr2+  Sr21  1  0.61367419  0.37810129  0.87505380  1
  Sr2+  Sr22  1  0.61013483  0.88128868  0.37397706  1
  Sr2+  Sr23  1  0.62131665  0.88199621  0.87657308  1
  Sr2+  Sr24  1  0.35696237  0.12576284  0.37961506  1
  Sr2+  Sr25  1  0.36329705  0.13505634  0.87720641  1
  Sr2+  Sr26  1  0.36381418  0.63339741  0.36383211  1
  Sr2+  Sr27  1  0.36673107  0.62704432  0.87669774  1
  Sr2+  Sr28  1  0.88196386  0.13056272  0.36394758  1
  Sr2+  Sr29  1  0.87529562  0.13070731  0.87959550  1
  Sr2+  Sr30  1  0.86330924  0.63013568  0.37784165  1
  Sr2+  Sr31  1  0.88072920  0.63723871  0.87637307  1
  Sr2+  Sr32  1  0.12350250  0.14635682  0.37161679  1
  Sr2+  Sr33  1  0.12283928  0.11050595  0.88059665  1
  Sr2+  Sr34  1  0.11573162  0.63895589  0.37448086  1
  Sr2+  Sr35  1  0.12461993  0.63158256  0.86972959  1
  Sr2+  Sr36  1  0.61361556  0.13119917  0.36780712  1
  Sr2+  Sr37  1  0.62166671  0.13955435  0.87293410  1
  Sr2+  Sr38  1  0.62672662  0.63810904  0.37163308  1
  Sr2+  Sr39  1  0.61764226  0.62656480  0.87848971  1
  Sr2+  Sr40  1  0.36618735  0.38473094  0.36113742  1
  Sr2+  Sr41  1  0.37168028  0.39015372  0.87692828  1
  Sr2+  Sr42  1  0.36960717  0.88429608  0.38306710  1
  Sr2+  Sr43  1  0.36278701  0.88851609  0.87821041  1
  Sr2+  Sr44  1  0.87784258  0.38739755  0.37745296  1
  Sr2+  Sr45  1  0.87160159  0.37151606  0.87981119  1
  Sr2+  Sr46  1  0.87712768  0.88130791  0.36095534  1
  Sr2+  Sr47  1  0.87908548  0.88531889  0.87198293  1
  Sr2+  Sr48  1  0.12963971  0.36109591  0.13265623  1
  Sr2+  Sr49  1  0.13745372  0.37230265  0.62124383  1
  Sr2+  Sr50  1  0.13865494  0.87201911  0.13213950  1
  Sr2+  Sr51  1  0.13946886  0.85878713  0.62215815  1
  Sr2+  Sr52  1  0.64001936  0.37136981  0.12692166  1
  Sr2+  Sr53  1  0.63247254  0.36209980  0.62409993  1
  Sr2+  Sr54  1  0.63563054  0.87499941  0.12755886  1
  Sr2+  Sr55  1  0.63213102  0.87261668  0.62332128  1
  Sr2+  Sr56  1  0.37049602  0.11529291  0.12418106  1
  Sr2+  Sr57  1  0.38646299  0.12122670  0.62559127  1
  Sr2+  Sr58  1  0.39071502  0.61707721  0.12929998  1
  Sr2+  Sr59  1  0.38470147  0.61765008  0.62529244  1
  Sr2+  Sr60  1  0.88682812  0.12539011  0.12578041  1
  Sr2+  Sr61  1  0.87273991  0.11473428  0.62416992  1
  Sr2+  Sr62  1  0.87268010  0.62457870  0.12931213  1
  Sr2+  Sr63  1  0.89030361  0.62193951  0.62556998  1
  Ca2+  Ca64  1  0.49940715  -0.00144894  -0.00198759  1
  Ca2+  Ca65  1  0.49974247  0.49959692  0.50127173  1
  Ca2+  Ca66  1  0.00057980  0.49941589  -0.00296000  1
  Ca2+  Ca67  1  0.00131683  -0.00486513  -0.00131745  1
  Ca2+  Ca68  1  -0.00336536  -0.00245660  0.50189775  1
  Ca2+  Ca69  1  0.25157932  0.74890721  0.50179024  1
  Ca2+  Ca70  1  0.24992544  0.25203656  0.00010806  1
  Ca2+  Ca71  1  0.75118784  0.24663386  0.50234535  1
  Ca2+  Ca72  1  0.25227395  0.25538105  0.49614337  1
  Ca2+  Ca73  1  0.25053242  0.74646186  0.00260208  1
  Ca2+  Ca74  1  0.25090648  -0.00037001  0.74672325  1
  Ca2+  Ca75  1  0.50039726  0.75112741  0.24945282  1
  Ca2+  Ca76  1  -0.00260955  0.75102475  0.25065151  1
  Ca2+  Ca77  1  0.75305896  0.50005654  0.74991102  1
  Ca2+  Ca78  1  0.74820646  0.00103531  0.25251943  1
  Ca2+  Ca79  1  0.49856873  0.24757191  0.24734341  1
  Ca2+  Ca80  1  0.24844832  0.50019415  0.24785077  1
  Ca2+  Ca81  1  0.25200573  0.00075601  0.25382334  1
  Ca2+  Ca82  1  -0.00068654  0.25311715  0.25080791  1
  Ca2+  Ca83  1  0.00232347  0.24774915  0.75049762  1
  Ca2+  Ca84  1  0.75216628  0.49885324  0.25063613  1
  Nb5+  Nb85  1  0.50216853  0.00292095  0.50048333  1
  Nb5+  Nb86  1  0.50052866  0.49694541  0.00084251  1
  Nb5+  Nb87  1  0.00146074  0.50303830  0.49919383  1
  Nb5+  Nb88  1  0.75014591  0.75356015  0.49585360  1
  Nb5+  Nb89  1  0.74918930  0.25241734  0.00113587  1
  Nb5+  Nb90  1  0.75089989  0.75383219  -0.00517628  1
  Nb5+  Nb91  1  0.49944584  0.25482908  0.75079440  1
  Nb5+  Nb92  1  0.00648748  0.75454217  0.74942942  1
  Nb5+  Nb93  1  0.74976744  0.00031756  0.75280724  1
  Nb5+  Nb94  1  0.50573882  0.75551318  0.75394007  1
  Nb5+  Nb95  1  0.25313620  0.50112625  0.74774403  1
  Nb5+  Nb96  1  0.00101724  -0.00024659  0.25094709  1
  Nb5+  Nb97  1  0.00818705  -0.00299532  0.74257205  1
  Nb5+  Nb98  1  -0.00406650  0.50413374  0.24301002  1
  Nb5+  Nb99  1  -0.00189809  0.49901233  0.75210581  1
  Nb5+  Nb100  1  0.49610398  -0.00323547  0.24266988  1
  Nb5+  Nb101  1  0.50409201  0.00734985  0.75323869  1
  Nb5+  Nb102  1  0.50570419  0.50171285  0.25728252  1
  Nb5+  Nb103  1  0.50265238  0.50336231  0.74590022  1
  Nb5+  Nb104  1  0.25197676  0.25023432  0.24623488  1
  Nb5+  Nb105  1  0.24533282  0.25054831  0.75511351  1
  Nb5+  Nb106  1  0.24923826  0.75090274  0.25385246  1
  Nb5+  Nb107  1  0.26253481  0.74945103  0.74642454  1
  Nb5+  Nb108  1  0.75241801  0.25363751  0.25956732  1
  Nb5+  Nb109  1  0.75317535  0.24839066  0.74776872  1
  Nb5+  Nb110  1  0.74603423  0.74897055  0.23765704  1
  Nb5+  Nb111  1  0.75274843  0.74834187  0.74888627  1
  Nb5+  Nb112  1  0.00204230  0.24667607  0.50275675  1
  Nb5+  Nb113  1  0.00553637  0.25218108  0.99330094  1
  Nb5+  Nb114  1  -0.00419196  0.75525227  0.49884380  1
  Nb5+  Nb115  1  0.00304336  0.74812692  1.00301496  1
  Nb5+  Nb116  1  0.49550923  0.25279766  0.49243912  1
  Nb5+  Nb117  1  0.50403627  0.24563571  1.00321606  1
  Nb5+  Nb118  1  0.50085876  0.74548223  0.50246891  1
  Nb5+  Nb119  1  0.50116049  0.74972444  0.99949186  1
  Nb5+  Nb120  1  0.24997437  -0.00262409  0.00061432  1
  Nb5+  Nb121  1  0.24363121  -0.00026750  0.50685320  1
  Nb5+  Nb122  1  0.24893386  0.50234948  0.00520833  1
  Nb5+  Nb123  1  0.25242828  0.50349520  0.49511475  1
  Nb5+  Nb124  1  0.74654832  0.00809923  -0.00186285  1
  Nb5+  Nb125  1  0.74771096  -0.00043423  0.49491786  1
  Nb5+  Nb126  1  0.75271518  0.50503995  -0.00898001  1
  Nb5+  Nb127  1  0.75072789  0.49606369  0.50857297  1
  O2-  O128  1  -0.01542068  0.01161146  0.13057881  1
  O2-  O129  1  -0.03754191  -0.00542087  0.63500375  1
  O2-  O130  1  -0.03159449  0.50548604  0.13089699  1
  O2-  O131  1  -0.01029591  0.50032309  0.62868779  1
  O2-  O132  1  0.47616335  -0.02394200  0.13158606  1
  O2-  O133  1  0.49184934  -0.01246629  0.63087902  1
  O2-  O134  1  0.48113083  0.48589350  0.11390184  1
  O2-  O135  1  0.46957931  0.48237267  0.63625134  1
  O2-  O136  1  0.00769346  -0.01633393  0.36983685  1
  O2-  O137  1  0.01338405  -0.01290408  0.86050790  1
  O2-  O138  1  0.01978425  0.51111187  0.38479799  1
  O2-  O139  1  0.03475919  0.50513510  0.86161271  1
  O2-  O140  1  0.51887582  0.01218970  0.38663051  1
  O2-  O141  1  0.53160698  0.01262860  0.86458429  1
  O2-  O142  1  0.53404632  0.51592363  0.36795479  1
  O2-  O143  1  0.51558186  0.50819585  0.86847460  1
  O2-  O144  1  0.21655044  0.23664073  0.12995088  1
  O2-  O145  1  0.23776556  0.24274027  0.63689455  1
  O2-  O146  1  0.21971932  0.73958308  0.13548000  1
  O2-  O147  1  0.22366921  0.72913416  0.63724599  1
  O2-  O148  1  0.72717238  0.23729590  0.11392625  1
  O2-  O149  1  0.72183896  0.23043597  0.63721177  1
  O2-  O150  1  0.72654697  0.73397267  0.12070964  1
  O2-  O151  1  0.72906695  0.74467501  0.63440270  1
  O2-  O152  1  0.28516910  0.26151179  0.36320577  1
  O2-  O153  1  0.28130791  0.27184448  0.86498175  1
  O2-  O154  1  0.28155657  0.76232860  0.37131637  1
  O2-  O155  1  0.26088430  0.76567843  0.86199252  1
  O2-  O156  1  0.77454377  0.27195616  0.37033136  1
  O2-  O157  1  0.76217173  0.25115340  0.87198235  1
  O2-  O158  1  0.76763218  0.76563793  0.38364939  1
  O2-  O159  1  0.76873082  0.76360273  0.87736363  1
  O2-  O160  1  0.00911762  0.24888683  0.11288223  1
  O2-  O161  1  0.02382622  0.27250562  0.61818239  1
  O2-  O162  1  0.01236696  0.73133380  0.11477880  1
  O2-  O163  1  0.00552814  0.75946191  0.62726630  1
  O2-  O164  1  0.52118914  0.27844305  0.11098718  1
  O2-  O165  1  0.51461916  0.26633789  0.63306307  1
  O2-  O166  1  0.51906437  0.77527803  0.11002706  1
  O2-  O167  1  0.51727417  0.76810260  0.63660867  1
  O2-  O168  1  0.24999075  -0.02330470  0.39006370  1
  O2-  O169  1  0.23119826  -0.01956535  0.87873052  1
  O2-  O170  1  0.23640613  0.47368821  0.38543448  1
  O2-  O171  1  0.24322528  0.48204577  0.86742476  1
  O2-  O172  1  0.73863304  -0.03441806  0.38667704  1
  O2-  O173  1  0.73309971  -0.01652119  0.87195730  1
  O2-  O174  1  0.74003194  0.48736017  0.39046887  1
  O2-  O175  1  0.72476731  0.47517321  0.88048906  1
  O2-  O176  1  -0.02776301  0.25156876  0.38836289  1
  O2-  O177  1  -0.03320191  0.25074555  0.88001723  1
  O2-  O178  1  -0.02751399  0.73638754  0.38816923  1
  O2-  O179  1  -0.01893830  0.75486544  0.86418695  1
  O2-  O180  1  0.48477057  0.21757590  0.38471276  1
  O2-  O181  1  0.49224545  0.23034980  0.87141950  1
  O2-  O182  1  0.49110154  0.72517359  0.39004903  1
  O2-  O183  1  0.49216326  0.71954701  0.86705619  1
  O2-  O184  1  0.25875464  0.01596285  0.11748705  1
  O2-  O185  1  0.26373190  0.03729132  0.61826897  1
  O2-  O186  1  0.26484846  0.53508517  0.11351605  1
  O2-  O187  1  0.26348342  0.52607156  0.63083912  1
  O2-  O188  1  0.76293517  0.01954284  0.11272918  1
  O2-  O189  1  0.75720821  0.00895269  0.63127744  1
  O2-  O190  1  0.76689499  0.51082916  0.10843296  1
  O2-  O191  1  0.76728704  0.53747721  0.61865390  1
  O2-  O192  1  0.13395986  0.27601135  0.27303012  1
  O2-  O193  1  0.13551667  0.28061973  0.76943507  1
  O2-  O194  1  0.13160227  0.77217336  0.27998403  1
  O2-  O195  1  0.12090246  0.77028928  0.76304052  1
  O2-  O196  1  0.63347897  0.27553570  0.26642154  1
  O2-  O197  1  0.62234845  0.26316068  0.76831372  1
  O2-  O198  1  0.63518400  0.77143898  0.27580806  1
  O2-  O199  1  0.62264037  0.76758689  0.76978099  1
  O2-  O200  1  0.36743427  0.23121366  0.21281986  1
  O2-  O201  1  0.38292302  0.23249488  0.73551729  1
  O2-  O202  1  0.36699176  0.72690806  0.22606769  1
  O2-  O203  1  0.37905258  0.72901039  0.73487565  1
  O2-  O204  1  0.86446180  0.22493489  0.23004753  1
  O2-  O205  1  0.86333155  0.21521722  0.73661457  1
  O2-  O206  1  0.86020909  0.72246131  0.24494339  1
  O2-  O207  1  0.86832395  0.73318277  0.73658649  1
  O2-  O208  1  0.27153808  0.36915675  0.22534077  1
  O2-  O209  1  0.27064584  0.38269956  0.73230232  1
  O2-  O210  1  0.26946298  0.86759571  0.23528310  1
  O2-  O211  1  0.27394199  0.86368706  0.72524984  1
  O2-  O212  1  0.76921018  0.36575879  0.22288934  1
  O2-  O213  1  0.77266812  0.36159396  0.73371564  1
  O2-  O214  1  0.76808282  0.86511221  0.22275044  1
  O2-  O215  1  0.76214212  0.87337219  0.74469558  1
  O2-  O216  1  0.22851762  0.13368806  0.26586187  1
  O2-  O217  1  0.23302309  0.13677032  0.77404070  1
  O2-  O218  1  0.22774434  0.63237575  0.27420655  1
  O2-  O219  1  0.24066655  0.62430219  0.76833971  1
  O2-  O220  1  0.72391998  0.13597646  0.26461109  1
  O2-  O221  1  0.72445264  0.11628285  0.76292777  1
  O2-  O222  1  0.72196209  0.63195989  0.25730079  1
  O2-  O223  1  0.72684392  0.63744399  0.77033273  1
  O2-  O224  1  0.11350320  0.47725914  0.22783365  1
  O2-  O225  1  0.13188125  0.48941440  0.73066973  1
  O2-  O226  1  0.11744993  0.97435493  0.23786302  1
  O2-  O227  1  0.11628644  0.96692098  0.72200997  1
  O2-  O228  1  0.61762675  0.47963987  0.22272124  1
  O2-  O229  1  0.61439307  0.47797505  0.72781510  1
  O2-  O230  1  0.61501205  0.97168690  0.24127632  1
  O2-  O231  1  0.62543772  0.97667608  0.73479774  1
  O2-  O232  1  0.38609613  0.03099837  0.26895846  1
  O2-  O233  1  0.38903864  0.01429641  0.76898635  1
  O2-  O234  1  0.38626146  0.52130064  0.26593751  1
  O2-  O235  1  0.37544215  0.51765353  0.76709356  1
  O2-  O236  1  0.87986427  0.02180356  0.26475503  1
  O2-  O237  1  0.86559152  0.01523161  0.76923392  1
  O2-  O238  1  0.88323336  0.52625545  0.27689407  1
  O2-  O239  1  0.88807676  0.53080656  0.76762649  1
  O2-  O240  1  0.48064486  0.38460543  0.26380299  1
  O2-  O241  1  0.48446590  0.37085220  0.76787607  1
  O2-  O242  1  0.47652079  0.88377772  0.27999479  1
  O2-  O243  1  0.48376825  0.86945649  0.76963616  1
  O2-  O244  1  0.97677367  0.38736683  0.26422230  1
  O2-  O245  1  0.97467432  0.38639910  0.75563875  1
  O2-  O246  1  0.96976380  0.88125394  0.23964989  1
  O2-  O247  1  0.97266270  0.87050909  0.74721295  1
  O2-  O248  1  0.02180968  0.11857723  0.26094291  1
  O2-  O249  1  0.03015812  0.11209481  0.74266872  1
  O2-  O250  1  0.02814646  0.61749277  0.25219970  1
  O2-  O251  1  0.01730916  0.63370731  0.74192151  1
  O2-  O252  1  0.52912152  0.11288407  0.23496452  1
  O2-  O253  1  0.51944062  0.12330459  0.73440042  1
  O2-  O254  1  0.51811111  0.61638880  0.22186796  1
  O2-  O255  1  0.51716752  0.62084218  0.73204056  1
  O2-  O256  1  0.13690450  0.47509903  0.01619020  1
  O2-  O257  1  0.11860231  0.48603107  0.52072476  1
  O2-  O258  1  0.13316900  0.96570614  0.01242192  1
  O2-  O259  1  0.13152252  0.97643266  0.52262374  1
  O2-  O260  1  0.62287645  0.48300792  0.01300481  1
  O2-  O261  1  0.63558403  0.48319262  0.52738031  1
  O2-  O262  1  0.63514178  0.97050359  0.01145063  1
  O2-  O263  1  0.62234748  0.97939721  0.51995118  1
  O2-  O264  1  0.36815415  0.02199877  -0.02513185  1
  O2-  O265  1  0.38410627  0.01486452  0.49577965  1
  O2-  O266  1  0.38493551  0.52000250  -0.02011452  1
  O2-  O267  1  0.36443259  0.53291254  0.48334815  1
  O2-  O268  1  0.86183038  0.00577882  -0.02383215  1
  O2-  O269  1  0.85940389  0.02870262  0.48975762  1
  O2-  O270  1  0.86409727  0.51091205  -0.03625350  1
  O2-  O271  1  0.87832402  0.52278107  0.49044519  1
  O2-  O272  1  0.49023658  0.37787574  -0.02403041  1
  O2-  O273  1  0.46984531  0.36542909  0.47687261  1
  O2-  O274  1  0.48817525  0.85875887  -0.03667424  1
  O2-  O275  1  0.48830406  0.87553198  0.49351725  1
  O2-  O276  1  0.96578426  0.36646983  -0.00154776  1
  O2-  O277  1  0.97775903  0.38686136  0.49561173  1
  O2-  O278  1  0.96246126  0.85852222  -0.00115497  1
  O2-  O279  1  0.95740421  0.86404057  0.49868096  1
  O2-  O280  1  0.01377856  0.13213768  -0.01290896  1
  O2-  O281  1  0.02606625  0.13345204  0.50787043  1
  O2-  O282  1  0.00160392  0.63432188  -0.02694045  1
  O2-  O283  1  0.00992986  0.62863607  0.51651978  1
  O2-  O284  1  0.53199287  0.13416583  0.01664764  1
  O2-  O285  1  0.51903420  0.12034197  0.52193456  1
  O2-  O286  1  0.52490398  0.62003059  0.00766502  1
  O2-  O287  1  0.52275153  0.63504259  0.53072229  1
  O2-  O288  1  0.11547094  0.27768739  -0.02604024  1
  O2-  O289  1  0.11649918  0.27655509  0.47735330  1
  O2-  O290  1  0.11364170  0.76796438  -0.02009544  1
  O2-  O291  1  0.10889838  0.77687912  0.48658460  1
  O2-  O292  1  0.62861393  0.26583847  -0.02551002  1
  O2-  O293  1  0.61308721  0.27595867  0.48952634  1
  O2-  O294  1  0.62933642  0.75562768  -0.02415553  1
  O2-  O295  1  0.62604552  0.77120277  0.49348960  1
  O2-  O296  1  0.38975188  0.22893523  0.01216893  1
  O2-  O297  1  0.38560059  0.22967501  0.52865577  1
  O2-  O298  1  0.38961054  0.72246294  0.01231153  1
  O2-  O299  1  0.38831928  0.73970525  0.53077224  1
  O2-  O300  1  0.86233925  0.22335673  0.01042473  1
  O2-  O301  1  0.88478608  0.23583543  0.53426272  1
  O2-  O302  1  0.86243759  0.72082817  0.01266042  1
  O2-  O303  1  0.86301249  0.73150816  0.52593586  1
  O2-  O304  1  0.28556941  0.38961414  0.01068661  1
  O2-  O305  1  0.26357334  0.39101065  0.53123688  1
  O2-  O306  1  0.28392977  0.87979127  0.01270420  1
  O2-  O307  1  0.27176449  0.88430654  0.53113760  1
  O2-  O308  1  0.76637047  0.36857753  0.00877474  1
  O2-  O309  1  0.77344125  0.38525772  0.52959548  1
  O2-  O310  1  0.76276875  0.86698006  0.01505649  1
  O2-  O311  1  0.75916268  0.87313862  0.52582131  1
  O2-  O312  1  0.22670153  0.11631821  -0.01545391  1
  O2-  O313  1  0.23062446  0.11773268  0.47822126  1
  O2-  O314  1  0.23877482  0.61376668  -0.03463222  1
  O2-  O315  1  0.21483813  0.61603648  0.48978985  1
  O2-  O316  1  0.72761006  0.12225746  -0.01868451  1
  O2-  O317  1  0.71477559  0.11121676  0.48638440  1
  O2-  O318  1  0.73064698  0.62083988  -0.01840387  1
  O2-  O319  1  0.72746559  0.63568686  0.48713398  1
