# generated using pymatgen
data_Sr64Ca21Nb43O192
_symmetry_space_group_name_H-M   'P 1'
_cell_length_a   16.55613833
_cell_length_b   16.55601923
_cell_length_c   16.72828883
_cell_angle_alpha   90.05489115
_cell_angle_beta   89.95913089
_cell_angle_gamma   90.08366866
_symmetry_Int_Tables_number   1
_chemical_formula_structural   Sr64Ca21Nb43O192
_chemical_formula_sum   'Sr64 Ca21 Nb43 O192'
_cell_volume   4585.27845468
_cell_formula_units_Z   1
loop_
 _symmetry_equiv_pos_site_id
 _symmetry_equiv_pos_as_xyz
  1  'x, y, z'
loop_
 _atom_type_symbol
 _atom_type_oxidation_number
  Sr2+  2.0
  Ca2+  2.0
  Nb5+  5.0
  O2-  -2.0
loop_
 _atom_site_type_symbol
 _atom_site_label
 _atom_site_symmetry_multiplicity
 _atom_site_fract_x
 _atom_site_fract_y
 _atom_site_fract_z
 _atom_site_occupancy
  Sr2+  Sr0  1  0.12723490  0.13600939  0.13048591  1
  Sr2+  Sr1  1  0.13434741  0.12652043  0.62672587  1
  Sr2+  Sr2  1  0.13540036  0.60775622  0.11547395  1
  Sr2+  Sr3  1  0.12864556  0.62089917  0.61937811  1
  Sr2+  Sr4  1  0.62980255  0.13189194  0.11172758  1
  Sr2+  Sr5  1  0.62847525  0.13941628  0.62778240  1
  Sr2+  Sr6  1  0.62246558  0.61048621  0.13171186  1
  Sr2+  Sr7  1  0.63122801  0.61923385  0.62524418  1
  Sr2+  Sr8  1  0.37849349  0.38796538  0.12794357  1
  Sr2+  Sr9  1  0.39024576  0.36783125  0.62473778  1
  Sr2+  Sr10  1  0.38468142  0.86824163  0.12089458  1
  Sr2+  Sr11  1  0.37904139  0.87447591  0.62475357  1
  Sr2+  Sr12  1  0.88417603  0.37347571  0.12557986  1
  Sr2+  Sr13  1  0.87810483  0.38911415  0.62784291  1
  Sr2+  Sr14  1  0.88465325  0.87978899  0.12454971  1
  Sr2+  Sr15  1  0.88448261  0.87435341  0.61385897  1
  Sr2+  Sr16  1  0.11957233  0.38034342  0.36849316  1
  Sr2+  Sr17  1  0.13267248  0.37335988  0.88733970  1
  Sr2+  Sr18  1  0.13275035  0.87866874  0.37216650  1
  Sr2+  Sr19  1  0.11393969  0.87696402  0.87472987  1
  Sr2+  Sr20  1  0.62495380  0.37527743  0.37292938  1
  Sr2+  Sr21  1  0.61791889  0.38133981  0.86977895  1
  Sr2+  Sr22  1  0.63205324  0.87466279  0.37626362  1
  Sr2+  Sr23  1  0.63747534  0.87545339  0.87297810  1
  Sr2+  Sr24  1  0.36058405  0.11129050  0.37516661  1
  Sr2+  Sr25  1  0.36288211  0.12310923  0.86739084  1
  Sr2+  Sr26  1  0.37325541  0.62745221  0.37030867  1
  Sr2+  Sr27  1  0.35605381  0.62204683  0.87411540  1
  Sr2+  Sr28  1  0.87328705  0.13062552  0.37081182  1
  Sr2+  Sr29  1  0.87386783  0.11989966  0.87848965  1
  Sr2+  Sr30  1  0.87217518  0.62253961  0.37133767  1
  Sr2+  Sr31  1  0.87044730  0.62651107  0.87086743  1
  Sr2+  Sr32  1  0.11525132  0.12985508  0.37655007  1
  Sr2+  Sr33  1  0.12262567  0.11711286  0.86568840  1
  Sr2+  Sr34  1  0.11965417  0.62486258  0.37957494  1
  Sr2+  Sr35  1  0.11057847  0.63542947  0.87314716  1
  Sr2+  Sr36  1  0.62353755  0.11071778  0.37426391  1
  Sr2+  Sr37  1  0.61669737  0.12198191  0.87308382  1
  Sr2+  Sr38  1  0.61578467  0.64134592  0.37491011  1
  Sr2+  Sr39  1  0.61804772  0.62027404  0.86689149  1
  Sr2+  Sr40  1  0.36009664  0.36576088  0.37503391  1
  Sr2+  Sr41  1  0.36826215  0.36731754  0.87079825  1
  Sr2+  Sr42  1  0.37816662  0.86900145  0.36713396  1
  Sr2+  Sr43  1  0.37056550  0.87887842  0.87787817  1
  Sr2+  Sr44  1  0.86983955  0.37270200  0.36274522  1
  Sr2+  Sr45  1  0.86292234  0.38581753  0.88260109  1
  Sr2+  Sr46  1  0.86487018  0.86918266  0.36992522  1
  Sr2+  Sr47  1  0.87678567  0.86844972  0.88373853  1
  Sr2+  Sr48  1  0.14432716  0.37416832  0.12742929  1
  Sr2+  Sr49  1  0.13181062  0.38665282  0.62304481  1
  Sr2+  Sr50  1  0.12579268  0.87729622  0.12103429  1
  Sr2+  Sr51  1  0.13446093  0.87202979  0.62830846  1
  Sr2+  Sr52  1  0.63339582  0.37926749  0.12228325  1
  Sr2+  Sr53  1  0.63189593  0.37886468  0.62629729  1
  Sr2+  Sr54  1  0.63671752  0.87462357  0.11645481  1
  Sr2+  Sr55  1  0.63310703  0.87587388  0.62212432  1
  Sr2+  Sr56  1  0.38385559  0.12763253  0.12152059  1
  Sr2+  Sr57  1  0.38262408  0.12488002  0.62596085  1
  Sr2+  Sr58  1  0.38001904  0.61910202  0.12808679  1
  Sr2+  Sr59  1  0.36846192  0.62153134  0.61948094  1
  Sr2+  Sr60  1  0.89246971  0.12970286  0.12513624  1
  Sr2+  Sr61  1  0.88682034  0.14044111  0.62494508  1
  Sr2+  Sr62  1  0.88613008  0.61665610  0.12189448  1
  Sr2+  Sr63  1  0.89346240  0.62058005  0.62606579  1
  Ca2+  Ca64  1  0.00066993  0.49846295  -0.00305877  1
  Ca2+  Ca65  1  0.49895304  0.49943376  0.49774797  1
  Ca2+  Ca66  1  -0.00161098  -0.00000349  0.50027922  1
  Ca2+  Ca67  1  -0.00158334  0.49891303  0.49806673  1
  Ca2+  Ca68  1  0.49980145  0.50073644  -0.00233489  1
  Ca2+  Ca69  1  0.24993395  0.74843319  0.00083125  1
  Ca2+  Ca70  1  0.75218703  0.24974543  -0.00247891  1
  Ca2+  Ca71  1  0.24944987  0.24847184  0.49947133  1
  Ca2+  Ca72  1  0.74587879  0.74617005  0.00072127  1
  Ca2+  Ca73  1  0.25307766  0.24550128  0.00160966  1
  Ca2+  Ca74  1  0.75005128  0.00234566  0.74848978  1
  Ca2+  Ca75  1  0.24902393  0.49841988  0.74994650  1
  Ca2+  Ca76  1  0.74979331  0.00224082  0.24830829  1
  Ca2+  Ca77  1  -0.00107031  0.75258972  0.74735437  1
  Ca2+  Ca78  1  0.75175554  0.50006790  0.25141406  1
  Ca2+  Ca79  1  0.25145938  -0.00073377  0.24780227  1
  Ca2+  Ca80  1  0.49675189  0.75174509  0.74759170  1
  Ca2+  Ca81  1  0.00066595  0.75078897  0.24910854  1
  Ca2+  Ca82  1  0.25219059  0.50161748  0.25246258  1
  Ca2+  Ca83  1  0.00055061  0.25626842  0.75205407  1
  Ca2+  Ca84  1  0.50236142  0.24793384  0.25196684  1
  Nb5+  Nb85  1  0.49798206  -0.00014255  0.49408816  1
  Nb5+  Nb86  1  0.50228378  -0.00087508  -0.00868639  1
  Nb5+  Nb87  1  0.00746941  0.00236017  0.00137281  1
  Nb5+  Nb88  1  0.75281193  0.75078092  0.50278275  1
  Nb5+  Nb89  1  0.75215350  0.25724528  0.50165814  1
  Nb5+  Nb90  1  0.25287473  0.75082523  0.49982842  1
  Nb5+  Nb91  1  0.00191778  0.25234445  0.24992259  1
  Nb5+  Nb92  1  0.25008875  -0.00166526  0.75026550  1
  Nb5+  Nb93  1  0.50284459  0.75234805  0.24577694  1
  Nb5+  Nb94  1  0.50104927  0.24966761  0.75086420  1
  Nb5+  Nb95  1  0.74805082  0.50168846  0.74815999  1
  Nb5+  Nb96  1  -0.00201632  -0.00043984  0.25498508  1
  Nb5+  Nb97  1  -0.00342137  0.00151379  0.74519552  1
  Nb5+  Nb98  1  0.00454412  0.50724532  0.24598132  1
  Nb5+  Nb99  1  0.00605099  0.49581307  0.75387301  1
  Nb5+  Nb100  1  0.50436853  0.00019517  0.23703859  1
  Nb5+  Nb101  1  0.49960556  -0.00277249  0.74532916  1
  Nb5+  Nb102  1  0.49982774  0.49454210  0.25686166  1
  Nb5+  Nb103  1  0.49808689  0.50556173  0.74570325  1
  Nb5+  Nb104  1  0.25654327  0.24477633  0.25467055  1
  Nb5+  Nb105  1  0.24970249  0.25363226  0.74253835  1
  Nb5+  Nb106  1  0.24695345  0.74941294  0.24655083  1
  Nb5+  Nb107  1  0.24955491  0.74882547  0.75166220  1
  Nb5+  Nb108  1  0.75038870  0.24676541  0.24384150  1
  Nb5+  Nb109  1  0.75293977  0.25097823  0.75337665  1
  Nb5+  Nb110  1  0.74804696  0.74312055  0.24472520  1
  Nb5+  Nb111  1  0.75198222  0.75535229  0.74699539  1
  Nb5+  Nb112  1  0.00117176  0.25752748  0.50314811  1
  Nb5+  Nb113  1  0.00231891  0.25016613  0.99524018  1
  Nb5+  Nb114  1  0.00679559  0.75371335  0.49690943  1
  Nb5+  Nb115  1  0.00045441  0.74803683  1.00558729  1
  Nb5+  Nb116  1  0.50127183  0.24543828  0.49458874  1
  Nb5+  Nb117  1  0.49435819  0.25445293  1.00213524  1
  Nb5+  Nb118  1  0.50237170  0.75203179  0.50325249  1
  Nb5+  Nb119  1  0.50012167  0.74570631  0.99545118  1
  Nb5+  Nb120  1  0.25418563  0.00463256  0.00458487  1
  Nb5+  Nb121  1  0.24754803  -0.00402266  0.50053000  1
  Nb5+  Nb122  1  0.25460450  0.49859776  -0.00247053  1
  Nb5+  Nb123  1  0.25436332  0.49367614  0.50026480  1
  Nb5+  Nb124  1  0.75821284  0.00093939  0.00035012  1
  Nb5+  Nb125  1  0.74913530  0.00858200  0.50549894  1
  Nb5+  Nb126  1  0.74846020  0.50389354  0.00311257  1
  Nb5+  Nb127  1  0.74721692  0.50493752  0.49763462  1
  O2-  O128  1  0.00765796  -0.01422721  0.12049506  1
  O2-  O129  1  0.00884872  -0.02774128  0.63571782  1
  O2-  O130  1  -0.01715021  0.48510385  0.13057649  1
  O2-  O131  1  0.00251196  0.47611691  0.63469179  1
  O2-  O132  1  0.51019074  -0.02409639  0.12340271  1
  O2-  O133  1  0.50569607  -0.01709183  0.62996283  1
  O2-  O134  1  0.49720731  0.48987573  0.13518512  1
  O2-  O135  1  0.49884324  0.47275746  0.63222976  1
  O2-  O136  1  -0.00698807  0.02815044  0.36674012  1
  O2-  O137  1  -0.00335490  0.02583520  0.88249311  1
  O2-  O138  1  0.01054560  0.51831240  0.36491466  1
  O2-  O139  1  -0.00364151  0.53317637  0.86570526  1
  O2-  O140  1  0.48541224  0.01966693  0.38166856  1
  O2-  O141  1  0.48489350  0.02090744  0.87828108  1
  O2-  O142  1  0.51382892  0.53134104  0.36751281  1
  O2-  O143  1  0.51320525  0.50505399  0.86207904  1
  O2-  O144  1  0.25958552  0.21634074  0.13855682  1
  O2-  O145  1  0.26410525  0.21626718  0.63086100  1
  O2-  O146  1  0.23970634  0.71984797  0.13684643  1
  O2-  O147  1  0.22752862  0.73896418  0.61826713  1
  O2-  O148  1  0.76138849  0.21612507  0.13452757  1
  O2-  O149  1  0.75862324  0.23179410  0.62481378  1
  O2-  O150  1  0.71829870  0.72941960  0.13599649  1
  O2-  O151  1  0.72894914  0.73214666  0.61867785  1
  O2-  O152  1  0.23278215  0.27818313  0.36848053  1
  O2-  O153  1  0.24728446  0.26735061  0.86085545  1
  O2-  O154  1  0.25823772  0.77732944  0.38438476  1
  O2-  O155  1  0.27548896  0.76428233  0.86347508  1
  O2-  O156  1  0.74308939  0.27566332  0.38515737  1
  O2-  O157  1  0.74037079  0.28188893  0.86370218  1
  O2-  O158  1  0.75462292  0.76194631  0.38409939  1
  O2-  O159  1  0.76281529  0.76755039  0.86201239  1
  O2-  O160  1  -0.01465546  0.25806345  0.13088102  1
  O2-  O161  1  -0.02415965  0.27017930  0.61562664  1
  O2-  O162  1  0.00576455  0.78675969  0.11799154  1
  O2-  O163  1  0.00351922  0.78112511  0.61332241  1
  O2-  O164  1  0.47610230  0.26469796  0.11622008  1
  O2-  O165  1  0.49218471  0.25270953  0.62465977  1
  O2-  O166  1  0.51615183  0.77259858  0.13299491  1
  O2-  O167  1  0.50640948  0.78621372  0.61348516  1
  O2-  O168  1  0.26805583  -0.02511013  0.38793141  1
  O2-  O169  1  0.26101269  -0.01869645  0.86887692  1
  O2-  O170  1  0.25028561  0.47399562  0.38409120  1
  O2-  O171  1  0.25746683  0.46834976  0.88137956  1
  O2-  O172  1  0.75906849  -0.02146792  0.39157383  1
  O2-  O173  1  0.76224990  -0.02924264  0.88363903  1
  O2-  O174  1  0.75564322  0.47489218  0.38722861  1
  O2-  O175  1  0.74414050  0.47957924  0.86433675  1
  O2-  O176  1  0.00681275  0.23516891  0.37297071  1
  O2-  O177  1  0.02440220  0.23017227  0.88479863  1
  O2-  O178  1  -0.01083255  0.72113116  0.38348576  1
  O2-  O179  1  -0.01291569  0.73749799  0.88576772  1
  O2-  O180  1  0.53422145  0.22984707  0.38612413  1
  O2-  O181  1  0.51429482  0.23647379  0.86868725  1
  O2-  O182  1  0.48748606  0.74267736  0.38090129  1
  O2-  O183  1  0.47694263  0.72782602  0.88456587  1
  O2-  O184  1  0.23995241  0.02991178  0.11449514  1
  O2-  O185  1  0.24218155  0.01297246  0.62798954  1
  O2-  O186  1  0.25924426  0.52125011  0.11733518  1
  O2-  O187  1  0.24669154  0.52487704  0.61728134  1
  O2-  O188  1  0.72449703  0.01746027  0.11312384  1
  O2-  O189  1  0.71147117  0.00818052  0.61605066  1
  O2-  O190  1  0.75204679  0.52988523  0.11570238  1
  O2-  O191  1  0.74081891  0.51008365  0.62558505  1
  O2-  O192  1  0.12093048  0.26357122  0.23983619  1
  O2-  O193  1  0.13571107  0.26711020  0.72759865  1
  O2-  O194  1  0.13596089  0.77796245  0.26094494  1
  O2-  O195  1  0.13528311  0.78134293  0.75700563  1
  O2-  O196  1  0.63702669  0.27239632  0.23648480  1
  O2-  O197  1  0.61973242  0.26824999  0.73567915  1
  O2-  O198  1  0.61996462  0.76730118  0.27297544  1
  O2-  O199  1  0.63279569  0.76888260  0.75665194  1
  O2-  O200  1  0.36930182  0.22748977  0.27804023  1
  O2-  O201  1  0.38076165  0.23019066  0.75565618  1
  O2-  O202  1  0.38268669  0.73438331  0.24651176  1
  O2-  O203  1  0.36244153  0.73751573  0.71653634  1
  O2-  O204  1  0.87919081  0.23356068  0.26245963  1
  O2-  O205  1  0.86496898  0.22430539  0.76104790  1
  O2-  O206  1  0.86262229  0.72119829  0.24058585  1
  O2-  O207  1  0.86375018  0.71956160  0.73396777  1
  O2-  O208  1  0.27061399  0.36225689  0.22758466  1
  O2-  O209  1  0.27721818  0.36411784  0.72151030  1
  O2-  O210  1  0.27940848  0.86390868  0.23312661  1
  O2-  O211  1  0.26936007  0.88126734  0.73087525  1
  O2-  O212  1  0.77794664  0.36293469  0.23419689  1
  O2-  O213  1  0.76178677  0.37451120  0.72623584  1
  O2-  O214  1  0.76399504  0.86219205  0.24071963  1
  O2-  O215  1  0.77108860  0.86583713  0.71822951  1
  O2-  O216  1  0.22908775  0.13056403  0.28367109  1
  O2-  O217  1  0.23757928  0.12021125  0.76496040  1
  O2-  O218  1  0.24114420  0.63887257  0.28822273  1
  O2-  O219  1  0.22657779  0.63575728  0.76684546  1
  O2-  O220  1  0.74165246  0.13701345  0.28813279  1
  O2-  O221  1  0.71964770  0.13868512  0.76504412  1
  O2-  O222  1  0.72554703  0.63224350  0.28016541  1
  O2-  O223  1  0.72535545  0.61927520  0.75937933  1
  O2-  O224  1  0.11885370  0.47243792  0.24013347  1
  O2-  O225  1  0.11680884  0.46238590  0.76135382  1
  O2-  O226  1  0.11541335  0.97772161  0.25108771  1
  O2-  O227  1  0.13097413  0.98535385  0.75934602  1
  O2-  O228  1  0.61872798  0.47480047  0.24347476  1
  O2-  O229  1  0.62590111  0.47854445  0.74439359  1
  O2-  O230  1  0.61440067  0.98348653  0.27569684  1
  O2-  O231  1  0.61208974  0.98607628  0.77013896  1
  O2-  O232  1  0.38853101  0.02211302  0.24362185  1
  O2-  O233  1  0.37444631  0.02165113  0.74257220  1
  O2-  O234  1  0.38597357  0.52855573  0.25361078  1
  O2-  O235  1  0.38377180  0.52652062  0.75103046  1
  O2-  O236  1  0.88332738  0.02135119  0.22935477  1
  O2-  O237  1  0.88430231  0.02961974  0.74189571  1
  O2-  O238  1  0.88510271  0.52135250  0.25857147  1
  O2-  O239  1  0.86589663  0.51931530  0.74435823  1
  O2-  O240  1  0.47662359  0.38321003  0.27979025  1
  O2-  O241  1  0.48017594  0.36737681  0.76087938  1
  O2-  O242  1  0.48365669  0.87592940  0.26141824  1
  O2-  O243  1  0.47364730  0.88713193  0.76986003  1
  O2-  O244  1  0.98519251  0.36957775  0.26392347  1
  O2-  O245  1  0.96347213  0.38640490  0.77470742  1
  O2-  O246  1  0.97283559  0.88616454  0.26857188  1
  O2-  O247  1  0.98583645  0.88976702  0.78281814  1
  O2-  O248  1  0.01753839  0.12818010  0.23568508  1
  O2-  O249  1  0.02848066  0.11664947  0.73396181  1
  O2-  O250  1  0.02976928  0.61854289  0.22442969  1
  O2-  O251  1  0.02131622  0.61490046  0.72634936  1
  O2-  O252  1  0.52748320  0.11462839  0.22355348  1
  O2-  O253  1  0.51460438  0.12422118  0.73798312  1
  O2-  O254  1  0.52110301  0.63533546  0.23728617  1
  O2-  O255  1  0.52493368  0.61696566  0.72957490  1
  O2-  O256  1  0.13485492  0.47352435  0.00800004  1
  O2-  O257  1  0.13462142  0.48773447  0.50166021  1
  O2-  O258  1  0.12411260  0.98341110  -0.00797774  1
  O2-  O259  1  0.13366113  0.97290563  0.49625331  1
  O2-  O260  1  0.63361779  0.46885710  -0.00116348  1
  O2-  O261  1  0.63352418  0.47106448  0.50277643  1
  O2-  O262  1  0.61726506  0.98264940  -0.01680757  1
  O2-  O263  1  0.61635253  0.98066715  0.48673760  1
  O2-  O264  1  0.37299898  0.01798637  0.00795349  1
  O2-  O265  1  0.37703562  0.01302894  0.51745595  1
  O2-  O266  1  0.36984002  0.53549401  -0.00585532  1
  O2-  O267  1  0.36628602  0.53447692  0.49404272  1
  O2-  O268  1  0.87490485  0.01962106  0.01071817  1
  O2-  O269  1  0.86113621  0.01395882  0.53175637  1
  O2-  O270  1  0.86436995  0.52147772  -0.01762705  1
  O2-  O271  1  0.86312335  0.51980588  0.51238412  1
  O2-  O272  1  0.47593272  0.36437913  -0.02203887  1
  O2-  O273  1  0.48089610  0.35923681  0.48435577  1
  O2-  O274  1  0.47298843  0.88286865  -0.01196915  1
  O2-  O275  1  0.47945328  0.88077841  0.48376604  1
  O2-  O276  1  0.97825375  0.36265026  -0.01697865  1
  O2-  O277  1  0.96574325  0.36559891  0.47472209  1
  O2-  O278  1  0.98149264  0.88640082  -0.01485984  1
  O2-  O279  1  0.96954735  0.86558913  0.47420655  1
  O2-  O280  1  0.01869258  0.12101708  0.02257541  1
  O2-  O281  1  0.01713567  0.13754538  0.51723542  1
  O2-  O282  1  0.02020278  0.63574665  0.02509569  1
  O2-  O283  1  0.01337903  0.63744657  0.52477329  1
  O2-  O284  1  0.51340909  0.11492386  0.01961277  1
  O2-  O285  1  0.51892546  0.11675313  0.52066542  1
  O2-  O286  1  0.52969908  0.63724873  0.01800461  1
  O2-  O287  1  0.51251738  0.63921083  0.52542756  1
  O2-  O288  1  0.11744359  0.26398654  0.02421765  1
  O2-  O289  1  0.11377896  0.28284896  0.51017493  1
  O2-  O290  1  0.11647494  0.77702695  -0.01127773  1
  O2-  O291  1  0.12287820  0.77251347  0.48563885  1
  O2-  O292  1  0.61321080  0.25547041  0.01359021  1
  O2-  O293  1  0.63032111  0.25888616  0.51958541  1
  O2-  O294  1  0.61037118  0.78734993  -0.01046298  1
  O2-  O295  1  0.62021746  0.76572849  0.48848041  1
  O2-  O296  1  0.38575256  0.21453596  -0.01759040  1
  O2-  O297  1  0.38857638  0.21893226  0.48397821  1
  O2-  O298  1  0.38751229  0.74240245  0.03229708  1
  O2-  O299  1  0.37130743  0.73941804  0.51072726  1
  O2-  O300  1  0.88705069  0.21865252  -0.00644684  1
  O2-  O301  1  0.86601499  0.22251200  0.49172397  1
  O2-  O302  1  0.88069826  0.73720321  0.01681745  1
  O2-  O303  1  0.86609631  0.73133666  0.51161768  1
  O2-  O304  1  0.27813476  0.38027426  0.02073920  1
  O2-  O305  1  0.27972948  0.38285669  0.52422566  1
  O2-  O306  1  0.26366585  0.88691678  0.01771248  1
  O2-  O307  1  0.26406238  0.87330780  0.52688207  1
  O2-  O308  1  0.77405507  0.38402374  0.02184506  1
  O2-  O309  1  0.76781583  0.36999363  0.52329981  1
  O2-  O310  1  0.76346840  0.88331626  0.02541230  1
  O2-  O311  1  0.75779599  0.86800999  0.51997459  1
  O2-  O312  1  0.23308202  0.11303057  -0.03525350  1
  O2-  O313  1  0.23105005  0.11095889  0.48410828  1
  O2-  O314  1  0.22303462  0.61495271  -0.02959905  1
  O2-  O315  1  0.23107038  0.63615318  0.48342418  1
  O2-  O316  1  0.73229595  0.11325143  -0.03050325  1
  O2-  O317  1  0.72979359  0.12195493  0.48600914  1
  O2-  O318  1  0.72270529  0.61510251  -0.03110858  1
  O2-  O319  1  0.72512418  0.62223391  0.48664682  1
