# generated using pymatgen
data_Sr64Ca21Nb43O192
_symmetry_space_group_name_H-M   'P 1'
_cell_length_a   16.60233552
_cell_length_b   16.60301917
_cell_length_c   16.75232153
_cell_angle_alpha   89.99898976
_cell_angle_beta   89.99155351
_cell_angle_gamma   89.98043857
_symmetry_Int_Tables_number   1
_chemical_formula_structural   Sr64Ca21Nb43O192
_chemical_formula_sum   'Sr64 Ca21 Nb43 O192'
_cell_volume   4617.75859686
_cell_formula_units_Z   1
loop_
 _symmetry_equiv_pos_site_id
 _symmetry_equiv_pos_as_xyz
  1  'x, y, z'
loop_
 _atom_type_symbol
 _atom_type_oxidation_number
  Sr2+  2.0
  Ca2+  2.0
  Nb5+  5.0
  O2-  -2.0
loop_
 _atom_site_type_symbol
 _atom_site_label
 _atom_site_symmetry_multiplicity
 _atom_site_fract_x
 _atom_site_fract_y
 _atom_site_fract_z
 _atom_site_occupancy
  Sr2+  Sr0  1  0.12425051  0.12696379  0.15622211  1
  Sr2+  Sr1  1  0.13350848  0.12181436  0.61630837  1
  Sr2+  Sr2  1  0.11434714  0.61189044  0.13116493  1
  Sr2+  Sr3  1  0.11940949  0.61757560  0.62528716  1
  Sr2+  Sr4  1  0.62949316  0.13456768  0.12524223  1
  Sr2+  Sr5  1  0.62551049  0.12733737  0.62690817  1
  Sr2+  Sr6  1  0.62517509  0.62924769  0.12940173  1
  Sr2+  Sr7  1  0.63568036  0.60464641  0.62060753  1
  Sr2+  Sr8  1  0.37442263  0.38536365  0.12597934  1
  Sr2+  Sr9  1  0.38616262  0.36248768  0.62718193  1
  Sr2+  Sr10  1  0.38720940  0.88437074  0.12900372  1
  Sr2+  Sr11  1  0.37475428  0.88287620  0.62737970  1
  Sr2+  Sr12  1  0.86618166  0.36362319  0.12804604  1
  Sr2+  Sr13  1  0.86558387  0.37184532  0.61651920  1
  Sr2+  Sr14  1  0.86494015  0.89031268  0.12228374  1
  Sr2+  Sr15  1  0.87546662  0.86606569  0.63413122  1
  Sr2+  Sr16  1  0.12593607  0.37449545  0.36855598  1
  Sr2+  Sr17  1  0.12927904  0.38030994  0.86899827  1
  Sr2+  Sr18  1  0.12426545  0.87671673  0.36900638  1
  Sr2+  Sr19  1  0.12536700  0.86662777  0.87070600  1
  Sr2+  Sr20  1  0.62401152  0.38152402  0.38743478  1
  Sr2+  Sr21  1  0.62122879  0.38111780  0.87260228  1
  Sr2+  Sr22  1  0.61639396  0.87130731  0.37632537  1
  Sr2+  Sr23  1  0.63628620  0.87057695  0.87375009  1
  Sr2+  Sr24  1  0.36095029  0.13086284  0.37805443  1
  Sr2+  Sr25  1  0.36926618  0.12850268  0.87643183  1
  Sr2+  Sr26  1  0.35863217  0.63115225  0.37355608  1
  Sr2+  Sr27  1  0.35886079  0.62287052  0.87985342  1
  Sr2+  Sr28  1  0.89775945  0.12547442  0.38035479  1
  Sr2+  Sr29  1  0.88290445  0.13313604  0.87562331  1
  Sr2+  Sr30  1  0.89296339  0.62598875  0.37350677  1
  Sr2+  Sr31  1  0.89102536  0.63136436  0.87297016  1
  Sr2+  Sr32  1  0.12565943  0.14932778  0.37606108  1
  Sr2+  Sr33  1  0.12914791  0.13517141  0.87523026  1
  Sr2+  Sr34  1  0.12627130  0.60114392  0.38218756  1
  Sr2+  Sr35  1  0.12371598  0.60382077  0.87181144  1
  Sr2+  Sr36  1  0.61844018  0.12941707  0.38125006  1
  Sr2+  Sr37  1  0.62336895  0.13356325  0.87482397  1
  Sr2+  Sr38  1  0.63006136  0.62520529  0.37321370  1
  Sr2+  Sr39  1  0.62636523  0.62580981  0.87734191  1
  Sr2+  Sr40  1  0.36288036  0.38967174  0.37113177  1
  Sr2+  Sr41  1  0.36883018  0.38893308  0.87840219  1
  Sr2+  Sr42  1  0.37164120  0.86211659  0.37348475  1
  Sr2+  Sr43  1  0.37158088  0.87268163  0.88305127  1
  Sr2+  Sr44  1  0.87708718  0.38879188  0.37537310  1
  Sr2+  Sr45  1  0.87706018  0.38538932  0.87882974  1
  Sr2+  Sr46  1  0.87350797  0.87175544  0.35198989  1
  Sr2+  Sr47  1  0.87606066  0.86629904  0.87643360  1
  Sr2+  Sr48  1  0.11787182  0.36321784  0.13630432  1
  Sr2+  Sr49  1  0.11459495  0.37096590  0.62041297  1
  Sr2+  Sr50  1  0.10742384  0.89096198  0.12787249  1
  Sr2+  Sr51  1  0.12422857  0.87985354  0.62602103  1
  Sr2+  Sr52  1  0.63015390  0.37798974  0.13074868  1
  Sr2+  Sr53  1  0.62601253  0.36383191  0.62459867  1
  Sr2+  Sr54  1  0.62826837  0.87555873  0.13178789  1
  Sr2+  Sr55  1  0.63526593  0.88327876  0.62461408  1
  Sr2+  Sr56  1  0.36052459  0.12463287  0.12353885  1
  Sr2+  Sr57  1  0.37924073  0.12344174  0.62839618  1
  Sr2+  Sr58  1  0.38563053  0.62549921  0.12940259  1
  Sr2+  Sr59  1  0.37669625  0.63639479  0.61190447  1
  Sr2+  Sr60  1  0.89848775  0.12444773  0.11654379  1
  Sr2+  Sr61  1  0.90491097  0.12238181  0.62571980  1
  Sr2+  Sr62  1  0.86798200  0.62674840  0.13847552  1
  Sr2+  Sr63  1  0.87063904  0.62386493  0.61013550  1
  Ca2+  Ca64  1  -0.00445717  0.49995358  0.00240512  1
  Ca2+  Ca65  1  0.49815947  0.50176026  0.50125911  1
  Ca2+  Ca66  1  -0.00079448  -0.00068188  -0.00533537  1
  Ca2+  Ca67  1  0.00039553  0.50094347  0.50284557  1
  Ca2+  Ca68  1  0.00218350  -0.00495310  0.49871989  1
  Ca2+  Ca69  1  0.74701613  0.75404009  0.50081443  1
  Ca2+  Ca70  1  0.75300314  0.24235715  0.50219204  1
  Ca2+  Ca71  1  0.25178625  0.25155008  0.50339872  1
  Ca2+  Ca72  1  0.24905256  0.75006536  0.00297832  1
  Ca2+  Ca73  1  0.25273183  0.25010849  0.00036937  1
  Ca2+  Ca74  1  0.24986976  0.50564009  0.24757580  1
  Ca2+  Ca75  1  0.00297567  0.75017816  0.24833994  1
  Ca2+  Ca76  1  0.00082252  0.25001236  0.74966646  1
  Ca2+  Ca77  1  0.25293017  -0.00360769  0.25145882  1
  Ca2+  Ca78  1  0.74857796  0.49803763  0.25014411  1
  Ca2+  Ca79  1  0.75099316  0.49681797  0.75244523  1
  Ca2+  Ca80  1  0.50316519  0.25265712  0.24962634  1
  Ca2+  Ca81  1  0.74524359  0.00696551  0.24959524  1
  Ca2+  Ca82  1  0.25376951  0.50087636  0.74441734  1
  Ca2+  Ca83  1  0.50278828  0.75109489  0.74997183  1
  Ca2+  Ca84  1  -0.00894232  0.25235453  0.25062540  1
  Nb5+  Nb85  1  0.50516747  0.00667831  0.00482754  1
  Nb5+  Nb86  1  0.50306185  0.50733527  -0.00038133  1
  Nb5+  Nb87  1  0.50014775  -0.00263820  0.50690789  1
  Nb5+  Nb88  1  0.75149843  0.75266374  0.00205826  1
  Nb5+  Nb89  1  0.74808207  0.25496544  -0.00284956  1
  Nb5+  Nb90  1  0.24481394  0.75422371  0.49883557  1
  Nb5+  Nb91  1  0.49874226  0.75015569  0.25194704  1
  Nb5+  Nb92  1  0.00335818  0.74970426  0.74987151  1
  Nb5+  Nb93  1  0.25516354  -0.00124717  0.75086608  1
  Nb5+  Nb94  1  0.75699038  0.00285666  0.74927966  1
  Nb5+  Nb95  1  0.49881635  0.24901604  0.75370056  1
  Nb5+  Nb96  1  -0.00400348  -0.00022879  0.25014028  1
  Nb5+  Nb97  1  0.01029385  -0.00211783  0.75433690  1
  Nb5+  Nb98  1  -0.00197847  0.50073723  0.24787215  1
  Nb5+  Nb99  1  -0.00413083  0.49366912  0.74626691  1
  Nb5+  Nb100  1  0.50127210  0.00575437  0.25866581  1
  Nb5+  Nb101  1  0.50265448  -0.00224759  0.75893616  1
  Nb5+  Nb102  1  0.50081390  0.50108397  0.25442601  1
  Nb5+  Nb103  1  0.50112102  0.50400121  0.74825190  1
  Nb5+  Nb104  1  0.25608624  0.25169022  0.24948739  1
  Nb5+  Nb105  1  0.25270201  0.25361403  0.74967142  1
  Nb5+  Nb106  1  0.24538055  0.75097347  0.24192203  1
  Nb5+  Nb107  1  0.25322386  0.74748787  0.74903567  1
  Nb5+  Nb108  1  0.75262658  0.24823579  0.26228072  1
  Nb5+  Nb109  1  0.75403226  0.24502721  0.75119466  1
  Nb5+  Nb110  1  0.74868460  0.75217461  0.25306354  1
  Nb5+  Nb111  1  0.74830242  0.74638655  0.74902303  1
  Nb5+  Nb112  1  0.00009192  0.25335925  0.50282273  1
  Nb5+  Nb113  1  0.00467741  0.25380415  0.99392240  1
  Nb5+  Nb114  1  -0.00282367  0.75522267  0.49764005  1
  Nb5+  Nb115  1  0.00365464  0.75041581  1.00422164  1
  Nb5+  Nb116  1  0.49581243  0.24910828  0.49352084  1
  Nb5+  Nb117  1  0.50239890  0.25575071  0.99985103  1
  Nb5+  Nb118  1  0.50005599  0.75381827  0.50500109  1
  Nb5+  Nb119  1  0.50258915  0.75622196  0.99878697  1
  Nb5+  Nb120  1  0.24545333  -0.00328859  0.00038347  1
  Nb5+  Nb121  1  0.25243073  -0.00463034  0.49610893  1
  Nb5+  Nb122  1  0.24514155  0.49852326  0.00417469  1
  Nb5+  Nb123  1  0.25532472  0.49613527  0.50777951  1
  Nb5+  Nb124  1  0.74465832  0.00800484  -0.00317113  1
  Nb5+  Nb125  1  0.75498227  0.00037696  0.49779560  1
  Nb5+  Nb126  1  0.74855058  0.50705725  -0.00317647  1
  Nb5+  Nb127  1  0.74844484  0.49956703  0.49727510  1
  O2-  O128  1  0.01799744  0.01927426  0.12910434  1
  O2-  O129  1  0.01659373  0.01617435  0.63689265  1
  O2-  O130  1  -0.01762404  0.53381109  0.13297918  1
  O2-  O131  1  -0.01618856  0.53373228  0.63707050  1
  O2-  O132  1  0.52031560  -0.01368948  0.11623230  1
  O2-  O133  1  0.50894420  -0.01733867  0.62372960  1
  O2-  O134  1  0.48044386  0.49398942  0.11627663  1
  O2-  O135  1  0.47311263  0.48848760  0.63760560  1
  O2-  O136  1  -0.02389436  -0.02240738  0.36571325  1
  O2-  O137  1  -0.02064517  -0.02661456  0.86340779  1
  O2-  O138  1  0.01747173  0.47841434  0.36735762  1
  O2-  O139  1  0.02331811  0.48402961  0.86514409  1
  O2-  O140  1  0.48493543  0.01641828  0.37351937  1
  O2-  O141  1  0.48674936  0.01535487  0.87177738  1
  O2-  O142  1  0.52646041  0.51006568  0.36561401  1
  O2-  O143  1  0.52552843  0.50458854  0.88050079  1
  O2-  O144  1  0.23285740  0.23050903  0.13237054  1
  O2-  O145  1  0.24612478  0.22133632  0.63741052  1
  O2-  O146  1  0.25723626  0.71677250  0.13476450  1
  O2-  O147  1  0.26124727  0.74218853  0.62308632  1
  O2-  O148  1  0.72288768  0.25744978  0.11042772  1
  O2-  O149  1  0.72400614  0.24653908  0.63891587  1
  O2-  O150  1  0.76085077  0.75017725  0.11945359  1
  O2-  O151  1  0.76898433  0.74335256  0.63673411  1
  O2-  O152  1  0.27364660  0.26660138  0.36897513  1
  O2-  O153  1  0.27706512  0.25401113  0.86466790  1
  O2-  O154  1  0.24259686  0.77754090  0.38266651  1
  O2-  O155  1  0.24753455  0.77314450  0.86297599  1
  O2-  O156  1  0.78283631  0.23270547  0.36964828  1
  O2-  O157  1  0.75779573  0.23646852  0.87411983  1
  O2-  O158  1  0.73072876  0.76419313  0.36578815  1
  O2-  O159  1  0.73692686  0.75007180  0.87983222  1
  O2-  O160  1  0.01612597  0.23107769  0.11136599  1
  O2-  O161  1  0.03092532  0.22920052  0.61927567  1
  O2-  O162  1  -0.00674310  0.72023958  0.11414495  1
  O2-  O163  1  -0.01455366  0.73076223  0.63479619  1
  O2-  O164  1  0.52836164  0.26145784  0.11122322  1
  O2-  O165  1  0.51096439  0.25847345  0.63143097  1
  O2-  O166  1  0.49122639  0.75960616  0.12409699  1
  O2-  O167  1  0.47840040  0.77057921  0.61561533  1
  O2-  O168  1  0.27890832  -0.01760262  0.38577219  1
  O2-  O169  1  0.26664005  -0.02146671  0.86746720  1
  O2-  O170  1  0.23303122  0.48340315  0.38669157  1
  O2-  O171  1  0.23742584  0.48171501  0.88169081  1
  O2-  O172  1  0.76097281  -0.02025170  0.38604596  1
  O2-  O173  1  0.75663842  -0.00332841  0.87339984  1
  O2-  O174  1  0.71786853  0.49868392  0.38218330  1
  O2-  O175  1  0.71589351  0.49816765  0.88495767  1
  O2-  O176  1  -0.02682777  0.26736308  0.38619430  1
  O2-  O177  1  -0.03065243  0.26833074  0.88030202  1
  O2-  O178  1  0.00540682  0.78268093  0.38653405  1
  O2-  O179  1  0.00166462  0.77355620  0.87009218  1
  O2-  O180  1  0.48828478  0.22032108  0.38336270  1
  O2-  O181  1  0.49004087  0.22707796  0.87248090  1
  O2-  O182  1  0.51296588  0.74443960  0.37028971  1
  O2-  O183  1  0.52688157  0.74626951  0.88596218  1
  O2-  O184  1  0.23637020  0.01893621  0.11278539  1
  O2-  O185  1  0.23858747  0.00563652  0.62978469  1
  O2-  O186  1  0.27898796  0.52027220  0.11366217  1
  O2-  O187  1  0.27396903  0.53456277  0.61645309  1
  O2-  O188  1  0.72115786  -0.00365181  0.10900429  1
  O2-  O189  1  0.72677231  0.00793084  0.63658389  1
  O2-  O190  1  0.76585043  0.48792909  0.11126122  1
  O2-  O191  1  0.77068065  0.50473934  0.61815813  1
  O2-  O192  1  0.13154458  0.26598408  0.26343688  1
  O2-  O193  1  0.13802639  0.26541935  0.76912380  1
  O2-  O194  1  0.13542604  0.78391406  0.23615242  1
  O2-  O195  1  0.12003306  0.77072437  0.73896845  1
  O2-  O196  1  0.63684644  0.28697880  0.27053477  1
  O2-  O197  1  0.61846531  0.25601843  0.76775818  1
  O2-  O198  1  0.62099330  0.76670909  0.23633567  1
  O2-  O199  1  0.63750253  0.78201131  0.74086562  1
  O2-  O200  1  0.37065476  0.22661544  0.23123503  1
  O2-  O201  1  0.38105546  0.22414032  0.73985018  1
  O2-  O202  1  0.38129308  0.72992814  0.25799878  1
  O2-  O203  1  0.36600763  0.72331561  0.75449614  1
  O2-  O204  1  0.85821130  0.22615938  0.21341893  1
  O2-  O205  1  0.86351002  0.21472857  0.73711023  1
  O2-  O206  1  0.86446348  0.73208277  0.26410151  1
  O2-  O207  1  0.87238642  0.74851766  0.76765823  1
  O2-  O208  1  0.27040264  0.36965999  0.23408782  1
  O2-  O209  1  0.27593536  0.36435637  0.73097784  1
  O2-  O210  1  0.28499876  0.86188261  0.23860089  1
  O2-  O211  1  0.26029895  0.87552957  0.73175823  1
  O2-  O212  1  0.78030257  0.36554670  0.25470732  1
  O2-  O213  1  0.77205916  0.35905205  0.75725219  1
  O2-  O214  1  0.76446339  0.86802259  0.23368193  1
  O2-  O215  1  0.76534709  0.88235248  0.75234584  1
  O2-  O216  1  0.23694046  0.13077193  0.27369236  1
  O2-  O217  1  0.23389903  0.11447417  0.76591891  1
  O2-  O218  1  0.23333711  0.64152381  0.28437400  1
  O2-  O219  1  0.22067335  0.63742025  0.75986221  1
  O2-  O220  1  0.70823882  0.13726055  0.25084447  1
  O2-  O221  1  0.72371748  0.11814473  0.76047429  1
  O2-  O222  1  0.72830467  0.63598632  0.24015296  1
  O2-  O223  1  0.72529071  0.63409882  0.75566313  1
  O2-  O224  1  0.11821399  0.48749506  0.22398193  1
  O2-  O225  1  0.11688486  0.48515545  0.72835825  1
  O2-  O226  1  0.11669210  0.97645506  0.25743004  1
  O2-  O227  1  0.12604732  0.98028368  0.76565999  1
  O2-  O228  1  0.61262403  0.49478591  0.21911759  1
  O2-  O229  1  0.61261609  0.46283323  0.73746714  1
  O2-  O230  1  0.61155671  0.96735932  0.26033419  1
  O2-  O231  1  0.61709641  0.97918905  0.76296433  1
  O2-  O232  1  0.39019243  0.00990754  0.21997780  1
  O2-  O233  1  0.37173291  0.01498336  0.73783850  1
  O2-  O234  1  0.38616690  0.53242499  0.25863315  1
  O2-  O235  1  0.38918146  0.51121500  0.78370334  1
  O2-  O236  1  0.87916258  0.02046583  0.22761809  1
  O2-  O237  1  0.87060359  0.01580413  0.73584038  1
  O2-  O238  1  0.88179289  0.52205853  0.27052691  1
  O2-  O239  1  0.88359234  0.51464972  0.77982742  1
  O2-  O240  1  0.47295359  0.38824358  0.25741557  1
  O2-  O241  1  0.47856883  0.36320330  0.76498534  1
  O2-  O242  1  0.48045426  0.86986393  0.25762228  1
  O2-  O243  1  0.47004221  0.88630300  0.76224974  1
  O2-  O244  1  0.98225712  0.38472453  0.22367963  1
  O2-  O245  1  0.97770674  0.38250326  0.72285183  1
  O2-  O246  1  0.97554331  0.88228441  0.22367031  1
  O2-  O247  1  0.98963924  0.87509235  0.73117121  1
  O2-  O248  1  0.01514696  0.11778392  0.27365276  1
  O2-  O249  1  0.01229003  0.11284076  0.77541230  1
  O2-  O250  1  0.02244418  0.61971016  0.27522342  1
  O2-  O251  1  0.01371668  0.63462644  0.77130405  1
  O2-  O252  1  0.52705312  0.11471512  0.23832793  1
  O2-  O253  1  0.51106490  0.11754196  0.73455290  1
  O2-  O254  1  0.51778079  0.63193531  0.23602722  1
  O2-  O255  1  0.53068348  0.61453865  0.73973861  1
  O2-  O256  1  0.13320890  0.48305948  0.02712602  1
  O2-  O257  1  0.13703149  0.49638485  0.52564854  1
  O2-  O258  1  0.13542083  0.97182779  -0.01807410  1
  O2-  O259  1  0.13920559  0.96901270  0.49130421  1
  O2-  O260  1  0.62057764  0.48033354  0.01912401  1
  O2-  O261  1  0.63034028  0.47686923  0.52772918  1
  O2-  O262  1  0.62036432  0.98299495  -0.02841629  1
  O2-  O263  1  0.61470881  0.97513222  0.48898406  1
  O2-  O264  1  0.38813348  0.01700103  0.00783890  1
  O2-  O265  1  0.37717811  0.01288890  0.52145464  1
  O2-  O266  1  0.38680766  0.51335868  -0.02170506  1
  O2-  O267  1  0.36741357  0.52368797  0.47481204  1
  O2-  O268  1  0.85886005  0.01496989  0.01045379  1
  O2-  O269  1  0.86451735  0.02972493  0.51363067  1
  O2-  O270  1  0.86035845  0.51499204  -0.02907918  1
  O2-  O271  1  0.86582332  0.52253420  0.47745650  1
  O2-  O272  1  0.48716617  0.37042198  -0.01584511  1
  O2-  O273  1  0.47477301  0.36291948  0.48385373  1
  O2-  O274  1  0.48889938  0.87381074  -0.00804236  1
  O2-  O275  1  0.47611076  0.88082101  0.48051102  1
  O2-  O276  1  0.97054516  0.36526373  0.01676995  1
  O2-  O277  1  0.98812958  0.36990987  0.53045299  1
  O2-  O278  1  0.96499777  0.86260145  0.01357630  1
  O2-  O279  1  0.99092100  0.86462616  0.53886978  1
  O2-  O280  1  0.00128647  0.13469253  -0.02767254  1
  O2-  O281  1  0.01574589  0.13190883  0.48157947  1
  O2-  O282  1  0.01301790  0.63773300  -0.03127181  1
  O2-  O283  1  0.02656431  0.64056486  0.49165689  1
  O2-  O284  1  0.52685698  0.12072381  0.00703589  1
  O2-  O285  1  0.51762882  0.11539458  0.51317283  1
  O2-  O286  1  0.52125099  0.62330206  0.00948449  1
  O2-  O287  1  0.51958490  0.63975963  0.51585102  1
  O2-  O288  1  0.11676979  0.26970685  -0.02793215  1
  O2-  O289  1  0.11942124  0.27234914  0.47963997  1
  O2-  O290  1  0.11437664  0.78154697  0.00823474  1
  O2-  O291  1  0.13043172  0.77290975  0.51470215  1
  O2-  O292  1  0.62343386  0.25793720  -0.03006356  1
  O2-  O293  1  0.61415694  0.26324069  0.49063363  1
  O2-  O294  1  0.62694516  0.76099275  0.01859868  1
  O2-  O295  1  0.61150401  0.78492862  0.50674461  1
  O2-  O296  1  0.39204518  0.22466270  0.01209719  1
  O2-  O297  1  0.38490854  0.22252168  0.52010542  1
  O2-  O298  1  0.38997706  0.73060609  -0.01223650  1
  O2-  O299  1  0.37688495  0.73823158  0.48346069  1
  O2-  O300  1  0.86087471  0.22944935  0.01027593  1
  O2-  O301  1  0.88501332  0.23514103  0.53335715  1
  O2-  O302  1  0.86581829  0.72887324  -0.01036064  1
  O2-  O303  1  0.88378173  0.73241527  0.49131062  1
  O2-  O304  1  0.27951583  0.38380227  0.00970172  1
  O2-  O305  1  0.27456873  0.38497559  0.52810750  1
  O2-  O306  1  0.28624642  0.88602766  0.01116802  1
  O2-  O307  1  0.27521082  0.87352532  0.51777233  1
  O2-  O308  1  0.76017057  0.37045342  -0.01360484  1
  O2-  O309  1  0.77005592  0.38044320  0.49416824  1
  O2-  O310  1  0.75828681  0.87144395  -0.00466283  1
  O2-  O311  1  0.76034149  0.88841667  0.53322149  1
  O2-  O312  1  0.24772910  0.11056934  -0.03019127  1
  O2-  O313  1  0.23422958  0.11110248  0.48772777  1
  O2-  O314  1  0.23863075  0.61531190  -0.02505971  1
  O2-  O315  1  0.23803563  0.63819064  0.48559997  1
  O2-  O316  1  0.72374034  0.12248624  -0.00563736  1
  O2-  O317  1  0.71090959  0.10926020  0.49948148  1
  O2-  O318  1  0.72684269  0.62382310  0.00459977  1
  O2-  O319  1  0.72203822  0.61990237  0.49975630  1
