# generated using pymatgen
data_Sr64Ca21Nb43O192
_symmetry_space_group_name_H-M   'P 1'
_cell_length_a   16.58028481
_cell_length_b   16.57298279
_cell_length_c   16.73558880
_cell_angle_alpha   89.99135125
_cell_angle_beta   89.96414974
_cell_angle_gamma   90.08855365
_symmetry_Int_Tables_number   1
_chemical_formula_structural   Sr64Ca21Nb43O192
_chemical_formula_sum   'Sr64 Ca21 Nb43 O192'
_cell_volume   4598.67855242
_cell_formula_units_Z   1
loop_
 _symmetry_equiv_pos_site_id
 _symmetry_equiv_pos_as_xyz
  1  'x, y, z'
loop_
 _atom_type_symbol
 _atom_type_oxidation_number
  Sr2+  2.0
  Ca2+  2.0
  Nb5+  5.0
  O2-  -2.0
loop_
 _atom_site_type_symbol
 _atom_site_label
 _atom_site_symmetry_multiplicity
 _atom_site_fract_x
 _atom_site_fract_y
 _atom_site_fract_z
 _atom_site_occupancy
  Sr2+  Sr0  1  0.12098855  0.13336540  0.12322452  1
  Sr2+  Sr1  1  0.12508902  0.12844518  0.63894193  1
  Sr2+  Sr2  1  0.12154385  0.63137639  0.12838651  1
  Sr2+  Sr3  1  0.11692034  0.64560423  0.61966533  1
  Sr2+  Sr4  1  0.62432701  0.12328735  0.12730011  1
  Sr2+  Sr5  1  0.62244216  0.12052038  0.62064422  1
  Sr2+  Sr6  1  0.61777067  0.63531576  0.12253731  1
  Sr2+  Sr7  1  0.62060294  0.63374300  0.63550830  1
  Sr2+  Sr8  1  0.35958449  0.37560262  0.12327195  1
  Sr2+  Sr9  1  0.36338495  0.37084919  0.62484754  1
  Sr2+  Sr10  1  0.36901244  0.88189644  0.12677009  1
  Sr2+  Sr11  1  0.36499593  0.88442167  0.62025533  1
  Sr2+  Sr12  1  0.87094849  0.37998484  0.12364636  1
  Sr2+  Sr13  1  0.86581049  0.39180213  0.62358572  1
  Sr2+  Sr14  1  0.86135451  0.88667469  0.12752776  1
  Sr2+  Sr15  1  0.87566287  0.88329749  0.62740825  1
  Sr2+  Sr16  1  0.11870961  0.37969774  0.37587216  1
  Sr2+  Sr17  1  0.11519809  0.37135084  0.87286206  1
  Sr2+  Sr18  1  0.14061703  0.86183401  0.38282065  1
  Sr2+  Sr19  1  0.12495698  0.87030738  0.86276248  1
  Sr2+  Sr20  1  0.61980047  0.36783991  0.37084314  1
  Sr2+  Sr21  1  0.61167345  0.37542991  0.88171436  1
  Sr2+  Sr22  1  0.62986227  0.87377497  0.37455758  1
  Sr2+  Sr23  1  0.63764544  0.86812079  0.87192684  1
  Sr2+  Sr24  1  0.38366965  0.12247016  0.37702427  1
  Sr2+  Sr25  1  0.37141108  0.11517674  0.86400442  1
  Sr2+  Sr26  1  0.36419110  0.62232227  0.37620103  1
  Sr2+  Sr27  1  0.39077447  0.61721068  0.87160526  1
  Sr2+  Sr28  1  0.87948997  0.12408447  0.37449468  1
  Sr2+  Sr29  1  0.88655879  0.12735802  0.86690335  1
  Sr2+  Sr30  1  0.89281028  0.61969377  0.37878140  1
  Sr2+  Sr31  1  0.89010112  0.62069635  0.87249108  1
  Sr2+  Sr32  1  0.12963016  0.12778084  0.36927316  1
  Sr2+  Sr33  1  0.13781571  0.12032568  0.87129230  1
  Sr2+  Sr34  1  0.13693296  0.62360314  0.38381160  1
  Sr2+  Sr35  1  0.13131780  0.61700482  0.87587143  1
  Sr2+  Sr36  1  0.62992416  0.12027396  0.37465457  1
  Sr2+  Sr37  1  0.63340021  0.13226423  0.86362672  1
  Sr2+  Sr38  1  0.63421759  0.60845970  0.36651686  1
  Sr2+  Sr39  1  0.62806943  0.61911182  0.87325550  1
  Sr2+  Sr40  1  0.37776963  0.36917297  0.37605966  1
  Sr2+  Sr41  1  0.37995668  0.38132767  0.87232294  1
  Sr2+  Sr42  1  0.38613306  0.86082592  0.37733815  1
  Sr2+  Sr43  1  0.37152293  0.86421300  0.86968732  1
  Sr2+  Sr44  1  0.87337466  0.37660264  0.38440827  1
  Sr2+  Sr45  1  0.87370075  0.38345952  0.86580999  1
  Sr2+  Sr46  1  0.88260980  0.86305977  0.37414502  1
  Sr2+  Sr47  1  0.88171668  0.85990404  0.87700886  1
  Sr2+  Sr48  1  0.11438252  0.37619317  0.12671667  1
  Sr2+  Sr49  1  0.13014565  0.38443364  0.63024944  1
  Sr2+  Sr50  1  0.11409918  0.88797981  0.12052198  1
  Sr2+  Sr51  1  0.10984344  0.88600302  0.62289508  1
  Sr2+  Sr52  1  0.61864648  0.37425749  0.12536896  1
  Sr2+  Sr53  1  0.62217882  0.37808735  0.60508414  1
  Sr2+  Sr54  1  0.61977194  0.87884400  0.12043339  1
  Sr2+  Sr55  1  0.60664057  0.88081727  0.62729354  1
  Sr2+  Sr56  1  0.34678128  0.12601328  0.12450130  1
  Sr2+  Sr57  1  0.36016481  0.12189724  0.62816018  1
  Sr2+  Sr58  1  0.36268652  0.63302438  0.12390337  1
  Sr2+  Sr59  1  0.35706437  0.62431231  0.62839785  1
  Sr2+  Sr60  1  0.88582624  0.12503586  0.12325998  1
  Sr2+  Sr61  1  0.88134707  0.12717776  0.62236823  1
  Sr2+  Sr62  1  0.86298023  0.62987850  0.12385771  1
  Sr2+  Sr63  1  0.86736015  0.63072637  0.62682843  1
  Ca2+  Ca64  1  0.49775396  0.50272876  0.49588963  1
  Ca2+  Ca65  1  0.49779831  0.00287997  -0.00109203  1
  Ca2+  Ca66  1  -0.00141554  -0.00159087  -0.00228820  1
  Ca2+  Ca67  1  0.00216597  0.49952652  0.50196135  1
  Ca2+  Ca68  1  -0.00242119  0.00270743  0.49465316  1
  Ca2+  Ca69  1  0.74769272  0.75466584  0.49672643  1
  Ca2+  Ca70  1  0.25371334  0.75153207  0.50417139  1
  Ca2+  Ca71  1  0.25052553  0.24990375  0.50063650  1
  Ca2+  Ca72  1  0.25012963  0.75008467  -0.00066358  1
  Ca2+  Ca73  1  0.24992860  0.25081177  -0.00313221  1
  Ca2+  Ca74  1  0.25052678  0.49759222  0.24725676  1
  Ca2+  Ca75  1  0.74772585  0.49903287  0.75151070  1
  Ca2+  Ca76  1  0.75408386  0.49683101  0.24919401  1
  Ca2+  Ca77  1  0.24982772  -0.00098493  0.25444608  1
  Ca2+  Ca78  1  0.50144669  0.25124514  0.74946219  1
  Ca2+  Ca79  1  0.25161669  0.50188736  0.75524057  1
  Ca2+  Ca80  1  0.74769149  -0.00144235  0.74964211  1
  Ca2+  Ca81  1  0.00101079  0.75148952  0.24905346  1
  Ca2+  Ca82  1  -0.00375763  0.25125891  0.74851004  1
  Ca2+  Ca83  1  0.00024156  0.74857776  0.74975215  1
  Ca2+  Ca84  1  0.49642001  0.75028084  0.74990211  1
  Nb5+  Nb85  1  -0.00373163  0.50204017  0.00258470  1
  Nb5+  Nb86  1  0.49672838  0.50169934  0.00697966  1
  Nb5+  Nb87  1  0.49730860  -0.00062898  0.49897604  1
  Nb5+  Nb88  1  0.75011953  0.24636360  0.49228476  1
  Nb5+  Nb89  1  0.75025472  0.75432622  0.00018076  1
  Nb5+  Nb90  1  0.75394018  0.25566030  -0.00414475  1
  Nb5+  Nb91  1  0.74934435  0.00191700  0.25087883  1
  Nb5+  Nb92  1  -0.00747119  0.25100773  0.25067678  1
  Nb5+  Nb93  1  0.49716962  0.24332138  0.24708527  1
  Nb5+  Nb94  1  0.50286436  0.74225230  0.25100240  1
  Nb5+  Nb95  1  0.24731716  -0.00411947  0.74831141  1
  Nb5+  Nb96  1  0.00202604  -0.00271404  0.25339470  1
  Nb5+  Nb97  1  -0.00655659  0.00193171  0.74863586  1
  Nb5+  Nb98  1  0.00322272  0.50206856  0.25020556  1
  Nb5+  Nb99  1  0.00451786  0.50336713  0.74358133  1
  Nb5+  Nb100  1  0.49993875  -0.00493403  0.24805499  1
  Nb5+  Nb101  1  0.49740669  -0.00491674  0.75590210  1
  Nb5+  Nb102  1  0.49855291  0.49349186  0.24752399  1
  Nb5+  Nb103  1  0.50500220  0.50038233  0.74214951  1
  Nb5+  Nb104  1  0.24121182  0.25177031  0.25171620  1
  Nb5+  Nb105  1  0.25180303  0.25403832  0.75469867  1
  Nb5+  Nb106  1  0.24751549  0.75454576  0.24603577  1
  Nb5+  Nb107  1  0.24609113  0.74621570  0.74975817  1
  Nb5+  Nb108  1  0.74827059  0.24991068  0.24591730  1
  Nb5+  Nb109  1  0.74709943  0.24882725  0.73719007  1
  Nb5+  Nb110  1  0.74631943  0.74630109  0.25011522  1
  Nb5+  Nb111  1  0.75181071  0.75343000  0.74554555  1
  Nb5+  Nb112  1  0.00343442  0.24900887  0.50015975  1
  Nb5+  Nb113  1  -0.00195236  0.25393533  0.99822748  1
  Nb5+  Nb114  1  -0.00268106  0.75296958  0.49787824  1
  Nb5+  Nb115  1  0.00230621  0.75240480  1.00880758  1
  Nb5+  Nb116  1  0.50116151  0.24619342  0.50315105  1
  Nb5+  Nb117  1  0.50091276  0.24819554  1.00321017  1
  Nb5+  Nb118  1  0.50562346  0.73993465  0.49967627  1
  Nb5+  Nb119  1  0.49880417  0.75246475  1.00061199  1
  Nb5+  Nb120  1  0.24845134  -0.00370132  0.00058937  1
  Nb5+  Nb121  1  0.24556921  0.00369987  0.49542265  1
  Nb5+  Nb122  1  0.24113886  0.49727980  0.00072641  1
  Nb5+  Nb123  1  0.25185578  0.49766918  0.50240093  1
  Nb5+  Nb124  1  0.74852757  0.01192145  -0.00172352  1
  Nb5+  Nb125  1  0.74839014  -0.00120176  0.49924628  1
  Nb5+  Nb126  1  0.74675756  0.50452521  0.00126481  1
  Nb5+  Nb127  1  0.74627249  0.50937441  0.50206892  1
  O2-  O128  1  0.01865812  0.02246534  0.13670709  1
  O2-  O129  1  0.01765645  0.02259193  0.63068281  1
  O2-  O130  1  0.02751393  0.50966314  0.11934543  1
  O2-  O131  1  0.02851925  0.51950905  0.63375238  1
  O2-  O132  1  0.52438298  0.00724918  0.13575522  1
  O2-  O133  1  0.51376799  0.01545858  0.61552660  1
  O2-  O134  1  0.53509386  0.50700818  0.12294707  1
  O2-  O135  1  0.53126422  0.50833203  0.63105446  1
  O2-  O136  1  -0.04162141  -0.00576153  0.36113280  1
  O2-  O137  1  -0.02377781  -0.02023899  0.86535784  1
  O2-  O138  1  -0.01756143  0.47993426  0.36266697  1
  O2-  O139  1  -0.01393179  0.48166027  0.88647111  1
  O2-  O140  1  0.48421589  -0.00956313  0.37372105  1
  O2-  O141  1  0.47272408  -0.02103180  0.86571469  1
  O2-  O142  1  0.46875994  0.49438768  0.35853334  1
  O2-  O143  1  0.48752581  0.48700814  0.89068133  1
  O2-  O144  1  0.24297411  0.26654078  0.13371377  1
  O2-  O145  1  0.23601652  0.27101319  0.63590153  1
  O2-  O146  1  0.28416922  0.76434071  0.13430354  1
  O2-  O147  1  0.28443683  0.76014446  0.63623031  1
  O2-  O148  1  0.74466531  0.26481284  0.13071063  1
  O2-  O149  1  0.73325575  0.25858988  0.62132552  1
  O2-  O150  1  0.76356148  0.76666195  0.12509816  1
  O2-  O151  1  0.77723574  0.76558091  0.63383140  1
  O2-  O152  1  0.26481024  0.22470858  0.36444948  1
  O2-  O153  1  0.26284944  0.21780201  0.86763349  1
  O2-  O154  1  0.23741510  0.73515202  0.36578439  1
  O2-  O155  1  0.21460260  0.74594975  0.86692780  1
  O2-  O156  1  0.75794822  0.23084122  0.37490824  1
  O2-  O157  1  0.76478662  0.22738917  0.88672708  1
  O2-  O158  1  0.71634144  0.74015512  0.36056662  1
  O2-  O159  1  0.72628877  0.73672895  0.88785681  1
  O2-  O160  1  0.00793758  0.23645004  0.12891585  1
  O2-  O161  1  0.00631362  0.22380051  0.61204400  1
  O2-  O162  1  -0.01746278  0.71256423  0.11827746  1
  O2-  O163  1  -0.01964518  0.72605807  0.61456770  1
  O2-  O164  1  0.52649708  0.24416528  0.13085171  1
  O2-  O165  1  0.52999830  0.24133343  0.61371339  1
  O2-  O166  1  0.49065781  0.73211079  0.12829563  1
  O2-  O167  1  0.48889752  0.71875140  0.61156664  1
  O2-  O168  1  0.26019814  0.03550869  0.38636126  1
  O2-  O169  1  0.25732859  0.01348571  0.86913117  1
  O2-  O170  1  0.25314501  0.51756832  0.38241141  1
  O2-  O171  1  0.26869110  0.52994482  0.88962213  1
  O2-  O172  1  0.75594153  0.02737672  0.36790245  1
  O2-  O173  1  0.76598713  0.02889839  0.88708639  1
  O2-  O174  1  0.77576855  0.51909764  0.38476247  1
  O2-  O175  1  0.77850609  0.51103356  0.88929921  1
  O2-  O176  1  -0.01509144  0.27151520  0.36624512  1
  O2-  O177  1  -0.02374618  0.27341066  0.88722747  1
  O2-  O178  1  0.01720086  0.77869415  0.37991743  1
  O2-  O179  1  0.00682621  0.76610109  0.89146664  1
  O2-  O180  1  0.49342534  0.26115458  0.36570267  1
  O2-  O181  1  0.49066600  0.27123439  0.89098999  1
  O2-  O182  1  0.52093605  0.76752434  0.36487069  1
  O2-  O183  1  0.52323383  0.76588937  0.88904429  1
  O2-  O184  1  0.23942362  -0.02038561  0.11720311  1
  O2-  O185  1  0.24164980  -0.02142868  0.62798404  1
  O2-  O186  1  0.23766605  0.46767530  0.11478721  1
  O2-  O187  1  0.25173889  0.47486928  0.62158108  1
  O2-  O188  1  0.72486543  -0.00915129  0.13253575  1
  O2-  O189  1  0.72893209  -0.02511094  0.61042054  1
  O2-  O190  1  0.74426333  0.46928167  0.11302003  1
  O2-  O191  1  0.73008449  0.47823965  0.61605052  1
  O2-  O192  1  0.12357850  0.26590208  0.26348831  1
  O2-  O193  1  0.13162316  0.25708046  0.76723496  1
  O2-  O194  1  0.13644188  0.77750128  0.22531055  1
  O2-  O195  1  0.13358396  0.77749751  0.72259192  1
  O2-  O196  1  0.63104348  0.26342115  0.25887683  1
  O2-  O197  1  0.63849117  0.26682133  0.78103592  1
  O2-  O198  1  0.62250262  0.76991703  0.22569687  1
  O2-  O199  1  0.63334799  0.77548039  0.73382245  1
  O2-  O200  1  0.38387751  0.23111724  0.23413365  1
  O2-  O201  1  0.36748420  0.22924454  0.73322727  1
  O2-  O202  1  0.38759928  0.73348862  0.26695145  1
  O2-  O203  1  0.36282104  0.73616633  0.78408206  1
  O2-  O204  1  0.87490476  0.22653337  0.24231586  1
  O2-  O205  1  0.86055533  0.21479432  0.74500128  1
  O2-  O206  1  0.86122704  0.73827177  0.26839235  1
  O2-  O207  1  0.86500388  0.73179312  0.77757556  1
  O2-  O208  1  0.27895274  0.36253877  0.26575041  1
  O2-  O209  1  0.26838193  0.36630218  0.77599939  1
  O2-  O210  1  0.27949257  0.86772857  0.27152820  1
  O2-  O211  1  0.26484694  0.87907116  0.76542358  1
  O2-  O212  1  0.77204920  0.36114892  0.26982096  1
  O2-  O213  1  0.77889727  0.36208767  0.75293568  1
  O2-  O214  1  0.75930065  0.88255646  0.26256966  1
  O2-  O215  1  0.76676777  0.86686342  0.78293704  1
  O2-  O216  1  0.23067428  0.13309287  0.22811833  1
  O2-  O217  1  0.23655738  0.11726955  0.73514825  1
  O2-  O218  1  0.24109284  0.63463202  0.23186568  1
  O2-  O219  1  0.22385375  0.63393957  0.73180188  1
  O2-  O220  1  0.73193141  0.12748336  0.23703893  1
  O2-  O221  1  0.71652237  0.13052195  0.73573924  1
  O2-  O222  1  0.73125350  0.63391193  0.22641528  1
  O2-  O223  1  0.72611283  0.63608205  0.74281594  1
  O2-  O224  1  0.11550355  0.46510225  0.25360635  1
  O2-  O225  1  0.11749394  0.47606032  0.77282996  1
  O2-  O226  1  0.11233971  0.98386872  0.28306519  1
  O2-  O227  1  0.12752223  0.98599226  0.75915554  1
  O2-  O228  1  0.61746653  0.48504715  0.27002610  1
  O2-  O229  1  0.61595122  0.47947814  0.78043309  1
  O2-  O230  1  0.62312081  0.99288850  0.27177874  1
  O2-  O231  1  0.61190622  0.97502109  0.76443676  1
  O2-  O232  1  0.38813661  0.02477142  0.23670909  1
  O2-  O233  1  0.37048941  0.01427565  0.73530606  1
  O2-  O234  1  0.38946215  0.51179273  0.21079772  1
  O2-  O235  1  0.38806697  0.52853045  0.74461466  1
  O2-  O236  1  0.86389210  0.01811919  0.22830409  1
  O2-  O237  1  0.88011862  0.01737016  0.72556673  1
  O2-  O238  1  0.88941282  0.51252384  0.21909172  1
  O2-  O239  1  0.88488059  0.52326829  0.73642200  1
  O2-  O240  1  0.49286949  0.37344801  0.23634057  1
  O2-  O241  1  0.47358367  0.38542656  0.74131219  1
  O2-  O242  1  0.48685728  0.87802463  0.23845381  1
  O2-  O243  1  0.47746607  0.88362294  0.71789537  1
  O2-  O244  1  0.98249206  0.36714503  0.22796524  1
  O2-  O245  1  0.97854763  0.38520579  0.73443425  1
  O2-  O246  1  0.97807677  0.88708765  0.22648782  1
  O2-  O247  1  0.98882154  0.88368692  0.72795642  1
  O2-  O248  1  0.01337677  0.13047922  0.26479595  1
  O2-  O249  1  0.01677222  0.11642102  0.77606138  1
  O2-  O250  1  0.02663246  0.61394732  0.26842324  1
  O2-  O251  1  0.01908986  0.61586190  0.77995907  1
  O2-  O252  1  0.52124112  0.12882539  0.26123274  1
  O2-  O253  1  0.51247096  0.11314456  0.76230321  1
  O2-  O254  1  0.52259164  0.62619144  0.25762424  1
  O2-  O255  1  0.52369659  0.61748150  0.77025335  1
  O2-  O256  1  0.12608751  0.48202013  -0.01842581  1
  O2-  O257  1  0.13471192  0.46414867  0.49565003  1
  O2-  O258  1  0.13245664  0.96710924  -0.01865077  1
  O2-  O259  1  0.13329030  0.97907048  0.48399325  1
  O2-  O260  1  0.63359001  0.48994150  -0.01779363  1
  O2-  O261  1  0.63544713  0.47552458  0.47217909  1
  O2-  O262  1  0.63674255  0.97697965  -0.01327796  1
  O2-  O263  1  0.61941865  0.99158631  0.47993297  1
  O2-  O264  1  0.36411954  0.03503881  0.00571637  1
  O2-  O265  1  0.38092473  0.02493372  0.50870558  1
  O2-  O266  1  0.38449862  0.51324930  0.02426527  1
  O2-  O267  1  0.36854706  0.53572277  0.50989234  1
  O2-  O268  1  0.86117960  0.00501287  0.03048877  1
  O2-  O269  1  0.85964533  0.02404594  0.51370245  1
  O2-  O270  1  0.88104605  0.51506505  0.02163759  1
  O2-  O271  1  0.86516955  0.51357281  0.52525060  1
  O2-  O272  1  0.50207458  0.37835563  0.02126989  1
  O2-  O273  1  0.48897248  0.36336421  0.50190202  1
  O2-  O274  1  0.48549378  0.86442981  0.02497846  1
  O2-  O275  1  0.48080766  0.88377810  0.51078089  1
  O2-  O276  1  0.98532066  0.37848150  0.02345029  1
  O2-  O277  1  0.96752493  0.36117729  0.50920966  1
  O2-  O278  1  0.97479585  0.86250881  0.02980315  1
  O2-  O279  1  0.97087562  0.87001755  0.51731000  1
  O2-  O280  1  0.00241746  0.13743321  -0.01396989  1
  O2-  O281  1  0.00698424  0.13699120  0.46179038  1
  O2-  O282  1  0.01651900  0.61862021  -0.01639049  1
  O2-  O283  1  0.01837577  0.63346458  0.47433777  1
  O2-  O284  1  0.53342475  0.13842937  -0.00986228  1
  O2-  O285  1  0.51805196  0.12618915  0.47696910  1
  O2-  O286  1  0.52235885  0.61986362  -0.00578641  1
  O2-  O287  1  0.53544628  0.63387474  0.47334984  1
  O2-  O288  1  0.11215482  0.27257656  -0.00486988  1
  O2-  O289  1  0.11474866  0.26956145  0.48219326  1
  O2-  O290  1  0.11482398  0.76416283  0.02988701  1
  O2-  O291  1  0.11664707  0.77448871  0.51745339  1
  O2-  O292  1  0.63579955  0.27135158  0.00025968  1
  O2-  O293  1  0.62778961  0.26093213  0.47964203  1
  O2-  O294  1  0.62880967  0.75693386  0.02372046  1
  O2-  O295  1  0.61340105  0.78655319  0.51170784  1
  O2-  O296  1  0.39013895  0.23812366  0.02803180  1
  O2-  O297  1  0.38818813  0.22507702  0.51230375  1
  O2-  O298  1  0.38861738  0.72356652  -0.01544076  1
  O2-  O299  1  0.39144447  0.73959270  0.47067747  1
  O2-  O300  1  0.87123646  0.24360592  0.02494640  1
  O2-  O301  1  0.86591594  0.22422789  0.50372110  1
  O2-  O302  1  0.86644697  0.72824798  -0.01010768  1
  O2-  O303  1  0.87957368  0.73315879  0.47042934  1
  O2-  O304  1  0.27683069  0.38484966  -0.02153602  1
  O2-  O305  1  0.28842402  0.38209467  0.48807658  1
  O2-  O306  1  0.28544483  0.88361012  -0.01329411  1
  O2-  O307  1  0.27807844  0.88950281  0.48422014  1
  O2-  O308  1  0.76977822  0.37150636  -0.01715677  1
  O2-  O309  1  0.76479893  0.36387736  0.49105209  1
  O2-  O310  1  0.76452447  0.87016435  -0.01160860  1
  O2-  O311  1  0.76174090  0.88994737  0.46301240  1
  O2-  O312  1  0.21762671  0.11472369  0.01224571  1
  O2-  O313  1  0.23396766  0.11522488  0.53466528  1
  O2-  O314  1  0.23508114  0.61365540  0.03035212  1
  O2-  O315  1  0.22239573  0.61615092  0.51941538  1
  O2-  O316  1  0.73570198  0.12691675  0.02187093  1
  O2-  O317  1  0.72415594  0.12505012  0.50871884  1
  O2-  O318  1  0.73830922  0.62047186  0.02249051  1
  O2-  O319  1  0.72330726  0.62010309  0.52024847  1
