# generated using pymatgen
data_Sr64Ca21Nb43O192
_symmetry_space_group_name_H-M   'P 1'
_cell_length_a   16.54746632
_cell_length_b   16.55613819
_cell_length_c   16.71372373
_cell_angle_alpha   90.00946363
_cell_angle_beta   90.03981298
_cell_angle_gamma   89.97665529
_symmetry_Int_Tables_number   1
_chemical_formula_structural   Sr64Ca21Nb43O192
_chemical_formula_sum   'Sr64 Ca21 Nb43 O192'
_cell_volume   4578.92595590
_cell_formula_units_Z   1
loop_
 _symmetry_equiv_pos_site_id
 _symmetry_equiv_pos_as_xyz
  1  'x, y, z'
loop_
 _atom_type_symbol
 _atom_type_oxidation_number
  Sr2+  2.0
  Ca2+  2.0
  Nb5+  5.0
  O2-  -2.0
loop_
 _atom_site_type_symbol
 _atom_site_label
 _atom_site_symmetry_multiplicity
 _atom_site_fract_x
 _atom_site_fract_y
 _atom_site_fract_z
 _atom_site_occupancy
  Sr2+  Sr0  1  0.11165109  0.10634610  0.12449450  1
  Sr2+  Sr1  1  0.11604200  0.11393149  0.62161447  1
  Sr2+  Sr2  1  0.12375047  0.62199139  0.12560591  1
  Sr2+  Sr3  1  0.11724387  0.62973383  0.62896473  1
  Sr2+  Sr4  1  0.63459040  0.11134739  0.12325675  1
  Sr2+  Sr5  1  0.62777419  0.11596735  0.63018470  1
  Sr2+  Sr6  1  0.62523702  0.61946331  0.12410687  1
  Sr2+  Sr7  1  0.63426959  0.62869962  0.62421202  1
  Sr2+  Sr8  1  0.37826562  0.37179630  0.11351826  1
  Sr2+  Sr9  1  0.37520241  0.36262280  0.62840173  1
  Sr2+  Sr10  1  0.36989301  0.86415005  0.11901495  1
  Sr2+  Sr11  1  0.37039039  0.87132260  0.62679309  1
  Sr2+  Sr12  1  0.87632867  0.36447451  0.12668976  1
  Sr2+  Sr13  1  0.87249436  0.38563133  0.62331998  1
  Sr2+  Sr14  1  0.87812788  0.89132778  0.12515275  1
  Sr2+  Sr15  1  0.87805254  0.87026835  0.63171256  1
  Sr2+  Sr16  1  0.13541950  0.37950470  0.37580509  1
  Sr2+  Sr17  1  0.13316441  0.38916255  0.86619894  1
  Sr2+  Sr18  1  0.13592027  0.88453629  0.37295249  1
  Sr2+  Sr19  1  0.13796561  0.87766594  0.86405013  1
  Sr2+  Sr20  1  0.62202465  0.37654406  0.37946039  1
  Sr2+  Sr21  1  0.61455760  0.37592994  0.86941538  1
  Sr2+  Sr22  1  0.62131465  0.87801297  0.36780677  1
  Sr2+  Sr23  1  0.62175502  0.88204203  0.88852143  1
  Sr2+  Sr24  1  0.36722705  0.12952084  0.37885156  1
  Sr2+  Sr25  1  0.38245911  0.13205656  0.87276952  1
  Sr2+  Sr26  1  0.38569620  0.62822363  0.37363927  1
  Sr2+  Sr27  1  0.36731363  0.62419409  0.87787958  1
  Sr2+  Sr28  1  0.88482656  0.13401599  0.37160067  1
  Sr2+  Sr29  1  0.88261301  0.13356491  0.88337604  1
  Sr2+  Sr30  1  0.87934461  0.63437173  0.37257838  1
  Sr2+  Sr31  1  0.88060833  0.63802197  0.87634176  1
  Sr2+  Sr32  1  0.12361820  0.13243557  0.37261205  1
  Sr2+  Sr33  1  0.12642474  0.11557474  0.88818165  1
  Sr2+  Sr34  1  0.13246644  0.62950258  0.37246489  1
  Sr2+  Sr35  1  0.12275375  0.63715903  0.86558499  1
  Sr2+  Sr36  1  0.61852464  0.11829274  0.37983737  1
  Sr2+  Sr37  1  0.62289253  0.12433086  0.87595374  1
  Sr2+  Sr38  1  0.62409452  0.63824694  0.36957215  1
  Sr2+  Sr39  1  0.62095069  0.63931646  0.87429520  1
  Sr2+  Sr40  1  0.37887088  0.37381704  0.37552829  1
  Sr2+  Sr41  1  0.38475113  0.38479581  0.86992667  1
  Sr2+  Sr42  1  0.38643956  0.88816435  0.37537608  1
  Sr2+  Sr43  1  0.36512698  0.89230854  0.87513897  1
  Sr2+  Sr44  1  0.88444915  0.38432785  0.37150530  1
  Sr2+  Sr45  1  0.87877795  0.38545101  0.88015302  1
  Sr2+  Sr46  1  0.88521892  0.88620480  0.37436968  1
  Sr2+  Sr47  1  0.88404747  0.87910161  0.87131737  1
  Sr2+  Sr48  1  0.12266222  0.36500375  0.13010741  1
  Sr2+  Sr49  1  0.10966171  0.36550009  0.62383160  1
  Sr2+  Sr50  1  0.13187121  0.87191786  0.11785213  1
  Sr2+  Sr51  1  0.11475763  0.86573298  0.62501752  1
  Sr2+  Sr52  1  0.63759251  0.37151295  0.12813013  1
  Sr2+  Sr53  1  0.63288859  0.36617305  0.62875813  1
  Sr2+  Sr54  1  0.63203828  0.86131338  0.12469630  1
  Sr2+  Sr55  1  0.64317981  0.87544628  0.62634603  1
  Sr2+  Sr56  1  0.35480145  0.11886389  0.11780122  1
  Sr2+  Sr57  1  0.36926719  0.11934663  0.62725315  1
  Sr2+  Sr58  1  0.36749428  0.61787368  0.12562857  1
  Sr2+  Sr59  1  0.36853206  0.61725443  0.61573118  1
  Sr2+  Sr60  1  0.88261631  0.12484140  0.12332968  1
  Sr2+  Sr61  1  0.87129469  0.12207932  0.62465328  1
  Sr2+  Sr62  1  0.87576114  0.61102282  0.12243628  1
  Sr2+  Sr63  1  0.87070268  0.62768907  0.63828827  1
  Ca2+  Ca64  1  0.49771697  0.00235552  0.00312223  1
  Ca2+  Ca65  1  0.00404839  0.50227163  -0.00151003  1
  Ca2+  Ca66  1  0.00120683  0.50531603  0.50098036  1
  Ca2+  Ca67  1  -0.00135763  -0.00254044  0.50205813  1
  Ca2+  Ca68  1  -0.00186430  -0.00473204  -0.00301720  1
  Ca2+  Ca69  1  0.24821610  0.74962475  0.49680634  1
  Ca2+  Ca70  1  0.24809684  0.74642087  -0.00096909  1
  Ca2+  Ca71  1  0.25055304  0.25124956  -0.00420868  1
  Ca2+  Ca72  1  0.75460422  0.74806192  0.49808720  1
  Ca2+  Ca73  1  0.75644487  0.74572349  0.00294079  1
  Ca2+  Ca74  1  0.25159999  0.00011659  0.25102502  1
  Ca2+  Ca75  1  -0.00191504  0.24993584  0.75262239  1
  Ca2+  Ca76  1  0.50192019  0.24893687  0.24868417  1
  Ca2+  Ca77  1  0.74887906  0.50004774  0.75427049  1
  Ca2+  Ca78  1  0.75040616  0.00503744  0.75521560  1
  Ca2+  Ca79  1  0.74889589  0.00129450  0.25286826  1
  Ca2+  Ca80  1  0.00090067  0.75167434  0.24844023  1
  Ca2+  Ca81  1  0.24785830  0.00525312  0.74463041  1
  Ca2+  Ca82  1  0.50060868  0.75088846  0.74789534  1
  Ca2+  Ca83  1  0.24997293  0.49834318  0.74362683  1
  Ca2+  Ca84  1  0.00076824  0.25160548  0.24997179  1
  Nb5+  Nb85  1  0.50424587  0.50306708  -0.00628671  1
  Nb5+  Nb86  1  0.50383167  0.50230834  0.49488442  1
  Nb5+  Nb87  1  0.50044302  0.00395496  0.50372037  1
  Nb5+  Nb88  1  0.74689112  0.24935079  0.00715649  1
  Nb5+  Nb89  1  0.74619469  0.24868440  0.50373793  1
  Nb5+  Nb90  1  0.24323856  0.25212373  0.50148532  1
  Nb5+  Nb91  1  0.49724859  0.75221184  0.24861433  1
  Nb5+  Nb92  1  0.75499047  0.50024733  0.25187840  1
  Nb5+  Nb93  1  -0.00065488  0.75216143  0.75002569  1
  Nb5+  Nb94  1  0.25824011  0.49738549  0.25132181  1
  Nb5+  Nb95  1  0.50159767  0.24942147  0.74886322  1
  Nb5+  Nb96  1  0.00021755  -0.00297834  0.25349550  1
  Nb5+  Nb97  1  0.00247027  0.00586402  0.75328900  1
  Nb5+  Nb98  1  0.01222436  0.49763886  0.25078916  1
  Nb5+  Nb99  1  -0.00380180  0.49856858  0.74878819  1
  Nb5+  Nb100  1  0.49759160  0.00369607  0.24353612  1
  Nb5+  Nb101  1  0.49752873  -0.00421447  0.75110432  1
  Nb5+  Nb102  1  0.50314058  0.49873031  0.24437906  1
  Nb5+  Nb103  1  0.50193404  0.50284570  0.73751955  1
  Nb5+  Nb104  1  0.24949185  0.24922445  0.24572045  1
  Nb5+  Nb105  1  0.24525886  0.25031672  0.75136066  1
  Nb5+  Nb106  1  0.25029280  0.75153738  0.25654638  1
  Nb5+  Nb107  1  0.25667823  0.74766441  0.74346477  1
  Nb5+  Nb108  1  0.74611206  0.24841322  0.25898927  1
  Nb5+  Nb109  1  0.75303328  0.24945028  0.75919294  1
  Nb5+  Nb110  1  0.75686016  0.74734334  0.24505805  1
  Nb5+  Nb111  1  0.74592989  0.75570070  0.75619626  1
  Nb5+  Nb112  1  -0.00901528  0.24885854  0.50219103  1
  Nb5+  Nb113  1  0.00634252  0.25806829  0.99480365  1
  Nb5+  Nb114  1  -0.00266214  0.74986470  0.49433179  1
  Nb5+  Nb115  1  0.00489446  0.74988757  1.00422286  1
  Nb5+  Nb116  1  0.49775712  0.25102938  0.50214234  1
  Nb5+  Nb117  1  0.50523722  0.25103690  1.00351792  1
  Nb5+  Nb118  1  0.50421773  0.75815980  0.50298281  1
  Nb5+  Nb119  1  0.49546088  0.75012750  0.99575459  1
  Nb5+  Nb120  1  0.25020283  -0.00014776  0.00158938  1
  Nb5+  Nb121  1  0.25027243  -0.00296352  0.50054574  1
  Nb5+  Nb122  1  0.24725518  0.49602459  -0.00033915  1
  Nb5+  Nb123  1  0.25005473  0.49520556  0.50275089  1
  Nb5+  Nb124  1  0.74912054  -0.00309082  0.00235771  1
  Nb5+  Nb125  1  0.75269786  0.00030867  0.49745678  1
  Nb5+  Nb126  1  0.74748701  0.49808851  -0.00307537  1
  Nb5+  Nb127  1  0.74979216  0.50185148  0.49627487  1
  O2-  O128  1  -0.02134330  0.01121843  0.13313372  1
  O2-  O129  1  -0.03124016  0.01034020  0.63640177  1
  O2-  O130  1  -0.00881818  0.51567707  0.13476719  1
  O2-  O131  1  -0.03292662  0.51418648  0.63259417  1
  O2-  O132  1  0.46487379  0.00199238  0.13524475  1
  O2-  O133  1  0.47590942  -0.00104929  0.62064083  1
  O2-  O134  1  0.48136862  0.50064971  0.12971699  1
  O2-  O135  1  0.48078241  0.49688775  0.62199321  1
  O2-  O136  1  0.02278844  -0.01933312  0.36997103  1
  O2-  O137  1  0.02977455  -0.01970293  0.86599130  1
  O2-  O138  1  0.01601126  0.47938339  0.36807898  1
  O2-  O139  1  0.02984414  0.49539760  0.86393551  1
  O2-  O140  1  0.51987998  -0.00550043  0.38444508  1
  O2-  O141  1  0.52027200  0.00263200  0.86495040  1
  O2-  O142  1  0.51954531  0.50021938  0.37787115  1
  O2-  O143  1  0.52248746  0.50579989  0.87921080  1
  O2-  O144  1  0.25095479  0.27905957  0.13414701  1
  O2-  O145  1  0.24372074  0.28089960  0.61702282  1
  O2-  O146  1  0.23687057  0.75980951  0.13940257  1
  O2-  O147  1  0.22847542  0.76669649  0.62932625  1
  O2-  O148  1  0.72622321  0.24205546  0.12249044  1
  O2-  O149  1  0.73692773  0.23892955  0.61846063  1
  O2-  O150  1  0.71925564  0.73217461  0.13425540  1
  O2-  O151  1  0.73204798  0.74309754  0.63435097  1
  O2-  O152  1  0.25649260  0.23501445  0.38132474  1
  O2-  O153  1  0.25666373  0.21645082  0.86078033  1
  O2-  O154  1  0.26685531  0.71158116  0.36674709  1
  O2-  O155  1  0.26521922  0.73318492  0.86331308  1
  O2-  O156  1  0.76720315  0.25992881  0.37407519  1
  O2-  O157  1  0.76243887  0.26443168  0.87490807  1
  O2-  O158  1  0.76637027  0.74405259  0.36210132  1
  O2-  O159  1  0.77990686  0.75930400  0.86920218  1
  O2-  O160  1  0.01714860  0.24675073  0.11396161  1
  O2-  O161  1  0.01511227  0.23272957  0.61769462  1
  O2-  O162  1  0.03444500  0.74996522  0.11616520  1
  O2-  O163  1  0.01261075  0.74632945  0.62816447  1
  O2-  O164  1  0.51534791  0.27324382  0.11481045  1
  O2-  O165  1  0.51749912  0.25597648  0.62409011  1
  O2-  O166  1  0.51692568  0.75072591  0.13102442  1
  O2-  O167  1  0.53617230  0.75616058  0.61342314  1
  O2-  O168  1  0.23449403  0.02873645  0.38682719  1
  O2-  O169  1  0.22930506  0.00556705  0.88173643  1
  O2-  O170  1  0.23682121  0.50784384  0.37450737  1
  O2-  O171  1  0.23370581  0.51527084  0.88626475  1
  O2-  O172  1  0.71422667  -0.00456248  0.38649376  1
  O2-  O173  1  0.71543982  -0.00173595  0.88832748  1
  O2-  O174  1  0.72673915  0.48385163  0.36931700  1
  O2-  O175  1  0.72939011  0.46975933  0.88794347  1
  O2-  O176  1  -0.02002658  0.26324740  0.38485194  1
  O2-  O177  1  -0.03296774  0.26127893  0.88332979  1
  O2-  O178  1  -0.02900638  0.75540695  0.38196878  1
  O2-  O179  1  -0.01744341  0.75217810  0.86836957  1
  O2-  O180  1  0.49506938  0.24108311  0.38734833  1
  O2-  O181  1  0.49336156  0.25045903  0.86933868  1
  O2-  O182  1  0.48008971  0.75029690  0.37226624  1
  O2-  O183  1  0.48035991  0.72750348  0.88372033  1
  O2-  O184  1  0.27833220  -0.01411455  0.11974276  1
  O2-  O185  1  0.28488270  -0.00694185  0.61218752  1
  O2-  O186  1  0.27228735  0.47903802  0.13449388  1
  O2-  O187  1  0.28650189  0.48161858  0.61170860  1
  O2-  O188  1  0.76765678  0.02698894  0.11835323  1
  O2-  O189  1  0.75687273  0.02543048  0.61387355  1
  O2-  O190  1  0.75756459  0.50801045  0.13011197  1
  O2-  O191  1  0.76441169  0.50709622  0.61137466  1
  O2-  O192  1  0.13529989  0.27758059  0.26688910  1
  O2-  O193  1  0.13437990  0.28181601  0.75689288  1
  O2-  O194  1  0.13616157  0.76125334  0.27831654  1
  O2-  O195  1  0.11988566  0.76435381  0.76197712  1
  O2-  O196  1  0.63469410  0.28781897  0.26027328  1
  O2-  O197  1  0.62111702  0.27413936  0.75726484  1
  O2-  O198  1  0.61614984  0.76020074  0.26833396  1
  O2-  O199  1  0.63249815  0.77632360  0.78215994  1
  O2-  O200  1  0.36652897  0.22904600  0.25197520  1
  O2-  O201  1  0.38243521  0.23471897  0.73308275  1
  O2-  O202  1  0.37786214  0.72600941  0.23487897  1
  O2-  O203  1  0.36880396  0.72872045  0.71737673  1
  O2-  O204  1  0.86011983  0.23411924  0.22927619  1
  O2-  O205  1  0.86195904  0.21735537  0.74053017  1
  O2-  O206  1  0.86572813  0.71757516  0.22585178  1
  O2-  O207  1  0.87721062  0.73835307  0.73552317  1
  O2-  O208  1  0.26891174  0.37840211  0.27309905  1
  O2-  O209  1  0.27944705  0.36442154  0.76571268  1
  O2-  O210  1  0.27291646  0.86295203  0.27677073  1
  O2-  O211  1  0.26744131  0.86748248  0.76058583  1
  O2-  O212  1  0.76793467  0.38007670  0.23973945  1
  O2-  O213  1  0.76346876  0.36247087  0.72806689  1
  O2-  O214  1  0.76407495  0.86269816  0.23520532  1
  O2-  O215  1  0.76677844  0.87176734  0.73525805  1
  O2-  O216  1  0.22596646  0.13639469  0.22942442  1
  O2-  O217  1  0.23629176  0.14140147  0.70904247  1
  O2-  O218  1  0.23285835  0.61306685  0.23466443  1
  O2-  O219  1  0.22775620  0.63139671  0.73433626  1
  O2-  O220  1  0.71616798  0.13756368  0.26163737  1
  O2-  O221  1  0.71363691  0.13878006  0.75626412  1
  O2-  O222  1  0.72475059  0.61608963  0.25721077  1
  O2-  O223  1  0.72776785  0.63466926  0.75910181  1
  O2-  O224  1  0.12849933  0.47640692  0.23640745  1
  O2-  O225  1  0.11389105  0.48295137  0.71901139  1
  O2-  O226  1  0.11726262  0.97285226  0.22898612  1
  O2-  O227  1  0.11603440  0.98383245  0.71639405  1
  O2-  O228  1  0.61869368  0.48483169  0.23375607  1
  O2-  O229  1  0.61434790  0.46950951  0.73712624  1
  O2-  O230  1  0.60979923  0.96509740  0.23580595  1
  O2-  O231  1  0.61132330  0.98737529  0.72141400  1
  O2-  O232  1  0.38732355  0.01421608  0.28512981  1
  O2-  O233  1  0.38454835  0.03348279  0.76166667  1
  O2-  O234  1  0.37438330  0.51832735  0.26738629  1
  O2-  O235  1  0.38977100  0.51593865  0.77423005  1
  O2-  O236  1  0.88060999  0.02013231  0.27911756  1
  O2-  O237  1  0.88510237  0.01552554  0.78317714  1
  O2-  O238  1  0.86799276  0.51987495  0.26760340  1
  O2-  O239  1  0.88123706  0.52060017  0.78180094  1
  O2-  O240  1  0.47713680  0.38719113  0.25915564  1
  O2-  O241  1  0.48088949  0.37333469  0.74928424  1
  O2-  O242  1  0.47500319  0.86816754  0.24982325  1
  O2-  O243  1  0.46726725  0.88430686  0.75165023  1
  O2-  O244  1  0.97193684  0.38578804  0.23992126  1
  O2-  O245  1  0.97107071  0.38387506  0.74124607  1
  O2-  O246  1  0.96560203  0.88160198  0.24401212  1
  O2-  O247  1  0.98430214  0.87169563  0.74204251  1
  O2-  O248  1  0.02068838  0.11735753  0.26235202  1
  O2-  O249  1  0.02827545  0.11812847  0.76837515  1
  O2-  O250  1  0.01932648  0.61454890  0.26704809  1
  O2-  O251  1  0.01385580  0.62925054  0.75250413  1
  O2-  O252  1  0.53072619  0.11424480  0.24745753  1
  O2-  O253  1  0.52018480  0.13217697  0.74539614  1
  O2-  O254  1  0.51042021  0.62154530  0.25692515  1
  O2-  O255  1  0.52950022  0.61500426  0.73859135  1
  O2-  O256  1  0.13865722  0.46827605  0.02251167  1
  O2-  O257  1  0.13941025  0.46932584  0.51518077  1
  O2-  O258  1  0.13222785  0.98626022  0.02330578  1
  O2-  O259  1  0.13737964  0.98660519  0.52476908  1
  O2-  O260  1  0.61854500  0.48070895  0.02630092  1
  O2-  O261  1  0.62004906  0.47278528  0.51407410  1
  O2-  O262  1  0.62993293  0.98436318  0.03240907  1
  O2-  O263  1  0.61804879  0.98928217  0.52375856  1
  O2-  O264  1  0.36654768  0.02909078  -0.02325036  1
  O2-  O265  1  0.38211277  0.01879343  0.48032496  1
  O2-  O266  1  0.38540149  0.51978286  -0.00981822  1
  O2-  O267  1  0.38494999  0.50860753  0.47732965  1
  O2-  O268  1  0.86251873  0.02077275  -0.02167086  1
  O2-  O269  1  0.86263060  0.02381646  0.47346833  1
  O2-  O270  1  0.86137160  0.51710980  -0.01288758  1
  O2-  O271  1  0.86117833  0.50966908  0.46749988  1
  O2-  O272  1  0.48597373  0.38040042  -0.01157137  1
  O2-  O273  1  0.48727576  0.37128188  0.49763344  1
  O2-  O274  1  0.47556124  0.86497995  -0.00815062  1
  O2-  O275  1  0.48340530  0.87494459  0.50116427  1
  O2-  O276  1  0.96687569  0.36988948  0.00768609  1
  O2-  O277  1  0.98423159  0.36611037  0.52085261  1
  O2-  O278  1  0.96290030  0.86238579  0.00301519  1
  O2-  O279  1  0.96272531  0.86461922  0.51094024  1
  O2-  O280  1  0.01211915  0.13683415  -0.01269548  1
  O2-  O281  1  0.01959610  0.13379136  0.48422655  1
  O2-  O282  1  0.03750814  0.63347588  -0.01021959  1
  O2-  O283  1  0.04095345  0.63574051  0.49300240  1
  O2-  O284  1  0.53217262  0.13881967  0.00338157  1
  O2-  O285  1  0.51656687  0.12508898  0.50829591  1
  O2-  O286  1  0.52283887  0.62016034  0.00802615  1
  O2-  O287  1  0.51912642  0.61845489  0.50324660  1
  O2-  O288  1  0.11699739  0.28322539  -0.02574617  1
  O2-  O289  1  0.12796928  0.26835780  0.48904005  1
  O2-  O290  1  0.11651469  0.77978826  -0.02807315  1
  O2-  O291  1  0.11289098  0.78641669  0.48390059  1
  O2-  O292  1  0.62708840  0.27675757  -0.01874205  1
  O2-  O293  1  0.62687016  0.26656186  0.49051058  1
  O2-  O294  1  0.61438157  0.76601087  -0.01264571  1
  O2-  O295  1  0.61591892  0.76098843  0.46627801  1
  O2-  O296  1  0.38967569  0.23169185  0.00622898  1
  O2-  O297  1  0.38033905  0.23736223  0.51507576  1
  O2-  O298  1  0.38466605  0.72622435  0.02770588  1
  O2-  O299  1  0.38991094  0.72950905  0.51724766  1
  O2-  O300  1  0.86282357  0.23313671  0.01648389  1
  O2-  O301  1  0.87154606  0.23009673  0.51330256  1
  O2-  O302  1  0.88987946  0.70914800  0.01350305  1
  O2-  O303  1  0.88476750  0.70666198  0.51576555  1
  O2-  O304  1  0.28762674  0.38505070  -0.01259751  1
  O2-  O305  1  0.27282118  0.37057681  0.47870118  1
  O2-  O306  1  0.27274280  0.88131503  -0.00738173  1
  O2-  O307  1  0.27213472  0.88605028  0.47589470  1
  O2-  O308  1  0.76069616  0.37364845  0.02224007  1
  O2-  O309  1  0.76203826  0.37025170  0.50446326  1
  O2-  O310  1  0.76435711  0.88310178  0.01736813  1
  O2-  O311  1  0.76328148  0.88594876  0.51327325  1
  O2-  O312  1  0.22876383  0.12019995  0.02411412  1
  O2-  O313  1  0.24202760  0.13460890  0.51918449  1
  O2-  O314  1  0.24399335  0.60973605  0.03024863  1
  O2-  O315  1  0.24093797  0.60989170  0.51708093  1
  O2-  O316  1  0.72468405  0.13507658  -0.00982143  1
  O2-  O317  1  0.72919416  0.13300986  0.48483453  1
  O2-  O318  1  0.71829336  0.61025792  -0.00966924  1
  O2-  O319  1  0.71724257  0.61130217  0.48807658  1
