# generated using pymatgen
data_Sr64Ca21Nb43O192
_symmetry_space_group_name_H-M   'P 1'
_cell_length_a   16.57898469
_cell_length_b   16.56524228
_cell_length_c   16.70699875
_cell_angle_alpha   90.03179562
_cell_angle_beta   90.01838404
_cell_angle_gamma   89.93370605
_symmetry_Int_Tables_number   1
_chemical_formula_structural   Sr64Ca21Nb43O192
_chemical_formula_sum   'Sr64 Ca21 Nb43 O192'
_cell_volume   4588.32088550
_cell_formula_units_Z   1
loop_
 _symmetry_equiv_pos_site_id
 _symmetry_equiv_pos_as_xyz
  1  'x, y, z'
loop_
 _atom_type_symbol
 _atom_type_oxidation_number
  Sr2+  2.0
  Ca2+  2.0
  Nb5+  5.0
  O2-  -2.0
loop_
 _atom_site_type_symbol
 _atom_site_label
 _atom_site_symmetry_multiplicity
 _atom_site_fract_x
 _atom_site_fract_y
 _atom_site_fract_z
 _atom_site_occupancy
  Sr2+  Sr0  1  0.13788392  0.11657159  0.12478957  1
  Sr2+  Sr1  1  0.12442548  0.13099487  0.63225232  1
  Sr2+  Sr2  1  0.12025022  0.59764984  0.12631972  1
  Sr2+  Sr3  1  0.13536874  0.61872486  0.62157069  1
  Sr2+  Sr4  1  0.62084815  0.11942590  0.13080919  1
  Sr2+  Sr5  1  0.63070747  0.11937319  0.62022504  1
  Sr2+  Sr6  1  0.64215636  0.61623188  0.12286638  1
  Sr2+  Sr7  1  0.62511263  0.61593018  0.61807033  1
  Sr2+  Sr8  1  0.37369657  0.36822844  0.12375558  1
  Sr2+  Sr9  1  0.37623550  0.39024322  0.62808281  1
  Sr2+  Sr10  1  0.37589993  0.86530948  0.13102935  1
  Sr2+  Sr11  1  0.37531208  0.86341468  0.62755617  1
  Sr2+  Sr12  1  0.88156323  0.37101349  0.13916310  1
  Sr2+  Sr13  1  0.88022853  0.35625773  0.61933636  1
  Sr2+  Sr14  1  0.88073386  0.85983398  0.11735208  1
  Sr2+  Sr15  1  0.88093878  0.86495764  0.63056614  1
  Sr2+  Sr16  1  0.10822526  0.38462528  0.37400825  1
  Sr2+  Sr17  1  0.11500311  0.37957240  0.87250153  1
  Sr2+  Sr18  1  0.11340631  0.88200966  0.37769154  1
  Sr2+  Sr19  1  0.11282516  0.88704146  0.87465255  1
  Sr2+  Sr20  1  0.62612055  0.37933584  0.36808118  1
  Sr2+  Sr21  1  0.61504504  0.38268897  0.87584006  1
  Sr2+  Sr22  1  0.61553589  0.88125339  0.37518638  1
  Sr2+  Sr23  1  0.62211826  0.87924388  0.88407630  1
  Sr2+  Sr24  1  0.37823998  0.12707774  0.38001910  1
  Sr2+  Sr25  1  0.36355161  0.13101005  0.87622427  1
  Sr2+  Sr26  1  0.36929509  0.63146526  0.37959583  1
  Sr2+  Sr27  1  0.37838369  0.63055735  0.87774653  1
  Sr2+  Sr28  1  0.85548520  0.13365935  0.38104327  1
  Sr2+  Sr29  1  0.86490544  0.13335790  0.87300102  1
  Sr2+  Sr30  1  0.87242282  0.63198673  0.36728338  1
  Sr2+  Sr31  1  0.86320650  0.62773044  0.87898546  1
  Sr2+  Sr32  1  0.12866008  0.13606938  0.37790056  1
  Sr2+  Sr33  1  0.12372839  0.13631399  0.87781830  1
  Sr2+  Sr34  1  0.11719143  0.63480518  0.37738316  1
  Sr2+  Sr35  1  0.11767040  0.62343941  0.88398790  1
  Sr2+  Sr36  1  0.61465660  0.13981284  0.37638711  1
  Sr2+  Sr37  1  0.61640248  0.13112063  0.87310209  1
  Sr2+  Sr38  1  0.61678683  0.63133816  0.37290676  1
  Sr2+  Sr39  1  0.62069716  0.62550947  0.88158548  1
  Sr2+  Sr40  1  0.37810991  0.38917270  0.37300493  1
  Sr2+  Sr41  1  0.36443809  0.39037547  0.87685889  1
  Sr2+  Sr42  1  0.36982105  0.86845969  0.37709918  1
  Sr2+  Sr43  1  0.37803998  0.87424709  0.87118447  1
  Sr2+  Sr44  1  0.86589690  0.38818057  0.37656476  1
  Sr2+  Sr45  1  0.87249476  0.38895234  0.86746673  1
  Sr2+  Sr46  1  0.87656120  0.87844077  0.36574684  1
  Sr2+  Sr47  1  0.86539053  0.88113553  0.87518463  1
  Sr2+  Sr48  1  0.13320005  0.36801060  0.12623570  1
  Sr2+  Sr49  1  0.11264117  0.36947702  0.62237549  1
  Sr2+  Sr50  1  0.11321177  0.87324039  0.13421389  1
  Sr2+  Sr51  1  0.12650736  0.87107109  0.62924899  1
  Sr2+  Sr52  1  0.63362992  0.36084707  0.12862711  1
  Sr2+  Sr53  1  0.64165254  0.37448022  0.62105607  1
  Sr2+  Sr54  1  0.64036365  0.87128472  0.12516721  1
  Sr2+  Sr55  1  0.63238616  0.86647735  0.63049708  1
  Sr2+  Sr56  1  0.37915281  0.12212094  0.12726745  1
  Sr2+  Sr57  1  0.37620853  0.11802987  0.62836422  1
  Sr2+  Sr58  1  0.36955729  0.61598172  0.13160944  1
  Sr2+  Sr59  1  0.38129241  0.62431826  0.62099680  1
  Sr2+  Sr60  1  0.89143803  0.11176490  0.12422604  1
  Sr2+  Sr61  1  0.88134799  0.11955672  0.62533379  1
  Sr2+  Sr62  1  0.89280232  0.62003540  0.12201209  1
  Sr2+  Sr63  1  0.87455102  0.61786621  0.63411908  1
  Ca2+  Ca64  1  0.00273675  -0.00034007  -0.00166560  1
  Ca2+  Ca65  1  0.00245763  0.00005068  0.49926872  1
  Ca2+  Ca66  1  0.49937589  0.49843264  0.00578243  1
  Ca2+  Ca67  1  -0.00200234  0.49291916  -0.00171599  1
  Ca2+  Ca68  1  -0.00125141  0.50273679  0.50262379  1
  Ca2+  Ca69  1  0.75054860  0.24640617  0.00136773  1
  Ca2+  Ca70  1  0.74817251  0.74973387  0.50164775  1
  Ca2+  Ca71  1  0.25175625  0.25229020  0.50086915  1
  Ca2+  Ca72  1  0.25090033  0.75402340  0.00129345  1
  Ca2+  Ca73  1  0.74712488  0.25005808  0.50023641  1
  Ca2+  Ca74  1  0.74979066  -0.00005646  0.25058479  1
  Ca2+  Ca75  1  0.74786764  0.50205517  0.24924870  1
  Ca2+  Ca76  1  0.24893742  0.49835874  0.25273296  1
  Ca2+  Ca77  1  0.00105903  0.74875482  0.24890006  1
  Ca2+  Ca78  1  0.24828353  0.50482630  0.74966153  1
  Ca2+  Ca79  1  0.00273368  0.75063644  0.75133553  1
  Ca2+  Ca80  1  0.74599975  0.49918578  0.75215289  1
  Ca2+  Ca81  1  0.50341430  0.75191556  0.24540202  1
  Ca2+  Ca82  1  0.49659646  0.25382239  0.74833587  1
  Ca2+  Ca83  1  0.50332106  0.74890536  0.74976941  1
  Ca2+  Ca84  1  0.00116696  0.24675570  0.24977687  1
  Nb5+  Nb85  1  0.50150549  0.50524791  0.49838814  1
  Nb5+  Nb86  1  0.49734484  -0.00008555  0.00697011  1
  Nb5+  Nb87  1  0.49891945  0.00146618  0.50603627  1
  Nb5+  Nb88  1  0.24803354  0.75216859  0.49956174  1
  Nb5+  Nb89  1  0.74894756  0.74794035  -0.00077632  1
  Nb5+  Nb90  1  0.25064879  0.25069014  -0.00026061  1
  Nb5+  Nb91  1  0.24600378  -0.00124111  0.75425940  1
  Nb5+  Nb92  1  -0.00329686  0.24700034  0.75248353  1
  Nb5+  Nb93  1  0.74278757  0.00057968  0.75020334  1
  Nb5+  Nb94  1  0.25252927  -0.00015629  0.25751404  1
  Nb5+  Nb95  1  0.49603945  0.25235083  0.25063550  1
  Nb5+  Nb96  1  -0.00215587  0.00526877  0.25408771  1
  Nb5+  Nb97  1  -0.00912508  0.00108293  0.75360587  1
  Nb5+  Nb98  1  -0.00167784  0.49780742  0.25360060  1
  Nb5+  Nb99  1  0.00198621  0.50559330  0.74471755  1
  Nb5+  Nb100  1  0.49756705  0.00004661  0.25618824  1
  Nb5+  Nb101  1  0.49490235  0.00401427  0.75581252  1
  Nb5+  Nb102  1  0.49919731  0.50321615  0.24505970  1
  Nb5+  Nb103  1  0.50113285  0.50255559  0.75420765  1
  Nb5+  Nb104  1  0.25417576  0.24972965  0.25519442  1
  Nb5+  Nb105  1  0.25057660  0.25430699  0.74717383  1
  Nb5+  Nb106  1  0.24667482  0.74901144  0.24530929  1
  Nb5+  Nb107  1  0.24996235  0.74942104  0.75432947  1
  Nb5+  Nb108  1  0.75469894  0.24430761  0.24662554  1
  Nb5+  Nb109  1  0.74621880  0.25325619  0.75374904  1
  Nb5+  Nb110  1  0.75166122  0.75332874  0.25343623  1
  Nb5+  Nb111  1  0.74557267  0.74672398  0.75217957  1
  Nb5+  Nb112  1  -0.00182817  0.24282502  0.49168087  1
  Nb5+  Nb113  1  -0.00258121  0.24717827  1.00269902  1
  Nb5+  Nb114  1  -0.00694572  0.74799435  0.50223232  1
  Nb5+  Nb115  1  0.00636958  0.74946145  0.99386723  1
  Nb5+  Nb116  1  0.49912796  0.25929813  0.50433504  1
  Nb5+  Nb117  1  0.49744747  0.24972156  0.99684401  1
  Nb5+  Nb118  1  0.50080611  0.75689604  0.49642231  1
  Nb5+  Nb119  1  0.50017803  0.74709468  1.00570256  1
  Nb5+  Nb120  1  0.25579418  -0.00365073  0.00558098  1
  Nb5+  Nb121  1  0.25095918  -0.00214324  0.50715331  1
  Nb5+  Nb122  1  0.24757510  0.50426187  -0.00002697  1
  Nb5+  Nb123  1  0.24997704  0.49692958  0.50003482  1
  Nb5+  Nb124  1  0.75107752  0.00565210  -0.00026678  1
  Nb5+  Nb125  1  0.75204438  -0.00439522  0.49895456  1
  Nb5+  Nb126  1  0.75321183  0.48870077  0.00606545  1
  Nb5+  Nb127  1  0.75266934  0.50654250  0.49935701  1
  O2-  O128  1  -0.01687185  -0.02062656  0.13399537  1
  O2-  O129  1  -0.01348238  -0.01694073  0.63714458  1
  O2-  O130  1  -0.02504623  0.48429433  0.13432442  1
  O2-  O131  1  -0.02783557  0.47212943  0.63405221  1
  O2-  O132  1  0.47723966  -0.00642243  0.12144393  1
  O2-  O133  1  0.47704995  -0.00811890  0.61863235  1
  O2-  O134  1  0.46427433  0.49108191  0.13649595  1
  O2-  O135  1  0.48131589  0.49975559  0.61819280  1
  O2-  O136  1  0.03925529  0.01924958  0.36397501  1
  O2-  O137  1  0.03010838  0.01822198  0.86392400  1
  O2-  O138  1  0.02766768  0.51316633  0.37008324  1
  O2-  O139  1  0.02794468  0.50694926  0.86144579  1
  O2-  O140  1  0.51468585  0.01092733  0.37247183  1
  O2-  O141  1  0.51393071  0.01413239  0.86985542  1
  O2-  O142  1  0.52133319  0.49932886  0.37868708  1
  O2-  O143  1  0.51881033  0.50645590  0.86954589  1
  O2-  O144  1  0.23685323  0.24308630  0.12099069  1
  O2-  O145  1  0.22399896  0.25220937  0.63486183  1
  O2-  O146  1  0.23309527  0.77715197  0.13453775  1
  O2-  O147  1  0.23363879  0.75778271  0.61940105  1
  O2-  O148  1  0.71699371  0.22954877  0.13458696  1
  O2-  O149  1  0.73320858  0.22881364  0.63790162  1
  O2-  O150  1  0.72886739  0.74428180  0.11599236  1
  O2-  O151  1  0.72162275  0.73405846  0.63899160  1
  O2-  O152  1  0.27550610  0.23740905  0.36642896  1
  O2-  O153  1  0.26398574  0.24795873  0.87726321  1
  O2-  O154  1  0.26988055  0.75001774  0.37753708  1
  O2-  O155  1  0.28095182  0.75213148  0.86517830  1
  O2-  O156  1  0.77008749  0.26618638  0.36530159  1
  O2-  O157  1  0.78185751  0.26179521  0.86651619  1
  O2-  O158  1  0.77657980  0.76359009  0.36618936  1
  O2-  O159  1  0.76578729  0.77004266  0.87928005  1
  O2-  O160  1  0.01087011  0.27898030  0.11273189  1
  O2-  O161  1  0.01376155  0.26018647  0.63305433  1
  O2-  O162  1  0.00570576  0.77203735  0.11215497  1
  O2-  O163  1  0.01515504  0.77875093  0.61541804  1
  O2-  O164  1  0.50840490  0.25563683  0.12670855  1
  O2-  O165  1  0.52890792  0.26320378  0.61410536  1
  O2-  O166  1  0.51405468  0.79092491  0.11329190  1
  O2-  O167  1  0.51754044  0.75808076  0.61238798  1
  O2-  O168  1  0.24207712  -0.00042624  0.37349614  1
  O2-  O169  1  0.24099466  -0.00403573  0.87116849  1
  O2-  O170  1  0.23134017  0.51413265  0.38614780  1
  O2-  O171  1  0.22879829  0.48546786  0.88379016  1
  O2-  O172  1  0.74038659  -0.03486918  0.38824528  1
  O2-  O173  1  0.73616526  -0.01950973  0.87030757  1
  O2-  O174  1  0.73256241  0.48022429  0.38500258  1
  O2-  O175  1  0.72587755  0.47906203  0.88865197  1
  O2-  O176  1  -0.01521371  0.21335801  0.38155665  1
  O2-  O177  1  -0.00655712  0.21960228  0.86939688  1
  O2-  O178  1  -0.01174923  0.72569685  0.38363157  1
  O2-  O179  1  -0.01454818  0.71410131  0.88164570  1
  O2-  O180  1  0.47777604  0.24149805  0.36991016  1
  O2-  O181  1  0.48418116  0.22433404  0.88436325  1
  O2-  O182  1  0.48236699  0.73463421  0.38086952  1
  O2-  O183  1  0.48158283  0.74573045  0.88718460  1
  O2-  O184  1  0.27413766  0.00576880  0.12088335  1
  O2-  O185  1  0.27239556  -0.00047414  0.62360137  1
  O2-  O186  1  0.27396116  0.49647930  0.11650073  1
  O2-  O187  1  0.27833693  0.51372075  0.61483246  1
  O2-  O188  1  0.75687364  0.02691146  0.11306465  1
  O2-  O189  1  0.75606417  0.02466629  0.63332905  1
  O2-  O190  1  0.77038264  0.53139117  0.11548146  1
  O2-  O191  1  0.75126439  0.52899643  0.61876060  1
  O2-  O192  1  0.13885291  0.26500708  0.26757282  1
  O2-  O193  1  0.12636348  0.25415527  0.76966661  1
  O2-  O194  1  0.13662659  0.77800175  0.27455203  1
  O2-  O195  1  0.13971883  0.79133553  0.76199985  1
  O2-  O196  1  0.61298370  0.26315059  0.26579725  1
  O2-  O197  1  0.63370139  0.26419508  0.77894937  1
  O2-  O198  1  0.63546980  0.78817305  0.26114226  1
  O2-  O199  1  0.63533083  0.78588022  0.77040448  1
  O2-  O200  1  0.37610682  0.22833258  0.22942224  1
  O2-  O201  1  0.36193536  0.22188402  0.73555096  1
  O2-  O202  1  0.36579791  0.73362143  0.23428244  1
  O2-  O203  1  0.36465277  0.73800137  0.72105902  1
  O2-  O204  1  0.86553303  0.22350617  0.22282289  1
  O2-  O205  1  0.88059011  0.22761576  0.73576461  1
  O2-  O206  1  0.86496891  0.72425228  0.22740930  1
  O2-  O207  1  0.86356242  0.74373825  0.73140853  1
  O2-  O208  1  0.27845723  0.36284793  0.24714876  1
  O2-  O209  1  0.27161445  0.36670145  0.75026188  1
  O2-  O210  1  0.27884836  0.88465325  0.25347266  1
  O2-  O211  1  0.27832177  0.88425580  0.74567831  1
  O2-  O212  1  0.75830820  0.36322067  0.22980458  1
  O2-  O213  1  0.77170124  0.36358520  0.72949713  1
  O2-  O214  1  0.77813880  0.86915567  0.22507221  1
  O2-  O215  1  0.76951698  0.88541794  0.73548402  1
  O2-  O216  1  0.23759072  0.12248077  0.24672444  1
  O2-  O217  1  0.23528676  0.11837487  0.75044353  1
  O2-  O218  1  0.22697202  0.63583815  0.23689670  1
  O2-  O219  1  0.21493819  0.63947474  0.75483265  1
  O2-  O220  1  0.72617677  0.13168128  0.27822121  1
  O2-  O221  1  0.73705817  0.12117407  0.77268454  1
  O2-  O222  1  0.71663140  0.63856909  0.25916266  1
  O2-  O223  1  0.73503007  0.63611090  0.78184645  1
  O2-  O224  1  0.11683694  0.47145202  0.23016837  1
  O2-  O225  1  0.11674190  0.47677673  0.72216079  1
  O2-  O226  1  0.14015206  0.98601355  0.22830834  1
  O2-  O227  1  0.13288848  0.98446600  0.73297655  1
  O2-  O228  1  0.61060664  0.46643335  0.23547061  1
  O2-  O229  1  0.61222745  0.46205219  0.73383859  1
  O2-  O230  1  0.61006547  0.98625385  0.22905929  1
  O2-  O231  1  0.62520020  0.98659792  0.73696815  1
  O2-  O232  1  0.37496291  0.02740696  0.25950916  1
  O2-  O233  1  0.37767260  0.02303293  0.76288445  1
  O2-  O234  1  0.38574242  0.51749340  0.28199512  1
  O2-  O235  1  0.38485554  0.53768662  0.76059915  1
  O2-  O236  1  0.88643620  0.02463379  0.27821073  1
  O2-  O237  1  0.87503327  0.01922871  0.76755202  1
  O2-  O238  1  0.88073823  0.51431204  0.27747552  1
  O2-  O239  1  0.88365925  0.51626442  0.77220271  1
  O2-  O240  1  0.47466600  0.36846499  0.25600383  1
  O2-  O241  1  0.46135494  0.38648395  0.75653461  1
  O2-  O242  1  0.47151606  0.88831341  0.26369910  1
  O2-  O243  1  0.48183507  0.88810255  0.74968208  1
  O2-  O244  1  0.97812446  0.37785749  0.27557419  1
  O2-  O245  1  0.98787290  0.36295978  0.76815748  1
  O2-  O246  1  0.99481335  0.88622989  0.27032032  1
  O2-  O247  1  0.98402603  0.88609179  0.77513645  1
  O2-  O248  1  0.02383885  0.11555815  0.21804551  1
  O2-  O249  1  0.01371527  0.12209736  0.73183259  1
  O2-  O250  1  0.01818715  0.61485596  0.23297034  1
  O2-  O251  1  0.01537268  0.61684951  0.71793625  1
  O2-  O252  1  0.51044281  0.12556712  0.24226184  1
  O2-  O253  1  0.51752717  0.11532914  0.72424218  1
  O2-  O254  1  0.52569499  0.61513094  0.23559208  1
  O2-  O255  1  0.53704076  0.61639071  0.74139376  1
  O2-  O256  1  0.13359816  0.47364002  0.02291052  1
  O2-  O257  1  0.13772632  0.48131781  0.52407333  1
  O2-  O258  1  0.14270048  0.97333295  0.01494027  1
  O2-  O259  1  0.13997680  0.97082158  0.51371472  1
  O2-  O260  1  0.63377278  0.48483604  0.02895899  1
  O2-  O261  1  0.61543787  0.48028303  0.51744482  1
  O2-  O262  1  0.61758543  0.98643209  0.01096163  1
  O2-  O263  1  0.61455274  0.97648063  0.51579588  1
  O2-  O264  1  0.38145559  0.02526968  -0.01890851  1
  O2-  O265  1  0.37815854  0.01217330  0.48182774  1
  O2-  O266  1  0.36526772  0.51696624  -0.02553292  1
  O2-  O267  1  0.38136835  0.51669713  0.47876306  1
  O2-  O268  1  0.86488749  0.01726612  -0.01998715  1
  O2-  O269  1  0.86422340  0.02150210  0.49097304  1
  O2-  O270  1  0.86524422  0.51321587  -0.02706084  1
  O2-  O271  1  0.86454861  0.53051770  0.48391783  1
  O2-  O272  1  0.46948606  0.36218362  -0.00957684  1
  O2-  O273  1  0.47716411  0.37451481  0.49397855  1
  O2-  O274  1  0.48503186  0.88613126  -0.02028277  1
  O2-  O275  1  0.48151981  0.87632956  0.48445463  1
  O2-  O276  1  0.98718285  0.35742698  -0.03707063  1
  O2-  O277  1  0.97782461  0.36218986  0.48528374  1
  O2-  O278  1  0.97886155  0.86534964  -0.02816432  1
  O2-  O279  1  0.98342769  0.86557359  0.47262246  1
  O2-  O280  1  0.03508392  0.13380662  0.01377349  1
  O2-  O281  1  0.02645241  0.13160033  0.52452619  1
  O2-  O282  1  0.01753083  0.63112791  0.02071098  1
  O2-  O283  1  0.03489948  0.63682592  0.51637666  1
  O2-  O284  1  0.51680963  0.12252824  0.01484654  1
  O2-  O285  1  0.51597919  0.11843090  0.50524851  1
  O2-  O286  1  0.52786546  0.63591842  0.01746725  1
  O2-  O287  1  0.51328033  0.62374335  0.50385139  1
  O2-  O288  1  0.13353420  0.26461456  -0.01547077  1
  O2-  O289  1  0.11646667  0.26953915  0.47817100  1
  O2-  O290  1  0.11818724  0.76982985  -0.02690758  1
  O2-  O291  1  0.13474640  0.77164245  0.48146632  1
  O2-  O292  1  0.61167609  0.27043420  -0.01411001  1
  O2-  O293  1  0.61155161  0.26136858  0.46809647  1
  O2-  O294  1  0.62617112  0.76833161  -0.01691014  1
  O2-  O295  1  0.61481486  0.77089373  0.47519396  1
  O2-  O296  1  0.37156587  0.22536487  0.01466713  1
  O2-  O297  1  0.38828902  0.22335418  0.51786555  1
  O2-  O298  1  0.38582644  0.72731324  0.02682012  1
  O2-  O299  1  0.37669646  0.74033444  0.51489887  1
  O2-  O300  1  0.88665483  0.21583028  0.01345282  1
  O2-  O301  1  0.88171283  0.22505821  0.51947811  1
  O2-  O302  1  0.86704049  0.73735558  0.01332273  1
  O2-  O303  1  0.88216199  0.72624035  0.52493177  1
  O2-  O304  1  0.27248404  0.36542866  0.00425012  1
  O2-  O305  1  0.28101312  0.38565297  0.49606160  1
  O2-  O306  1  0.29140686  0.88741758  -0.00436285  1
  O2-  O307  1  0.27730780  0.87501058  0.49910693  1
  O2-  O308  1  0.77197861  0.37843659  0.03140753  1
  O2-  O309  1  0.76328455  0.38680025  0.52376506  1
  O2-  O310  1  0.75744457  0.88113239  0.01116958  1
  O2-  O311  1  0.75913950  0.88507818  0.53982074  1
  O2-  O312  1  0.23854078  0.12053242  -0.00816784  1
  O2-  O313  1  0.23518394  0.11269159  0.50078303  1
  O2-  O314  1  0.22432420  0.61789360  0.00091896  1
  O2-  O315  1  0.24262103  0.63343943  0.50196539  1
  O2-  O316  1  0.72421909  0.11478922  -0.02930388  1
  O2-  O317  1  0.71803364  0.10949843  0.48731185  1
  O2-  O318  1  0.73287926  0.63337583  -0.01813140  1
  O2-  O319  1  0.71302864  0.61801135  0.48314834  1
