# generated using pymatgen
data_Sr64Ca21Nb43O192
_symmetry_space_group_name_H-M   'P 1'
_cell_length_a   16.61602828
_cell_length_b   16.59166620
_cell_length_c   16.74140661
_cell_angle_alpha   89.95956056
_cell_angle_beta   90.05666219
_cell_angle_gamma   89.92708010
_symmetry_Int_Tables_number   1
_chemical_formula_structural   Sr64Ca21Nb43O192
_chemical_formula_sum   'Sr64 Ca21 Nb43 O192'
_cell_volume   4615.39097441
_cell_formula_units_Z   1
loop_
 _symmetry_equiv_pos_site_id
 _symmetry_equiv_pos_as_xyz
  1  'x, y, z'
loop_
 _atom_type_symbol
 _atom_type_oxidation_number
  Sr2+  2.0
  Ca2+  2.0
  Nb5+  5.0
  O2-  -2.0
loop_
 _atom_site_type_symbol
 _atom_site_label
 _atom_site_symmetry_multiplicity
 _atom_site_fract_x
 _atom_site_fract_y
 _atom_site_fract_z
 _atom_site_occupancy
  Sr2+  Sr0  1  0.11262429  0.11502473  0.12738985  1
  Sr2+  Sr1  1  0.12292578  0.11285206  0.62572954  1
  Sr2+  Sr2  1  0.12133832  0.63442344  0.12364883  1
  Sr2+  Sr3  1  0.11452569  0.64138262  0.62936053  1
  Sr2+  Sr4  1  0.61698996  0.11170489  0.12779813  1
  Sr2+  Sr5  1  0.62097909  0.12040545  0.62927081  1
  Sr2+  Sr6  1  0.61558998  0.62651191  0.11941068  1
  Sr2+  Sr7  1  0.61414857  0.62612400  0.61243686  1
  Sr2+  Sr8  1  0.36542316  0.37560874  0.12002873  1
  Sr2+  Sr9  1  0.36842086  0.36786170  0.62901264  1
  Sr2+  Sr10  1  0.37115943  0.87336216  0.12759848  1
  Sr2+  Sr11  1  0.37057953  0.87907196  0.62263305  1
  Sr2+  Sr12  1  0.87002904  0.37002355  0.13859371  1
  Sr2+  Sr13  1  0.87028632  0.36481463  0.61773604  1
  Sr2+  Sr14  1  0.87436015  0.86499389  0.12859059  1
  Sr2+  Sr15  1  0.87086690  0.87335198  0.62637487  1
  Sr2+  Sr16  1  0.13336316  0.37800580  0.37530658  1
  Sr2+  Sr17  1  0.13650333  0.38063160  0.87454117  1
  Sr2+  Sr18  1  0.13244388  0.87485423  0.39593917  1
  Sr2+  Sr19  1  0.13097930  0.87697464  0.88219160  1
  Sr2+  Sr20  1  0.64799620  0.38452581  0.37710908  1
  Sr2+  Sr21  1  0.62179171  0.37532158  0.87293300  1
  Sr2+  Sr22  1  0.62324304  0.86736643  0.37216206  1
  Sr2+  Sr23  1  0.63444948  0.87648845  0.87273762  1
  Sr2+  Sr24  1  0.38760993  0.13789460  0.37235875  1
  Sr2+  Sr25  1  0.39474452  0.13432266  0.87902720  1
  Sr2+  Sr26  1  0.39767249  0.61874108  0.37239938  1
  Sr2+  Sr27  1  0.38535163  0.61524264  0.87609375  1
  Sr2+  Sr28  1  0.88457145  0.13498289  0.37589130  1
  Sr2+  Sr29  1  0.87461613  0.12404266  0.87987822  1
  Sr2+  Sr30  1  0.86457847  0.62442928  0.37554423  1
  Sr2+  Sr31  1  0.86678178  0.62948489  0.87947268  1
  Sr2+  Sr32  1  0.13039322  0.14055295  0.37579714  1
  Sr2+  Sr33  1  0.12328798  0.13366937  0.88175882  1
  Sr2+  Sr34  1  0.12729411  0.62526793  0.37580320  1
  Sr2+  Sr35  1  0.13349541  0.62197425  0.86902498  1
  Sr2+  Sr36  1  0.63006915  0.12654777  0.37264639  1
  Sr2+  Sr37  1  0.63228058  0.12852027  0.86853125  1
  Sr2+  Sr38  1  0.62682178  0.62542107  0.36875009  1
  Sr2+  Sr39  1  0.63222610  0.62618548  0.88013277  1
  Sr2+  Sr40  1  0.37427869  0.38241231  0.37183663  1
  Sr2+  Sr41  1  0.38109540  0.37383376  0.87116175  1
  Sr2+  Sr42  1  0.39263339  0.88507540  0.37259872  1
  Sr2+  Sr43  1  0.38518322  0.88143410  0.88615224  1
  Sr2+  Sr44  1  0.88994554  0.38591766  0.37665277  1
  Sr2+  Sr45  1  0.87956820  0.37702732  0.86684469  1
  Sr2+  Sr46  1  0.87855619  0.88896579  0.37838008  1
  Sr2+  Sr47  1  0.87801499  0.87706824  0.87563594  1
  Sr2+  Sr48  1  0.11355058  0.37850897  0.12565389  1
  Sr2+  Sr49  1  0.11987764  0.37518222  0.62859285  1
  Sr2+  Sr50  1  0.13507870  0.87518116  0.12038052  1
  Sr2+  Sr51  1  0.13272762  0.87359109  0.62814733  1
  Sr2+  Sr52  1  0.63010610  0.37639653  0.11719829  1
  Sr2+  Sr53  1  0.61292990  0.36574189  0.62833591  1
  Sr2+  Sr54  1  0.60952542  0.87016009  0.12923190  1
  Sr2+  Sr55  1  0.61557163  0.86766573  0.62927630  1
  Sr2+  Sr56  1  0.36885564  0.12207902  0.13205428  1
  Sr2+  Sr57  1  0.37554145  0.12805778  0.62488873  1
  Sr2+  Sr58  1  0.37637677  0.62491645  0.12824432  1
  Sr2+  Sr59  1  0.37656615  0.63032058  0.62603600  1
  Sr2+  Sr60  1  0.86228689  0.11987349  0.13681317  1
  Sr2+  Sr61  1  0.86135622  0.11604737  0.62805813  1
  Sr2+  Sr62  1  0.85763663  0.62837323  0.12276346  1
  Sr2+  Sr63  1  0.87366208  0.62290306  0.61611913  1
  Ca2+  Ca64  1  0.50161866  0.00095414  0.50001343  1
  Ca2+  Ca65  1  0.50123611  0.00238771  -0.00012982  1
  Ca2+  Ca66  1  0.49782244  0.49852276  0.00077822  1
  Ca2+  Ca67  1  0.49967830  0.49728837  0.50165648  1
  Ca2+  Ca68  1  -0.00385923  0.50189753  -0.00152807  1
  Ca2+  Ca69  1  0.75236289  0.24787369  0.49966967  1
  Ca2+  Ca70  1  0.75087653  0.24926298  0.00117060  1
  Ca2+  Ca71  1  0.24971754  0.24868606  0.00206062  1
  Ca2+  Ca72  1  0.25531955  0.74668872  0.49966669  1
  Ca2+  Ca73  1  0.75111431  0.75166005  0.50041042  1
  Ca2+  Ca74  1  0.49885581  0.75015962  0.75269260  1
  Ca2+  Ca75  1  0.75286766  0.50117159  0.24908597  1
  Ca2+  Ca76  1  0.75031892  0.50166059  0.74755075  1
  Ca2+  Ca77  1  0.49560587  0.74879201  0.24780618  1
  Ca2+  Ca78  1  -0.00216722  0.75172901  0.75325904  1
  Ca2+  Ca79  1  0.24673536  0.00157540  0.25326557  1
  Ca2+  Ca80  1  0.00022186  0.74901689  0.24919708  1
  Ca2+  Ca81  1  0.24915454  0.00305655  0.75349722  1
  Ca2+  Ca82  1  0.74937841  -0.00186211  0.25000037  1
  Ca2+  Ca83  1  0.50081086  0.25612747  0.25059135  1
  Ca2+  Ca84  1  0.00123254  0.24961807  0.74724980  1
  Nb5+  Nb85  1  0.00774301  0.50738141  0.50078860  1
  Nb5+  Nb86  1  -0.00465540  -0.00139433  0.00877735  1
  Nb5+  Nb87  1  -0.00017091  0.00691109  0.50564149  1
  Nb5+  Nb88  1  0.25530181  0.74766170  -0.00420334  1
  Nb5+  Nb89  1  0.75093085  0.75317185  -0.00019160  1
  Nb5+  Nb90  1  0.25124916  0.25028207  0.50138584  1
  Nb5+  Nb91  1  0.00253423  0.24897401  0.24957336  1
  Nb5+  Nb92  1  0.25032754  0.49902318  0.74151942  1
  Nb5+  Nb93  1  0.50080729  0.25014021  0.74918041  1
  Nb5+  Nb94  1  0.75073281  -0.00071813  0.75066659  1
  Nb5+  Nb95  1  0.24751139  0.49975015  0.24488899  1
  Nb5+  Nb96  1  0.00089070  -0.00348716  0.25918401  1
  Nb5+  Nb97  1  0.00108384  -0.00234232  0.76021212  1
  Nb5+  Nb98  1  0.00540835  0.50434509  0.25128024  1
  Nb5+  Nb99  1  -0.00174496  0.50044510  0.75192850  1
  Nb5+  Nb100  1  0.49945606  0.00349662  0.25070933  1
  Nb5+  Nb101  1  0.49555167  -0.00018237  0.74945343  1
  Nb5+  Nb102  1  0.50614946  0.49416934  0.24799902  1
  Nb5+  Nb103  1  0.50486289  0.50153849  0.75041992  1
  Nb5+  Nb104  1  0.24771477  0.25209538  0.24612630  1
  Nb5+  Nb105  1  0.24958581  0.24752581  0.75325360  1
  Nb5+  Nb106  1  0.24724654  0.75085029  0.25491310  1
  Nb5+  Nb107  1  0.25625505  0.75577591  0.75274866  1
  Nb5+  Nb108  1  0.74485014  0.25314066  0.25268123  1
  Nb5+  Nb109  1  0.75414712  0.25111008  0.74872608  1
  Nb5+  Nb110  1  0.74875742  0.74908350  0.25287922  1
  Nb5+  Nb111  1  0.74592388  0.74673064  0.74739969  1
  Nb5+  Nb112  1  0.00454514  0.25377384  0.50310605  1
  Nb5+  Nb113  1  -0.00727638  0.25239482  0.99785229  1
  Nb5+  Nb114  1  -0.00011997  0.75942712  0.50007523  1
  Nb5+  Nb115  1  0.00448288  0.74899505  0.99611381  1
  Nb5+  Nb116  1  0.50467960  0.25574122  0.49579630  1
  Nb5+  Nb117  1  0.50224820  0.24865741  1.00767044  1
  Nb5+  Nb118  1  0.49835701  0.74962840  0.49835108  1
  Nb5+  Nb119  1  0.50462813  0.75387932  0.99543335  1
  Nb5+  Nb120  1  0.24802068  0.00529736  -0.00182847  1
  Nb5+  Nb121  1  0.25421454  0.00206922  0.49506142  1
  Nb5+  Nb122  1  0.24936829  0.49977641  -0.00617079  1
  Nb5+  Nb123  1  0.24712440  0.50147156  0.49734212  1
  Nb5+  Nb124  1  0.74846572  -0.00251554  0.00407216  1
  Nb5+  Nb125  1  0.74412394  -0.00370052  0.50058490  1
  Nb5+  Nb126  1  0.75482500  0.49438308  -0.00353318  1
  Nb5+  Nb127  1  0.74930378  0.49723305  0.50589145  1
  O2-  O128  1  -0.02115995  0.01984861  0.12089766  1
  O2-  O129  1  -0.01627942  0.01896243  0.61852255  1
  O2-  O130  1  0.00287535  0.50750768  0.13662498  1
  O2-  O131  1  0.00698393  0.51823523  0.61956789  1
  O2-  O132  1  0.48212027  0.02904634  0.13223667  1
  O2-  O133  1  0.49367832  0.03054326  0.63440031  1
  O2-  O134  1  0.49613703  0.52694832  0.13397775  1
  O2-  O135  1  0.49017845  0.52519636  0.63650356  1
  O2-  O136  1  0.01772309  -0.01782350  0.37354348  1
  O2-  O137  1  0.00872132  -0.01929636  0.87414681  1
  O2-  O138  1  0.01825155  0.48411315  0.38020733  1
  O2-  O139  1  0.00569365  0.46810610  0.86321498  1
  O2-  O140  1  0.51987295  -0.02377746  0.36708437  1
  O2-  O141  1  0.52191526  -0.01588207  0.86294339  1
  O2-  O142  1  0.49293763  0.47837714  0.36660034  1
  O2-  O143  1  0.49173261  0.47357497  0.86567720  1
  O2-  O144  1  0.23494753  0.28476771  0.13602726  1
  O2-  O145  1  0.23870355  0.27372657  0.61926031  1
  O2-  O146  1  0.26596177  0.75778533  0.11280651  1
  O2-  O147  1  0.27016230  0.76525205  0.63628236  1
  O2-  O148  1  0.74787118  0.28148098  0.13558440  1
  O2-  O149  1  0.72742248  0.26666244  0.63424057  1
  O2-  O150  1  0.75376438  0.77371691  0.11669109  1
  O2-  O151  1  0.75992023  0.77038994  0.63616040  1
  O2-  O152  1  0.26107913  0.23479320  0.37875062  1
  O2-  O153  1  0.26765399  0.22518870  0.86444013  1
  O2-  O154  1  0.22322024  0.73789352  0.36516049  1
  O2-  O155  1  0.23097073  0.73503268  0.87542195  1
  O2-  O156  1  0.76033790  0.21743777  0.36645463  1
  O2-  O157  1  0.75731690  0.22249469  0.86422347  1
  O2-  O158  1  0.73934452  0.72687078  0.36574165  1
  O2-  O159  1  0.73545743  0.73838896  0.88001678  1
  O2-  O160  1  0.02503669  0.24170471  0.13289516  1
  O2-  O161  1  0.03509281  0.23731833  0.61291878  1
  O2-  O162  1  -0.01530757  0.72646987  0.10984002  1
  O2-  O163  1  -0.01388702  0.73214213  0.61635834  1
  O2-  O164  1  0.52150784  0.23146441  0.11833164  1
  O2-  O165  1  0.51303454  0.23201863  0.62827232  1
  O2-  O166  1  0.49035788  0.72885444  0.11198411  1
  O2-  O167  1  0.49893037  0.72738667  0.61877291  1
  O2-  O168  1  0.21275766  0.01575219  0.38622852  1
  O2-  O169  1  0.21343076  0.00990912  0.88552040  1
  O2-  O170  1  0.23667307  0.50913386  0.37977508  1
  O2-  O171  1  0.24604330  0.51323500  0.87602881  1
  O2-  O172  1  0.72843922  0.00793415  0.38699745  1
  O2-  O173  1  0.73910732  0.01384220  0.87196410  1
  O2-  O174  1  0.74187671  0.52209102  0.38674800  1
  O2-  O175  1  0.74673238  0.52895730  0.88191399  1
  O2-  O176  1  -0.01108758  0.25637008  0.37763440  1
  O2-  O177  1  -0.03152159  0.25567211  0.88469740  1
  O2-  O178  1  0.02483488  0.76134009  0.38459527  1
  O2-  O179  1  0.00278476  0.78916323  0.88558757  1
  O2-  O180  1  0.47376118  0.27089330  0.38643654  1
  O2-  O181  1  0.48410649  0.26486455  0.86628015  1
  O2-  O182  1  0.49955053  0.77163243  0.38066364  1
  O2-  O183  1  0.50369807  0.78606581  0.88256278  1
  O2-  O184  1  0.25879025  -0.02500293  0.11262566  1
  O2-  O185  1  0.25686042  -0.01648115  0.61361000  1
  O2-  O186  1  0.24969850  0.48467663  0.12868874  1
  O2-  O187  1  0.25301836  0.47706675  0.62651114  1
  O2-  O188  1  0.78150606  -0.01644308  0.11283870  1
  O2-  O189  1  0.77387700  -0.01225363  0.63217543  1
  O2-  O190  1  0.76185032  0.47977448  0.11558987  1
  O2-  O191  1  0.78265177  0.48207913  0.61762979  1
  O2-  O192  1  0.12492145  0.26602753  0.27272589  1
  O2-  O193  1  0.13643865  0.26909424  0.76985898  1
  O2-  O194  1  0.13636163  0.75766991  0.21433473  1
  O2-  O195  1  0.13746959  0.76329099  0.73852803  1
  O2-  O196  1  0.63442106  0.27865807  0.26885030  1
  O2-  O197  1  0.61988163  0.26458120  0.76274861  1
  O2-  O198  1  0.63178434  0.77589911  0.24336297  1
  O2-  O199  1  0.63361611  0.78457177  0.75352436  1
  O2-  O200  1  0.36253302  0.23482766  0.23990999  1
  O2-  O201  1  0.37666345  0.23756973  0.73272066  1
  O2-  O202  1  0.35780852  0.71312237  0.25148720  1
  O2-  O203  1  0.36442233  0.71113393  0.76443647  1
  O2-  O204  1  0.88636415  0.23238260  0.23878827  1
  O2-  O205  1  0.86635768  0.23535288  0.72436982  1
  O2-  O206  1  0.86573604  0.71883932  0.24791340  1
  O2-  O207  1  0.86147756  0.73376890  0.76989864  1
  O2-  O208  1  0.26155189  0.37804933  0.27233310  1
  O2-  O209  1  0.26990758  0.37202045  0.76373100  1
  O2-  O210  1  0.27060878  0.86320717  0.26156100  1
  O2-  O211  1  0.27891769  0.86611253  0.77341763  1
  O2-  O212  1  0.78151877  0.36503894  0.27724514  1
  O2-  O213  1  0.76507470  0.36498360  0.77223864  1
  O2-  O214  1  0.77894713  0.86422540  0.26553690  1
  O2-  O215  1  0.76919406  0.88328977  0.76748592  1
  O2-  O216  1  0.22682472  0.13879637  0.22870100  1
  O2-  O217  1  0.23798291  0.13712004  0.71907363  1
  O2-  O218  1  0.21954255  0.61396249  0.23956242  1
  O2-  O219  1  0.23001584  0.61358727  0.73442679  1
  O2-  O220  1  0.73416845  0.13638157  0.22250121  1
  O2-  O221  1  0.73441682  0.12265859  0.73271024  1
  O2-  O222  1  0.72559170  0.63377933  0.21967638  1
  O2-  O223  1  0.71687358  0.63638421  0.73399112  1
  O2-  O224  1  0.12613660  0.47026246  0.24967414  1
  O2-  O225  1  0.13363521  0.47184117  0.75125440  1
  O2-  O226  1  0.11087940  0.99092180  0.21976073  1
  O2-  O227  1  0.11304357  0.97878852  0.73323375  1
  O2-  O228  1  0.61820008  0.46858770  0.24589684  1
  O2-  O229  1  0.61570008  0.47117028  0.74276647  1
  O2-  O230  1  0.61686477  0.98602299  0.22352990  1
  O2-  O231  1  0.63230788  0.98947121  0.73392249  1
  O2-  O232  1  0.38036928  0.02409651  0.27239177  1
  O2-  O233  1  0.38415803  0.02208126  0.76908288  1
  O2-  O234  1  0.36197647  0.51822149  0.25549512  1
  O2-  O235  1  0.36865820  0.50894939  0.75437603  1
  O2-  O236  1  0.88683076  0.02805454  0.26852331  1
  O2-  O237  1  0.87428500  0.02469786  0.76353715  1
  O2-  O238  1  0.89068746  0.51192608  0.26875825  1
  O2-  O239  1  0.88778512  0.53068599  0.75588203  1
  O2-  O240  1  0.46544443  0.38607664  0.22597728  1
  O2-  O241  1  0.48390675  0.36958936  0.72966568  1
  O2-  O242  1  0.47480261  0.88507753  0.23114438  1
  O2-  O243  1  0.48275100  0.88766321  0.72277198  1
  O2-  O244  1  0.98926516  0.36942763  0.24399242  1
  O2-  O245  1  0.98272152  0.38608127  0.71797965  1
  O2-  O246  1  0.97620491  0.88558930  0.23879376  1
  O2-  O247  1  0.97161516  0.88734036  0.73250465  1
  O2-  O248  1  0.02149030  0.12881282  0.26507557  1
  O2-  O249  1  0.02067496  0.11528306  0.76376575  1
  O2-  O250  1  0.03060522  0.61453539  0.26422998  1
  O2-  O251  1  0.03477470  0.61272268  0.75899371  1
  O2-  O252  1  0.52077547  0.12136205  0.27409189  1
  O2-  O253  1  0.51531413  0.13026332  0.76690532  1
  O2-  O254  1  0.51384381  0.61350682  0.27216297  1
  O2-  O255  1  0.51910554  0.61309783  0.77782901  1
  O2-  O256  1  0.13261081  0.48424730  0.00572579  1
  O2-  O257  1  0.12515578  0.46750543  0.50719815  1
  O2-  O258  1  0.11403432  0.97952546  0.01332368  1
  O2-  O259  1  0.11612780  0.97913850  0.51764378  1
  O2-  O260  1  0.63499504  0.48667547  0.00442776  1
  O2-  O261  1  0.63730767  0.47453944  0.51896783  1
  O2-  O262  1  0.63621863  0.97468659  0.01836681  1
  O2-  O263  1  0.63537491  0.97491682  0.52543063  1
  O2-  O264  1  0.36075962  0.01417240  -0.02530367  1
  O2-  O265  1  0.36414856  0.02871774  0.48016482  1
  O2-  O266  1  0.36140401  0.53029609  0.00761018  1
  O2-  O267  1  0.36110373  0.51418214  0.49688070  1
  O2-  O268  1  0.87820677  0.00618371  -0.02402700  1
  O2-  O269  1  0.88466171  0.01800361  0.47769775  1
  O2-  O270  1  0.86620044  0.53708022  -0.00110383  1
  O2-  O271  1  0.89131392  0.51580887  0.48858864  1
  O2-  O272  1  0.46756037  0.36368181  0.01104128  1
  O2-  O273  1  0.47910976  0.36483266  0.53276091  1
  O2-  O274  1  0.47213370  0.86796725  0.02035535  1
  O2-  O275  1  0.46551555  0.86592179  0.51513991  1
  O2-  O276  1  0.97288944  0.36342210  0.02056384  1
  O2-  O277  1  0.98780181  0.36981054  0.51227773  1
  O2-  O278  1  0.98323101  0.87810377  0.02332278  1
  O2-  O279  1  0.97984202  0.87648844  0.50820138  1
  O2-  O280  1  0.01701659  0.11639961  -0.01353463  1
  O2-  O281  1  0.02259128  0.12048073  0.48370341  1
  O2-  O282  1  0.01217395  0.63831993  -0.03733929  1
  O2-  O283  1  0.02868877  0.61984607  0.48921837  1
  O2-  O284  1  0.52458244  0.13604222  -0.02794087  1
  O2-  O285  1  0.51808438  0.13787385  0.48377071  1
  O2-  O286  1  0.51127320  0.63747541  -0.02912486  1
  O2-  O287  1  0.53207503  0.63097528  0.47957529  1
  O2-  O288  1  0.11123452  0.26173689  -0.02132735  1
  O2-  O289  1  0.12785879  0.26173132  0.47853434  1
  O2-  O290  1  0.12086585  0.76530037  0.00996506  1
  O2-  O291  1  0.11885269  0.76983570  0.52139690  1
  O2-  O292  1  0.61614226  0.28298548  -0.01197372  1
  O2-  O293  1  0.61692665  0.27799785  0.48370991  1
  O2-  O294  1  0.62165894  0.77007338  0.00609391  1
  O2-  O295  1  0.61697368  0.77828693  0.50573389  1
  O2-  O296  1  0.38340998  0.21797474  0.01365231  1
  O2-  O297  1  0.36803984  0.23267632  0.51484808  1
  O2-  O298  1  0.36850844  0.73471918  -0.02185805  1
  O2-  O299  1  0.38387182  0.70962481  0.49359676  1
  O2-  O300  1  0.88587143  0.21386091  0.02537099  1
  O2-  O301  1  0.89207620  0.22744090  0.51882459  1
  O2-  O302  1  0.86896571  0.74170203  -0.00935562  1
  O2-  O303  1  0.88844136  0.72499179  0.48335370  1
  O2-  O304  1  0.27053557  0.38567201  -0.01831452  1
  O2-  O305  1  0.26326127  0.37101707  0.48392982  1
  O2-  O306  1  0.25474619  0.86825082  -0.02008066  1
  O2-  O307  1  0.26772783  0.88616148  0.47673525  1
  O2-  O308  1  0.77701530  0.38435083  -0.02797410  1
  O2-  O309  1  0.78034700  0.38320283  0.47926141  1
  O2-  O310  1  0.76158764  0.87436363  -0.02478313  1
  O2-  O311  1  0.78527142  0.88573538  0.49408228  1
  O2-  O312  1  0.22361540  0.11487245  0.02285923  1
  O2-  O313  1  0.22936798  0.12997014  0.51756553  1
  O2-  O314  1  0.22476575  0.62952806  0.00780957  1
  O2-  O315  1  0.21916340  0.61026572  0.51926289  1
  O2-  O316  1  0.73163243  0.11201420  0.01339008  1
  O2-  O317  1  0.74187449  0.11196042  0.52584419  1
  O2-  O318  1  0.72969085  0.63729860  0.01717150  1
  O2-  O319  1  0.74549677  0.61533043  0.52695911  1
