# generated using pymatgen
data_Sr64Ca21Nb43O192
_symmetry_space_group_name_H-M   'P 1'
_cell_length_a   16.53314423
_cell_length_b   16.54006190
_cell_length_c   16.68235309
_cell_angle_alpha   89.99687633
_cell_angle_beta   90.01595131
_cell_angle_gamma   90.00623481
_symmetry_Int_Tables_number   1
_chemical_formula_structural   Sr64Ca21Nb43O192
_chemical_formula_sum   'Sr64 Ca21 Nb43 O192'
_cell_volume   4561.94320211
_cell_formula_units_Z   1
loop_
 _symmetry_equiv_pos_site_id
 _symmetry_equiv_pos_as_xyz
  1  'x, y, z'
loop_
 _atom_type_symbol
 _atom_type_oxidation_number
  Sr2+  2.0
  Ca2+  2.0
  Nb5+  5.0
  O2-  -2.0
loop_
 _atom_site_type_symbol
 _atom_site_label
 _atom_site_symmetry_multiplicity
 _atom_site_fract_x
 _atom_site_fract_y
 _atom_site_fract_z
 _atom_site_occupancy
  Sr2+  Sr0  1  0.12425301  0.12045667  0.12589272  1
  Sr2+  Sr1  1  0.12525452  0.12821445  0.60246676  1
  Sr2+  Sr2  1  0.11567365  0.63036877  0.13562942  1
  Sr2+  Sr3  1  0.13546202  0.61674646  0.63136326  1
  Sr2+  Sr4  1  0.62605344  0.13470305  0.13349338  1
  Sr2+  Sr5  1  0.62545889  0.13324207  0.62292867  1
  Sr2+  Sr6  1  0.62480087  0.61217979  0.12347494  1
  Sr2+  Sr7  1  0.63438197  0.62325328  0.62136951  1
  Sr2+  Sr8  1  0.37699901  0.37482033  0.12236510  1
  Sr2+  Sr9  1  0.37530073  0.38487111  0.62855717  1
  Sr2+  Sr10  1  0.37845867  0.86743448  0.13583937  1
  Sr2+  Sr11  1  0.38598909  0.87604074  0.62064494  1
  Sr2+  Sr12  1  0.85869732  0.37266237  0.11772432  1
  Sr2+  Sr13  1  0.87131683  0.39652649  0.63107686  1
  Sr2+  Sr14  1  0.86961308  0.87566801  0.12584835  1
  Sr2+  Sr15  1  0.86208179  0.86799165  0.62680148  1
  Sr2+  Sr16  1  0.12897855  0.37852177  0.38071180  1
  Sr2+  Sr17  1  0.12238808  0.37392444  0.87274038  1
  Sr2+  Sr18  1  0.13618220  0.86748852  0.37142992  1
  Sr2+  Sr19  1  0.12315118  0.87986377  0.87323207  1
  Sr2+  Sr20  1  0.62618703  0.37618066  0.37294492  1
  Sr2+  Sr21  1  0.60842447  0.37782328  0.87746573  1
  Sr2+  Sr22  1  0.60761828  0.87672996  0.37698575  1
  Sr2+  Sr23  1  0.61918124  0.87606594  0.87331088  1
  Sr2+  Sr24  1  0.37046250  0.12180013  0.38003151  1
  Sr2+  Sr25  1  0.36195375  0.13136307  0.87730540  1
  Sr2+  Sr26  1  0.35537912  0.62717566  0.37390328  1
  Sr2+  Sr27  1  0.36240233  0.62105122  0.87132091  1
  Sr2+  Sr28  1  0.87731155  0.11665301  0.37797961  1
  Sr2+  Sr29  1  0.88020728  0.11977636  0.87498161  1
  Sr2+  Sr30  1  0.88028194  0.62918108  0.37679481  1
  Sr2+  Sr31  1  0.87463881  0.63059112  0.87790254  1
  Sr2+  Sr32  1  0.12998121  0.14079085  0.37217902  1
  Sr2+  Sr33  1  0.12604515  0.11613244  0.87904907  1
  Sr2+  Sr34  1  0.12854464  0.61276754  0.36670868  1
  Sr2+  Sr35  1  0.13045083  0.65170862  0.87776598  1
  Sr2+  Sr36  1  0.62589453  0.12560803  0.37665058  1
  Sr2+  Sr37  1  0.62531894  0.12763423  0.87026014  1
  Sr2+  Sr38  1  0.62726908  0.62048653  0.37455677  1
  Sr2+  Sr39  1  0.62243922  0.63031632  0.88439718  1
  Sr2+  Sr40  1  0.36789207  0.39170957  0.37412672  1
  Sr2+  Sr41  1  0.36740782  0.37740149  0.87699412  1
  Sr2+  Sr42  1  0.37618142  0.87579024  0.37746752  1
  Sr2+  Sr43  1  0.36960409  0.86099497  0.87008177  1
  Sr2+  Sr44  1  0.88383669  0.39145601  0.37936823  1
  Sr2+  Sr45  1  0.88690271  0.37402514  0.86733505  1
  Sr2+  Sr46  1  0.87135435  0.87423083  0.38247524  1
  Sr2+  Sr47  1  0.87695337  0.88153786  0.87617378  1
  Sr2+  Sr48  1  0.12280408  0.36240409  0.13227948  1
  Sr2+  Sr49  1  0.09900863  0.37289156  0.62352779  1
  Sr2+  Sr50  1  0.11317320  0.87356538  0.12719004  1
  Sr2+  Sr51  1  0.15264114  0.87278075  0.62715525  1
  Sr2+  Sr52  1  0.61098194  0.37627520  0.12280031  1
  Sr2+  Sr53  1  0.61209626  0.37498205  0.62772447  1
  Sr2+  Sr54  1  0.62375222  0.87370071  0.12865816  1
  Sr2+  Sr55  1  0.62183545  0.87554739  0.62227473  1
  Sr2+  Sr56  1  0.36025511  0.13519032  0.12160349  1
  Sr2+  Sr57  1  0.37259806  0.12353972  0.62506710  1
  Sr2+  Sr58  1  0.38317737  0.61066941  0.12566526  1
  Sr2+  Sr59  1  0.36562206  0.62496582  0.62721460  1
  Sr2+  Sr60  1  0.87083765  0.12367793  0.13030785  1
  Sr2+  Sr61  1  0.87255148  0.12688943  0.62417652  1
  Sr2+  Sr62  1  0.86985878  0.62779909  0.12905449  1
  Sr2+  Sr63  1  0.87496157  0.62121784  0.62035490  1
  Ca2+  Ca64  1  0.50046772  -0.00031392  -0.00066897  1
  Ca2+  Ca65  1  0.00085607  -0.00465716  0.50149554  1
  Ca2+  Ca66  1  0.49744430  0.50298053  0.50187026  1
  Ca2+  Ca67  1  0.00286303  0.50592818  0.49814964  1
  Ca2+  Ca68  1  -0.00028507  0.50083834  0.00190545  1
  Ca2+  Ca69  1  0.74817402  0.24798074  -0.00360270  1
  Ca2+  Ca70  1  0.75157733  0.25068064  0.50054986  1
  Ca2+  Ca71  1  0.24888881  0.75135811  0.00543508  1
  Ca2+  Ca72  1  0.24897003  0.74671127  0.49912363  1
  Ca2+  Ca73  1  0.25530456  0.25394161  0.50577654  1
  Ca2+  Ca74  1  0.25292676  0.00146614  0.75086188  1
  Ca2+  Ca75  1  -0.00135120  0.75422135  0.74544054  1
  Ca2+  Ca76  1  0.24745450  0.49477716  0.75293945  1
  Ca2+  Ca77  1  -0.00320509  0.25062139  0.24889973  1
  Ca2+  Ca78  1  0.25100737  0.49830101  0.24378602  1
  Ca2+  Ca79  1  0.49787308  0.24860939  0.25100876  1
  Ca2+  Ca80  1  0.50310048  0.74934623  0.74858574  1
  Ca2+  Ca81  1  0.50235091  0.74526957  0.24965725  1
  Ca2+  Ca82  1  0.24915369  0.00157250  0.24976662  1
  Ca2+  Ca83  1  0.74995750  0.49924133  0.24877867  1
  Ca2+  Ca84  1  0.74579054  0.50195324  0.75453663  1
  Nb5+  Nb85  1  -0.00136545  -0.00045836  0.00119738  1
  Nb5+  Nb86  1  0.49881620  0.50183504  -0.00284239  1
  Nb5+  Nb87  1  0.50078991  0.00300768  0.49985914  1
  Nb5+  Nb88  1  0.74873945  0.75339879  0.00565973  1
  Nb5+  Nb89  1  0.24532578  0.25354841  -0.00175221  1
  Nb5+  Nb90  1  0.74721107  0.74962131  0.50163777  1
  Nb5+  Nb91  1  0.74917382  -0.00223688  0.25476407  1
  Nb5+  Nb92  1  -0.00173013  0.75495782  0.25414017  1
  Nb5+  Nb93  1  0.74886995  -0.00009979  0.75390483  1
  Nb5+  Nb94  1  -0.00560671  0.24352092  0.74858558  1
  Nb5+  Nb95  1  0.49252097  0.24829209  0.75147543  1
  Nb5+  Nb96  1  -0.00035345  -0.00234930  0.25484841  1
  Nb5+  Nb97  1  0.00022500  0.00082283  0.74476800  1
  Nb5+  Nb98  1  -0.00370858  0.49435550  0.24057386  1
  Nb5+  Nb99  1  0.00356408  0.50801148  0.75669406  1
  Nb5+  Nb100  1  0.49780913  0.00341687  0.24405237  1
  Nb5+  Nb101  1  0.50048655  0.00276954  0.75216863  1
  Nb5+  Nb102  1  0.50249169  0.49760972  0.25650773  1
  Nb5+  Nb103  1  0.50462089  0.50488213  0.74991310  1
  Nb5+  Nb104  1  0.25221215  0.25082858  0.25635182  1
  Nb5+  Nb105  1  0.24193482  0.24720841  0.74957459  1
  Nb5+  Nb106  1  0.25264101  0.74983997  0.24369537  1
  Nb5+  Nb107  1  0.25124340  0.74974611  0.74983806  1
  Nb5+  Nb108  1  0.75423387  0.25395474  0.25219878  1
  Nb5+  Nb109  1  0.74650985  0.25200599  0.75144265  1
  Nb5+  Nb110  1  0.74864551  0.75352285  0.25479326  1
  Nb5+  Nb111  1  0.74727433  0.74995522  0.75591870  1
  Nb5+  Nb112  1  -0.00311232  0.25133925  0.49287301  1
  Nb5+  Nb113  1  -0.00527031  0.24845529  1.00037844  1
  Nb5+  Nb114  1  0.00418645  0.75089874  0.50447191  1
  Nb5+  Nb115  1  -0.00184498  0.75124955  0.99844262  1
  Nb5+  Nb116  1  0.49966504  0.25429256  0.49750427  1
  Nb5+  Nb117  1  0.50090789  0.24607176  1.00001733  1
  Nb5+  Nb118  1  0.50016601  0.74457526  0.49958173  1
  Nb5+  Nb119  1  0.49461919  0.74966099  1.00121331  1
  Nb5+  Nb120  1  0.25746268  -0.00405024  0.00193587  1
  Nb5+  Nb121  1  0.24825725  -0.00146911  0.49790033  1
  Nb5+  Nb122  1  0.24116590  0.49887627  0.00355037  1
  Nb5+  Nb123  1  0.24887875  0.50020054  0.50296536  1
  Nb5+  Nb124  1  0.74538278  -0.00214920  0.00450880  1
  Nb5+  Nb125  1  0.74862078  -0.00020647  0.50472799  1
  Nb5+  Nb126  1  0.75349376  0.49812098  -0.00609361  1
  Nb5+  Nb127  1  0.74962361  0.49557374  0.49889100  1
  O2-  O128  1  -0.00103522  0.01549059  0.12051466  1
  O2-  O129  1  0.00049529  0.03195331  0.63480063  1
  O2-  O130  1  -0.00970737  0.54019718  0.13152005  1
  O2-  O131  1  -0.00725182  0.51502410  0.63639081  1
  O2-  O132  1  0.52202683  -0.00633055  0.13245261  1
  O2-  O133  1  0.50942277  -0.00232003  0.62574415  1
  O2-  O134  1  0.49466762  0.49595622  0.11817557  1
  O2-  O135  1  0.49318645  0.48286534  0.63596630  1
  O2-  O136  1  -0.02207945  -0.01699225  0.36594581  1
  O2-  O137  1  -0.00694592  -0.01336745  0.87766306  1
  O2-  O138  1  0.01179888  0.47729936  0.36082080  1
  O2-  O139  1  0.00404620  0.46824111  0.86893902  1
  O2-  O140  1  0.49591768  0.00469638  0.37912840  1
  O2-  O141  1  0.52210954  0.01104079  0.86532843  1
  O2-  O142  1  0.51713079  0.49406768  0.36995119  1
  O2-  O143  1  0.51340244  0.50913851  0.87658444  1
  O2-  O144  1  0.24615689  0.24567744  0.11777745  1
  O2-  O145  1  0.25020055  0.22072458  0.63824048  1
  O2-  O146  1  0.21916555  0.76273835  0.13261133  1
  O2-  O147  1  0.24139139  0.73205298  0.63269960  1
  O2-  O148  1  0.77025766  0.24984159  0.13029983  1
  O2-  O149  1  0.75975469  0.23803562  0.63687892  1
  O2-  O150  1  0.74779877  0.76762562  0.12362189  1
  O2-  O151  1  0.73807417  0.75803765  0.61978655  1
  O2-  O152  1  0.25546767  0.25623633  0.37081554  1
  O2-  O153  1  0.25269450  0.26544086  0.87783308  1
  O2-  O154  1  0.24971181  0.74915967  0.36414228  1
  O2-  O155  1  0.25320923  0.76231346  0.87157331  1
  O2-  O156  1  0.72567411  0.24144123  0.36648216  1
  O2-  O157  1  0.75283745  0.22043724  0.86379903  1
  O2-  O158  1  0.76067340  0.74615105  0.37252006  1
  O2-  O159  1  0.75947085  0.74642391  0.87434739  1
  O2-  O160  1  0.01584810  0.22987349  0.11296673  1
  O2-  O161  1  0.00487852  0.22261107  0.63469503  1
  O2-  O162  1  0.00183744  0.74352173  0.12269929  1
  O2-  O163  1  0.00727773  0.71417227  0.61288005  1
  O2-  O164  1  0.48732765  0.25868099  0.11410041  1
  O2-  O165  1  0.49227054  0.25883353  0.63384811  1
  O2-  O166  1  0.52261357  0.75532522  0.11511622  1
  O2-  O167  1  0.50987657  0.76856229  0.61497865  1
  O2-  O168  1  0.27824632  -0.00425680  0.38284712  1
  O2-  O169  1  0.23675166  -0.01221808  0.88624807  1
  O2-  O170  1  0.24254625  0.49176890  0.37987611  1
  O2-  O171  1  0.25383982  0.48466342  0.88810299  1
  O2-  O172  1  0.75576153  0.00130377  0.37349451  1
  O2-  O173  1  0.74844023  0.00313335  0.87357402  1
  O2-  O174  1  0.73321281  0.51026583  0.38279644  1
  O2-  O175  1  0.73502749  0.53119328  0.88418907  1
  O2-  O176  1  -0.00348765  0.28160425  0.38234999  1
  O2-  O177  1  0.00316253  0.26357866  0.87524813  1
  O2-  O178  1  -0.01072028  0.78058726  0.36789563  1
  O2-  O179  1  -0.02030221  0.76957222  0.88304055  1
  O2-  O180  1  0.52091050  0.24870828  0.38507064  1
  O2-  O181  1  0.50479346  0.23902108  0.87358296  1
  O2-  O182  1  0.49438842  0.75878506  0.38306546  1
  O2-  O183  1  0.50884859  0.74324791  0.88420202  1
  O2-  O184  1  0.23229828  0.01010877  0.11433462  1
  O2-  O185  1  0.24827360  0.01569893  0.61655343  1
  O2-  O186  1  0.28229405  0.49853939  0.11221858  1
  O2-  O187  1  0.26369610  0.51439018  0.62104755  1
  O2-  O188  1  0.74971726  -0.01254414  0.12349590  1
  O2-  O189  1  0.74889620  -0.01221167  0.62333562  1
  O2-  O190  1  0.75138774  0.49298074  0.11289399  1
  O2-  O191  1  0.75665343  0.51438499  0.61806116  1
  O2-  O192  1  0.13249673  0.28064530  0.25797472  1
  O2-  O193  1  0.12526820  0.26527188  0.75261634  1
  O2-  O194  1  0.11553685  0.77559128  0.25411845  1
  O2-  O195  1  0.13227669  0.78097227  0.75501172  1
  O2-  O196  1  0.63685580  0.26472988  0.22541380  1
  O2-  O197  1  0.62883182  0.26885716  0.75054560  1
  O2-  O198  1  0.63749980  0.78224068  0.25827673  1
  O2-  O199  1  0.63663671  0.78926562  0.75140738  1
  O2-  O200  1  0.36557571  0.21141836  0.25021187  1
  O2-  O201  1  0.37947623  0.22347604  0.75585400  1
  O2-  O202  1  0.36619618  0.72732980  0.22377091  1
  O2-  O203  1  0.36967768  0.72140975  0.75255215  1
  O2-  O204  1  0.86564011  0.20985953  0.26091797  1
  O2-  O205  1  0.87927668  0.22289889  0.75543539  1
  O2-  O206  1  0.87507855  0.73735605  0.24238859  1
  O2-  O207  1  0.86213212  0.73247091  0.72981788  1
  O2-  O208  1  0.28116665  0.36423370  0.23849166  1
  O2-  O209  1  0.27949940  0.35848970  0.74365379  1
  O2-  O210  1  0.27750634  0.86821801  0.25228419  1
  O2-  O211  1  0.28094104  0.86748741  0.73325437  1
  O2-  O212  1  0.78662310  0.36464552  0.26192011  1
  O2-  O213  1  0.77762865  0.36278062  0.75815609  1
  O2-  O214  1  0.77887112  0.87628985  0.25351888  1
  O2-  O215  1  0.77619729  0.88007073  0.75533955  1
  O2-  O216  1  0.21551233  0.13503210  0.24635051  1
  O2-  O217  1  0.24024326  0.13408684  0.78325841  1
  O2-  O218  1  0.22261879  0.63356066  0.24614498  1
  O2-  O219  1  0.22534853  0.63076537  0.76572424  1
  O2-  O220  1  0.72952345  0.11324528  0.24272394  1
  O2-  O221  1  0.72563331  0.11563013  0.74114188  1
  O2-  O222  1  0.73201133  0.63954626  0.23750413  1
  O2-  O223  1  0.71771963  0.63945437  0.74761521  1
  O2-  O224  1  0.11547414  0.48836369  0.22846842  1
  O2-  O225  1  0.11468895  0.46641091  0.74212622  1
  O2-  O226  1  0.11265595  0.96913423  0.25566374  1
  O2-  O227  1  0.11369391  0.97827030  0.75040264  1
  O2-  O228  1  0.61825538  0.46354419  0.24097486  1
  O2-  O229  1  0.61591766  0.46091203  0.75149618  1
  O2-  O230  1  0.63392380  0.97055178  0.25591606  1
  O2-  O231  1  0.63098146  0.97693770  0.74533238  1
  O2-  O232  1  0.38664596  0.02849752  0.23132362  1
  O2-  O233  1  0.38936829  0.03395276  0.75250171  1
  O2-  O234  1  0.38723182  0.53304353  0.26071559  1
  O2-  O235  1  0.38739630  0.51630072  0.76314249  1
  O2-  O236  1  0.87180714  0.01573903  0.24018648  1
  O2-  O237  1  0.86875938  0.02584467  0.74971444  1
  O2-  O238  1  0.88354250  0.52781106  0.26313928  1
  O2-  O239  1  0.88306616  0.51372723  0.76179879  1
  O2-  O240  1  0.46873580  0.38305322  0.24809773  1
  O2-  O241  1  0.48084496  0.36584975  0.76677119  1
  O2-  O242  1  0.47950658  0.88572383  0.25840904  1
  O2-  O243  1  0.47702598  0.88870552  0.75701499  1
  O2-  O244  1  0.97534141  0.38465340  0.21105193  1
  O2-  O245  1  0.97838755  0.36015955  0.73465944  1
  O2-  O246  1  0.97967549  0.87655622  0.22448794  1
  O2-  O247  1  0.96738153  0.89010278  0.73513968  1
  O2-  O248  1  0.02027579  0.11255736  0.26075748  1
  O2-  O249  1  0.01208310  0.12353952  0.77913642  1
  O2-  O250  1  0.01612433  0.63909247  0.26515728  1
  O2-  O251  1  0.02425800  0.61851574  0.77762610  1
  O2-  O252  1  0.53735407  0.11401893  0.25538353  1
  O2-  O253  1  0.53048572  0.13028044  0.74251020  1
  O2-  O254  1  0.53755291  0.61346651  0.24480130  1
  O2-  O255  1  0.53491555  0.61504462  0.74003281  1
  O2-  O256  1  0.13306425  0.46318980  0.01616731  1
  O2-  O257  1  0.13305413  0.46640097  0.51239302  1
  O2-  O258  1  0.11632266  0.97991324  -0.00116168  1
  O2-  O259  1  0.13589943  0.96873425  0.49225094  1
  O2-  O260  1  0.62342835  0.48149028  0.00282847  1
  O2-  O261  1  0.63330564  0.46965300  0.51041927  1
  O2-  O262  1  0.63645789  0.96128192  -0.00224429  1
  O2-  O263  1  0.62559570  0.97506867  0.49564968  1
  O2-  O264  1  0.36640215  0.03513548  0.00090102  1
  O2-  O265  1  0.38496376  0.02154012  0.51118435  1
  O2-  O266  1  0.38322231  0.52369358  -0.01279394  1
  O2-  O267  1  0.36636445  0.53770667  0.48945037  1
  O2-  O268  1  0.87196401  0.01873970  -0.00102770  1
  O2-  O269  1  0.86352067  0.01804513  0.50276681  1
  O2-  O270  1  0.86504971  0.53243012  -0.00752711  1
  O2-  O271  1  0.86748736  0.52787252  0.49018597  1
  O2-  O272  1  0.48069750  0.38057427  -0.01338409  1
  O2-  O273  1  0.47006427  0.36518602  0.49789045  1
  O2-  O274  1  0.47017109  0.86408193  -0.00550419  1
  O2-  O275  1  0.48522943  0.88150773  0.49674858  1
  O2-  O276  1  0.97108366  0.36152555  0.01336638  1
  O2-  O277  1  0.97338628  0.36314249  0.52996914  1
  O2-  O278  1  0.97405819  0.88127791  0.01361042  1
  O2-  O279  1  0.96340400  0.86168258  0.51613655  1
  O2-  O280  1  0.01734466  0.11939931  -0.01698482  1
  O2-  O281  1  0.02743306  0.13285583  0.48031062  1
  O2-  O282  1  0.01884797  0.63856541  -0.01768749  1
  O2-  O283  1  0.00968561  0.64184559  0.45816861  1
  O2-  O284  1  0.52820060  0.13473993  0.00556018  1
  O2-  O285  1  0.52986323  0.11897300  0.50404233  1
  O2-  O286  1  0.52652956  0.62200622  0.00592701  1
  O2-  O287  1  0.53799191  0.63536540  0.50236957  1
  O2-  O288  1  0.12723376  0.26970488  -0.00762125  1
  O2-  O289  1  0.11659092  0.26988604  0.50843184  1
  O2-  O290  1  0.11123000  0.78153274  -0.00907828  1
  O2-  O291  1  0.11407167  0.78445291  0.49846457  1
  O2-  O292  1  0.61412725  0.28059093  -0.00066037  1
  O2-  O293  1  0.61500896  0.26526561  0.52571403  1
  O2-  O294  1  0.63345134  0.77467873  -0.00940741  1
  O2-  O295  1  0.62949547  0.77546415  0.48862936  1
  O2-  O296  1  0.37549960  0.23367266  -0.00816513  1
  O2-  O297  1  0.38998136  0.21051877  0.50255858  1
  O2-  O298  1  0.38412688  0.71582866  0.00849652  1
  O2-  O299  1  0.38615551  0.72308195  0.50699260  1
  O2-  O300  1  0.88445661  0.21714350  -0.00299073  1
  O2-  O301  1  0.88411352  0.21315506  0.49771469  1
  O2-  O302  1  0.87135102  0.73079744  0.00797918  1
  O2-  O303  1  0.86605229  0.72926866  0.50569384  1
  O2-  O304  1  0.27476393  0.36947826  0.00639336  1
  O2-  O305  1  0.28757147  0.38517212  0.50703712  1
  O2-  O306  1  0.28747953  0.88520997  0.01076679  1
  O2-  O307  1  0.28104672  0.88183519  0.51205278  1
  O2-  O308  1  0.77581037  0.38547252  -0.02396663  1
  O2-  O309  1  0.78286390  0.38412963  0.49659723  1
  O2-  O310  1  0.77840090  0.87326147  -0.00782268  1
  O2-  O311  1  0.76666913  0.87330552  0.49412014  1
  O2-  O312  1  0.23253893  0.13195780  -0.00930563  1
  O2-  O313  1  0.22944533  0.11657692  0.48508449  1
  O2-  O314  1  0.21823873  0.61379500  -0.00041998  1
  O2-  O315  1  0.21066792  0.61594787  0.49426172  1
  O2-  O316  1  0.72063689  0.11052902  0.00748519  1
  O2-  O317  1  0.72250446  0.11195677  0.50196559  1
  O2-  O318  1  0.72825262  0.63648394  0.01229795  1
  O2-  O319  1  0.72405122  0.63305307  0.49892468  1
