# generated using pymatgen
data_Sr64Ca21Nb43O192
_symmetry_space_group_name_H-M   'P 1'
_cell_length_a   16.53848245
_cell_length_b   16.54439627
_cell_length_c   16.70536028
_cell_angle_alpha   90.02553585
_cell_angle_beta   89.96278818
_cell_angle_gamma   90.04801228
_symmetry_Int_Tables_number   1
_chemical_formula_structural   Sr64Ca21Nb43O192
_chemical_formula_sum   'Sr64 Ca21 Nb43 O192'
_cell_volume   4570.90441515
_cell_formula_units_Z   1
loop_
 _symmetry_equiv_pos_site_id
 _symmetry_equiv_pos_as_xyz
  1  'x, y, z'
loop_
 _atom_type_symbol
 _atom_type_oxidation_number
  Sr2+  2.0
  Ca2+  2.0
  Nb5+  5.0
  O2-  -2.0
loop_
 _atom_site_type_symbol
 _atom_site_label
 _atom_site_symmetry_multiplicity
 _atom_site_fract_x
 _atom_site_fract_y
 _atom_site_fract_z
 _atom_site_occupancy
  Sr2+  Sr0  1  0.13116386  0.12616075  0.12106067  1
  Sr2+  Sr1  1  0.12276043  0.11090431  0.63324752  1
  Sr2+  Sr2  1  0.13047141  0.60643551  0.12745019  1
  Sr2+  Sr3  1  0.12628991  0.61553626  0.62079387  1
  Sr2+  Sr4  1  0.62927074  0.12672768  0.13074382  1
  Sr2+  Sr5  1  0.63316063  0.12745343  0.61747739  1
  Sr2+  Sr6  1  0.62657006  0.62371371  0.12471969  1
  Sr2+  Sr7  1  0.62825643  0.60986644  0.62504174  1
  Sr2+  Sr8  1  0.36599103  0.37334914  0.12296141  1
  Sr2+  Sr9  1  0.36655622  0.37058452  0.62775645  1
  Sr2+  Sr10  1  0.37085891  0.87874947  0.12982454  1
  Sr2+  Sr11  1  0.36275872  0.88222391  0.62641007  1
  Sr2+  Sr12  1  0.88062047  0.37721958  0.13145356  1
  Sr2+  Sr13  1  0.87213160  0.37224015  0.61557634  1
  Sr2+  Sr14  1  0.87637116  0.88467569  0.12726520  1
  Sr2+  Sr15  1  0.87890929  0.88279360  0.62068896  1
  Sr2+  Sr16  1  0.12753155  0.36923450  0.36651518  1
  Sr2+  Sr17  1  0.12792960  0.37754194  0.87475734  1
  Sr2+  Sr18  1  0.11750252  0.86532340  0.37875443  1
  Sr2+  Sr19  1  0.12754442  0.87389967  0.87302552  1
  Sr2+  Sr20  1  0.62405085  0.36369683  0.38266000  1
  Sr2+  Sr21  1  0.62190886  0.37685765  0.87687091  1
  Sr2+  Sr22  1  0.61912886  0.87339684  0.37037073  1
  Sr2+  Sr23  1  0.63050867  0.86086701  0.87565650  1
  Sr2+  Sr24  1  0.39298978  0.12374175  0.37673462  1
  Sr2+  Sr25  1  0.38049762  0.11864933  0.87524054  1
  Sr2+  Sr26  1  0.38372514  0.63241509  0.37512438  1
  Sr2+  Sr27  1  0.39694911  0.62952671  0.87398499  1
  Sr2+  Sr28  1  0.86462335  0.12436217  0.37882859  1
  Sr2+  Sr29  1  0.87441563  0.12790667  0.87159186  1
  Sr2+  Sr30  1  0.89874952  0.62406637  0.36994096  1
  Sr2+  Sr31  1  0.87920291  0.63136310  0.87867529  1
  Sr2+  Sr32  1  0.13239156  0.11806133  0.37452173  1
  Sr2+  Sr33  1  0.11804613  0.12309382  0.87599168  1
  Sr2+  Sr34  1  0.13584249  0.62827111  0.37682035  1
  Sr2+  Sr35  1  0.12517584  0.62406458  0.87429556  1
  Sr2+  Sr36  1  0.62883919  0.11167168  0.37758168  1
  Sr2+  Sr37  1  0.63192845  0.12546515  0.86497999  1
  Sr2+  Sr38  1  0.62507941  0.60754464  0.36803709  1
  Sr2+  Sr39  1  0.63061175  0.62298950  0.87999425  1
  Sr2+  Sr40  1  0.37306379  0.36440379  0.37423845  1
  Sr2+  Sr41  1  0.38162667  0.38011489  0.87819869  1
  Sr2+  Sr42  1  0.37695883  0.86806572  0.38482356  1
  Sr2+  Sr43  1  0.37440646  0.86390979  0.86957481  1
  Sr2+  Sr44  1  0.86296046  0.38965119  0.37337171  1
  Sr2+  Sr45  1  0.87147961  0.37811499  0.86791497  1
  Sr2+  Sr46  1  0.86758242  0.86824313  0.37104861  1
  Sr2+  Sr47  1  0.86575001  0.86743445  0.87761571  1
  Sr2+  Sr48  1  0.13309915  0.36289977  0.12040327  1
  Sr2+  Sr49  1  0.11919093  0.37291685  0.63359783  1
  Sr2+  Sr50  1  0.12501378  0.87974501  0.12180889  1
  Sr2+  Sr51  1  0.12450630  0.87310170  0.61552122  1
  Sr2+  Sr52  1  0.61112042  0.36645276  0.12560427  1
  Sr2+  Sr53  1  0.62360561  0.36222972  0.62007424  1
  Sr2+  Sr54  1  0.62873372  0.87943949  0.12660938  1
  Sr2+  Sr55  1  0.60765628  0.88358032  0.62480151  1
  Sr2+  Sr56  1  0.37598230  0.14076771  0.12632691  1
  Sr2+  Sr57  1  0.39894916  0.12142905  0.62904313  1
  Sr2+  Sr58  1  0.37682290  0.62972122  0.13528990  1
  Sr2+  Sr59  1  0.36525469  0.62518351  0.62231190  1
  Sr2+  Sr60  1  0.87768775  0.12523832  0.12697629  1
  Sr2+  Sr61  1  0.88128133  0.13535400  0.62527462  1
  Sr2+  Sr62  1  0.88836466  0.62616594  0.13278135  1
  Sr2+  Sr63  1  0.88294474  0.63112532  0.61891388  1
  Ca2+  Ca64  1  0.50298218  -0.00162134  -0.00096698  1
  Ca2+  Ca65  1  0.49784254  0.49994967  0.50134923  1
  Ca2+  Ca66  1  0.00019757  0.49527726  0.50045718  1
  Ca2+  Ca67  1  -0.00083479  0.00375480  0.49854623  1
  Ca2+  Ca68  1  0.49846944  -0.00389813  0.49996281  1
  Ca2+  Ca69  1  0.24892874  0.74810739  -0.00082924  1
  Ca2+  Ca70  1  0.75032021  0.25048289  0.00112196  1
  Ca2+  Ca71  1  0.25121077  0.24674429  -0.00484420  1
  Ca2+  Ca72  1  0.74604378  0.74924191  0.49419547  1
  Ca2+  Ca73  1  0.24541338  0.24921538  0.50642875  1
  Ca2+  Ca74  1  0.75358250  0.50332497  0.74801229  1
  Ca2+  Ca75  1  0.49981775  0.24827578  0.25281148  1
  Ca2+  Ca76  1  -0.00222848  0.75070841  0.74863630  1
  Ca2+  Ca77  1  0.25311882  0.49860255  0.25081137  1
  Ca2+  Ca78  1  0.00039979  0.24544848  0.25012479  1
  Ca2+  Ca79  1  0.75275071  -0.00489749  0.74931483  1
  Ca2+  Ca80  1  0.74812820  0.50072303  0.24643087  1
  Ca2+  Ca81  1  0.25408323  0.00150677  0.25187827  1
  Ca2+  Ca82  1  0.00336111  0.75215751  0.24668151  1
  Ca2+  Ca83  1  0.50509555  0.74968126  0.74688560  1
  Ca2+  Ca84  1  0.49882904  0.25340311  0.75173454  1
  Nb5+  Nb85  1  0.00512000  0.50300889  0.00169029  1
  Nb5+  Nb86  1  0.50657414  0.49888110  0.00345249  1
  Nb5+  Nb87  1  0.00063514  0.00460014  0.00150653  1
  Nb5+  Nb88  1  0.24967308  0.75054850  0.50064521  1
  Nb5+  Nb89  1  0.75185591  0.74777121  0.00236033  1
  Nb5+  Nb90  1  0.75180470  0.24884740  0.49775584  1
  Nb5+  Nb91  1  0.75075766  -0.00036145  0.24960801  1
  Nb5+  Nb92  1  0.50219926  0.75098630  0.25002780  1
  Nb5+  Nb93  1  0.25261027  0.49702677  0.75234116  1
  Nb5+  Nb94  1  0.00085801  0.25074178  0.75202914  1
  Nb5+  Nb95  1  0.24979884  -0.00191524  0.75229532  1
  Nb5+  Nb96  1  0.00207667  0.00251313  0.25455930  1
  Nb5+  Nb97  1  -0.00210177  -0.00299366  0.75417694  1
  Nb5+  Nb98  1  0.00499978  0.49729886  0.25370293  1
  Nb5+  Nb99  1  -0.00047179  0.50044434  0.75283787  1
  Nb5+  Nb100  1  0.49970321  -0.00001809  0.24385238  1
  Nb5+  Nb101  1  0.50520597  -0.00195933  0.75756009  1
  Nb5+  Nb102  1  0.49829481  0.49538777  0.24874522  1
  Nb5+  Nb103  1  0.50194056  0.50132861  0.74600452  1
  Nb5+  Nb104  1  0.24890639  0.24695350  0.25322663  1
  Nb5+  Nb105  1  0.25112221  0.24287721  0.74885050  1
  Nb5+  Nb106  1  0.24880225  0.75752257  0.24784794  1
  Nb5+  Nb107  1  0.24420901  0.74451861  0.75068179  1
  Nb5+  Nb108  1  0.75337599  0.25208514  0.24803078  1
  Nb5+  Nb109  1  0.74928095  0.25454817  0.75041496  1
  Nb5+  Nb110  1  0.74913322  0.74812746  0.25033710  1
  Nb5+  Nb111  1  0.75176645  0.74728531  0.73871208  1
  Nb5+  Nb112  1  0.00393274  0.25083927  0.49546654  1
  Nb5+  Nb113  1  -0.00509060  0.25861726  0.99849162  1
  Nb5+  Nb114  1  -0.00454107  0.75006115  0.49715073  1
  Nb5+  Nb115  1  -0.00031855  0.75959179  1.00014435  1
  Nb5+  Nb116  1  0.49601054  0.24755126  0.50344392  1
  Nb5+  Nb117  1  0.50495100  0.24356969  0.99575324  1
  Nb5+  Nb118  1  0.50274449  0.74666423  0.50594681  1
  Nb5+  Nb119  1  0.49846578  0.75140614  1.00427510  1
  Nb5+  Nb120  1  0.25427255  0.00175939  0.00063829  1
  Nb5+  Nb121  1  0.24967625  0.00530956  0.49865936  1
  Nb5+  Nb122  1  0.25917380  0.50487948  -0.00209032  1
  Nb5+  Nb123  1  0.25072162  0.49608167  0.49784941  1
  Nb5+  Nb124  1  0.74813089  -0.00075234  -0.00256854  1
  Nb5+  Nb125  1  0.75031527  -0.00642122  0.50379783  1
  Nb5+  Nb126  1  0.76154264  0.49922746  0.00100231  1
  Nb5+  Nb127  1  0.74763975  0.50488787  0.49843248  1
  O2-  O128  1  0.00894636  -0.02599354  0.11673955  1
  O2-  O129  1  0.01629821  -0.01951166  0.63943967  1
  O2-  O130  1  -0.02333290  0.48669493  0.11534072  1
  O2-  O131  1  -0.01913111  0.48152467  0.64073534  1
  O2-  O132  1  0.53767146  0.00766130  0.13192456  1
  O2-  O133  1  0.52187009  0.02217926  0.63865076  1
  O2-  O134  1  0.47810944  0.52023452  0.11706596  1
  O2-  O135  1  0.48190212  0.52802501  0.63671743  1
  O2-  O136  1  -0.01174598  0.03551938  0.36380081  1
  O2-  O137  1  -0.01153528  0.02441847  0.87996310  1
  O2-  O138  1  0.03075605  0.51459441  0.36527562  1
  O2-  O139  1  0.02520547  0.50693475  0.88223928  1
  O2-  O140  1  0.48343900  -0.02475773  0.36053614  1
  O2-  O141  1  0.46367687  -0.01929352  0.86758885  1
  O2-  O142  1  0.51852587  0.48054169  0.36200164  1
  O2-  O143  1  0.50950428  0.48308648  0.88291591  1
  O2-  O144  1  0.25728145  0.24993662  0.13074271  1
  O2-  O145  1  0.23419085  0.27764438  0.63810523  1
  O2-  O146  1  0.26472670  0.76285986  0.13358332  1
  O2-  O147  1  0.26188222  0.75657706  0.62307994  1
  O2-  O148  1  0.74759228  0.23127660  0.13491479  1
  O2-  O149  1  0.74970793  0.24374564  0.62056431  1
  O2-  O150  1  0.75536271  0.74080477  0.12317607  1
  O2-  O151  1  0.76358252  0.73519222  0.62661316  1
  O2-  O152  1  0.23828316  0.25043778  0.37222296  1
  O2-  O153  1  0.25962507  0.25588019  0.86256025  1
  O2-  O154  1  0.24413632  0.74890002  0.37966740  1
  O2-  O155  1  0.22663631  0.74606607  0.86447282  1
  O2-  O156  1  0.75435301  0.25586771  0.37786192  1
  O2-  O157  1  0.75928435  0.25793644  0.86587098  1
  O2-  O158  1  0.73539376  0.77408151  0.36128439  1
  O2-  O159  1  0.74361222  0.75801245  0.88127037  1
  O2-  O160  1  -0.00397376  0.27282327  0.11351834  1
  O2-  O161  1  -0.00345753  0.27311038  0.63538992  1
  O2-  O162  1  -0.02420623  0.76391060  0.11416602  1
  O2-  O163  1  -0.01438509  0.77756559  0.61347087  1
  O2-  O164  1  0.50761274  0.23468115  0.11665074  1
  O2-  O165  1  0.51938285  0.22637830  0.61894556  1
  O2-  O166  1  0.49878170  0.72687742  0.12524436  1
  O2-  O167  1  0.49961140  0.71147896  0.61444059  1
  O2-  O168  1  0.27815855  0.01916418  0.38798198  1
  O2-  O169  1  0.26051761  0.01396627  0.87014947  1
  O2-  O170  1  0.22535413  0.49792546  0.38563428  1
  O2-  O171  1  0.23033500  0.50645282  0.87250812  1
  O2-  O172  1  0.76992662  -0.00695027  0.36886868  1
  O2-  O173  1  0.77680013  -0.00824814  0.88535231  1
  O2-  O174  1  0.71981243  0.48062421  0.38205816  1
  O2-  O175  1  0.72683344  0.49297269  0.88722486  1
  O2-  O176  1  0.01287975  0.22014477  0.38589050  1
  O2-  O177  1  -0.00681214  0.23284348  0.87420370  1
  O2-  O178  1  0.02390333  0.72813201  0.38110464  1
  O2-  O179  1  0.00452396  0.72766386  0.88612534  1
  O2-  O180  1  0.49306189  0.27406749  0.38658289  1
  O2-  O181  1  0.49606317  0.27972943  0.88378492  1
  O2-  O182  1  0.49979805  0.77430257  0.36660898  1
  O2-  O183  1  0.50920368  0.76552248  0.88690706  1
  O2-  O184  1  0.23049198  -0.01263851  0.11384749  1
  O2-  O185  1  0.22472839  -0.01061119  0.63413501  1
  O2-  O186  1  0.27191937  0.50586029  0.11350521  1
  O2-  O187  1  0.26705647  0.50045655  0.63352570  1
  O2-  O188  1  0.73906957  0.00747017  0.12510113  1
  O2-  O189  1  0.72123991  -0.00620936  0.61565870  1
  O2-  O190  1  0.76798843  0.52658329  0.11346204  1
  O2-  O191  1  0.78394873  0.51427086  0.61278995  1
  O2-  O192  1  0.13257633  0.28222877  0.24501804  1
  O2-  O193  1  0.12175504  0.26580771  0.76152210  1
  O2-  O194  1  0.13678923  0.78775220  0.24434162  1
  O2-  O195  1  0.13269084  0.77882214  0.73195816  1
  O2-  O196  1  0.63553380  0.27142050  0.25835665  1
  O2-  O197  1  0.63495203  0.27778309  0.75384528  1
  O2-  O198  1  0.62163618  0.77246517  0.23729722  1
  O2-  O199  1  0.63810586  0.79031803  0.73985025  1
  O2-  O200  1  0.36640121  0.21272920  0.26057367  1
  O2-  O201  1  0.36460048  0.22942439  0.73172333  1
  O2-  O202  1  0.38160280  0.73147581  0.25378185  1
  O2-  O203  1  0.36341200  0.74203717  0.76119658  1
  O2-  O204  1  0.86580176  0.21517135  0.25752723  1
  O2-  O205  1  0.88014668  0.23325432  0.74880242  1
  O2-  O206  1  0.86419038  0.73108024  0.26086826  1
  O2-  O207  1  0.86561896  0.70808312  0.75522087  1
  O2-  O208  1  0.28456029  0.36580964  0.25412620  1
  O2-  O209  1  0.26921574  0.38280408  0.75940355  1
  O2-  O210  1  0.28654421  0.86887491  0.26606986  1
  O2-  O211  1  0.26263678  0.88130814  0.76094588  1
  O2-  O212  1  0.77884578  0.36511367  0.24060242  1
  O2-  O213  1  0.77975692  0.36832851  0.73502946  1
  O2-  O214  1  0.76374797  0.87690958  0.23151169  1
  O2-  O215  1  0.79273208  0.86203416  0.74507510  1
  O2-  O216  1  0.21277216  0.13146673  0.24784858  1
  O2-  O217  1  0.22683945  0.12785799  0.74477887  1
  O2-  O218  1  0.22921531  0.63896320  0.25086723  1
  O2-  O219  1  0.22706417  0.62854659  0.74010906  1
  O2-  O220  1  0.72699284  0.11767899  0.25889079  1
  O2-  O221  1  0.73290941  0.13456341  0.74731368  1
  O2-  O222  1  0.72067043  0.63649803  0.25412261  1
  O2-  O223  1  0.70919274  0.63504846  0.75401957  1
  O2-  O224  1  0.11752337  0.47704349  0.21820471  1
  O2-  O225  1  0.12858557  0.48158889  0.74223339  1
  O2-  O226  1  0.11556554  0.97998023  0.26738070  1
  O2-  O227  1  0.12324702  0.99706127  0.77347793  1
  O2-  O228  1  0.61202915  0.49463684  0.21496446  1
  O2-  O229  1  0.61385311  0.47598734  0.73139685  1
  O2-  O230  1  0.63159467  0.97801439  0.26439341  1
  O2-  O231  1  0.61692937  0.98389159  0.78395213  1
  O2-  O232  1  0.38825066  0.01536658  0.21529211  1
  O2-  O233  1  0.36368518  0.01923239  0.73371724  1
  O2-  O234  1  0.38647029  0.53250405  0.26053752  1
  O2-  O235  1  0.36622141  0.52720799  0.76878420  1
  O2-  O236  1  0.86942868  0.01477490  0.23341764  1
  O2-  O237  1  0.88710676  0.02694645  0.73736791  1
  O2-  O238  1  0.88473881  0.51991560  0.26251025  1
  O2-  O239  1  0.88865753  0.51054273  0.78495810  1
  O2-  O240  1  0.47706414  0.38419520  0.22578282  1
  O2-  O241  1  0.46283649  0.38955237  0.74402244  1
  O2-  O242  1  0.48867627  0.87059145  0.22320243  1
  O2-  O243  1  0.47967053  0.88553845  0.72448707  1
  O2-  O244  1  0.97633578  0.38229433  0.26518196  1
  O2-  O245  1  0.99460066  0.37291605  0.77597028  1
  O2-  O246  1  0.97194388  0.88742283  0.26180537  1
  O2-  O247  1  0.98491489  0.88646524  0.78173107  1
  O2-  O248  1  0.01011091  0.11125691  0.20893131  1
  O2-  O249  1  0.01881074  0.13108849  0.74158679  1
  O2-  O250  1  0.01515450  0.61576572  0.22386860  1
  O2-  O251  1  0.02525072  0.61310906  0.74143976  1
  O2-  O252  1  0.52118806  0.11219361  0.26884539  1
  O2-  O253  1  0.50404315  0.11720161  0.77906176  1
  O2-  O254  1  0.52099760  0.63232816  0.26115778  1
  O2-  O255  1  0.51432287  0.61481952  0.78051993  1
  O2-  O256  1  0.11802515  0.47940863  0.01957814  1
  O2-  O257  1  0.13649990  0.48774419  0.53238323  1
  O2-  O258  1  0.11569611  0.97538791  -0.01518622  1
  O2-  O259  1  0.13458345  0.97492509  0.48204669  1
  O2-  O260  1  0.62177582  0.48509842  0.01988819  1
  O2-  O261  1  0.63307568  0.48155790  0.53375784  1
  O2-  O262  1  0.63804900  0.96533843  -0.01459041  1
  O2-  O263  1  0.63477881  0.98385364  0.47350028  1
  O2-  O264  1  0.36558149  0.02916638  0.01513714  1
  O2-  O265  1  0.36281137  0.01034750  0.53378375  1
  O2-  O266  1  0.37273695  0.51915424  -0.02409099  1
  O2-  O267  1  0.36258222  0.53539792  0.49376269  1
  O2-  O268  1  0.87769904  0.00950441  0.01801691  1
  O2-  O269  1  0.86426404  0.02651466  0.51834937  1
  O2-  O270  1  0.87667241  0.51527796  -0.02249031  1
  O2-  O271  1  0.86393025  0.51345079  0.46522347  1
  O2-  O272  1  0.47674349  0.38386420  0.01895404  1
  O2-  O273  1  0.48490277  0.36535983  0.52805922  1
  O2-  O274  1  0.48068845  0.86361522  0.02456504  1
  O2-  O275  1  0.47045895  0.86169893  0.52170073  1
  O2-  O276  1  0.97769453  0.37455944  -0.02007246  1
  O2-  O277  1  0.96269905  0.36206430  0.48669596  1
  O2-  O278  1  0.97943218  0.87318322  -0.02136513  1
  O2-  O279  1  0.98454232  0.86833128  0.47148886  1
  O2-  O280  1  0.01862523  0.11872368  0.01557876  1
  O2-  O281  1  0.01311725  0.13921414  0.53625561  1
  O2-  O282  1  0.01182028  0.61956792  0.01669706  1
  O2-  O283  1  0.01071458  0.63219413  0.52557694  1
  O2-  O284  1  0.53304507  0.13303677  -0.02347786  1
  O2-  O285  1  0.51498171  0.12997500  0.47552315  1
  O2-  O286  1  0.51916499  0.62099123  -0.01277762  1
  O2-  O287  1  0.51353674  0.63711851  0.46236853  1
  O2-  O288  1  0.11288712  0.26347828  -0.00953182  1
  O2-  O289  1  0.11218468  0.29000210  0.50288163  1
  O2-  O290  1  0.11336332  0.77312697  0.01362563  1
  O2-  O291  1  0.12883354  0.76697434  0.50827820  1
  O2-  O292  1  0.61829335  0.28650651  -0.00129716  1
  O2-  O293  1  0.62982666  0.26319870  0.49763073  1
  O2-  O294  1  0.62746374  0.76139550  0.01079725  1
  O2-  O295  1  0.61273296  0.78224187  0.50571923  1
  O2-  O296  1  0.38664420  0.22393488  -0.00141720  1
  O2-  O297  1  0.38158431  0.22443625  0.51209770  1
  O2-  O298  1  0.38489723  0.72380694  -0.00483393  1
  O2-  O299  1  0.37045457  0.73188282  0.49221147  1
  O2-  O300  1  0.88439273  0.21667280  -0.00123308  1
  O2-  O301  1  0.87087236  0.22682604  0.50220541  1
  O2-  O302  1  0.87116086  0.73225327  -0.00828779  1
  O2-  O303  1  0.88247205  0.72873644  0.47859347  1
  O2-  O304  1  0.25892975  0.38673615  -0.00668335  1
  O2-  O305  1  0.28337067  0.38550799  0.49781915  1
  O2-  O306  1  0.26686150  0.88551487  -0.02216020  1
  O2-  O307  1  0.26562155  0.87275178  0.49855546  1
  O2-  O308  1  0.77678959  0.38572833  0.01623972  1
  O2-  O309  1  0.76448888  0.36890912  0.50574218  1
  O2-  O310  1  0.77063573  0.86936140  0.01197881  1
  O2-  O311  1  0.78178803  0.88287429  0.50146136  1
  O2-  O312  1  0.21531454  0.11315076  -0.00561680  1
  O2-  O313  1  0.21670989  0.11544222  0.51383898  1
  O2-  O314  1  0.21513883  0.61462544  -0.00071876  1
  O2-  O315  1  0.22814443  0.63107872  0.50646342  1
  O2-  O316  1  0.72567404  0.11258922  -0.00851125  1
  O2-  O317  1  0.73209568  0.12608291  0.49120882  1
  O2-  O318  1  0.73575629  0.62822928  -0.00965114  1
  O2-  O319  1  0.71776416  0.61637595  0.48926788  1
