# generated using pymatgen
data_Sr64Ca21Nb43O192
_symmetry_space_group_name_H-M   'P 1'
_cell_length_a   16.59909926
_cell_length_b   16.54427091
_cell_length_c   16.72171091
_cell_angle_alpha   89.99123813
_cell_angle_beta   90.02847509
_cell_angle_gamma   89.96427804
_symmetry_Int_Tables_number   1
_chemical_formula_structural   Sr64Ca21Nb43O192
_chemical_formula_sum   'Sr64 Ca21 Nb43 O192'
_cell_volume   4592.11465232
_cell_formula_units_Z   1
loop_
 _symmetry_equiv_pos_site_id
 _symmetry_equiv_pos_as_xyz
  1  'x, y, z'
loop_
 _atom_type_symbol
 _atom_type_oxidation_number
  Sr2+  2.0
  Ca2+  2.0
  Nb5+  5.0
  O2-  -2.0
loop_
 _atom_site_type_symbol
 _atom_site_label
 _atom_site_symmetry_multiplicity
 _atom_site_fract_x
 _atom_site_fract_y
 _atom_site_fract_z
 _atom_site_occupancy
  Sr2+  Sr0  1  0.12667299  0.11848597  0.12778123  1
  Sr2+  Sr1  1  0.12102101  0.12195021  0.62552786  1
  Sr2+  Sr2  1  0.12235641  0.62363969  0.12663150  1
  Sr2+  Sr3  1  0.12656606  0.61686743  0.62083644  1
  Sr2+  Sr4  1  0.61626768  0.11800724  0.12379515  1
  Sr2+  Sr5  1  0.62178888  0.11352710  0.61687209  1
  Sr2+  Sr6  1  0.61957609  0.60908261  0.12935982  1
  Sr2+  Sr7  1  0.61822423  0.62068681  0.62115688  1
  Sr2+  Sr8  1  0.37596999  0.36633609  0.12014076  1
  Sr2+  Sr9  1  0.37194178  0.39692808  0.63018604  1
  Sr2+  Sr10  1  0.36360048  0.86431384  0.12884051  1
  Sr2+  Sr11  1  0.37162330  0.88374966  0.62179743  1
  Sr2+  Sr12  1  0.86799720  0.36728311  0.12102035  1
  Sr2+  Sr13  1  0.87104643  0.36631773  0.62689227  1
  Sr2+  Sr14  1  0.86739317  0.86433197  0.12784622  1
  Sr2+  Sr15  1  0.86737652  0.86588786  0.63126966  1
  Sr2+  Sr16  1  0.11777198  0.38026391  0.37189511  1
  Sr2+  Sr17  1  0.12820193  0.37802005  0.87514725  1
  Sr2+  Sr18  1  0.12795461  0.87879331  0.37218892  1
  Sr2+  Sr19  1  0.12630142  0.87769129  0.88744436  1
  Sr2+  Sr20  1  0.63959705  0.37661967  0.37484456  1
  Sr2+  Sr21  1  0.63645309  0.38968037  0.87596015  1
  Sr2+  Sr22  1  0.62423245  0.88174097  0.38142409  1
  Sr2+  Sr23  1  0.64320897  0.88227546  0.87458806  1
  Sr2+  Sr24  1  0.39498971  0.13135841  0.36935223  1
  Sr2+  Sr25  1  0.38174128  0.13394079  0.87397240  1
  Sr2+  Sr26  1  0.39117583  0.63490797  0.38049728  1
  Sr2+  Sr27  1  0.38149195  0.63153976  0.87575986  1
  Sr2+  Sr28  1  0.86955219  0.13015682  0.37460607  1
  Sr2+  Sr29  1  0.88537666  0.13046583  0.87702283  1
  Sr2+  Sr30  1  0.87877181  0.63118874  0.38111003  1
  Sr2+  Sr31  1  0.87926454  0.63540467  0.86149192  1
  Sr2+  Sr32  1  0.12812793  0.13186787  0.37658912  1
  Sr2+  Sr33  1  0.12852092  0.13782071  0.87498143  1
  Sr2+  Sr34  1  0.12070434  0.63314094  0.37544188  1
  Sr2+  Sr35  1  0.12803230  0.63861058  0.87925159  1
  Sr2+  Sr36  1  0.63182784  0.14226420  0.36953046  1
  Sr2+  Sr37  1  0.63123271  0.12958293  0.87947459  1
  Sr2+  Sr38  1  0.63328877  0.63617277  0.37634230  1
  Sr2+  Sr39  1  0.63035153  0.63721185  0.87625434  1
  Sr2+  Sr40  1  0.38591917  0.38014636  0.37340278  1
  Sr2+  Sr41  1  0.37702544  0.38698810  0.87447266  1
  Sr2+  Sr42  1  0.38012696  0.88062386  0.37222619  1
  Sr2+  Sr43  1  0.37800532  0.88363609  0.86876384  1
  Sr2+  Sr44  1  0.87652624  0.38900014  0.37524274  1
  Sr2+  Sr45  1  0.88660927  0.38070602  0.87360946  1
  Sr2+  Sr46  1  0.88655977  0.88210127  0.37251850  1
  Sr2+  Sr47  1  0.87853140  0.88647792  0.87997781  1
  Sr2+  Sr48  1  0.13357699  0.36737298  0.12816968  1
  Sr2+  Sr49  1  0.12143940  0.37104373  0.62091970  1
  Sr2+  Sr50  1  0.11852516  0.86732254  0.12719199  1
  Sr2+  Sr51  1  0.12302807  0.87747812  0.62284659  1
  Sr2+  Sr52  1  0.61707315  0.37267359  0.11912316  1
  Sr2+  Sr53  1  0.61298290  0.35861615  0.62472258  1
  Sr2+  Sr54  1  0.62152685  0.87024761  0.11973671  1
  Sr2+  Sr55  1  0.60935204  0.85940249  0.62486982  1
  Sr2+  Sr56  1  0.37359275  0.12018841  0.12293641  1
  Sr2+  Sr57  1  0.36818961  0.12026825  0.63395060  1
  Sr2+  Sr58  1  0.38226985  0.62103225  0.12546820  1
  Sr2+  Sr59  1  0.37845588  0.62872321  0.62796149  1
  Sr2+  Sr60  1  0.85501356  0.11403290  0.12375576  1
  Sr2+  Sr61  1  0.86693268  0.11999330  0.62460256  1
  Sr2+  Sr62  1  0.85487950  0.62033228  0.13170619  1
  Sr2+  Sr63  1  0.86176073  0.61684075  0.62393542  1
  Ca2+  Ca64  1  0.49897065  0.00215120  0.50026325  1
  Ca2+  Ca65  1  0.50284388  0.49780897  0.50198294  1
  Ca2+  Ca66  1  0.49899513  -0.00233765  -0.00212622  1
  Ca2+  Ca67  1  -0.00054958  0.00278190  0.00162737  1
  Ca2+  Ca68  1  0.00132023  0.50222702  0.00013047  1
  Ca2+  Ca69  1  0.24869616  0.74763981  0.49901970  1
  Ca2+  Ca70  1  0.75012403  0.74777264  -0.00069036  1
  Ca2+  Ca71  1  0.75089514  0.75127543  0.49948522  1
  Ca2+  Ca72  1  0.75208510  0.24997661  -0.00487539  1
  Ca2+  Ca73  1  0.24980296  0.25150032  0.50149342  1
  Ca2+  Ca74  1  0.49737455  0.24889039  0.75248673  1
  Ca2+  Ca75  1  0.25312516  0.50080711  0.25059225  1
  Ca2+  Ca76  1  0.00208200  0.75122891  0.74801819  1
  Ca2+  Ca77  1  0.49729546  0.75109098  0.75465145  1
  Ca2+  Ca78  1  0.49869857  0.75050602  0.24737802  1
  Ca2+  Ca79  1  0.74939436  0.49861864  0.24928675  1
  Ca2+  Ca80  1  0.75143064  0.49915481  0.74790624  1
  Ca2+  Ca81  1  0.75251289  0.00095371  0.74721438  1
  Ca2+  Ca82  1  0.75002211  -0.00208315  0.25190814  1
  Ca2+  Ca83  1  -0.00268948  0.24823128  0.25090201  1
  Ca2+  Ca84  1  0.50073325  0.25312526  0.24874169  1
  Nb5+  Nb85  1  0.50118622  0.49984863  -0.00176593  1
  Nb5+  Nb86  1  0.00103679  0.00690709  0.49828130  1
  Nb5+  Nb87  1  0.00057061  0.50413388  0.49964229  1
  Nb5+  Nb88  1  0.24921768  0.24572758  0.00130929  1
  Nb5+  Nb89  1  0.25064140  0.74676808  0.00051717  1
  Nb5+  Nb90  1  0.74966821  0.25132546  0.50185423  1
  Nb5+  Nb91  1  -0.00097759  0.74860317  0.24917775  1
  Nb5+  Nb92  1  0.00064651  0.24932291  0.74820129  1
  Nb5+  Nb93  1  0.24840723  0.00169535  0.25657471  1
  Nb5+  Nb94  1  0.24540229  0.00535574  0.75686286  1
  Nb5+  Nb95  1  0.24666815  0.51016198  0.75308450  1
  Nb5+  Nb96  1  -0.00025899  0.00416774  0.24927410  1
  Nb5+  Nb97  1  0.00168474  0.00093730  0.74957637  1
  Nb5+  Nb98  1  -0.00579272  0.49964985  0.24319689  1
  Nb5+  Nb99  1  0.00509151  0.50252154  0.75033672  1
  Nb5+  Nb100  1  0.50476810  -0.00397305  0.24844154  1
  Nb5+  Nb101  1  0.50593030  -0.00390780  0.74993711  1
  Nb5+  Nb102  1  0.50126766  0.49800898  0.25753852  1
  Nb5+  Nb103  1  0.50498013  0.49808339  0.75132939  1
  Nb5+  Nb104  1  0.25423940  0.25107345  0.25426243  1
  Nb5+  Nb105  1  0.24861479  0.25630739  0.74909733  1
  Nb5+  Nb106  1  0.24829393  0.74578905  0.25208185  1
  Nb5+  Nb107  1  0.24627112  0.75750991  0.74959243  1
  Nb5+  Nb108  1  0.74936292  0.25226435  0.24131336  1
  Nb5+  Nb109  1  0.74634597  0.25054633  0.75125407  1
  Nb5+  Nb110  1  0.74300131  0.75472260  0.25178640  1
  Nb5+  Nb111  1  0.74965355  0.75053905  0.74749410  1
  Nb5+  Nb112  1  -0.00354945  0.25596866  0.49772826  1
  Nb5+  Nb113  1  0.00244073  0.24864628  1.00807780  1
  Nb5+  Nb114  1  0.00281021  0.75614653  0.50365339  1
  Nb5+  Nb115  1  -0.00422470  0.74709120  1.00304995  1
  Nb5+  Nb116  1  0.49205888  0.24522386  0.50580872  1
  Nb5+  Nb117  1  0.50447965  0.25255882  0.99272626  1
  Nb5+  Nb118  1  0.49787323  0.74956153  0.49966181  1
  Nb5+  Nb119  1  0.49973436  0.75497838  1.00122480  1
  Nb5+  Nb120  1  0.25180285  -0.00345034  0.00665675  1
  Nb5+  Nb121  1  0.24974002  0.00450110  0.50281130  1
  Nb5+  Nb122  1  0.25134996  0.49679349  0.00240589  1
  Nb5+  Nb123  1  0.24968697  0.49682263  0.49525982  1
  Nb5+  Nb124  1  0.74906616  -0.00054906  -0.00099529  1
  Nb5+  Nb125  1  0.75025668  -0.00508253  0.49931976  1
  Nb5+  Nb126  1  0.75891563  0.50460294  -0.00696800  1
  Nb5+  Nb127  1  0.74585172  0.49653281  0.50511993  1
  O2-  O128  1  -0.01620860  0.01801853  0.13686649  1
  O2-  O129  1  -0.00731847  0.01816435  0.61802776  1
  O2-  O130  1  -0.02366985  0.52132148  0.13307746  1
  O2-  O131  1  -0.00511265  0.50823062  0.62269424  1
  O2-  O132  1  0.48823383  0.02753841  0.13427500  1
  O2-  O133  1  0.47605110  0.02239749  0.63562479  1
  O2-  O134  1  0.48603772  0.51289557  0.11548380  1
  O2-  O135  1  0.48255960  0.52140614  0.63830286  1
  O2-  O136  1  0.02036924  -0.01526914  0.38005347  1
  O2-  O137  1  0.02250312  -0.01234960  0.86169277  1
  O2-  O138  1  0.01311656  0.48999004  0.38074873  1
  O2-  O139  1  0.01859394  0.48192447  0.86320163  1
  O2-  O140  1  0.50199354  -0.02643292  0.36709441  1
  O2-  O141  1  0.51014095  -0.03681302  0.86476200  1
  O2-  O142  1  0.51502154  0.47130675  0.36857024  1
  O2-  O143  1  0.50751032  0.47596296  0.87685499  1
  O2-  O144  1  0.22619490  0.24306734  0.11824893  1
  O2-  O145  1  0.22273962  0.24410492  0.63877897  1
  O2-  O146  1  0.22776192  0.75585768  0.12097030  1
  O2-  O147  1  0.22208422  0.74921718  0.63770458  1
  O2-  O148  1  0.73692760  0.27750615  0.12968014  1
  O2-  O149  1  0.74350208  0.27561709  0.62322741  1
  O2-  O150  1  0.74030514  0.77633452  0.13344762  1
  O2-  O151  1  0.73868079  0.78216030  0.63104582  1
  O2-  O152  1  0.28337150  0.25331602  0.36589746  1
  O2-  O153  1  0.26016421  0.24436805  0.87863323  1
  O2-  O154  1  0.27252531  0.74947827  0.36332635  1
  O2-  O155  1  0.26781873  0.75428813  0.88294852  1
  O2-  O156  1  0.76319189  0.23475758  0.38456251  1
  O2-  O157  1  0.76749305  0.22060057  0.86136709  1
  O2-  O158  1  0.76494768  0.72346704  0.36499634  1
  O2-  O159  1  0.76284121  0.72192650  0.86474258  1
  O2-  O160  1  0.03376068  0.24663671  0.11789452  1
  O2-  O161  1  0.02348907  0.24324793  0.62585304  1
  O2-  O162  1  0.02651361  0.74409165  0.13122129  1
  O2-  O163  1  0.03529273  0.74656018  0.61285270  1
  O2-  O164  1  0.52066820  0.24671941  0.11153256  1
  O2-  O165  1  0.52738318  0.22978776  0.61996208  1
  O2-  O166  1  0.51474444  0.71808189  0.11291162  1
  O2-  O167  1  0.51600601  0.72868498  0.61904965  1
  O2-  O168  1  0.22643253  0.00207386  0.37170964  1
  O2-  O169  1  0.22560972  -0.00527754  0.87096921  1
  O2-  O170  1  0.23918958  0.46925128  0.38460156  1
  O2-  O171  1  0.23124574  0.49588994  0.87468647  1
  O2-  O172  1  0.73628364  0.03018705  0.38769909  1
  O2-  O173  1  0.72442775  0.01632585  0.88000685  1
  O2-  O174  1  0.73399739  0.50547393  0.38694863  1
  O2-  O175  1  0.72066675  0.51671548  0.88025933  1
  O2-  O176  1  -0.03064016  0.25941884  0.38641716  1
  O2-  O177  1  -0.01410274  0.25634455  0.86717039  1
  O2-  O178  1  -0.01908010  0.75459561  0.36938365  1
  O2-  O179  1  -0.02152918  0.75572503  0.88751618  1
  O2-  O180  1  0.48376869  0.26754091  0.38820002  1
  O2-  O181  1  0.46159873  0.26539021  0.88467482  1
  O2-  O182  1  0.47392831  0.76415160  0.38157498  1
  O2-  O183  1  0.46317559  0.75980328  0.88975115  1
  O2-  O184  1  0.26875163  0.00221148  0.12218947  1
  O2-  O185  1  0.26220452  0.00393184  0.62308129  1
  O2-  O186  1  0.27215096  0.51027332  0.11394074  1
  O2-  O187  1  0.26096051  0.51834766  0.63495156  1
  O2-  O188  1  0.77636045  -0.01640852  0.11637952  1
  O2-  O189  1  0.78668994  -0.00814942  0.61148156  1
  O2-  O190  1  0.77187369  0.48155713  0.11098700  1
  O2-  O191  1  0.78241587  0.48407092  0.61616871  1
  O2-  O192  1  0.13603731  0.26214508  0.27645091  1
  O2-  O193  1  0.12703281  0.26339467  0.77404688  1
  O2-  O194  1  0.12628854  0.77302448  0.26402055  1
  O2-  O195  1  0.13466376  0.76585334  0.78681715  1
  O2-  O196  1  0.63484865  0.26978119  0.27266008  1
  O2-  O197  1  0.63526695  0.27582496  0.76707152  1
  O2-  O198  1  0.63214512  0.77847918  0.27032238  1
  O2-  O199  1  0.63277565  0.77340541  0.76757382  1
  O2-  O200  1  0.36503431  0.22254652  0.22486613  1
  O2-  O201  1  0.35963776  0.22468086  0.74016338  1
  O2-  O202  1  0.36010432  0.73622020  0.22126760  1
  O2-  O203  1  0.35810568  0.72379949  0.74337072  1
  O2-  O204  1  0.86501766  0.21887561  0.23406373  1
  O2-  O205  1  0.88729786  0.22924769  0.73139013  1
  O2-  O206  1  0.88583475  0.73430980  0.22844738  1
  O2-  O207  1  0.87108169  0.72471478  0.72779847  1
  O2-  O208  1  0.26349956  0.36351467  0.22824970  1
  O2-  O209  1  0.26541293  0.37267238  0.75172340  1
  O2-  O210  1  0.26122565  0.88090168  0.25072391  1
  O2-  O211  1  0.26401711  0.87590185  0.74737772  1
  O2-  O212  1  0.77757494  0.36472467  0.26952648  1
  O2-  O213  1  0.78581146  0.36277179  0.76288458  1
  O2-  O214  1  0.78458213  0.86494715  0.26813370  1
  O2-  O215  1  0.78258180  0.86733108  0.77029141  1
  O2-  O216  1  0.22630383  0.12163052  0.24508540  1
  O2-  O217  1  0.22765128  0.12126932  0.75335374  1
  O2-  O218  1  0.21897246  0.63439018  0.24968308  1
  O2-  O219  1  0.22478644  0.62416285  0.76128115  1
  O2-  O220  1  0.72393799  0.13315215  0.23190286  1
  O2-  O221  1  0.73610792  0.13747297  0.71713039  1
  O2-  O222  1  0.73457561  0.63587211  0.22644746  1
  O2-  O223  1  0.72882942  0.63320930  0.72039491  1
  O2-  O224  1  0.11272935  0.48177754  0.23765928  1
  O2-  O225  1  0.13079173  0.47480691  0.73348534  1
  O2-  O226  1  0.12794265  0.98341203  0.22971808  1
  O2-  O227  1  0.12853697  0.98777465  0.72414575  1
  O2-  O228  1  0.61419706  0.47485828  0.22462173  1
  O2-  O229  1  0.61547322  0.47376479  0.73421203  1
  O2-  O230  1  0.61626461  0.96970301  0.23601121  1
  O2-  O231  1  0.61642272  0.98009979  0.72372835  1
  O2-  O232  1  0.36318178  0.02087668  0.26488974  1
  O2-  O233  1  0.36139916  0.01661350  0.76587276  1
  O2-  O234  1  0.38567517  0.53440772  0.26498338  1
  O2-  O235  1  0.36359491  0.51462437  0.76797749  1
  O2-  O236  1  0.88810065  0.01381016  0.27648484  1
  O2-  O237  1  0.89051735  0.02776283  0.76285154  1
  O2-  O238  1  0.88447751  0.52837799  0.27579280  1
  O2-  O239  1  0.89088747  0.51799471  0.76102272  1
  O2-  O240  1  0.46265456  0.38541077  0.23620956  1
  O2-  O241  1  0.46837652  0.38457706  0.74146343  1
  O2-  O242  1  0.46510283  0.88509469  0.23094418  1
  O2-  O243  1  0.46707084  0.88279484  0.73008637  1
  O2-  O244  1  0.97253495  0.38523801  0.23986089  1
  O2-  O245  1  0.99296561  0.37001638  0.73506229  1
  O2-  O246  1  0.99152172  0.87461458  0.24347605  1
  O2-  O247  1  0.98864373  0.88766991  0.72614979  1
  O2-  O248  1  0.02739142  0.11463213  0.26817993  1
  O2-  O249  1  0.02830837  0.12806370  0.75362595  1
  O2-  O250  1  0.02387895  0.63088131  0.25937425  1
  O2-  O251  1  0.03326281  0.61434181  0.75514010  1
  O2-  O252  1  0.51424009  0.11467131  0.27407096  1
  O2-  O253  1  0.50970240  0.11161920  0.78239192  1
  O2-  O254  1  0.52945114  0.61530458  0.26640730  1
  O2-  O255  1  0.51004747  0.61291923  0.77997589  1
  O2-  O256  1  0.13711011  0.47978051  0.01870785  1
  O2-  O257  1  0.11854190  0.47748304  0.51198887  1
  O2-  O258  1  0.13573438  0.98355789  0.01632643  1
  O2-  O259  1  0.11924514  0.98060902  0.51348452  1
  O2-  O260  1  0.61608651  0.48025100  0.01099356  1
  O2-  O261  1  0.63592669  0.46987385  0.52519505  1
  O2-  O262  1  0.63203079  0.97702522  0.01865299  1
  O2-  O263  1  0.63787941  0.98017404  0.52361582  1
  O2-  O264  1  0.36196220  0.01765561  -0.02734860  1
  O2-  O265  1  0.36035802  0.02446896  0.48009009  1
  O2-  O266  1  0.37231083  0.51029042  -0.02254520  1
  O2-  O267  1  0.36394855  0.51518088  0.48980855  1
  O2-  O268  1  0.86794692  0.02022215  -0.02620336  1
  O2-  O269  1  0.88476819  0.01544006  0.47841406  1
  O2-  O270  1  0.86851109  0.52885156  -0.03056113  1
  O2-  O271  1  0.88244930  0.51413674  0.48556348  1
  O2-  O272  1  0.47907285  0.37731102  0.01104323  1
  O2-  O273  1  0.48037990  0.36308213  0.52905213  1
  O2-  O274  1  0.48032533  0.86397309  0.03161043  1
  O2-  O275  1  0.47898360  0.86716545  0.52143286  1
  O2-  O276  1  0.97875037  0.36540044  0.00236788  1
  O2-  O277  1  0.98324571  0.37361221  0.51321719  1
  O2-  O278  1  0.99341825  0.86548588  0.01746993  1
  O2-  O279  1  0.98281659  0.87350467  0.50975368  1
  O2-  O280  1  0.02828277  0.13595252  -0.01739992  1
  O2-  O281  1  0.01547045  0.12490944  0.48834017  1
  O2-  O282  1  0.03550976  0.63545858  -0.00198221  1
  O2-  O283  1  0.01947048  0.62086706  0.49294059  1
  O2-  O284  1  0.51133809  0.13589367  -0.01913125  1
  O2-  O285  1  0.53110464  0.13406664  0.48037266  1
  O2-  O286  1  0.50605125  0.61758901  -0.02195720  1
  O2-  O287  1  0.52193696  0.63013488  0.47735522  1
  O2-  O288  1  0.13015592  0.27217717  -0.01835287  1
  O2-  O289  1  0.11190829  0.26712945  0.47781321  1
  O2-  O290  1  0.13216899  0.76768646  -0.01327134  1
  O2-  O291  1  0.11397648  0.76074285  0.46390524  1
  O2-  O292  1  0.61522006  0.27158949  -0.03253593  1
  O2-  O293  1  0.63539027  0.27229878  0.48996110  1
  O2-  O294  1  0.61174617  0.76672588  -0.02392059  1
  O2-  O295  1  0.61624247  0.77195093  0.48224332  1
  O2-  O296  1  0.36614454  0.23679059  0.02047986  1
  O2-  O297  1  0.38224758  0.21611642  0.52001347  1
  O2-  O298  1  0.36659315  0.73465565  0.02444582  1
  O2-  O299  1  0.37981843  0.72245957  0.51603026  1
  O2-  O300  1  0.88887872  0.22448901  0.02061766  1
  O2-  O301  1  0.87909288  0.23447237  0.52528892  1
  O2-  O302  1  0.88641071  0.72734503  0.02950839  1
  O2-  O303  1  0.88985723  0.72579416  0.51413623  1
  O2-  O304  1  0.26685238  0.37504016  0.00146824  1
  O2-  O305  1  0.25596856  0.38500663  0.53468943  1
  O2-  O306  1  0.26753908  0.87723630  -0.00067716  1
  O2-  O307  1  0.25809509  0.88578275  0.49831793  1
  O2-  O308  1  0.76853361  0.38479417  -0.02721105  1
  O2-  O309  1  0.77744568  0.37133309  0.48678243  1
  O2-  O310  1  0.76822514  0.88120261  -0.02366066  1
  O2-  O311  1  0.77225743  0.88565046  0.47194299  1
  O2-  O312  1  0.23262355  0.12484334  -0.00077645  1
  O2-  O313  1  0.21391734  0.11706755  0.50151860  1
  O2-  O314  1  0.23640241  0.62616986  -0.00617271  1
  O2-  O315  1  0.21696612  0.61039860  0.49606649  1
  O2-  O316  1  0.72773588  0.11812559  0.02170215  1
  O2-  O317  1  0.74255604  0.13245221  0.52119632  1
  O2-  O318  1  0.72383128  0.61467873  0.02125373  1
  O2-  O319  1  0.73435890  0.61291034  0.51877178  1
