# generated using pymatgen
data_Sr64Ca21Nb43O192
_symmetry_space_group_name_H-M   'P 1'
_cell_length_a   16.62768450
_cell_length_b   16.58554193
_cell_length_c   16.74589540
_cell_angle_alpha   89.90131525
_cell_angle_beta   90.04066469
_cell_angle_gamma   89.97469121
_symmetry_Int_Tables_number   1
_chemical_formula_structural   Sr64Ca21Nb43O192
_chemical_formula_sum   'Sr64 Ca21 Nb43 O192'
_cell_volume   4618.16047532
_cell_formula_units_Z   1
loop_
 _symmetry_equiv_pos_site_id
 _symmetry_equiv_pos_as_xyz
  1  'x, y, z'
loop_
 _atom_type_symbol
 _atom_type_oxidation_number
  Sr2+  2.0
  Ca2+  2.0
  Nb5+  5.0
  O2-  -2.0
loop_
 _atom_site_type_symbol
 _atom_site_label
 _atom_site_symmetry_multiplicity
 _atom_site_fract_x
 _atom_site_fract_y
 _atom_site_fract_z
 _atom_site_occupancy
  Sr2+  Sr0  1  0.11980324  0.12551947  0.11853089  1
  Sr2+  Sr1  1  0.12878417  0.12589335  0.62039940  1
  Sr2+  Sr2  1  0.11798205  0.61522788  0.12660613  1
  Sr2+  Sr3  1  0.11316412  0.62302370  0.62098230  1
  Sr2+  Sr4  1  0.62286942  0.12601937  0.13355509  1
  Sr2+  Sr5  1  0.62270575  0.12643919  0.62948611  1
  Sr2+  Sr6  1  0.61756990  0.63280852  0.12032478  1
  Sr2+  Sr7  1  0.61797282  0.61876828  0.62169568  1
  Sr2+  Sr8  1  0.36219746  0.36580089  0.13388595  1
  Sr2+  Sr9  1  0.36899187  0.36180966  0.62219903  1
  Sr2+  Sr10  1  0.37385469  0.86271330  0.13026784  1
  Sr2+  Sr11  1  0.36889270  0.87369777  0.62635672  1
  Sr2+  Sr12  1  0.86991374  0.35460975  0.12256430  1
  Sr2+  Sr13  1  0.86804241  0.36803788  0.62175093  1
  Sr2+  Sr14  1  0.86949303  0.88103539  0.12320894  1
  Sr2+  Sr15  1  0.86795418  0.87995703  0.61979011  1
  Sr2+  Sr16  1  0.13230933  0.38026233  0.36976554  1
  Sr2+  Sr17  1  0.11575110  0.38136807  0.88367958  1
  Sr2+  Sr18  1  0.11841611  0.87346857  0.36964054  1
  Sr2+  Sr19  1  0.13324626  0.87227511  0.87520048  1
  Sr2+  Sr20  1  0.63374427  0.38375473  0.37467423  1
  Sr2+  Sr21  1  0.63484111  0.37918845  0.86776777  1
  Sr2+  Sr22  1  0.63337954  0.87316323  0.37252338  1
  Sr2+  Sr23  1  0.63085591  0.87460796  0.87716193  1
  Sr2+  Sr24  1  0.37223448  0.12855369  0.37308516  1
  Sr2+  Sr25  1  0.38591078  0.12476769  0.87901935  1
  Sr2+  Sr26  1  0.37337977  0.62165786  0.37053260  1
  Sr2+  Sr27  1  0.36057002  0.62904065  0.87894564  1
  Sr2+  Sr28  1  0.89072634  0.12663493  0.37355409  1
  Sr2+  Sr29  1  0.88758494  0.13525698  0.87745801  1
  Sr2+  Sr30  1  0.90338572  0.63188117  0.37391734  1
  Sr2+  Sr31  1  0.89424206  0.62242727  0.87185980  1
  Sr2+  Sr32  1  0.12776691  0.14364982  0.36967129  1
  Sr2+  Sr33  1  0.13230920  0.13590219  0.87792520  1
  Sr2+  Sr34  1  0.13298633  0.61974347  0.37498479  1
  Sr2+  Sr35  1  0.12807391  0.62567681  0.87742692  1
  Sr2+  Sr36  1  0.63676498  0.13200177  0.37112744  1
  Sr2+  Sr37  1  0.62739500  0.13811130  0.87131068  1
  Sr2+  Sr38  1  0.63064509  0.62719164  0.37216708  1
  Sr2+  Sr39  1  0.63504658  0.62114447  0.88051503  1
  Sr2+  Sr40  1  0.37942906  0.38688297  0.36711426  1
  Sr2+  Sr41  1  0.38734981  0.37588152  0.87151889  1
  Sr2+  Sr42  1  0.38485896  0.87285586  0.37912040  1
  Sr2+  Sr43  1  0.37773735  0.87732625  0.87893148  1
  Sr2+  Sr44  1  0.88761201  0.38482534  0.37409663  1
  Sr2+  Sr45  1  0.87879409  0.38698370  0.86521339  1
  Sr2+  Sr46  1  0.88200162  0.87069495  0.36633504  1
  Sr2+  Sr47  1  0.88221150  0.87236063  0.87546420  1
  Sr2+  Sr48  1  0.11197780  0.36651882  0.12483763  1
  Sr2+  Sr49  1  0.10928734  0.35927985  0.61858822  1
  Sr2+  Sr50  1  0.11377410  0.87082789  0.12549985  1
  Sr2+  Sr51  1  0.12590359  0.87895647  0.63078727  1
  Sr2+  Sr52  1  0.61723746  0.37008291  0.14373300  1
  Sr2+  Sr53  1  0.61576497  0.37050202  0.62326966  1
  Sr2+  Sr54  1  0.61571798  0.87663120  0.12766990  1
  Sr2+  Sr55  1  0.61851681  0.87059226  0.62393686  1
  Sr2+  Sr56  1  0.36068050  0.11779400  0.12670218  1
  Sr2+  Sr57  1  0.36533496  0.11873608  0.62621017  1
  Sr2+  Sr58  1  0.36169765  0.62049754  0.12731451  1
  Sr2+  Sr59  1  0.36729514  0.61686968  0.61933040  1
  Sr2+  Sr60  1  0.88384165  0.12277019  0.12547175  1
  Sr2+  Sr61  1  0.89702942  0.12429001  0.62698023  1
  Sr2+  Sr62  1  0.87758000  0.62417172  0.12333521  1
  Sr2+  Sr63  1  0.87564948  0.62681852  0.62007412  1
  Ca2+  Ca64  1  -0.00086962  -0.00146634  -0.00235647  1
  Ca2+  Ca65  1  0.00181300  0.49947232  0.49967677  1
  Ca2+  Ca66  1  0.49727548  0.50180579  -0.00297766  1
  Ca2+  Ca67  1  -0.00290454  0.50069046  0.00201592  1
  Ca2+  Ca68  1  0.00164893  -0.00159179  0.49974571  1
  Ca2+  Ca69  1  0.25159135  0.75091587  0.50157197  1
  Ca2+  Ca70  1  0.25317506  0.24895390  -0.00345590  1
  Ca2+  Ca71  1  0.75043728  0.24694250  0.50024674  1
  Ca2+  Ca72  1  0.74444810  0.24781610  0.00070565  1
  Ca2+  Ca73  1  0.25299343  0.25157749  0.49803328  1
  Ca2+  Ca74  1  0.49899182  0.75004493  0.75435248  1
  Ca2+  Ca75  1  0.00011614  0.25126921  0.75169704  1
  Ca2+  Ca76  1  0.75330670  0.50296229  0.25012853  1
  Ca2+  Ca77  1  0.24804279  0.49865056  0.24779179  1
  Ca2+  Ca78  1  0.25125412  -0.00262107  0.24913838  1
  Ca2+  Ca79  1  0.25056572  0.49775697  0.74869626  1
  Ca2+  Ca80  1  -0.00020037  0.75257266  0.74900346  1
  Ca2+  Ca81  1  0.00205604  0.74855126  0.24678253  1
  Ca2+  Ca82  1  0.49916794  0.74979893  0.25140396  1
  Ca2+  Ca83  1  0.49697966  0.24888643  0.25282414  1
  Ca2+  Ca84  1  -0.00305764  0.25206744  0.24954108  1
  Nb5+  Nb85  1  0.49977644  0.00111785  0.00788035  1
  Nb5+  Nb86  1  0.50108653  0.49326460  0.50047333  1
  Nb5+  Nb87  1  0.50102698  -0.00395247  0.50671817  1
  Nb5+  Nb88  1  0.25036704  0.75084855  0.00172710  1
  Nb5+  Nb89  1  0.75328080  0.74866053  -0.00391477  1
  Nb5+  Nb90  1  0.75027543  0.74923813  0.49424655  1
  Nb5+  Nb91  1  0.49759403  0.25137683  0.74645485  1
  Nb5+  Nb92  1  0.74919144  0.51000876  0.74655866  1
  Nb5+  Nb93  1  0.75231758  0.00308032  0.74675429  1
  Nb5+  Nb94  1  0.25637714  0.00055563  0.75316516  1
  Nb5+  Nb95  1  0.74944080  -0.00082752  0.24454588  1
  Nb5+  Nb96  1  0.00497051  -0.00283534  0.24943495  1
  Nb5+  Nb97  1  0.01088347  -0.00269637  0.75266567  1
  Nb5+  Nb98  1  -0.00088634  0.50011285  0.24768866  1
  Nb5+  Nb99  1  0.00610371  0.49693037  0.74532423  1
  Nb5+  Nb100  1  0.50074644  0.00081168  0.26162942  1
  Nb5+  Nb101  1  0.50444715  -0.00144445  0.75541919  1
  Nb5+  Nb102  1  0.50152099  0.50545125  0.24322820  1
  Nb5+  Nb103  1  0.50189350  0.50614308  0.75155102  1
  Nb5+  Nb104  1  0.24795468  0.24813915  0.24712252  1
  Nb5+  Nb105  1  0.24876741  0.25383724  0.75393333  1
  Nb5+  Nb106  1  0.24902631  0.75014593  0.25495832  1
  Nb5+  Nb107  1  0.24655814  0.74800189  0.74819922  1
  Nb5+  Nb108  1  0.75108261  0.25409239  0.25657142  1
  Nb5+  Nb109  1  0.75125930  0.25379244  0.74895867  1
  Nb5+  Nb110  1  0.74900015  0.75068574  0.24057539  1
  Nb5+  Nb111  1  0.75001410  0.75639780  0.74551242  1
  Nb5+  Nb112  1  -0.00215781  0.24967355  0.49738299  1
  Nb5+  Nb113  1  -0.00257242  0.25025068  0.99785184  1
  Nb5+  Nb114  1  0.00717213  0.75590250  0.50162737  1
  Nb5+  Nb115  1  0.00595301  0.75203370  0.99885576  1
  Nb5+  Nb116  1  0.50004522  0.24173368  0.49757492  1
  Nb5+  Nb117  1  0.50001845  0.25192229  1.00350719  1
  Nb5+  Nb118  1  0.50270069  0.74101357  0.50000985  1
  Nb5+  Nb119  1  0.50257167  0.75097751  0.99633144  1
  Nb5+  Nb120  1  0.24807362  -0.00457584  0.00155318  1
  Nb5+  Nb121  1  0.24793109  -0.00140371  0.49502950  1
  Nb5+  Nb122  1  0.25470873  0.49266742  -0.00269055  1
  Nb5+  Nb123  1  0.24905800  0.49622146  0.50528374  1
  Nb5+  Nb124  1  0.74384458  0.00165487  -0.00573212  1
  Nb5+  Nb125  1  0.74757530  0.00141881  0.49586963  1
  Nb5+  Nb126  1  0.75093973  0.49147740  0.00335529  1
  Nb5+  Nb127  1  0.75271426  0.50287115  0.49854867  1
  O2-  O128  1  -0.00269413  0.02389169  0.13295428  1
  O2-  O129  1  0.01152511  0.02614302  0.63555541  1
  O2-  O130  1  -0.00817184  0.53015725  0.13239266  1
  O2-  O131  1  -0.00984739  0.52774860  0.63271075  1
  O2-  O132  1  0.49918914  0.02373929  0.12044348  1
  O2-  O133  1  0.50214203  0.02144423  0.62075515  1
  O2-  O134  1  0.50109483  0.53391784  0.13222911  1
  O2-  O135  1  0.49720603  0.51627851  0.62827251  1
  O2-  O136  1  -0.00565434  -0.02818743  0.36636703  1
  O2-  O137  1  -0.00057780  -0.03369583  0.86565498  1
  O2-  O138  1  0.00967459  0.47503810  0.36781589  1
  O2-  O139  1  -0.00238542  0.47965661  0.86485270  1
  O2-  O140  1  0.50694888  -0.02016870  0.37674522  1
  O2-  O141  1  0.50299438  -0.01695782  0.86918141  1
  O2-  O142  1  0.51103903  0.47732439  0.38629795  1
  O2-  O143  1  0.51261770  0.46875224  0.86114405  1
  O2-  O144  1  0.23402977  0.27390546  0.12890977  1
  O2-  O145  1  0.23009653  0.25981503  0.63686972  1
  O2-  O146  1  0.24955505  0.77559145  0.11615714  1
  O2-  O147  1  0.25796246  0.77310308  0.63618729  1
  O2-  O148  1  0.72216999  0.26298184  0.13814604  1
  O2-  O149  1  0.72002661  0.25751239  0.63613529  1
  O2-  O150  1  0.75836585  0.76973736  0.12497877  1
  O2-  O151  1  0.75753893  0.76597305  0.63042678  1
  O2-  O152  1  0.26166700  0.22239617  0.36556985  1
  O2-  O153  1  0.27391083  0.21889264  0.86266722  1
  O2-  O154  1  0.24455108  0.72743458  0.36767060  1
  O2-  O155  1  0.23698325  0.73666229  0.87927808  1
  O2-  O156  1  0.76579043  0.21469571  0.36732587  1
  O2-  O157  1  0.75767714  0.22284788  0.86218083  1
  O2-  O158  1  0.73870162  0.74326996  0.37967611  1
  O2-  O159  1  0.73613702  0.73912847  0.88137762  1
  O2-  O160  1  0.01916628  0.23160336  0.11580950  1
  O2-  O161  1  0.02296041  0.23071833  0.61872785  1
  O2-  O162  1  -0.00308322  0.72190986  0.11368013  1
  O2-  O163  1  -0.00520382  0.72420077  0.61564489  1
  O2-  O164  1  0.52808203  0.24010571  0.11341373  1
  O2-  O165  1  0.52458697  0.23911072  0.62830039  1
  O2-  O166  1  0.49483603  0.73173587  0.11244732  1
  O2-  O167  1  0.50391082  0.73731814  0.61734206  1
  O2-  O168  1  0.24386690  0.02190345  0.38423643  1
  O2-  O169  1  0.24786101  0.01331989  0.87377935  1
  O2-  O170  1  0.24850526  0.51831320  0.38726290  1
  O2-  O171  1  0.23913563  0.52526044  0.88197702  1
  O2-  O172  1  0.74397376  0.00461381  0.37918647  1
  O2-  O173  1  0.73669731  0.00500419  0.87510633  1
  O2-  O174  1  0.72761731  0.51633231  0.38760919  1
  O2-  O175  1  0.73999138  0.51241250  0.86453134  1
  O2-  O176  1  -0.03011427  0.26298600  0.38300859  1
  O2-  O177  1  -0.03087767  0.27089907  0.88219628  1
  O2-  O178  1  -0.00441502  0.77089022  0.38338721  1
  O2-  O179  1  -0.00175661  0.77718874  0.88337147  1
  O2-  O180  1  0.46731159  0.25844323  0.38878665  1
  O2-  O181  1  0.47622478  0.25303972  0.86391632  1
  O2-  O182  1  0.51021305  0.77996708  0.38853946  1
  O2-  O183  1  0.50254738  0.79280100  0.88599425  1
  O2-  O184  1  0.27587197  -0.02063117  0.11206833  1
  O2-  O185  1  0.25780893  -0.01874101  0.63446858  1
  O2-  O186  1  0.27167873  0.48996177  0.11422253  1
  O2-  O187  1  0.28534213  0.48855946  0.61792428  1
  O2-  O188  1  0.74567874  -0.01671082  0.12654692  1
  O2-  O189  1  0.74320929  -0.02068137  0.63183930  1
  O2-  O190  1  0.75507306  0.46778142  0.11498118  1
  O2-  O191  1  0.76053744  0.49441336  0.62609751  1
  O2-  O192  1  0.13082577  0.26936926  0.26929220  1
  O2-  O193  1  0.13625538  0.26620217  0.77921097  1
  O2-  O194  1  0.13498902  0.78420651  0.24606257  1
  O2-  O195  1  0.13381136  0.78494384  0.75195310  1
  O2-  O196  1  0.63147081  0.26624435  0.27754608  1
  O2-  O197  1  0.61898858  0.26062338  0.76900074  1
  O2-  O198  1  0.63404142  0.77832745  0.24749280  1
  O2-  O199  1  0.63447117  0.77316483  0.75292535  1
  O2-  O200  1  0.36679073  0.22433483  0.22717535  1
  O2-  O201  1  0.38164798  0.23015682  0.72587444  1
  O2-  O202  1  0.36641020  0.72482993  0.24159047  1
  O2-  O203  1  0.36361359  0.73546402  0.76659827  1
  O2-  O204  1  0.86181844  0.22896146  0.22420537  1
  O2-  O205  1  0.86160760  0.23196662  0.72744651  1
  O2-  O206  1  0.86258238  0.73430994  0.26195923  1
  O2-  O207  1  0.86165886  0.72974601  0.76667264  1
  O2-  O208  1  0.27588929  0.36470174  0.26584785  1
  O2-  O209  1  0.28333006  0.36312284  0.76460945  1
  O2-  O210  1  0.28441533  0.86522184  0.26770558  1
  O2-  O211  1  0.27039520  0.88209101  0.76997175  1
  O2-  O212  1  0.76933897  0.36589550  0.27893054  1
  O2-  O213  1  0.76256199  0.37127551  0.76169599  1
  O2-  O214  1  0.76778348  0.87777745  0.26360393  1
  O2-  O215  1  0.76719925  0.87422840  0.76670701  1
  O2-  O216  1  0.22498676  0.12999582  0.22303121  1
  O2-  O217  1  0.23508536  0.11820403  0.73414390  1
  O2-  O218  1  0.22729609  0.63592369  0.22441597  1
  O2-  O219  1  0.22178184  0.63615368  0.73386925  1
  O2-  O220  1  0.72550949  0.11438641  0.24076000  1
  O2-  O221  1  0.72775325  0.11626407  0.73855693  1
  O2-  O222  1  0.72207468  0.63815899  0.23103121  1
  O2-  O223  1  0.72802051  0.62619840  0.73592956  1
  O2-  O224  1  0.11603615  0.47091684  0.23432881  1
  O2-  O225  1  0.11702101  0.46675113  0.73577121  1
  O2-  O226  1  0.11716332  0.97163801  0.24471625  1
  O2-  O227  1  0.12833145  0.98248900  0.75276350  1
  O2-  O228  1  0.61740386  0.47711649  0.25043883  1
  O2-  O229  1  0.63112765  0.47706213  0.73584572  1
  O2-  O230  1  0.62828807  0.97570064  0.25120425  1
  O2-  O231  1  0.62201483  0.98230529  0.74858154  1
  O2-  O232  1  0.38834509  0.02621527  0.26125781  1
  O2-  O233  1  0.37652428  0.01874977  0.75541375  1
  O2-  O234  1  0.38550880  0.51698167  0.26539646  1
  O2-  O235  1  0.38945024  0.52810324  0.76143158  1
  O2-  O236  1  0.86498978  0.01842585  0.25170092  1
  O2-  O237  1  0.86616519  0.01602646  0.75180812  1
  O2-  O238  1  0.88257411  0.53407119  0.26349880  1
  O2-  O239  1  0.86595093  0.51870712  0.75548341  1
  O2-  O240  1  0.48148163  0.38528961  0.22891520  1
  O2-  O241  1  0.48566828  0.36916450  0.73054035  1
  O2-  O242  1  0.48690902  0.88882243  0.22645509  1
  O2-  O243  1  0.48356301  0.88931628  0.72361095  1
  O2-  O244  1  0.96512439  0.38566772  0.22962029  1
  O2-  O245  1  0.96856462  0.38415658  0.72868567  1
  O2-  O246  1  0.97100809  0.88344291  0.22747266  1
  O2-  O247  1  0.97792080  0.88783500  0.72056270  1
  O2-  O248  1  0.00961043  0.11383913  0.27490834  1
  O2-  O249  1  0.00532999  0.11365502  0.77906905  1
  O2-  O250  1  0.02934089  0.61721518  0.27345340  1
  O2-  O251  1  0.01986297  0.61494469  0.77092366  1
  O2-  O252  1  0.53306245  0.11356429  0.26211600  1
  O2-  O253  1  0.51631012  0.12120919  0.75681139  1
  O2-  O254  1  0.51892361  0.61719391  0.28163279  1
  O2-  O255  1  0.53657173  0.61435677  0.76543407  1
  O2-  O256  1  0.13598966  0.48191663  0.00959355  1
  O2-  O257  1  0.13816885  0.46994552  0.51661946  1
  O2-  O258  1  0.13542392  0.97469815  0.00875952  1
  O2-  O259  1  0.13789242  0.97110562  0.50684242  1
  O2-  O260  1  0.63471718  0.50433773  -0.00471081  1
  O2-  O261  1  0.62330975  0.49118145  0.51934686  1
  O2-  O262  1  0.61933588  0.97142494  0.00101746  1
  O2-  O263  1  0.62164098  0.97369411  0.50277749  1
  O2-  O264  1  0.38279873  0.00903153  -0.01526563  1
  O2-  O265  1  0.38776309  0.02331586  0.49137705  1
  O2-  O266  1  0.36723924  0.53458780  -0.01026002  1
  O2-  O267  1  0.39092584  0.53124823  0.49317696  1
  O2-  O268  1  0.85802395  0.01418855  -0.00165811  1
  O2-  O269  1  0.86000558  0.01770086  0.51125844  1
  O2-  O270  1  0.85937166  0.53224187  -0.00933103  1
  O2-  O271  1  0.86375629  0.53243354  0.49132396  1
  O2-  O272  1  0.47182952  0.36364361  0.01013419  1
  O2-  O273  1  0.48467056  0.38039547  0.52225857  1
  O2-  O274  1  0.48458078  0.88000902  0.02442784  1
  O2-  O275  1  0.48280948  0.88183826  0.52166096  1
  O2-  O276  1  0.98469927  0.36735265  0.02315736  1
  O2-  O277  1  0.97705179  0.36704129  0.52255102  1
  O2-  O278  1  0.97784111  0.86492339  0.02576773  1
  O2-  O279  1  0.96896350  0.86610074  0.51903061  1
  O2-  O280  1  0.01312015  0.13099330  -0.02621901  1
  O2-  O281  1  0.01928088  0.13135164  0.47745950  1
  O2-  O282  1  0.01191621  0.63612149  -0.02815900  1
  O2-  O283  1  0.02465492  0.63629836  0.47882071  1
  O2-  O284  1  0.52161079  0.11424306  -0.02145419  1
  O2-  O285  1  0.52401093  0.12609531  0.48630069  1
  O2-  O286  1  0.50976423  0.64100855  -0.03645270  1
  O2-  O287  1  0.52920050  0.62808979  0.48622953  1
  O2-  O288  1  0.11681263  0.26373197  -0.02559104  1
  O2-  O289  1  0.11665822  0.27295729  0.47931948  1
  O2-  O290  1  0.12315749  0.77202877  0.00203582  1
  O2-  O291  1  0.11855612  0.78467616  0.50598943  1
  O2-  O292  1  0.61021542  0.26215404  -0.03653337  1
  O2-  O293  1  0.61195885  0.27711724  0.48514352  1
  O2-  O294  1  0.62215437  0.76485059  0.00900573  1
  O2-  O295  1  0.62937926  0.77026698  0.50986971  1
  O2-  O296  1  0.38945047  0.21174314  0.00933124  1
  O2-  O297  1  0.38906045  0.23478532  0.53441341  1
  O2-  O298  1  0.37043042  0.74335514  -0.00622569  1
  O2-  O299  1  0.38836650  0.72802593  0.49361040  1
  O2-  O300  1  0.87824553  0.22837076  0.01992741  1
  O2-  O301  1  0.88120095  0.22659941  0.52462094  1
  O2-  O302  1  0.86833568  0.73700597  -0.00757590  1
  O2-  O303  1  0.86569964  0.73015307  0.49815458  1
  O2-  O304  1  0.27910187  0.38288873  -0.02458200  1
  O2-  O305  1  0.28831945  0.38503110  0.48577215  1
  O2-  O306  1  0.26286300  0.87392712  -0.02595738  1
  O2-  O307  1  0.28968338  0.88768318  0.49208388  1
  O2-  O308  1  0.76491142  0.38290687  -0.03077308  1
  O2-  O309  1  0.76839840  0.38836329  0.49074655  1
  O2-  O310  1  0.75784705  0.87230702  -0.01142883  1
  O2-  O311  1  0.76350852  0.87250968  0.49300401  1
  O2-  O312  1  0.23440589  0.11093573  0.01237486  1
  O2-  O313  1  0.24623544  0.11195772  0.52726357  1
  O2-  O314  1  0.23059136  0.63664802  0.01684311  1
  O2-  O315  1  0.23309765  0.61610050  0.52488836  1
  O2-  O316  1  0.71610446  0.11076847  0.01227590  1
  O2-  O317  1  0.71590073  0.11017525  0.51227038  1
  O2-  O318  1  0.73219022  0.63572990  0.02178268  1
  O2-  O319  1  0.72821312  0.63317039  0.51919670  1
