# generated using pymatgen
data_Sr64Ca21Nb43O192
_symmetry_space_group_name_H-M   'P 1'
_cell_length_a   16.56488406
_cell_length_b   16.56276442
_cell_length_c   16.70955347
_cell_angle_alpha   89.93078680
_cell_angle_beta   90.00037791
_cell_angle_gamma   89.96581726
_symmetry_Int_Tables_number   1
_chemical_formula_structural   Sr64Ca21Nb43O192
_chemical_formula_sum   'Sr64 Ca21 Nb43 O192'
_cell_volume   4584.43347806
_cell_formula_units_Z   1
loop_
 _symmetry_equiv_pos_site_id
 _symmetry_equiv_pos_as_xyz
  1  'x, y, z'
loop_
 _atom_type_symbol
 _atom_type_oxidation_number
  Sr2+  2.0
  Ca2+  2.0
  Nb5+  5.0
  O2-  -2.0
loop_
 _atom_site_type_symbol
 _atom_site_label
 _atom_site_symmetry_multiplicity
 _atom_site_fract_x
 _atom_site_fract_y
 _atom_site_fract_z
 _atom_site_occupancy
  Sr2+  Sr0  1  0.11947232  0.13307598  0.12862563  1
  Sr2+  Sr1  1  0.11346372  0.14086429  0.62438927  1
  Sr2+  Sr2  1  0.11437387  0.63695113  0.12647940  1
  Sr2+  Sr3  1  0.12860681  0.63215725  0.62343637  1
  Sr2+  Sr4  1  0.61841361  0.13114692  0.12207920  1
  Sr2+  Sr5  1  0.62234487  0.13621434  0.62992188  1
  Sr2+  Sr6  1  0.62303027  0.63759535  0.12088645  1
  Sr2+  Sr7  1  0.61488008  0.62572587  0.62566638  1
  Sr2+  Sr8  1  0.36280174  0.37681227  0.12699853  1
  Sr2+  Sr9  1  0.37007951  0.38970777  0.62278696  1
  Sr2+  Sr10  1  0.37200387  0.88890668  0.12827942  1
  Sr2+  Sr11  1  0.36777928  0.88134807  0.62680757  1
  Sr2+  Sr12  1  0.86598835  0.38761330  0.12201272  1
  Sr2+  Sr13  1  0.86928091  0.36893550  0.62672653  1
  Sr2+  Sr14  1  0.86907827  0.87743925  0.12386788  1
  Sr2+  Sr15  1  0.86890989  0.89083874  0.62637819  1
  Sr2+  Sr16  1  0.13087688  0.37286260  0.37784151  1
  Sr2+  Sr17  1  0.13514252  0.37172312  0.87199287  1
  Sr2+  Sr18  1  0.13541971  0.86751890  0.37317078  1
  Sr2+  Sr19  1  0.13114382  0.87460318  0.88846772  1
  Sr2+  Sr20  1  0.63976019  0.37316220  0.37431921  1
  Sr2+  Sr21  1  0.62792761  0.36184499  0.87120225  1
  Sr2+  Sr22  1  0.62778451  0.86288694  0.37848801  1
  Sr2+  Sr23  1  0.62849236  0.87190451  0.85822667  1
  Sr2+  Sr24  1  0.38387024  0.11042183  0.37007144  1
  Sr2+  Sr25  1  0.39210615  0.12384385  0.87988023  1
  Sr2+  Sr26  1  0.38495333  0.62045957  0.37360823  1
  Sr2+  Sr27  1  0.38592167  0.61396542  0.87477041  1
  Sr2+  Sr28  1  0.88762149  0.12365745  0.38603046  1
  Sr2+  Sr29  1  0.88331904  0.11263819  0.86854811  1
  Sr2+  Sr30  1  0.86772901  0.61739638  0.36081763  1
  Sr2+  Sr31  1  0.88626045  0.61796770  0.87852615  1
  Sr2+  Sr32  1  0.13082954  0.10929140  0.37596781  1
  Sr2+  Sr33  1  0.13195262  0.12107090  0.87740440  1
  Sr2+  Sr34  1  0.13456630  0.62491141  0.36796642  1
  Sr2+  Sr35  1  0.13176887  0.60814475  0.87756790  1
  Sr2+  Sr36  1  0.64061824  0.12194067  0.37036898  1
  Sr2+  Sr37  1  0.63035227  0.11351209  0.87177244  1
  Sr2+  Sr38  1  0.62956892  0.61453245  0.37635921  1
  Sr2+  Sr39  1  0.63426048  0.61470459  0.87417237  1
  Sr2+  Sr40  1  0.38687519  0.36688604  0.37547213  1
  Sr2+  Sr41  1  0.37186774  0.36058845  0.88038102  1
  Sr2+  Sr42  1  0.37586825  0.86382283  0.37520403  1
  Sr2+  Sr43  1  0.38438554  0.86588015  0.87554590  1
  Sr2+  Sr44  1  0.87443005  0.36355592  0.38604732  1
  Sr2+  Sr45  1  0.88765612  0.37072417  0.87370143  1
  Sr2+  Sr46  1  0.88037511  0.85943879  0.37555967  1
  Sr2+  Sr47  1  0.88199489  0.86597317  0.86428187  1
  Sr2+  Sr48  1  0.11477088  0.37450241  0.12335763  1
  Sr2+  Sr49  1  0.11730921  0.39001859  0.62867405  1
  Sr2+  Sr50  1  0.11582243  0.88477311  0.12872474  1
  Sr2+  Sr51  1  0.11545092  0.87354308  0.61679275  1
  Sr2+  Sr52  1  0.61442048  0.38263799  0.12665886  1
  Sr2+  Sr53  1  0.60886506  0.37417799  0.62012672  1
  Sr2+  Sr54  1  0.61079778  0.87778113  0.12330420  1
  Sr2+  Sr55  1  0.61585461  0.89171926  0.62547077  1
  Sr2+  Sr56  1  0.36606430  0.13396191  0.12990219  1
  Sr2+  Sr57  1  0.37583235  0.13068671  0.61537725  1
  Sr2+  Sr58  1  0.36756609  0.63285934  0.12001218  1
  Sr2+  Sr59  1  0.36715852  0.62511896  0.62955906  1
  Sr2+  Sr60  1  0.86516555  0.12972087  0.12185137  1
  Sr2+  Sr61  1  0.86320439  0.13227759  0.62932154  1
  Sr2+  Sr62  1  0.85912250  0.63587650  0.11928994  1
  Sr2+  Sr63  1  0.86256571  0.63352382  0.62904614  1
  Ca2+  Ca64  1  0.49901220  0.49659633  0.00023004  1
  Ca2+  Ca65  1  -0.00267943  0.50339925  0.49929093  1
  Ca2+  Ca66  1  0.49969500  -0.00223956  -0.00110037  1
  Ca2+  Ca67  1  0.00062472  -0.00160649  0.49960117  1
  Ca2+  Ca68  1  0.50108026  -0.00236913  0.49626234  1
  Ca2+  Ca69  1  0.74984133  0.75163291  0.50327999  1
  Ca2+  Ca70  1  0.25052157  0.75075982  0.00149801  1
  Ca2+  Ca71  1  0.75326825  0.25026690  -0.00243696  1
  Ca2+  Ca72  1  0.25169902  0.24957846  0.49902264  1
  Ca2+  Ca73  1  0.74824798  0.75384569  -0.00510153  1
  Ca2+  Ca74  1  0.49611715  0.25192688  0.74920049  1
  Ca2+  Ca75  1  0.50254168  0.25079127  0.25065813  1
  Ca2+  Ca76  1  0.74941990  0.49825949  0.24872599  1
  Ca2+  Ca77  1  0.74999059  0.49765005  0.74950980  1
  Ca2+  Ca78  1  -0.00355877  0.24961834  0.25127749  1
  Ca2+  Ca79  1  0.00137029  0.25037073  0.75280204  1
  Ca2+  Ca80  1  0.75172333  0.00062673  0.24909371  1
  Ca2+  Ca81  1  0.00188917  0.74808787  0.74936983  1
  Ca2+  Ca82  1  0.24911187  0.00144772  0.75118012  1
  Ca2+  Ca83  1  0.24946758  0.50191911  0.24988445  1
  Ca2+  Ca84  1  0.50063166  0.74939565  0.74543468  1
  Nb5+  Nb85  1  0.49796582  0.49942283  0.49870290  1
  Nb5+  Nb86  1  0.00053157  0.49484003  0.00375474  1
  Nb5+  Nb87  1  -0.00138341  -0.00359369  0.00169329  1
  Nb5+  Nb88  1  0.74763336  0.24839676  0.50109078  1
  Nb5+  Nb89  1  0.24764750  0.24821032  0.00191506  1
  Nb5+  Nb90  1  0.25375333  0.74980974  0.50133815  1
  Nb5+  Nb91  1  -0.00410012  0.75035350  0.25021536  1
  Nb5+  Nb92  1  0.49375871  0.74749768  0.24929608  1
  Nb5+  Nb93  1  0.75024726  0.00135143  0.74909649  1
  Nb5+  Nb94  1  0.25016685  0.00052725  0.24923912  1
  Nb5+  Nb95  1  0.25123345  0.49942878  0.75175475  1
  Nb5+  Nb96  1  -0.00314924  0.00048559  0.25074408  1
  Nb5+  Nb97  1  0.00897578  -0.00279022  0.74835265  1
  Nb5+  Nb98  1  -0.00388166  0.49653343  0.25176038  1
  Nb5+  Nb99  1  -0.00137293  0.50646097  0.74659050  1
  Nb5+  Nb100  1  0.50777604  -0.00170590  0.25381440  1
  Nb5+  Nb101  1  0.49289335  0.00524394  0.74535880  1
  Nb5+  Nb102  1  0.49835816  0.50165107  0.24581520  1
  Nb5+  Nb103  1  0.50089035  0.49489226  0.75586279  1
  Nb5+  Nb104  1  0.24672833  0.25149096  0.25622028  1
  Nb5+  Nb105  1  0.25088435  0.24798323  0.74418743  1
  Nb5+  Nb106  1  0.24727927  0.75229429  0.24571328  1
  Nb5+  Nb107  1  0.24818561  0.75066684  0.75778889  1
  Nb5+  Nb108  1  0.75422952  0.25218659  0.24450434  1
  Nb5+  Nb109  1  0.74958315  0.25115458  0.75401520  1
  Nb5+  Nb110  1  0.74055279  0.75454227  0.24909566  1
  Nb5+  Nb111  1  0.74761688  0.74681699  0.74693534  1
  Nb5+  Nb112  1  0.00550326  0.25554215  0.50282890  1
  Nb5+  Nb113  1  0.00007096  0.24057469  0.99724913  1
  Nb5+  Nb114  1  -0.00288330  0.74115326  0.49967996  1
  Nb5+  Nb115  1  0.00361812  0.74655911  0.99783340  1
  Nb5+  Nb116  1  0.50129004  0.24215762  0.49137526  1
  Nb5+  Nb117  1  0.50491725  0.25206450  1.00369871  1
  Nb5+  Nb118  1  0.49807233  0.74953823  0.50215913  1
  Nb5+  Nb119  1  0.50168830  0.74903712  0.99272660  1
  Nb5+  Nb120  1  0.25340304  0.00392216  -0.00071636  1
  Nb5+  Nb121  1  0.24643238  0.00013187  0.50552376  1
  Nb5+  Nb122  1  0.24680473  0.50006681  0.00627047  1
  Nb5+  Nb123  1  0.25172684  0.50009258  0.49534392  1
  Nb5+  Nb124  1  0.74579630  -0.00625897  -0.00065163  1
  Nb5+  Nb125  1  0.75444913  -0.00052616  0.49545483  1
  Nb5+  Nb126  1  0.74493159  0.49537645  -0.00367566  1
  Nb5+  Nb127  1  0.74972966  0.50278271  0.50870087  1
  O2-  O128  1  0.02251740  0.01223782  0.12140955  1
  O2-  O129  1  0.03125786  0.01292025  0.63613730  1
  O2-  O130  1  0.02984439  0.51366799  0.11929864  1
  O2-  O131  1  0.02725404  0.51922647  0.63632447  1
  O2-  O132  1  0.52200281  0.00674201  0.13574162  1
  O2-  O133  1  0.52166470  0.02229932  0.62989481  1
  O2-  O134  1  0.52622140  0.51904859  0.13525411  1
  O2-  O135  1  0.50991131  0.51800494  0.61827361  1
  O2-  O136  1  -0.02457923  -0.02011574  0.36223802  1
  O2-  O137  1  -0.01490427  -0.01695928  0.88364015  1
  O2-  O138  1  -0.03570376  0.48916346  0.36309754  1
  O2-  O139  1  -0.01253921  0.48904040  0.88401749  1
  O2-  O140  1  0.47074904  -0.02313130  0.36339183  1
  O2-  O141  1  0.47880961  -0.01880214  0.86325949  1
  O2-  O142  1  0.47146781  0.49216817  0.38026977  1
  O2-  O143  1  0.46939852  0.47814493  0.86504321  1
  O2-  O144  1  0.26820767  0.25903127  0.12353815  1
  O2-  O145  1  0.28372802  0.25917396  0.63450906  1
  O2-  O146  1  0.27818586  0.76771930  0.13530845  1
  O2-  O147  1  0.27608756  0.75743955  0.61592784  1
  O2-  O148  1  0.77984705  0.26067570  0.13250905  1
  O2-  O149  1  0.76498467  0.25562589  0.62272113  1
  O2-  O150  1  0.76854812  0.76488292  0.13417952  1
  O2-  O151  1  0.78707420  0.76624679  0.63437016  1
  O2-  O152  1  0.21649357  0.23535466  0.36671775  1
  O2-  O153  1  0.22624203  0.24273672  0.88371242  1
  O2-  O154  1  0.23830630  0.74238489  0.37026609  1
  O2-  O155  1  0.21584350  0.74047851  0.86676762  1
  O2-  O156  1  0.73104104  0.24253926  0.38310079  1
  O2-  O157  1  0.72166361  0.23700944  0.86551630  1
  O2-  O158  1  0.72873275  0.73848005  0.36773653  1
  O2-  O159  1  0.71391606  0.74454338  0.86263502  1
  O2-  O160  1  -0.01595812  0.22876552  0.11353476  1
  O2-  O161  1  -0.01735463  0.22665726  0.61742552  1
  O2-  O162  1  -0.01490883  0.73553152  0.13026503  1
  O2-  O163  1  -0.00879474  0.71469210  0.61206926  1
  O2-  O164  1  0.48967516  0.21779391  0.11816460  1
  O2-  O165  1  0.48985569  0.23030031  0.60952049  1
  O2-  O166  1  0.48728056  0.72339292  0.13413829  1
  O2-  O167  1  0.48229825  0.71998668  0.61196297  1
  O2-  O168  1  0.26306047  0.01395353  0.36797249  1
  O2-  O169  1  0.26245902  0.03178481  0.88716859  1
  O2-  O170  1  0.26153335  0.52648599  0.38456988  1
  O2-  O171  1  0.26084642  0.51181214  0.87395973  1
  O2-  O172  1  0.76751703  0.02908225  0.38497906  1
  O2-  O173  1  0.76080422  0.02132237  0.87052718  1
  O2-  O174  1  0.75871815  0.51180015  0.38961057  1
  O2-  O175  1  0.77034432  0.52269770  0.88303020  1
  O2-  O176  1  0.00833490  0.28296922  0.38537643  1
  O2-  O177  1  0.02507973  0.27338194  0.88685559  1
  O2-  O178  1  0.01622848  0.77328698  0.36711556  1
  O2-  O179  1  0.01837668  0.77551369  0.88793723  1
  O2-  O180  1  0.51680081  0.28607893  0.38316360  1
  O2-  O181  1  0.50311103  0.28017386  0.88688743  1
  O2-  O182  1  0.50791473  0.76722462  0.37181284  1
  O2-  O183  1  0.51220301  0.77644573  0.88149275  1
  O2-  O184  1  0.23473157  -0.01647172  0.12742251  1
  O2-  O185  1  0.23471210  -0.03082287  0.61527773  1
  O2-  O186  1  0.23422739  0.47181580  0.11717239  1
  O2-  O187  1  0.24027617  0.48916789  0.62895458  1
  O2-  O188  1  0.73950901  -0.02752060  0.11334410  1
  O2-  O189  1  0.73889544  -0.01171120  0.62900533  1
  O2-  O190  1  0.73694805  0.47366499  0.11535113  1
  O2-  O191  1  0.71427780  0.47955448  0.61801524  1
  O2-  O192  1  0.13326110  0.26150698  0.22211971  1
  O2-  O193  1  0.13686136  0.28143695  0.73317826  1
  O2-  O194  1  0.12970860  0.77104277  0.23504829  1
  O2-  O195  1  0.13870012  0.76126195  0.71273848  1
  O2-  O196  1  0.63696532  0.28371936  0.23748150  1
  O2-  O197  1  0.63352815  0.26860380  0.72807578  1
  O2-  O198  1  0.62335803  0.76887913  0.23427224  1
  O2-  O199  1  0.63471747  0.77752302  0.71843431  1
  O2-  O200  1  0.36262210  0.22270134  0.26505004  1
  O2-  O201  1  0.36125915  0.23516615  0.78362045  1
  O2-  O202  1  0.37640999  0.73625657  0.26716068  1
  O2-  O203  1  0.36311845  0.72118434  0.76606325  1
  O2-  O204  1  0.86448347  0.21683950  0.27540887  1
  O2-  O205  1  0.86541928  0.22228912  0.76252751  1
  O2-  O206  1  0.88161776  0.73818391  0.26811745  1
  O2-  O207  1  0.86434331  0.73441365  0.78083872  1
  O2-  O208  1  0.26756123  0.36524932  0.27022797  1
  O2-  O209  1  0.26938557  0.37979875  0.76321299  1
  O2-  O210  1  0.26578740  0.87668984  0.26417126  1
  O2-  O211  1  0.27627026  0.86398165  0.76408901  1
  O2-  O212  1  0.78166396  0.36639607  0.26960637  1
  O2-  O213  1  0.77839108  0.36425407  0.76241819  1
  O2-  O214  1  0.77355330  0.86669054  0.27035628  1
  O2-  O215  1  0.76610897  0.88323694  0.76418937  1
  O2-  O216  1  0.23129251  0.11821625  0.23591681  1
  O2-  O217  1  0.21894393  0.13636050  0.73591621  1
  O2-  O218  1  0.23113427  0.63784562  0.23092927  1
  O2-  O219  1  0.23210590  0.62016294  0.73955357  1
  O2-  O220  1  0.71775373  0.13521829  0.23556005  1
  O2-  O221  1  0.73218079  0.12301327  0.73489498  1
  O2-  O222  1  0.74111815  0.63565602  0.23725709  1
  O2-  O223  1  0.72867961  0.63384018  0.72762346  1
  O2-  O224  1  0.11329617  0.49083192  0.27746074  1
  O2-  O225  1  0.13046660  0.48315951  0.76563954  1
  O2-  O226  1  0.12819835  0.97910151  0.26239127  1
  O2-  O227  1  0.11750630  0.97151979  0.77737876  1
  O2-  O228  1  0.61216616  0.48841509  0.27855953  1
  O2-  O229  1  0.61436103  0.47790262  0.77500585  1
  O2-  O230  1  0.61772334  0.97143461  0.27388260  1
  O2-  O231  1  0.62952229  0.98732682  0.76195429  1
  O2-  O232  1  0.36992544  0.01249945  0.23025414  1
  O2-  O233  1  0.38038305  0.02677801  0.72494426  1
  O2-  O234  1  0.38402586  0.53521926  0.23597090  1
  O2-  O235  1  0.37052319  0.51708575  0.73601472  1
  O2-  O236  1  0.88685911  0.01548726  0.21986206  1
  O2-  O237  1  0.87329120  0.01775743  0.73804860  1
  O2-  O238  1  0.88749958  0.53259865  0.22279545  1
  O2-  O239  1  0.88561024  0.52951998  0.73624642  1
  O2-  O240  1  0.47246870  0.38864881  0.23424154  1
  O2-  O241  1  0.48313451  0.38497584  0.71670073  1
  O2-  O242  1  0.48450481  0.86758891  0.23089871  1
  O2-  O243  1  0.48512503  0.88573232  0.72411369  1
  O2-  O244  1  0.98482973  0.38660679  0.22149128  1
  O2-  O245  1  0.98112364  0.38844691  0.74214393  1
  O2-  O246  1  0.99121659  0.87353986  0.22786162  1
  O2-  O247  1  0.97543287  0.88359575  0.73461629  1
  O2-  O248  1  0.02437784  0.11214258  0.26716679  1
  O2-  O249  1  0.01588663  0.11269194  0.77624308  1
  O2-  O250  1  0.02253441  0.63471074  0.26181574  1
  O2-  O251  1  0.02143330  0.61719030  0.78280432  1
  O2-  O252  1  0.51796510  0.11243231  0.27224183  1
  O2-  O253  1  0.51889586  0.11889573  0.77258303  1
  O2-  O254  1  0.51882188  0.63179235  0.27227286  1
  O2-  O255  1  0.51711126  0.61320797  0.76434476  1
  O2-  O256  1  0.12519060  0.48210401  -0.02016884  1
  O2-  O257  1  0.13632541  0.47809725  0.49200208  1
  O2-  O258  1  0.12423634  0.98943998  -0.01183034  1
  O2-  O259  1  0.13439522  0.97881140  0.47100706  1
  O2-  O260  1  0.63387904  0.47112950  -0.02467829  1
  O2-  O261  1  0.61393503  0.48582412  0.48125112  1
  O2-  O262  1  0.63530037  0.96983235  -0.02265451  1
  O2-  O263  1  0.63764453  0.97501892  0.48768427  1
  O2-  O264  1  0.36445101  0.02217554  0.02541633  1
  O2-  O265  1  0.36338904  0.02068910  0.50884437  1
  O2-  O266  1  0.36216044  0.51661212  0.01367758  1
  O2-  O267  1  0.37317940  0.52059767  0.51926505  1
  O2-  O268  1  0.88495316  0.02537422  0.01393042  1
  O2-  O269  1  0.86820719  0.02338681  0.52644679  1
  O2-  O270  1  0.88751247  0.52133326  0.01907457  1
  O2-  O271  1  0.86182181  0.51300105  0.53373621  1
  O2-  O272  1  0.47304362  0.36441180  0.03207388  1
  O2-  O273  1  0.47963974  0.38228935  0.51547671  1
  O2-  O274  1  0.47347854  0.86235945  0.02303021  1
  O2-  O275  1  0.46935244  0.86224617  0.51490389  1
  O2-  O276  1  0.98838557  0.37846385  0.01946531  1
  O2-  O277  1  0.97447049  0.36959111  0.52329363  1
  O2-  O278  1  0.98767772  0.88009823  0.02060362  1
  O2-  O279  1  0.98978933  0.85975410  0.52037912  1
  O2-  O280  1  0.02160596  0.12491091  -0.01734037  1
  O2-  O281  1  0.01718640  0.13712171  0.47535699  1
  O2-  O282  1  0.02334987  0.62898521  -0.01154522  1
  O2-  O283  1  0.03415463  0.63325740  0.47203298  1
  O2-  O284  1  0.51791727  0.13426614  -0.02482769  1
  O2-  O285  1  0.52308240  0.13232698  0.46671412  1
  O2-  O286  1  0.52450344  0.63056125  -0.02187467  1
  O2-  O287  1  0.51103251  0.62472181  0.47711424  1
  O2-  O288  1  0.12612750  0.26224185  0.02316404  1
  O2-  O289  1  0.11803364  0.27463293  0.52523127  1
  O2-  O290  1  0.11608751  0.76940743  0.03111125  1
  O2-  O291  1  0.13437033  0.76576877  0.50849146  1
  O2-  O292  1  0.61801276  0.27378596  0.01880472  1
  O2-  O293  1  0.62540252  0.26560681  0.51551810  1
  O2-  O294  1  0.61410072  0.76425306  0.02908122  1
  O2-  O295  1  0.61181603  0.77098587  0.51167319  1
  O2-  O296  1  0.36578302  0.23068038  -0.01193274  1
  O2-  O297  1  0.38515291  0.22822562  0.47393426  1
  O2-  O298  1  0.38359877  0.72079141  -0.01468247  1
  O2-  O299  1  0.37114376  0.73083334  0.47546692  1
  O2-  O300  1  0.88793769  0.23161794  -0.02924114  1
  O2-  O301  1  0.86739108  0.23601156  0.48731165  1
  O2-  O302  1  0.88719290  0.73200966  -0.01011075  1
  O2-  O303  1  0.88666135  0.72403734  0.47135976  1
  O2-  O304  1  0.26032075  0.37087949  -0.01211602  1
  O2-  O305  1  0.27689111  0.38632909  0.48406639  1
  O2-  O306  1  0.26484138  0.88866545  -0.02124336  1
  O2-  O307  1  0.26833668  0.86981235  0.48368977  1
  O2-  O308  1  0.78790874  0.38444019  -0.01653379  1
  O2-  O309  1  0.75971942  0.37216214  0.49306987  1
  O2-  O310  1  0.79061381  0.88715959  -0.02139611  1
  O2-  O311  1  0.78061306  0.88619946  0.48579116  1
  O2-  O312  1  0.22760672  0.12790352  0.01974932  1
  O2-  O313  1  0.22309402  0.11375342  0.51993637  1
  O2-  O314  1  0.22389533  0.61357388  0.01816389  1
  O2-  O315  1  0.23636858  0.62798668  0.51395275  1
  O2-  O316  1  0.73516798  0.11232789  0.01735241  1
  O2-  O317  1  0.72891073  0.12847387  0.51554476  1
  O2-  O318  1  0.73543143  0.61393635  0.01884376  1
  O2-  O319  1  0.72566754  0.61679864  0.52030233  1
