# generated using pymatgen
data_Sr64Ca21Nb43O192
_symmetry_space_group_name_H-M   'P 1'
_cell_length_a   16.61696332
_cell_length_b   16.59905965
_cell_length_c   16.74631067
_cell_angle_alpha   89.92658029
_cell_angle_beta   89.99247643
_cell_angle_gamma   90.05548329
_symmetry_Int_Tables_number   1
_chemical_formula_structural   Sr64Ca21Nb43O192
_chemical_formula_sum   'Sr64 Ca21 Nb43 O192'
_cell_volume   4619.06130715
_cell_formula_units_Z   1
loop_
 _symmetry_equiv_pos_site_id
 _symmetry_equiv_pos_as_xyz
  1  'x, y, z'
loop_
 _atom_type_symbol
 _atom_type_oxidation_number
  Sr2+  2.0
  Ca2+  2.0
  Nb5+  5.0
  O2-  -2.0
loop_
 _atom_site_type_symbol
 _atom_site_label
 _atom_site_symmetry_multiplicity
 _atom_site_fract_x
 _atom_site_fract_y
 _atom_site_fract_z
 _atom_site_occupancy
  Sr2+  Sr0  1  0.11954675  0.10591181  0.13012556  1
  Sr2+  Sr1  1  0.12412159  0.11853693  0.62185963  1
  Sr2+  Sr2  1  0.11827613  0.63523870  0.11985832  1
  Sr2+  Sr3  1  0.11618232  0.63765714  0.63011185  1
  Sr2+  Sr4  1  0.62874110  0.12130439  0.12563742  1
  Sr2+  Sr5  1  0.61184953  0.12247354  0.62987589  1
  Sr2+  Sr6  1  0.62191806  0.63877844  0.12879850  1
  Sr2+  Sr7  1  0.62018366  0.63212772  0.62503769  1
  Sr2+  Sr8  1  0.36592188  0.38283724  0.12105600  1
  Sr2+  Sr9  1  0.36645585  0.37060891  0.62407197  1
  Sr2+  Sr10  1  0.36318658  0.87788817  0.12868337  1
  Sr2+  Sr11  1  0.36618498  0.88561115  0.62423141  1
  Sr2+  Sr12  1  0.86155947  0.36671527  0.13169644  1
  Sr2+  Sr13  1  0.86569863  0.38072833  0.63058412  1
  Sr2+  Sr14  1  0.86978425  0.87470504  0.11522304  1
  Sr2+  Sr15  1  0.87060977  0.86894634  0.61619378  1
  Sr2+  Sr16  1  0.13957168  0.37115111  0.37541065  1
  Sr2+  Sr17  1  0.11070690  0.37686672  0.87810735  1
  Sr2+  Sr18  1  0.13065498  0.87213886  0.37050392  1
  Sr2+  Sr19  1  0.14342022  0.87919619  0.87145855  1
  Sr2+  Sr20  1  0.62315654  0.38706996  0.38145152  1
  Sr2+  Sr21  1  0.61310910  0.37336963  0.87004250  1
  Sr2+  Sr22  1  0.63434805  0.87131395  0.36995290  1
  Sr2+  Sr23  1  0.62626021  0.87843184  0.87155852  1
  Sr2+  Sr24  1  0.37940812  0.12684596  0.36866331  1
  Sr2+  Sr25  1  0.39209991  0.12552513  0.87735673  1
  Sr2+  Sr26  1  0.39510101  0.61187239  0.37053562  1
  Sr2+  Sr27  1  0.38278632  0.62010320  0.88499210  1
  Sr2+  Sr28  1  0.88150568  0.12088868  0.37869702  1
  Sr2+  Sr29  1  0.87634794  0.12478705  0.88520336  1
  Sr2+  Sr30  1  0.87221378  0.61857228  0.37205026  1
  Sr2+  Sr31  1  0.88603240  0.61304584  0.87568661  1
  Sr2+  Sr32  1  0.13421871  0.13222770  0.37896071  1
  Sr2+  Sr33  1  0.12577727  0.12417016  0.87827463  1
  Sr2+  Sr34  1  0.12955904  0.60880682  0.36684499  1
  Sr2+  Sr35  1  0.13991009  0.61489147  0.87715068  1
  Sr2+  Sr36  1  0.63689869  0.12341062  0.36860994  1
  Sr2+  Sr37  1  0.63404997  0.13349477  0.87691018  1
  Sr2+  Sr38  1  0.63097950  0.62719663  0.38001567  1
  Sr2+  Sr39  1  0.63214342  0.61006158  0.88162584  1
  Sr2+  Sr40  1  0.37346748  0.38388784  0.37382457  1
  Sr2+  Sr41  1  0.37743155  0.37093744  0.87563228  1
  Sr2+  Sr42  1  0.38393182  0.86262128  0.36547738  1
  Sr2+  Sr43  1  0.38158093  0.86106293  0.88114225  1
  Sr2+  Sr44  1  0.88096497  0.36293127  0.37712333  1
  Sr2+  Sr45  1  0.87123672  0.37081674  0.86893494  1
  Sr2+  Sr46  1  0.87704594  0.86136592  0.37791256  1
  Sr2+  Sr47  1  0.88178532  0.88040772  0.87448046  1
  Sr2+  Sr48  1  0.11816643  0.38201811  0.13926292  1
  Sr2+  Sr49  1  0.12099596  0.37531067  0.62914990  1
  Sr2+  Sr50  1  0.12956525  0.87495360  0.12416269  1
  Sr2+  Sr51  1  0.11707595  0.88527924  0.62284763  1
  Sr2+  Sr52  1  0.62022182  0.37807356  0.11661330  1
  Sr2+  Sr53  1  0.61788485  0.38072960  0.62530252  1
  Sr2+  Sr54  1  0.60472668  0.88777792  0.13185883  1
  Sr2+  Sr55  1  0.61233326  0.87789937  0.62389596  1
  Sr2+  Sr56  1  0.39198260  0.12080559  0.12426378  1
  Sr2+  Sr57  1  0.37023180  0.12353678  0.62728183  1
  Sr2+  Sr58  1  0.35909521  0.62969746  0.12255045  1
  Sr2+  Sr59  1  0.36593243  0.62861298  0.62367445  1
  Sr2+  Sr60  1  0.85963460  0.11681083  0.12438549  1
  Sr2+  Sr61  1  0.86523339  0.11669163  0.62334555  1
  Sr2+  Sr62  1  0.87418249  0.63052982  0.12301733  1
  Sr2+  Sr63  1  0.86359419  0.62892043  0.63078777  1
  Ca2+  Ca64  1  0.49926883  0.00067265  0.49751530  1
  Ca2+  Ca65  1  -0.00227481  0.50033900  0.00343792  1
  Ca2+  Ca66  1  -0.00267890  0.50116774  0.49944671  1
  Ca2+  Ca67  1  0.50063315  0.50100929  -0.00177619  1
  Ca2+  Ca68  1  0.49956183  -0.00268979  -0.00107752  1
  Ca2+  Ca69  1  0.74947464  0.74805252  -0.00286671  1
  Ca2+  Ca70  1  0.75103759  0.24918711  0.49966835  1
  Ca2+  Ca71  1  0.75201624  0.25270451  -0.00134788  1
  Ca2+  Ca72  1  0.24821042  0.74917034  0.49725474  1
  Ca2+  Ca73  1  0.24780633  0.24559795  -0.00112979  1
  Ca2+  Ca74  1  0.25156761  0.49958438  0.74993399  1
  Ca2+  Ca75  1  0.74826029  0.49831535  0.25154947  1
  Ca2+  Ca76  1  0.25181317  0.00364451  0.75193389  1
  Ca2+  Ca77  1  0.75378376  -0.00166491  0.25258130  1
  Ca2+  Ca78  1  0.49970038  0.74610473  0.75246188  1
  Ca2+  Ca79  1  0.75254833  0.00173999  0.74929420  1
  Ca2+  Ca80  1  0.25059303  0.50193496  0.24960512  1
  Ca2+  Ca81  1  -0.00076428  0.75247127  0.75145787  1
  Ca2+  Ca82  1  0.50022548  0.74680030  0.24846078  1
  Ca2+  Ca83  1  0.49943162  0.25361689  0.25375419  1
  Ca2+  Ca84  1  0.24871348  0.00358858  0.25197988  1
  Nb5+  Nb85  1  0.00089162  -0.00257450  -0.00461556  1
  Nb5+  Nb86  1  -0.00029568  -0.00147504  0.49207203  1
  Nb5+  Nb87  1  0.50003523  0.49948723  0.50435448  1
  Nb5+  Nb88  1  0.24794954  0.74991437  -0.00088584  1
  Nb5+  Nb89  1  0.74734631  0.75008517  0.50181971  1
  Nb5+  Nb90  1  0.25294011  0.24947772  0.50101551  1
  Nb5+  Nb91  1  -0.00153515  0.74574365  0.25154179  1
  Nb5+  Nb92  1  0.49455811  0.24953259  0.74713439  1
  Nb5+  Nb93  1  0.74936356  0.50025132  0.75063176  1
  Nb5+  Nb94  1  -0.00554040  0.24978982  0.74943660  1
  Nb5+  Nb95  1  0.00326542  0.24033359  0.25373995  1
  Nb5+  Nb96  1  -0.00580750  -0.00956965  0.24551882  1
  Nb5+  Nb97  1  -0.00305176  0.00119941  0.74317548  1
  Nb5+  Nb98  1  -0.00653587  0.49251937  0.24995265  1
  Nb5+  Nb99  1  0.00393214  0.50208500  0.75063310  1
  Nb5+  Nb100  1  0.49846500  0.00150109  0.25530041  1
  Nb5+  Nb101  1  0.49645114  -0.00705763  0.74903400  1
  Nb5+  Nb102  1  0.50386044  0.49999453  0.23878100  1
  Nb5+  Nb103  1  0.49882812  0.50245471  0.74786537  1
  Nb5+  Nb104  1  0.25146484  0.25085339  0.24293404  1
  Nb5+  Nb105  1  0.24317266  0.24949767  0.75193348  1
  Nb5+  Nb106  1  0.24838653  0.74668874  0.25564469  1
  Nb5+  Nb107  1  0.25249807  0.75222330  0.74498729  1
  Nb5+  Nb108  1  0.74429006  0.25353940  0.25410580  1
  Nb5+  Nb109  1  0.74361915  0.25129223  0.74269351  1
  Nb5+  Nb110  1  0.75017518  0.75192558  0.24573012  1
  Nb5+  Nb111  1  0.74808960  0.75135289  0.75455469  1
  Nb5+  Nb112  1  0.00250433  0.24741829  0.50728024  1
  Nb5+  Nb113  1  0.00554315  0.24802909  1.01356733  1
  Nb5+  Nb114  1  0.00203505  0.74668721  0.49711171  1
  Nb5+  Nb115  1  0.00288915  0.75335592  0.99079543  1
  Nb5+  Nb116  1  0.50292789  0.25212280  0.49749684  1
  Nb5+  Nb117  1  0.50222326  0.24700976  1.00465495  1
  Nb5+  Nb118  1  0.49389855  0.74994288  0.50079061  1
  Nb5+  Nb119  1  0.50595416  0.75181536  1.00401719  1
  Nb5+  Nb120  1  0.25012610  0.00481676  0.00233841  1
  Nb5+  Nb121  1  0.25449694  -0.00122858  0.49627385  1
  Nb5+  Nb122  1  0.24965720  0.49247445  -0.00229656  1
  Nb5+  Nb123  1  0.24532067  0.50182973  0.50372488  1
  Nb5+  Nb124  1  0.74634780  -0.00484028  -0.00128969  1
  Nb5+  Nb125  1  0.74550747  0.00036760  0.50283526  1
  Nb5+  Nb126  1  0.75155067  0.49759104  0.00629635  1
  Nb5+  Nb127  1  0.75306627  0.49986977  0.50164732  1
  O2-  O128  1  -0.00407972  0.01002854  0.12866709  1
  O2-  O129  1  0.00208988  0.01639822  0.62555842  1
  O2-  O130  1  0.02107868  0.52043442  0.13719750  1
  O2-  O131  1  0.01401412  0.52007904  0.63422692  1
  O2-  O132  1  0.51253479  0.02383530  0.13385143  1
  O2-  O133  1  0.50102318  0.02248437  0.63164057  1
  O2-  O134  1  0.52744708  0.51662489  0.12948965  1
  O2-  O135  1  0.52219587  0.50959496  0.62675456  1
  O2-  O136  1  -0.00423820  -0.01466713  0.37618170  1
  O2-  O137  1  -0.00109113  -0.01033143  0.87799479  1
  O2-  O138  1  -0.03181776  0.49047651  0.36646849  1
  O2-  O139  1  -0.02013762  0.47300732  0.86478603  1
  O2-  O140  1  0.48505392  -0.02848262  0.36899562  1
  O2-  O141  1  0.49386786  -0.02513710  0.86544504  1
  O2-  O142  1  0.49237473  0.48094805  0.38771543  1
  O2-  O143  1  0.48868461  0.47520896  0.86109217  1
  O2-  O144  1  0.23903168  0.27970801  0.13285390  1
  O2-  O145  1  0.23534454  0.27446417  0.61800419  1
  O2-  O146  1  0.25699597  0.76551359  0.12568411  1
  O2-  O147  1  0.28080170  0.76286934  0.63311587  1
  O2-  O148  1  0.73549310  0.27476383  0.13540201  1
  O2-  O149  1  0.74638466  0.28441038  0.63083394  1
  O2-  O150  1  0.77933857  0.75516584  0.13496579  1
  O2-  O151  1  0.77386218  0.75528354  0.61968223  1
  O2-  O152  1  0.25866025  0.23131548  0.38178083  1
  O2-  O153  1  0.26082010  0.21843500  0.86040875  1
  O2-  O154  1  0.21521901  0.73475095  0.36575849  1
  O2-  O155  1  0.22232978  0.74245940  0.88426699  1
  O2-  O156  1  0.77806509  0.22701184  0.36611503  1
  O2-  O157  1  0.76964208  0.23451123  0.85765428  1
  O2-  O158  1  0.73717951  0.73783161  0.38313033  1
  O2-  O159  1  0.71550528  0.73623934  0.86340442  1
  O2-  O160  1  0.03075778  0.23108871  0.12456568  1
  O2-  O161  1  0.02518022  0.23681229  0.62030226  1
  O2-  O162  1  -0.01367883  0.73786366  0.13284228  1
  O2-  O163  1  -0.01560063  0.73312391  0.61260164  1
  O2-  O164  1  0.51924025  0.22773744  0.11727797  1
  O2-  O165  1  0.51122283  0.23765730  0.62548110  1
  O2-  O166  1  0.48303759  0.71530777  0.11636955  1
  O2-  O167  1  0.48941065  0.71732889  0.61425388  1
  O2-  O168  1  0.24052370  0.02815632  0.38488590  1
  O2-  O169  1  0.23176982  0.01143561  0.88648376  1
  O2-  O170  1  0.27436927  0.51839411  0.38937039  1
  O2-  O171  1  0.26743441  0.52522298  0.88319992  1
  O2-  O172  1  0.75753948  0.02068094  0.38856827  1
  O2-  O173  1  0.75275133  0.02251136  0.88307732  1
  O2-  O174  1  0.74546420  0.52175471  0.38780082  1
  O2-  O175  1  0.76384354  0.51786686  0.86553551  1
  O2-  O176  1  -0.01138055  0.25335464  0.36968369  1
  O2-  O177  1  -0.01813254  0.26213649  0.86292487  1
  O2-  O178  1  0.00764668  0.77842573  0.37348749  1
  O2-  O179  1  0.01334265  0.78874167  0.88351762  1
  O2-  O180  1  0.47030568  0.26979255  0.38919329  1
  O2-  O181  1  0.48769158  0.26909380  0.86388945  1
  O2-  O182  1  0.52552984  0.76263315  0.38709126  1
  O2-  O183  1  0.51203624  0.78094614  0.88603256  1
  O2-  O184  1  0.24269356  -0.02244653  0.11772321  1
  O2-  O185  1  0.24045022  -0.01974236  0.61412953  1
  O2-  O186  1  0.23489747  0.47635895  0.11586363  1
  O2-  O187  1  0.24636285  0.46704108  0.61520343  1
  O2-  O188  1  0.76224096  -0.01684599  0.11713920  1
  O2-  O189  1  0.77028702  -0.02123765  0.61640021  1
  O2-  O190  1  0.74098254  0.47378866  0.11715382  1
  O2-  O191  1  0.74250776  0.48401498  0.62543082  1
  O2-  O192  1  0.11652651  0.27953422  0.25829608  1
  O2-  O193  1  0.12812070  0.27234544  0.75898851  1
  O2-  O194  1  0.11328676  0.77567952  0.23886228  1
  O2-  O195  1  0.13388619  0.77875725  0.73027739  1
  O2-  O196  1  0.63462137  0.26811162  0.28323991  1
  O2-  O197  1  0.62866381  0.26674583  0.75693225  1
  O2-  O198  1  0.63593214  0.77432211  0.23108202  1
  O2-  O199  1  0.63632429  0.76385309  0.71666047  1
  O2-  O200  1  0.36297446  0.22306010  0.23739762  1
  O2-  O201  1  0.38056391  0.23497790  0.73373771  1
  O2-  O202  1  0.36165281  0.72765608  0.27126509  1
  O2-  O203  1  0.36354765  0.72328453  0.77923377  1
  O2-  O204  1  0.89048366  0.23556511  0.22294351  1
  O2-  O205  1  0.88219763  0.23793595  0.72428019  1
  O2-  O206  1  0.87806019  0.73387557  0.27092906  1
  O2-  O207  1  0.86270459  0.71860424  0.76403214  1
  O2-  O208  1  0.26062998  0.36498295  0.27710313  1
  O2-  O209  1  0.27942944  0.36159287  0.76056718  1
  O2-  O210  1  0.26243196  0.86539215  0.26730089  1
  O2-  O211  1  0.27311029  0.86733963  0.77257680  1
  O2-  O212  1  0.78477897  0.36505220  0.26712857  1
  O2-  O213  1  0.76943576  0.37767975  0.76148001  1
  O2-  O214  1  0.76925280  0.86458371  0.27722503  1
  O2-  O215  1  0.77240071  0.86383022  0.76606550  1
  O2-  O216  1  0.21136637  0.14076382  0.24274255  1
  O2-  O217  1  0.23938083  0.13859892  0.71376118  1
  O2-  O218  1  0.21960541  0.63511226  0.22844412  1
  O2-  O219  1  0.22069069  0.63563014  0.73690948  1
  O2-  O220  1  0.73562076  0.13596548  0.23003646  1
  O2-  O221  1  0.73566264  0.13842863  0.71816957  1
  O2-  O222  1  0.72840011  0.63551983  0.24735936  1
  O2-  O223  1  0.73289196  0.61716412  0.73059316  1
  O2-  O224  1  0.11194712  0.48602233  0.27600032  1
  O2-  O225  1  0.11622789  0.47331785  0.76155040  1
  O2-  O226  1  0.11053247  0.97934119  0.25130763  1
  O2-  O227  1  0.11291233  0.98878637  0.75400299  1
  O2-  O228  1  0.61504959  0.46202540  0.25825080  1
  O2-  O229  1  0.63224343  0.47679735  0.75740166  1
  O2-  O230  1  0.61822668  0.98016373  0.26048483  1
  O2-  O231  1  0.61670453  0.98438561  0.74926494  1
  O2-  O232  1  0.38059416  0.02879269  0.24385156  1
  O2-  O233  1  0.38461309  0.03410708  0.75167545  1
  O2-  O234  1  0.38519661  0.52877300  0.23844971  1
  O2-  O235  1  0.38766177  0.52151031  0.73013572  1
  O2-  O236  1  0.88730339  0.03477506  0.25534673  1
  O2-  O237  1  0.88801514  0.04128240  0.75872277  1
  O2-  O238  1  0.88243187  0.52941054  0.23252428  1
  O2-  O239  1  0.87413729  0.50887178  0.73376021  1
  O2-  O240  1  0.46563109  0.38551159  0.23483310  1
  O2-  O241  1  0.49384417  0.37201261  0.72814505  1
  O2-  O242  1  0.47584033  0.88214876  0.22814704  1
  O2-  O243  1  0.47717516  0.88160653  0.72280923  1
  O2-  O244  1  0.98132526  0.37713675  0.23177215  1
  O2-  O245  1  0.98997448  0.36814673  0.72382102  1
  O2-  O246  1  0.96793385  0.87812991  0.23920663  1
  O2-  O247  1  0.96867932  0.88968335  0.73420748  1
  O2-  O248  1  0.02483946  0.12760396  0.26237397  1
  O2-  O249  1  0.02678297  0.13513468  0.75562147  1
  O2-  O250  1  0.01570591  0.63422268  0.27104229  1
  O2-  O251  1  0.01699672  0.61481863  0.77701757  1
  O2-  O252  1  0.51750222  0.11857369  0.28187625  1
  O2-  O253  1  0.52338111  0.13538196  0.76589501  1
  O2-  O254  1  0.52543620  0.61145276  0.27665617  1
  O2-  O255  1  0.53038635  0.61144381  0.76678319  1
  O2-  O256  1  0.13239316  0.49092338  -0.02260666  1
  O2-  O257  1  0.13407932  0.48346007  0.48126144  1
  O2-  O258  1  0.11736842  0.97511000  0.00573169  1
  O2-  O259  1  0.11981543  0.98400936  0.49843485  1
  O2-  O260  1  0.63741679  0.47245263  -0.02265353  1
  O2-  O261  1  0.62511497  0.48215517  0.50102069  1
  O2-  O262  1  0.63406519  0.96781710  -0.00129289  1
  O2-  O263  1  0.63459429  0.96943719  0.49922848  1
  O2-  O264  1  0.36369584  0.02474548  0.00167020  1
  O2-  O265  1  0.36452535  0.03001265  0.50489013  1
  O2-  O266  1  0.36549276  0.51954832  0.02033913  1
  O2-  O267  1  0.38298170  0.51548320  0.51990309  1
  O2-  O268  1  0.88262189  0.01722077  -0.00048466  1
  O2-  O269  1  0.88263954  0.02068181  0.50033288  1
  O2-  O270  1  0.86538693  0.53683553  0.00593139  1
  O2-  O271  1  0.86399857  0.53083247  0.51459733  1
  O2-  O272  1  0.47853123  0.36400971  0.01583304  1
  O2-  O273  1  0.48477816  0.37805721  0.52402956  1
  O2-  O274  1  0.46880201  0.86350946  0.02553415  1
  O2-  O275  1  0.48046601  0.86211419  0.52548549  1
  O2-  O276  1  0.99264722  0.36194729  0.02666001  1
  O2-  O277  1  0.98301973  0.36160581  0.51056634  1
  O2-  O278  1  0.98286660  0.87814170  0.01967932  1
  O2-  O279  1  0.98140668  0.88231588  0.51425150  1
  O2-  O280  1  0.02226984  0.11569163  -0.00754905  1
  O2-  O281  1  0.02172367  0.12078611  0.48599356  1
  O2-  O282  1  0.02417660  0.63997512  -0.02146668  1
  O2-  O283  1  0.02537612  0.63758528  0.47482847  1
  O2-  O284  1  0.51925444  0.13205617  -0.03006379  1
  O2-  O285  1  0.52168242  0.13850128  0.48456754  1
  O2-  O286  1  0.51173526  0.63612557  -0.03070523  1
  O2-  O287  1  0.51940052  0.61750716  0.48666534  1
  O2-  O288  1  0.11143495  0.25397298  -0.03550414  1
  O2-  O289  1  0.12375859  0.26088388  0.48265675  1
  O2-  O290  1  0.12183176  0.76843852  0.02198011  1
  O2-  O291  1  0.11373492  0.77940485  0.51435188  1
  O2-  O292  1  0.61743103  0.26913506  -0.02206040  1
  O2-  O293  1  0.61473202  0.27859673  0.48904837  1
  O2-  O294  1  0.61609758  0.77153816  0.02899833  1
  O2-  O295  1  0.63115151  0.76651716  0.51831528  1
  O2-  O296  1  0.38448256  0.22372986  0.00240885  1
  O2-  O297  1  0.37022191  0.23816443  0.52080658  1
  O2-  O298  1  0.36346443  0.73321481  -0.01316749  1
  O2-  O299  1  0.38421922  0.72778163  0.47339978  1
  O2-  O300  1  0.89189880  0.22170300  0.00811346  1
  O2-  O301  1  0.88939189  0.22054666  0.51074783  1
  O2-  O302  1  0.88790418  0.73373754  -0.01264218  1
  O2-  O303  1  0.87760172  0.73809379  0.48186886  1
  O2-  O304  1  0.26703423  0.38034177  -0.02465595  1
  O2-  O305  1  0.26434230  0.37029224  0.47987798  1
  O2-  O306  1  0.26174573  0.87250041  -0.01308599  1
  O2-  O307  1  0.27420290  0.88611983  0.47501121  1
  O2-  O308  1  0.78786745  0.38497452  -0.01452490  1
  O2-  O309  1  0.77568605  0.38719019  0.48499929  1
  O2-  O310  1  0.78049984  0.88196506  -0.01960949  1
  O2-  O311  1  0.77019221  0.86964512  0.48752753  1
  O2-  O312  1  0.21782328  0.11422384  0.01984009  1
  O2-  O313  1  0.23118981  0.13202492  0.51821731  1
  O2-  O314  1  0.23000967  0.63220234  0.01762057  1
  O2-  O315  1  0.23382556  0.61430439  0.53190857  1
  O2-  O316  1  0.73436509  0.11561382  0.01795956  1
  O2-  O317  1  0.72641794  0.11365802  0.52558000  1
  O2-  O318  1  0.71743247  0.61440410  0.01488295  1
  O2-  O319  1  0.73083883  0.63001322  0.51684334  1
