# generated using pymatgen
data_Sr64Ca21Nb43O192
_symmetry_space_group_name_H-M   'P 1'
_cell_length_a   16.56352914
_cell_length_b   16.54941368
_cell_length_c   16.70925522
_cell_angle_alpha   90.02819649
_cell_angle_beta   89.98302191
_cell_angle_gamma   90.01252096
_symmetry_Int_Tables_number   1
_chemical_formula_structural   Sr64Ca21Nb43O192
_chemical_formula_sum   'Sr64 Ca21 Nb43 O192'
_cell_volume   4580.28496352
_cell_formula_units_Z   1
loop_
 _symmetry_equiv_pos_site_id
 _symmetry_equiv_pos_as_xyz
  1  'x, y, z'
loop_
 _atom_type_symbol
 _atom_type_oxidation_number
  Sr2+  2.0
  Ca2+  2.0
  Nb5+  5.0
  O2-  -2.0
loop_
 _atom_site_type_symbol
 _atom_site_label
 _atom_site_symmetry_multiplicity
 _atom_site_fract_x
 _atom_site_fract_y
 _atom_site_fract_z
 _atom_site_occupancy
  Sr2+  Sr0  1  0.13989427  0.12806175  0.12003021  1
  Sr2+  Sr1  1  0.12545669  0.12562067  0.63418319  1
  Sr2+  Sr2  1  0.12521695  0.63858670  0.12610858  1
  Sr2+  Sr3  1  0.13229846  0.63173235  0.62509914  1
  Sr2+  Sr4  1  0.62909205  0.12936806  0.12958637  1
  Sr2+  Sr5  1  0.62970332  0.13318243  0.62509571  1
  Sr2+  Sr6  1  0.63483381  0.63113494  0.11956705  1
  Sr2+  Sr7  1  0.62780195  0.63494564  0.62973658  1
  Sr2+  Sr8  1  0.38762431  0.38236763  0.11948244  1
  Sr2+  Sr9  1  0.38394542  0.39197236  0.62384740  1
  Sr2+  Sr10  1  0.37527008  0.89371078  0.12860011  1
  Sr2+  Sr11  1  0.38709084  0.88615599  0.62340063  1
  Sr2+  Sr12  1  0.87738385  0.38869304  0.12467217  1
  Sr2+  Sr13  1  0.88355116  0.38200028  0.62621830  1
  Sr2+  Sr14  1  0.88696319  0.88506211  0.12429795  1
  Sr2+  Sr15  1  0.87930392  0.89116600  0.62644264  1
  Sr2+  Sr16  1  0.11377895  0.36101896  0.36930232  1
  Sr2+  Sr17  1  0.13461395  0.36844151  0.87845598  1
  Sr2+  Sr18  1  0.10758712  0.86958264  0.37280870  1
  Sr2+  Sr19  1  0.11323161  0.87008870  0.86955686  1
  Sr2+  Sr20  1  0.61812951  0.37197613  0.37297645  1
  Sr2+  Sr21  1  0.61597405  0.36663486  0.87397184  1
  Sr2+  Sr22  1  0.62624685  0.87108299  0.37743033  1
  Sr2+  Sr23  1  0.61100221  0.86884079  0.88134222  1
  Sr2+  Sr24  1  0.36312612  0.12126692  0.37039797  1
  Sr2+  Sr25  1  0.35191967  0.12589817  0.87602879  1
  Sr2+  Sr26  1  0.36788590  0.61199315  0.38171964  1
  Sr2+  Sr27  1  0.35658183  0.62381731  0.87108959  1
  Sr2+  Sr28  1  0.87960772  0.12339918  0.38050767  1
  Sr2+  Sr29  1  0.87542749  0.12115134  0.87968111  1
  Sr2+  Sr30  1  0.86614974  0.62316782  0.37402652  1
  Sr2+  Sr31  1  0.87176632  0.61582249  0.86888016  1
  Sr2+  Sr32  1  0.11915008  0.11562148  0.37536812  1
  Sr2+  Sr33  1  0.11221083  0.11206568  0.87221183  1
  Sr2+  Sr34  1  0.11045269  0.61889757  0.37851999  1
  Sr2+  Sr35  1  0.12035883  0.60721428  0.87149093  1
  Sr2+  Sr36  1  0.61480735  0.12136008  0.37300145  1
  Sr2+  Sr37  1  0.62593927  0.11448666  0.88138580  1
  Sr2+  Sr38  1  0.62228097  0.61953995  0.37349828  1
  Sr2+  Sr39  1  0.61702506  0.62031460  0.87215681  1
  Sr2+  Sr40  1  0.37398739  0.36539595  0.37900204  1
  Sr2+  Sr41  1  0.36923853  0.37105028  0.87072119  1
  Sr2+  Sr42  1  0.36543200  0.86909834  0.37894931  1
  Sr2+  Sr43  1  0.37261088  0.85904528  0.86874193  1
  Sr2+  Sr44  1  0.86601546  0.37065234  0.37379117  1
  Sr2+  Sr45  1  0.87482919  0.36251354  0.88172609  1
  Sr2+  Sr46  1  0.86910294  0.86303606  0.37354137  1
  Sr2+  Sr47  1  0.87061666  0.88723022  0.87293841  1
  Sr2+  Sr48  1  0.13436989  0.39309271  0.12300955  1
  Sr2+  Sr49  1  0.14778699  0.37435483  0.63185389  1
  Sr2+  Sr50  1  0.14476396  0.87422158  0.12508653  1
  Sr2+  Sr51  1  0.14101438  0.88607490  0.62765486  1
  Sr2+  Sr52  1  0.63527223  0.37769251  0.12450554  1
  Sr2+  Sr53  1  0.63114546  0.37605607  0.62564406  1
  Sr2+  Sr54  1  0.62999721  0.88518461  0.12451128  1
  Sr2+  Sr55  1  0.63015738  0.87804395  0.63001705  1
  Sr2+  Sr56  1  0.38843422  0.12856224  0.12897536  1
  Sr2+  Sr57  1  0.36622002  0.12880215  0.62092048  1
  Sr2+  Sr58  1  0.37102165  0.63921267  0.12185350  1
  Sr2+  Sr59  1  0.38498113  0.63344482  0.62282251  1
  Sr2+  Sr60  1  0.87802296  0.13670236  0.12041873  1
  Sr2+  Sr61  1  0.88833974  0.13559936  0.63482074  1
  Sr2+  Sr62  1  0.88795056  0.62628270  0.12408909  1
  Sr2+  Sr63  1  0.88342481  0.63416055  0.62671347  1
  Ca2+  Ca64  1  0.00304328  -0.00183662  0.00492664  1
  Ca2+  Ca65  1  -0.00042517  -0.00014873  0.50105229  1
  Ca2+  Ca66  1  0.50254494  0.50179490  0.00054731  1
  Ca2+  Ca67  1  -0.00108301  0.49709520  0.49930293  1
  Ca2+  Ca68  1  0.49633007  0.00156211  -0.00067606  1
  Ca2+  Ca69  1  0.25057768  0.75036381  0.50024938  1
  Ca2+  Ca70  1  0.75203197  0.74895007  0.00036474  1
  Ca2+  Ca71  1  0.24888063  0.25073416  0.49864438  1
  Ca2+  Ca72  1  0.24641258  0.75122405  -0.00333079  1
  Ca2+  Ca73  1  0.25184851  0.24902871  0.00446303  1
  Ca2+  Ca74  1  0.49875882  0.24737225  0.74869837  1
  Ca2+  Ca75  1  0.25125510  0.49973798  0.74769907  1
  Ca2+  Ca76  1  0.50037285  0.74988195  0.25186072  1
  Ca2+  Ca77  1  0.25417176  -0.00156911  0.74887745  1
  Ca2+  Ca78  1  0.75078507  0.49844608  0.74700200  1
  Ca2+  Ca79  1  0.00010860  0.25396947  0.75406070  1
  Ca2+  Ca80  1  -0.00173486  0.24927580  0.24601469  1
  Ca2+  Ca81  1  0.74561371  0.00130187  0.74777040  1
  Ca2+  Ca82  1  -0.00196898  0.74867611  0.74924159  1
  Ca2+  Ca83  1  0.75190274  0.00212970  0.25066857  1
  Ca2+  Ca84  1  0.25135715  0.50198665  0.25149901  1
  Nb5+  Nb85  1  0.50369832  0.00660175  0.49970056  1
  Nb5+  Nb86  1  0.50525158  0.50481174  0.50058417  1
  Nb5+  Nb87  1  0.00046784  0.49985170  -0.00110553  1
  Nb5+  Nb88  1  0.75201362  0.25307086  0.50398379  1
  Nb5+  Nb89  1  0.74852811  0.25058451  0.00616061  1
  Nb5+  Nb90  1  0.75209338  0.75310027  0.50240177  1
  Nb5+  Nb91  1  0.74874967  0.50125457  0.25001721  1
  Nb5+  Nb92  1  0.50028070  0.25337534  0.24937746  1
  Nb5+  Nb93  1  0.24758088  0.00097067  0.25250902  1
  Nb5+  Nb94  1  0.49982547  0.74970009  0.75050665  1
  Nb5+  Nb95  1  -0.00229952  0.75117124  0.25053461  1
  Nb5+  Nb96  1  0.00096247  0.00534253  0.24453777  1
  Nb5+  Nb97  1  -0.00028491  -0.00273031  0.74942716  1
  Nb5+  Nb98  1  -0.00096667  0.49789159  0.25321338  1
  Nb5+  Nb99  1  0.00343751  0.49481098  0.74174108  1
  Nb5+  Nb100  1  0.49868007  -0.00405366  0.25556048  1
  Nb5+  Nb101  1  0.50048455  0.00646633  0.75378601  1
  Nb5+  Nb102  1  0.50168377  0.50458698  0.24714097  1
  Nb5+  Nb103  1  0.49598890  0.50131942  0.75599854  1
  Nb5+  Nb104  1  0.24920670  0.25784804  0.24456680  1
  Nb5+  Nb105  1  0.25112550  0.24705709  0.75058588  1
  Nb5+  Nb106  1  0.25062509  0.74561281  0.25924479  1
  Nb5+  Nb107  1  0.24448012  0.75101379  0.74487903  1
  Nb5+  Nb108  1  0.74820254  0.24923884  0.25605400  1
  Nb5+  Nb109  1  0.74663465  0.25132473  0.75915687  1
  Nb5+  Nb110  1  0.75176971  0.75200184  0.24623411  1
  Nb5+  Nb111  1  0.74857344  0.75030658  0.75550561  1
  Nb5+  Nb112  1  0.00484044  0.25448216  0.50221605  1
  Nb5+  Nb113  1  0.00482157  0.25120756  1.00803451  1
  Nb5+  Nb114  1  0.00100460  0.75396514  0.50546104  1
  Nb5+  Nb115  1  -0.00303515  0.74840309  0.99482989  1
  Nb5+  Nb116  1  0.50128534  0.25346032  0.49798779  1
  Nb5+  Nb117  1  0.50021933  0.24630609  0.99509399  1
  Nb5+  Nb118  1  0.50355598  0.75482455  0.49644388  1
  Nb5+  Nb119  1  0.49702622  0.75195343  1.00777983  1
  Nb5+  Nb120  1  0.25272878  -0.00528534  -0.00747408  1
  Nb5+  Nb121  1  0.24733477  -0.00055733  0.49592006  1
  Nb5+  Nb122  1  0.25685949  0.50323064  0.00563990  1
  Nb5+  Nb123  1  0.24230785  0.49583110  0.49228260  1
  Nb5+  Nb124  1  0.75134391  -0.00325969  0.00248357  1
  Nb5+  Nb125  1  0.75007202  0.01039014  0.49832139  1
  Nb5+  Nb126  1  0.75118456  0.49829915  -0.00691420  1
  Nb5+  Nb127  1  0.74760501  0.50591117  0.50123127  1
  O2-  O128  1  0.02463711  -0.03727962  0.13814290  1
  O2-  O129  1  0.01945079  -0.02580884  0.63246873  1
  O2-  O130  1  0.00463682  0.48589654  0.12959537  1
  O2-  O131  1  0.02230225  0.46809349  0.63194172  1
  O2-  O132  1  0.51120747  -0.01429343  0.13927375  1
  O2-  O133  1  0.52248251  -0.01331276  0.61242949  1
  O2-  O134  1  0.52071627  0.47599047  0.13695518  1
  O2-  O135  1  0.52371697  0.48586578  0.61566991  1
  O2-  O136  1  -0.01019791  0.01897785  0.36273423  1
  O2-  O137  1  -0.01681898  0.01702743  0.87008932  1
  O2-  O138  1  -0.02059904  0.52520110  0.36490490  1
  O2-  O139  1  -0.01614492  0.51970797  0.88598727  1
  O2-  O140  1  0.48447235  0.02413134  0.37559879  1
  O2-  O141  1  0.47548181  0.02358895  0.86347644  1
  O2-  O142  1  0.49300682  0.51448398  0.37491900  1
  O2-  O143  1  0.47265520  0.52198936  0.86607979  1
  O2-  O144  1  0.26703398  0.21396050  0.13723853  1
  O2-  O145  1  0.24465967  0.22151970  0.63198132  1
  O2-  O146  1  0.25332267  0.73302637  0.14057839  1
  O2-  O147  1  0.26230783  0.71518757  0.63144999  1
  O2-  O148  1  0.75470168  0.24044632  0.12605570  1
  O2-  O149  1  0.75441759  0.23071607  0.61691579  1
  O2-  O150  1  0.76424493  0.71909089  0.13697076  1
  O2-  O151  1  0.75901035  0.72401439  0.61578284  1
  O2-  O152  1  0.24413287  0.27296780  0.36183586  1
  O2-  O153  1  0.25664579  0.27253237  0.87044585  1
  O2-  O154  1  0.23088525  0.78503733  0.36789317  1
  O2-  O155  1  0.24254188  0.78170689  0.86172653  1
  O2-  O156  1  0.73942095  0.26992666  0.37248027  1
  O2-  O157  1  0.73692229  0.26763347  0.87680641  1
  O2-  O158  1  0.73755306  0.75942347  0.37682544  1
  O2-  O159  1  0.73132651  0.77459286  0.86560163  1
  O2-  O160  1  -0.03833550  0.26664869  0.11699328  1
  O2-  O161  1  -0.02504125  0.26291614  0.61675215  1
  O2-  O162  1  -0.02656156  0.75787330  0.13459391  1
  O2-  O163  1  -0.03368433  0.76489912  0.61450783  1
  O2-  O164  1  0.49094658  0.26576827  0.13179236  1
  O2-  O165  1  0.49785630  0.26394844  0.61148648  1
  O2-  O166  1  0.46896473  0.76578836  0.11852425  1
  O2-  O167  1  0.48953284  0.75940094  0.61909775  1
  O2-  O168  1  0.27673601  -0.01318643  0.37298345  1
  O2-  O169  1  0.28325040  -0.01860656  0.88309347  1
  O2-  O170  1  0.28724203  0.48299054  0.38128688  1
  O2-  O171  1  0.26673865  0.47836072  0.88788647  1
  O2-  O172  1  0.77273143  -0.01655890  0.38531008  1
  O2-  O173  1  0.77330240  0.00482155  0.88384314  1
  O2-  O174  1  0.76773474  0.48739795  0.37467689  1
  O2-  O175  1  0.77950780  0.48522608  0.88336833  1
  O2-  O176  1  0.01056476  0.23018123  0.38252619  1
  O2-  O177  1  0.00678860  0.23866773  0.89163675  1
  O2-  O178  1  0.01041442  0.73401056  0.37335600  1
  O2-  O179  1  0.02467036  0.73108405  0.88543670  1
  O2-  O180  1  0.52067694  0.24478658  0.37241730  1
  O2-  O181  1  0.52505965  0.23586171  0.88395175  1
  O2-  O182  1  0.53251408  0.74287204  0.38485734  1
  O2-  O183  1  0.52036669  0.73852384  0.86478407  1
  O2-  O184  1  0.22995961  0.01090355  0.13730498  1
  O2-  O185  1  0.23615698  0.02187211  0.61064961  1
  O2-  O186  1  0.22135367  0.52345019  0.11880706  1
  O2-  O187  1  0.22350766  0.51184836  0.60999543  1
  O2-  O188  1  0.71996799  0.01036532  0.11764394  1
  O2-  O189  1  0.71442088  0.00601731  0.60928592  1
  O2-  O190  1  0.73107234  0.50745137  0.13175765  1
  O2-  O191  1  0.71532894  0.50690584  0.61125092  1
  O2-  O192  1  0.13472365  0.27445010  0.23105301  1
  O2-  O193  1  0.13382886  0.27806693  0.74906156  1
  O2-  O194  1  0.11543917  0.76714376  0.23901712  1
  O2-  O195  1  0.13198751  0.77031734  0.72577122  1
  O2-  O196  1  0.62365001  0.27351080  0.23881428  1
  O2-  O197  1  0.63200512  0.28227396  0.73987207  1
  O2-  O198  1  0.63697400  0.77258787  0.23512704  1
  O2-  O199  1  0.62038881  0.76410245  0.72884229  1
  O2-  O200  1  0.38271174  0.23768616  0.26509429  1
  O2-  O201  1  0.36847149  0.21295150  0.75288044  1
  O2-  O202  1  0.36439627  0.72803872  0.27457968  1
  O2-  O203  1  0.38191423  0.73009409  0.75944632  1
  O2-  O204  1  0.86139014  0.22406491  0.26362863  1
  O2-  O205  1  0.86190672  0.22159781  0.76449859  1
  O2-  O206  1  0.87378066  0.73100122  0.27140750  1
  O2-  O207  1  0.86177234  0.72482748  0.76353123  1
  O2-  O208  1  0.27636854  0.36751671  0.22070810  1
  O2-  O209  1  0.28035199  0.36400147  0.72743403  1
  O2-  O210  1  0.26804278  0.87999215  0.23622014  1
  O2-  O211  1  0.27422915  0.86421303  0.71686221  1
  O2-  O212  1  0.76476478  0.37489065  0.23890102  1
  O2-  O213  1  0.77350312  0.36334798  0.72575536  1
  O2-  O214  1  0.77713855  0.86428105  0.23497563  1
  O2-  O215  1  0.76287647  0.86235035  0.71901946  1
  O2-  O216  1  0.23529948  0.12120588  0.27277583  1
  O2-  O217  1  0.22477587  0.13052391  0.77749283  1
  O2-  O218  1  0.22239507  0.63545484  0.27965701  1
  O2-  O219  1  0.23499295  0.63418192  0.77659047  1
  O2-  O220  1  0.71813319  0.13717731  0.26173705  1
  O2-  O221  1  0.71486675  0.13644926  0.75579285  1
  O2-  O222  1  0.73496094  0.61946730  0.26904929  1
  O2-  O223  1  0.72051062  0.63401102  0.75999921  1
  O2-  O224  1  0.11302431  0.47957537  0.26611946  1
  O2-  O225  1  0.11619705  0.47696359  0.77807677  1
  O2-  O226  1  0.13119631  0.98339240  0.27592587  1
  O2-  O227  1  0.11950845  0.97827430  0.76789199  1
  O2-  O228  1  0.63127870  0.48076928  0.26953985  1
  O2-  O229  1  0.61302659  0.48848798  0.77344805  1
  O2-  O230  1  0.61401895  0.98471486  0.27349095  1
  O2-  O231  1  0.61143238  0.96643786  0.76544940  1
  O2-  O232  1  0.37453385  0.02143807  0.23865337  1
  O2-  O233  1  0.38967349  0.01064995  0.71315069  1
  O2-  O234  1  0.38942524  0.52812696  0.23273083  1
  O2-  O235  1  0.38520081  0.51992965  0.71594393  1
  O2-  O236  1  0.88747594  0.01871214  0.22310938  1
  O2-  O237  1  0.88084401  0.01300157  0.72492986  1
  O2-  O238  1  0.86793927  0.51523031  0.23451011  1
  O2-  O239  1  0.88570108  0.52694261  0.73056455  1
  O2-  O240  1  0.48612805  0.37589560  0.26851636  1
  O2-  O241  1  0.47734912  0.38581673  0.75978647  1
  O2-  O242  1  0.47454429  0.88484207  0.27311321  1
  O2-  O243  1  0.48001398  0.86845000  0.75564541  1
  O2-  O244  1  0.97335824  0.38457651  0.26773871  1
  O2-  O245  1  0.96750428  0.38612611  0.77204615  1
  O2-  O246  1  0.98046591  0.86907992  0.26991896  1
  O2-  O247  1  0.97788316  0.88001194  0.77392910  1
  O2-  O248  1  0.02971705  0.11501532  0.22477138  1
  O2-  O249  1  0.01788135  0.11702977  0.73600833  1
  O2-  O250  1  0.01136577  0.62639660  0.23507678  1
  O2-  O251  1  0.02694258  0.61394017  0.73495181  1
  O2-  O252  1  0.51620656  0.13241275  0.24080348  1
  O2-  O253  1  0.53134132  0.11418119  0.73241025  1
  O2-  O254  1  0.53550971  0.61555980  0.23776965  1
  O2-  O255  1  0.51582273  0.62751490  0.73078704  1
  O2-  O256  1  0.11585803  0.47989794  -0.01113612  1
  O2-  O257  1  0.13288592  0.47828246  0.46202099  1
  O2-  O258  1  0.13508787  0.96945130  -0.01750683  1
  O2-  O259  1  0.13596068  0.97832358  0.47672021  1
  O2-  O260  1  0.63758963  0.47078426  -0.01546408  1
  O2-  O261  1  0.62575485  0.48507323  0.47306932  1
  O2-  O262  1  0.63335490  0.98605208  -0.02485691  1
  O2-  O263  1  0.62242292  0.99084307  0.46905627  1
  O2-  O264  1  0.36374774  0.02167818  0.03020292  1
  O2-  O265  1  0.38640495  0.01677093  0.51149143  1
  O2-  O266  1  0.36871956  0.52076462  0.02940075  1
  O2-  O267  1  0.38965652  0.51717049  0.51490044  1
  O2-  O268  1  0.86613741  0.02539527  0.02430095  1
  O2-  O269  1  0.86219435  0.02151354  0.52530760  1
  O2-  O270  1  0.87209928  0.51151507  0.02323626  1
  O2-  O271  1  0.86099323  0.51515243  0.52373951  1
  O2-  O272  1  0.47883876  0.36465972  -0.01161000  1
  O2-  O273  1  0.49329970  0.37494911  0.48366937  1
  O2-  O274  1  0.48227126  0.86539838  -0.02808376  1
  O2-  O275  1  0.49360098  0.87552679  0.48483259  1
  O2-  O276  1  0.97767014  0.37968598  -0.00761687  1
  O2-  O277  1  0.96582838  0.36549976  0.47972631  1
  O2-  O278  1  0.96886114  0.86092578  -0.01270930  1
  O2-  O279  1  0.97517950  0.86565942  0.47437282  1
  O2-  O280  1  0.01561494  0.13579031  0.02672603  1
  O2-  O281  1  0.02017916  0.13521601  0.51897076  1
  O2-  O282  1  0.01499726  0.61692790  0.02323500  1
  O2-  O283  1  0.01666210  0.63452746  0.51488557  1
  O2-  O284  1  0.52817155  0.13506575  0.02449574  1
  O2-  O285  1  0.52199543  0.12628311  0.50779092  1
  O2-  O286  1  0.53010866  0.63601710  0.01022196  1
  O2-  O287  1  0.52329790  0.62375556  0.50934122  1
  O2-  O288  1  0.11528421  0.27641473  0.02545460  1
  O2-  O289  1  0.11512184  0.28718850  0.50953467  1
  O2-  O290  1  0.10952392  0.76058621  0.03003513  1
  O2-  O291  1  0.11365071  0.77526823  0.52080189  1
  O2-  O292  1  0.62914516  0.27463469  0.01189362  1
  O2-  O293  1  0.62927523  0.26132250  0.50265274  1
  O2-  O294  1  0.61630576  0.77660900  0.02225665  1
  O2-  O295  1  0.62974915  0.76248086  0.51728145  1
  O2-  O296  1  0.38736602  0.22122265  -0.00774715  1
  O2-  O297  1  0.38868180  0.23333394  0.48212867  1
  O2-  O298  1  0.38409885  0.72286503  -0.02066597  1
  O2-  O299  1  0.39071505  0.73330774  0.48003861  1
  O2-  O300  1  0.86510015  0.23526506  -0.01475906  1
  O2-  O301  1  0.86504505  0.22879949  0.48471647  1
  O2-  O302  1  0.88441867  0.71084609  -0.01050119  1
  O2-  O303  1  0.86724353  0.72942273  0.48261665  1
  O2-  O304  1  0.26164019  0.38464914  0.02945888  1
  O2-  O305  1  0.27779413  0.38409718  0.51823079  1
  O2-  O306  1  0.26889495  0.88195712  0.02941702  1
  O2-  O307  1  0.28015238  0.88618843  0.51490713  1
  O2-  O308  1  0.76928529  0.37292007  0.01739654  1
  O2-  O309  1  0.76203165  0.37139339  0.51157051  1
  O2-  O310  1  0.77435121  0.88368764  0.01445024  1
  O2-  O311  1  0.76399009  0.86915365  0.51199444  1
  O2-  O312  1  0.22254421  0.11211723  -0.01589669  1
  O2-  O313  1  0.24419712  0.11610239  0.47024953  1
  O2-  O314  1  0.23000107  0.61584254  -0.02353104  1
  O2-  O315  1  0.24078456  0.61465764  0.47367807  1
  O2-  O316  1  0.72924829  0.13409188  -0.00579346  1
  O2-  O317  1  0.73168273  0.12561774  0.47872805  1
  O2-  O318  1  0.72744666  0.61192012  -0.01403556  1
  O2-  O319  1  0.73269481  0.62104854  0.48052658  1
