# generated using pymatgen
data_Sr64Ca21Nb43O192
_symmetry_space_group_name_H-M   'P 1'
_cell_length_a   16.58156204
_cell_length_b   16.56624610
_cell_length_c   16.72844493
_cell_angle_alpha   90.03077395
_cell_angle_beta   90.04667644
_cell_angle_gamma   90.06304758
_symmetry_Int_Tables_number   1
_chemical_formula_structural   Sr64Ca21Nb43O192
_chemical_formula_sum   'Sr64 Ca21 Nb43 O192'
_cell_volume   4595.20245205
_cell_formula_units_Z   1
loop_
 _symmetry_equiv_pos_site_id
 _symmetry_equiv_pos_as_xyz
  1  'x, y, z'
loop_
 _atom_type_symbol
 _atom_type_oxidation_number
  Sr2+  2.0
  Ca2+  2.0
  Nb5+  5.0
  O2-  -2.0
loop_
 _atom_site_type_symbol
 _atom_site_label
 _atom_site_symmetry_multiplicity
 _atom_site_fract_x
 _atom_site_fract_y
 _atom_site_fract_z
 _atom_site_occupancy
  Sr2+  Sr0  1  0.13468919  0.11908516  0.12388713  1
  Sr2+  Sr1  1  0.12555463  0.11768784  0.63010723  1
  Sr2+  Sr2  1  0.12794274  0.61815057  0.12322442  1
  Sr2+  Sr3  1  0.13400141  0.61217431  0.62122851  1
  Sr2+  Sr4  1  0.62791791  0.11453157  0.12776057  1
  Sr2+  Sr5  1  0.63741234  0.12189727  0.61402970  1
  Sr2+  Sr6  1  0.63254271  0.62120595  0.12430759  1
  Sr2+  Sr7  1  0.62502659  0.61462932  0.61667555  1
  Sr2+  Sr8  1  0.36658521  0.35584897  0.12343276  1
  Sr2+  Sr9  1  0.37211784  0.35722740  0.62866757  1
  Sr2+  Sr10  1  0.36443884  0.86626962  0.12611139  1
  Sr2+  Sr11  1  0.37062882  0.86288742  0.62458834  1
  Sr2+  Sr12  1  0.88782800  0.36314659  0.12508268  1
  Sr2+  Sr13  1  0.87416947  0.36683862  0.61182255  1
  Sr2+  Sr14  1  0.87810948  0.86013866  0.12127463  1
  Sr2+  Sr15  1  0.88236263  0.86714009  0.63604727  1
  Sr2+  Sr16  1  0.11130804  0.38298738  0.37341966  1
  Sr2+  Sr17  1  0.11332423  0.37965686  0.87199096  1
  Sr2+  Sr18  1  0.11783109  0.87769263  0.37847265  1
  Sr2+  Sr19  1  0.11185824  0.88237630  0.87314731  1
  Sr2+  Sr20  1  0.62565048  0.37386172  0.38581439  1
  Sr2+  Sr21  1  0.61570641  0.37925325  0.87301314  1
  Sr2+  Sr22  1  0.62071306  0.88354860  0.37973732  1
  Sr2+  Sr23  1  0.62343627  0.87287267  0.87499922  1
  Sr2+  Sr24  1  0.39151626  0.12868004  0.37488124  1
  Sr2+  Sr25  1  0.38210916  0.13171805  0.87771877  1
  Sr2+  Sr26  1  0.38517230  0.63803367  0.37433467  1
  Sr2+  Sr27  1  0.38493123  0.62387697  0.88274362  1
  Sr2+  Sr28  1  0.85887643  0.13455350  0.37109975  1
  Sr2+  Sr29  1  0.86872066  0.13796925  0.87538084  1
  Sr2+  Sr30  1  0.86337260  0.63103830  0.37745179  1
  Sr2+  Sr31  1  0.85477447  0.63115468  0.87360539  1
  Sr2+  Sr32  1  0.11955389  0.12816506  0.38459797  1
  Sr2+  Sr33  1  0.11879273  0.13670981  0.87146991  1
  Sr2+  Sr34  1  0.12394695  0.63662131  0.37766013  1
  Sr2+  Sr35  1  0.12019453  0.62724848  0.87232167  1
  Sr2+  Sr36  1  0.62813407  0.13246423  0.37609030  1
  Sr2+  Sr37  1  0.62491550  0.10344954  0.87326082  1
  Sr2+  Sr38  1  0.62370619  0.61343544  0.37347550  1
  Sr2+  Sr39  1  0.62595220  0.63102879  0.87127006  1
  Sr2+  Sr40  1  0.37848654  0.37404037  0.36240087  1
  Sr2+  Sr41  1  0.37399667  0.37639270  0.87026860  1
  Sr2+  Sr42  1  0.37289068  0.88111486  0.37817454  1
  Sr2+  Sr43  1  0.38134441  0.88338366  0.87558283  1
  Sr2+  Sr44  1  0.86101324  0.38415648  0.37346622  1
  Sr2+  Sr45  1  0.87372318  0.37651495  0.87409159  1
  Sr2+  Sr46  1  0.87371312  0.88842647  0.37015520  1
  Sr2+  Sr47  1  0.86151779  0.88410306  0.87122315  1
  Sr2+  Sr48  1  0.12982384  0.37039049  0.12333982  1
  Sr2+  Sr49  1  0.12310522  0.36662496  0.63041675  1
  Sr2+  Sr50  1  0.11518848  0.86671506  0.13405393  1
  Sr2+  Sr51  1  0.13012833  0.87052178  0.63064300  1
  Sr2+  Sr52  1  0.61605692  0.36016571  0.12474921  1
  Sr2+  Sr53  1  0.62417835  0.36191008  0.61789583  1
  Sr2+  Sr54  1  0.63427827  0.86739207  0.11842846  1
  Sr2+  Sr55  1  0.61571644  0.86454839  0.62362420  1
  Sr2+  Sr56  1  0.37908664  0.12290256  0.12872401  1
  Sr2+  Sr57  1  0.36938112  0.12171653  0.63564074  1
  Sr2+  Sr58  1  0.36618076  0.61813432  0.12982665  1
  Sr2+  Sr59  1  0.37388857  0.62544001  0.61189764  1
  Sr2+  Sr60  1  0.88131258  0.11904824  0.12524988  1
  Sr2+  Sr61  1  0.88882040  0.12422165  0.61420709  1
  Sr2+  Sr62  1  0.88670438  0.62382200  0.12411960  1
  Sr2+  Sr63  1  0.87547028  0.61485886  0.62739994  1
  Ca2+  Ca64  1  -0.00020724  -0.00302168  0.49876002  1
  Ca2+  Ca65  1  0.49922648  -0.00053335  0.50278478  1
  Ca2+  Ca66  1  0.49521566  0.49615814  0.50015818  1
  Ca2+  Ca67  1  0.00092745  0.50059877  0.49673506  1
  Ca2+  Ca68  1  0.00194802  -0.00335361  -0.00111213  1
  Ca2+  Ca69  1  0.74823066  0.25201047  0.00030652  1
  Ca2+  Ca70  1  0.25114935  0.25006654  0.49754568  1
  Ca2+  Ca71  1  0.25004298  0.24755597  -0.00205735  1
  Ca2+  Ca72  1  0.25086144  0.75246011  -0.00157253  1
  Ca2+  Ca73  1  0.75303620  0.75193230  0.49919438  1
  Ca2+  Ca74  1  -0.00687775  0.25125423  0.74854150  1
  Ca2+  Ca75  1  0.74858694  0.00393082  0.74487254  1
  Ca2+  Ca76  1  0.75201976  0.49974890  0.24380567  1
  Ca2+  Ca77  1  0.74920754  -0.00026486  0.25029565  1
  Ca2+  Ca78  1  0.00030788  0.74635459  0.75285967  1
  Ca2+  Ca79  1  0.50638667  0.24917058  0.75201531  1
  Ca2+  Ca80  1  0.49593345  0.74811437  0.75075229  1
  Ca2+  Ca81  1  0.75097916  0.49348776  0.74884616  1
  Ca2+  Ca82  1  -0.00019161  0.24837459  0.25165679  1
  Ca2+  Ca83  1  0.50160707  0.25216734  0.25084638  1
  Ca2+  Ca84  1  0.49984689  0.75482478  0.24893119  1
  Nb5+  Nb85  1  0.49395282  0.49563270  0.00730610  1
  Nb5+  Nb86  1  0.49900112  -0.00722305  0.00451128  1
  Nb5+  Nb87  1  -0.00670721  0.50231921  -0.00184065  1
  Nb5+  Nb88  1  0.75103366  0.24981751  0.49749838  1
  Nb5+  Nb89  1  0.75009982  0.74970035  -0.00082299  1
  Nb5+  Nb90  1  0.24703518  0.74943784  0.50043863  1
  Nb5+  Nb91  1  0.24913847  0.49568629  0.24668691  1
  Nb5+  Nb92  1  0.24637994  -0.00267729  0.25754314  1
  Nb5+  Nb93  1  0.25298506  0.49537667  0.74480829  1
  Nb5+  Nb94  1  0.24982291  -0.00810405  0.75743925  1
  Nb5+  Nb95  1  -0.00333736  0.74606558  0.25293347  1
  Nb5+  Nb96  1  -0.00002513  0.00422206  0.24649023  1
  Nb5+  Nb97  1  -0.00603581  0.00344949  0.75530636  1
  Nb5+  Nb98  1  -0.00049610  0.50357391  0.25199040  1
  Nb5+  Nb99  1  -0.00234329  0.50268228  0.74835937  1
  Nb5+  Nb100  1  0.50170270  -0.00437353  0.25012503  1
  Nb5+  Nb101  1  0.49842902  -0.00010354  0.74646330  1
  Nb5+  Nb102  1  0.50466799  0.49999942  0.24812878  1
  Nb5+  Nb103  1  0.49735934  0.50303021  0.74749984  1
  Nb5+  Nb104  1  0.24734627  0.24053191  0.25420146  1
  Nb5+  Nb105  1  0.24928741  0.24295084  0.75175517  1
  Nb5+  Nb106  1  0.24592293  0.74578973  0.25024828  1
  Nb5+  Nb107  1  0.25378394  0.74248080  0.75594145  1
  Nb5+  Nb108  1  0.74717198  0.25260950  0.24264511  1
  Nb5+  Nb109  1  0.75136801  0.25164199  0.75120242  1
  Nb5+  Nb110  1  0.74652768  0.75563638  0.25407456  1
  Nb5+  Nb111  1  0.74594964  0.74905049  0.74197583  1
  Nb5+  Nb112  1  0.00353951  0.25132446  0.49394771  1
  Nb5+  Nb113  1  0.00303671  0.24540465  1.00318013  1
  Nb5+  Nb114  1  -0.00040019  0.74808684  0.50579564  1
  Nb5+  Nb115  1  -0.00076930  0.74798109  0.99412017  1
  Nb5+  Nb116  1  0.49612584  0.24557820  0.50625671  1
  Nb5+  Nb117  1  0.50521862  0.23996804  1.00022335  1
  Nb5+  Nb118  1  0.50622867  0.75148767  0.49699638  1
  Nb5+  Nb119  1  0.50078727  0.74286856  1.00619442  1
  Nb5+  Nb120  1  0.24894204  -0.00442621  0.00610090  1
  Nb5+  Nb121  1  0.24894294  0.00019299  0.50752160  1
  Nb5+  Nb122  1  0.24339540  0.49806529  -0.00503052  1
  Nb5+  Nb123  1  0.25186693  0.49653928  0.48858408  1
  Nb5+  Nb124  1  0.75344419  0.00424501  -0.00194226  1
  Nb5+  Nb125  1  0.75607480  -0.00552882  0.50233050  1
  Nb5+  Nb126  1  0.74401556  0.49708279  0.00403518  1
  Nb5+  Nb127  1  0.74759470  0.50276905  0.49809085  1
  O2-  O128  1  -0.01506956  -0.03082498  0.13356141  1
  O2-  O129  1  -0.01889072  -0.01569586  0.63746845  1
  O2-  O130  1  -0.01268471  0.49220319  0.12242320  1
  O2-  O131  1  -0.01853574  0.48821310  0.63507099  1
  O2-  O132  1  0.48959271  0.02317312  0.12189145  1
  O2-  O133  1  0.48095737  0.02372297  0.63680707  1
  O2-  O134  1  0.48888682  0.53375348  0.12175831  1
  O2-  O135  1  0.48270199  0.52780742  0.63769940  1
  O2-  O136  1  0.03426576  0.00487090  0.35893066  1
  O2-  O137  1  0.03656890  0.01237447  0.86755106  1
  O2-  O138  1  0.03155162  0.51816323  0.36171959  1
  O2-  O139  1  0.02556229  0.51305719  0.88442830  1
  O2-  O140  1  0.50389559  -0.02379151  0.36471901  1
  O2-  O141  1  0.51048409  -0.02088403  0.88561407  1
  O2-  O142  1  0.51255644  0.47657200  0.36211494  1
  O2-  O143  1  0.50669062  0.48387477  0.89073248  1
  O2-  O144  1  0.22301438  0.24731216  0.13513425  1
  O2-  O145  1  0.22861849  0.25666845  0.63407194  1
  O2-  O146  1  0.22472010  0.75549750  0.13501602  1
  O2-  O147  1  0.22581079  0.74653057  0.61756986  1
  O2-  O148  1  0.71922336  0.24249788  0.13190103  1
  O2-  O149  1  0.73823436  0.24925288  0.61690201  1
  O2-  O150  1  0.73599586  0.74302498  0.12113528  1
  O2-  O151  1  0.71826700  0.74132481  0.63118364  1
  O2-  O152  1  0.28547002  0.24336228  0.36568926  1
  O2-  O153  1  0.27865822  0.25185435  0.86507957  1
  O2-  O154  1  0.26058320  0.75139848  0.37246877  1
  O2-  O155  1  0.28815376  0.74752378  0.86429912  1
  O2-  O156  1  0.76560565  0.26206657  0.37696366  1
  O2-  O157  1  0.77090981  0.25867126  0.86592951  1
  O2-  O158  1  0.78030099  0.76362354  0.36451816  1
  O2-  O159  1  0.76879909  0.76214498  0.88157253  1
  O2-  O160  1  0.01688154  0.27729328  0.11741465  1
  O2-  O161  1  0.00225195  0.27713067  0.61324996  1
  O2-  O162  1  0.00760487  0.76051244  0.12154416  1
  O2-  O163  1  0.01453863  0.77520409  0.61575548  1
  O2-  O164  1  0.52713515  0.23298358  0.11751815  1
  O2-  O165  1  0.53102680  0.22808370  0.61908708  1
  O2-  O166  1  0.53853440  0.74448010  0.11728249  1
  O2-  O167  1  0.51906243  0.72710028  0.61524286  1
  O2-  O168  1  0.22638241  -0.00493457  0.37021913  1
  O2-  O169  1  0.23443267  -0.01577775  0.87056412  1
  O2-  O170  1  0.22667010  0.49601212  0.37410618  1
  O2-  O171  1  0.23253135  0.49504392  0.87918683  1
  O2-  O172  1  0.72533591  -0.01045240  0.38523429  1
  O2-  O173  1  0.72765888  -0.01873870  0.88329196  1
  O2-  O174  1  0.72803835  0.48721729  0.37878069  1
  O2-  O175  1  0.73735536  0.48913141  0.88686854  1
  O2-  O176  1  -0.01243092  0.21300210  0.38250774  1
  O2-  O177  1  -0.02355078  0.24263303  0.88671109  1
  O2-  O178  1  -0.01112261  0.72144577  0.36615132  1
  O2-  O179  1  -0.01786742  0.71318127  0.88582033  1
  O2-  O180  1  0.48298479  0.27084661  0.38784236  1
  O2-  O181  1  0.48046485  0.27130782  0.88824418  1
  O2-  O182  1  0.47490559  0.77221856  0.38350715  1
  O2-  O183  1  0.48464296  0.77058411  0.89285332  1
  O2-  O184  1  0.26712650  0.00870286  0.12104294  1
  O2-  O185  1  0.27169488  -0.00182494  0.62245317  1
  O2-  O186  1  0.26083265  0.50426752  0.12979590  1
  O2-  O187  1  0.26965286  0.50869585  0.63127919  1
  O2-  O188  1  0.76090947  0.01488480  0.11480482  1
  O2-  O189  1  0.77325686  0.02884170  0.61411659  1
  O2-  O190  1  0.76770795  0.53448357  0.11183658  1
  O2-  O191  1  0.76926091  0.51194813  0.61530660  1
  O2-  O192  1  0.13618028  0.27026638  0.28095247  1
  O2-  O193  1  0.13408635  0.26604683  0.77213965  1
  O2-  O194  1  0.12247717  0.76425029  0.26663528  1
  O2-  O195  1  0.14034393  0.77213605  0.76840708  1
  O2-  O196  1  0.63383314  0.28537286  0.26898601  1
  O2-  O197  1  0.63879017  0.29644335  0.75416440  1
  O2-  O198  1  0.63557127  0.78302980  0.26764617  1
  O2-  O199  1  0.63120198  0.76719356  0.77302738  1
  O2-  O200  1  0.36412293  0.23915518  0.22344114  1
  O2-  O201  1  0.36756689  0.23734025  0.72628139  1
  O2-  O202  1  0.36056013  0.73519383  0.23174928  1
  O2-  O203  1  0.36187692  0.73680388  0.71143136  1
  O2-  O204  1  0.86478931  0.22163875  0.23193791  1
  O2-  O205  1  0.86250067  0.20800147  0.73326122  1
  O2-  O206  1  0.88165773  0.73019968  0.23205304  1
  O2-  O207  1  0.86625117  0.72876383  0.72638934  1
  O2-  O208  1  0.26434852  0.37979762  0.24990909  1
  O2-  O209  1  0.26885079  0.37956649  0.74878328  1
  O2-  O210  1  0.26000107  0.87820674  0.25030492  1
  O2-  O211  1  0.26834959  0.87614169  0.74333215  1
  O2-  O212  1  0.78476074  0.36744874  0.23668304  1
  O2-  O213  1  0.79633958  0.36458985  0.73772025  1
  O2-  O214  1  0.78019058  0.86709012  0.23034180  1
  O2-  O215  1  0.77378441  0.86653419  0.74196739  1
  O2-  O216  1  0.22431948  0.12357868  0.25431547  1
  O2-  O217  1  0.23447062  0.12324018  0.75097397  1
  O2-  O218  1  0.22921821  0.62697429  0.25281595  1
  O2-  O219  1  0.23156282  0.62544389  0.75542393  1
  O2-  O220  1  0.72335307  0.13471046  0.26253236  1
  O2-  O221  1  0.70628132  0.13875581  0.75287368  1
  O2-  O222  1  0.72865934  0.63821834  0.25876011  1
  O2-  O223  1  0.73518433  0.63254048  0.76733229  1
  O2-  O224  1  0.12838715  0.48759036  0.22868524  1
  O2-  O225  1  0.13422186  0.47999633  0.73800155  1
  O2-  O226  1  0.13197399  0.98750694  0.22096275  1
  O2-  O227  1  0.13579981  0.98621941  0.72665192  1
  O2-  O228  1  0.61497095  0.48878223  0.22107148  1
  O2-  O229  1  0.61127690  0.48701778  0.74041395  1
  O2-  O230  1  0.61243787  0.97485300  0.22965059  1
  O2-  O231  1  0.61097456  0.97534276  0.73830548  1
  O2-  O232  1  0.36143171  0.02343903  0.25993452  1
  O2-  O233  1  0.36576809  0.02059537  0.76825491  1
  O2-  O234  1  0.36343638  0.52118988  0.26580725  1
  O2-  O235  1  0.36515171  0.51789691  0.77816945  1
  O2-  O236  1  0.88745938  0.01595129  0.27022781  1
  O2-  O237  1  0.88320769  0.01943759  0.78099564  1
  O2-  O238  1  0.88827432  0.53122354  0.26478028  1
  O2-  O239  1  0.88872746  0.52870928  0.77100891  1
  O2-  O240  1  0.46967171  0.39000015  0.22415646  1
  O2-  O241  1  0.46795781  0.38911349  0.74729006  1
  O2-  O242  1  0.46034932  0.88763663  0.23117982  1
  O2-  O243  1  0.46593951  0.88564758  0.74486734  1
  O2-  O244  1  0.98470356  0.38867507  0.26317318  1
  O2-  O245  1  0.99421665  0.38842959  0.77678113  1
  O2-  O246  1  0.99075558  0.86518192  0.26375849  1
  O2-  O247  1  0.98905088  0.88276680  0.77311888  1
  O2-  O248  1  0.01777703  0.11411602  0.21770021  1
  O2-  O249  1  0.02495293  0.11748893  0.73826035  1
  O2-  O250  1  0.02300614  0.62843628  0.22757896  1
  O2-  O251  1  0.03869727  0.61391872  0.74130884  1
  O2-  O252  1  0.50663926  0.11443832  0.26784859  1
  O2-  O253  1  0.50382170  0.11263607  0.78419391  1
  O2-  O254  1  0.50495675  0.61798374  0.27062057  1
  O2-  O255  1  0.50119217  0.61556942  0.78729077  1
  O2-  O256  1  0.12873606  0.48469022  0.01769663  1
  O2-  O257  1  0.14025503  0.48033073  0.52605460  1
  O2-  O258  1  0.13841461  0.96454421  0.01689170  1
  O2-  O259  1  0.13537643  0.96799046  0.51392925  1
  O2-  O260  1  0.62598708  0.48886099  0.02061990  1
  O2-  O261  1  0.63046239  0.48397500  0.52101235  1
  O2-  O262  1  0.61936366  0.98724977  0.01731720  1
  O2-  O263  1  0.63636941  0.98022853  0.52625593  1
  O2-  O264  1  0.38180918  0.02175627  -0.01221443  1
  O2-  O265  1  0.36063857  0.01005761  0.47096218  1
  O2-  O266  1  0.37738204  0.51801082  -0.00571422  1
  O2-  O267  1  0.36253845  0.53416451  0.48447190  1
  O2-  O268  1  0.86695443  0.01741435  -0.02145027  1
  O2-  O269  1  0.86868116  0.02157040  0.46915878  1
  O2-  O270  1  0.87999368  0.52285878  -0.01791988  1
  O2-  O271  1  0.86652466  0.51602957  0.47577472  1
  O2-  O272  1  0.48585724  0.38414066  0.03042830  1
  O2-  O273  1  0.48957719  0.36394056  0.53131726  1
  O2-  O274  1  0.48554431  0.87911615  0.02434588  1
  O2-  O275  1  0.48243219  0.86555690  0.52808143  1
  O2-  O276  1  0.98237601  0.38512079  -0.01115027  1
  O2-  O277  1  0.97882360  0.36657794  0.46716569  1
  O2-  O278  1  0.97568441  0.86036923  -0.02230168  1
  O2-  O279  1  0.98531288  0.85877950  0.46672195  1
  O2-  O280  1  0.02590343  0.13218272  0.01697427  1
  O2-  O281  1  0.02250761  0.13322727  0.52316808  1
  O2-  O282  1  0.01816775  0.62144791  0.02035195  1
  O2-  O283  1  0.03453579  0.63458943  0.50961806  1
  O2-  O284  1  0.51901078  0.12540658  -0.01839724  1
  O2-  O285  1  0.51792341  0.13130690  0.47609942  1
  O2-  O286  1  0.51773455  0.62833020  -0.01426755  1
  O2-  O287  1  0.51144362  0.63352242  0.47568387  1
  O2-  O288  1  0.11661957  0.27356405  -0.02250726  1
  O2-  O289  1  0.11744910  0.27380445  0.47918094  1
  O2-  O290  1  0.11439668  0.76289395  -0.02180138  1
  O2-  O291  1  0.12842775  0.76699541  0.47865705  1
  O2-  O292  1  0.61484151  0.28399985  -0.01381066  1
  O2-  O293  1  0.63028266  0.26421233  0.48624913  1
  O2-  O294  1  0.62997107  0.76756771  -0.01548973  1
  O2-  O295  1  0.61832643  0.77405519  0.47973979  1
  O2-  O296  1  0.38736361  0.23496238  0.02440446  1
  O2-  O297  1  0.38377417  0.22545936  0.52854903  1
  O2-  O298  1  0.38846590  0.73302729  0.03316806  1
  O2-  O299  1  0.36601580  0.73402025  0.51022897  1
  O2-  O300  1  0.88387052  0.23355886  0.02604682  1
  O2-  O301  1  0.87162455  0.23527072  0.50943982  1
  O2-  O302  1  0.87097812  0.73115390  0.01703723  1
  O2-  O303  1  0.88759937  0.71870695  0.51587899  1
  O2-  O304  1  0.27268468  0.38549442  0.00714786  1
  O2-  O305  1  0.28484019  0.38649649  0.49622527  1
  O2-  O306  1  0.28792721  0.88435027  -0.00411200  1
  O2-  O307  1  0.26798957  0.86947942  0.50036624  1
  O2-  O308  1  0.77559380  0.38869743  0.01974849  1
  O2-  O309  1  0.76442860  0.37447734  0.50333427  1
  O2-  O310  1  0.76387875  0.87315989  0.01254912  1
  O2-  O311  1  0.78461027  0.88353866  0.51772725  1
  O2-  O312  1  0.23061755  0.10983394  -0.01665192  1
  O2-  O313  1  0.22297018  0.11286353  0.50332658  1
  O2-  O314  1  0.24129526  0.61602529  0.00281525  1
  O2-  O315  1  0.22858060  0.62797951  0.49499394  1
  O2-  O316  1  0.72741965  0.11680314  -0.01555656  1
  O2-  O317  1  0.73443085  0.13160515  0.48558051  1
  O2-  O318  1  0.73197470  0.63099006  -0.01628469  1
  O2-  O319  1  0.72681656  0.61860847  0.48570161  1
