# generated using pymatgen
data_Sr64Ca21Nb43O192
_symmetry_space_group_name_H-M   'P 1'
_cell_length_a   16.55336111
_cell_length_b   16.55716794
_cell_length_c   16.72894403
_cell_angle_alpha   90.06062260
_cell_angle_beta   89.98695965
_cell_angle_gamma   89.98182715
_symmetry_Int_Tables_number   1
_chemical_formula_structural   Sr64Ca21Nb43O192
_chemical_formula_sum   'Sr64 Ca21 Nb43 O192'
_cell_volume   4585.01219479
_cell_formula_units_Z   1
loop_
 _symmetry_equiv_pos_site_id
 _symmetry_equiv_pos_as_xyz
  1  'x, y, z'
loop_
 _atom_type_symbol
 _atom_type_oxidation_number
  Sr2+  2.0
  Ca2+  2.0
  Nb5+  5.0
  O2-  -2.0
loop_
 _atom_site_type_symbol
 _atom_site_label
 _atom_site_symmetry_multiplicity
 _atom_site_fract_x
 _atom_site_fract_y
 _atom_site_fract_z
 _atom_site_occupancy
  Sr2+  Sr0  1  0.13018863  0.11525043  0.12374669  1
  Sr2+  Sr1  1  0.12487121  0.11959182  0.62640522  1
  Sr2+  Sr2  1  0.13037816  0.63913769  0.12849589  1
  Sr2+  Sr3  1  0.14127726  0.63213422  0.62591781  1
  Sr2+  Sr4  1  0.62606711  0.11382698  0.11937683  1
  Sr2+  Sr5  1  0.63188747  0.11975630  0.62772652  1
  Sr2+  Sr6  1  0.63648478  0.63463558  0.12099197  1
  Sr2+  Sr7  1  0.62916564  0.63604024  0.62383841  1
  Sr2+  Sr8  1  0.38327429  0.35943615  0.12490773  1
  Sr2+  Sr9  1  0.37848538  0.37537121  0.62740183  1
  Sr2+  Sr10  1  0.38389096  0.88261232  0.12300005  1
  Sr2+  Sr11  1  0.38144553  0.87096759  0.62989489  1
  Sr2+  Sr12  1  0.88710090  0.37670281  0.12078822  1
  Sr2+  Sr13  1  0.88055300  0.36619490  0.62839612  1
  Sr2+  Sr14  1  0.87754001  0.87037585  0.12844474  1
  Sr2+  Sr15  1  0.87795384  0.88826357  0.61952479  1
  Sr2+  Sr16  1  0.10969957  0.38946022  0.37694726  1
  Sr2+  Sr17  1  0.12154320  0.38119956  0.87260448  1
  Sr2+  Sr18  1  0.11880556  0.87525412  0.36820330  1
  Sr2+  Sr19  1  0.11967063  0.87264840  0.88938194  1
  Sr2+  Sr20  1  0.61235770  0.37774656  0.37544238  1
  Sr2+  Sr21  1  0.63761498  0.37673673  0.87736240  1
  Sr2+  Sr22  1  0.62367762  0.87702204  0.36757374  1
  Sr2+  Sr23  1  0.61046237  0.87128929  0.87712201  1
  Sr2+  Sr24  1  0.36335906  0.13863990  0.37223903  1
  Sr2+  Sr25  1  0.36706305  0.11646050  0.87835393  1
  Sr2+  Sr26  1  0.36843256  0.61694111  0.37355375  1
  Sr2+  Sr27  1  0.36293062  0.62464006  0.87652834  1
  Sr2+  Sr28  1  0.86650237  0.12433071  0.37504561  1
  Sr2+  Sr29  1  0.87165903  0.13049391  0.87921183  1
  Sr2+  Sr30  1  0.88793098  0.62748840  0.37232944  1
  Sr2+  Sr31  1  0.86901316  0.61473396  0.87417452  1
  Sr2+  Sr32  1  0.11754536  0.13053891  0.37452629  1
  Sr2+  Sr33  1  0.11795831  0.13749354  0.87871732  1
  Sr2+  Sr34  1  0.11697272  0.62783490  0.36812821  1
  Sr2+  Sr35  1  0.11970497  0.63493004  0.87383738  1
  Sr2+  Sr36  1  0.61941744  0.13758360  0.37633382  1
  Sr2+  Sr37  1  0.61288891  0.13023376  0.87353776  1
  Sr2+  Sr38  1  0.61802147  0.61840254  0.38016251  1
  Sr2+  Sr39  1  0.62637584  0.63066313  0.87050178  1
  Sr2+  Sr40  1  0.37368174  0.38130379  0.37143978  1
  Sr2+  Sr41  1  0.37126091  0.38771213  0.88202469  1
  Sr2+  Sr42  1  0.36278272  0.88055301  0.36294062  1
  Sr2+  Sr43  1  0.36690418  0.86430580  0.88513403  1
  Sr2+  Sr44  1  0.86691687  0.37997461  0.37334496  1
  Sr2+  Sr45  1  0.87720112  0.38207784  0.87807962  1
  Sr2+  Sr46  1  0.86737115  0.87342041  0.37478790  1
  Sr2+  Sr47  1  0.87427391  0.84904770  0.87403714  1
  Sr2+  Sr48  1  0.13109449  0.38247444  0.11933136  1
  Sr2+  Sr49  1  0.12867706  0.36905144  0.62715876  1
  Sr2+  Sr50  1  0.15473183  0.87324637  0.12988871  1
  Sr2+  Sr51  1  0.13492813  0.88373328  0.62422000  1
  Sr2+  Sr52  1  0.63025236  0.37299610  0.12235826  1
  Sr2+  Sr53  1  0.63126657  0.37830562  0.62610945  1
  Sr2+  Sr54  1  0.62210614  0.87931697  0.12306450  1
  Sr2+  Sr55  1  0.62511589  0.87186893  0.62761885  1
  Sr2+  Sr56  1  0.38740157  0.11635922  0.12635175  1
  Sr2+  Sr57  1  0.36773906  0.12040097  0.62325731  1
  Sr2+  Sr58  1  0.38026251  0.63807165  0.13151688  1
  Sr2+  Sr59  1  0.38249415  0.62304414  0.62472365  1
  Sr2+  Sr60  1  0.88574800  0.11693676  0.12287013  1
  Sr2+  Sr61  1  0.88202197  0.12016654  0.62779745  1
  Sr2+  Sr62  1  0.89009727  0.62051960  0.11932278  1
  Sr2+  Sr63  1  0.88168504  0.63415785  0.62482487  1
  Ca2+  Ca64  1  0.49963690  0.00112642  0.49737190  1
  Ca2+  Ca65  1  -0.00118557  0.50100891  0.50335107  1
  Ca2+  Ca66  1  0.00434787  0.50213071  -0.00418611  1
  Ca2+  Ca67  1  0.50098359  0.49950717  -0.00065508  1
  Ca2+  Ca68  1  -0.00132757  -0.00262106  0.00102378  1
  Ca2+  Ca69  1  0.25090483  0.25106879  0.00003937  1
  Ca2+  Ca70  1  0.75166406  0.75084551  0.00155368  1
  Ca2+  Ca71  1  0.25393974  0.75053262  0.49867708  1
  Ca2+  Ca72  1  0.75182396  0.24566016  0.00070301  1
  Ca2+  Ca73  1  0.24803826  0.74841749  0.00008918  1
  Ca2+  Ca74  1  0.75119211  0.49914194  0.25345470  1
  Ca2+  Ca75  1  0.75089329  -0.00342877  0.75460362  1
  Ca2+  Ca76  1  0.50412750  0.75031697  0.25192288  1
  Ca2+  Ca77  1  -0.00057521  0.75390779  0.24970043  1
  Ca2+  Ca78  1  0.24835849  0.00283759  0.75261230  1
  Ca2+  Ca79  1  0.49649630  0.74828286  0.75114103  1
  Ca2+  Ca80  1  0.25183409  0.00462007  0.25078634  1
  Ca2+  Ca81  1  -0.00201913  0.25170114  0.25209847  1
  Ca2+  Ca82  1  0.00012525  0.75286548  0.74496436  1
  Ca2+  Ca83  1  0.25085263  0.49864775  0.25014555  1
  Ca2+  Ca84  1  0.49855918  0.25068396  0.74772870  1
  Nb5+  Nb85  1  0.50107846  0.00067116  -0.00316417  1
  Nb5+  Nb86  1  0.50078141  0.49855008  0.50223878  1
  Nb5+  Nb87  1  0.00048358  0.00077132  0.49826020  1
  Nb5+  Nb88  1  0.74957030  0.75521538  0.50010799  1
  Nb5+  Nb89  1  0.74689605  0.25587622  0.50095981  1
  Nb5+  Nb90  1  0.24057349  0.25318415  0.49829489  1
  Nb5+  Nb91  1  0.75312137  0.00268726  0.24824400  1
  Nb5+  Nb92  1  -0.00042096  0.25080970  0.75034953  1
  Nb5+  Nb93  1  0.50234105  0.24868626  0.24884153  1
  Nb5+  Nb94  1  0.25281736  0.50022956  0.74851994  1
  Nb5+  Nb95  1  0.75400060  0.49984323  0.74611107  1
  Nb5+  Nb96  1  0.00184236  -0.00021381  0.24829224  1
  Nb5+  Nb97  1  -0.00255111  0.00108365  0.75518598  1
  Nb5+  Nb98  1  0.00077851  0.50056309  0.24721631  1
  Nb5+  Nb99  1  0.00629116  0.50105221  0.74164396  1
  Nb5+  Nb100  1  0.50318843  0.00342880  0.25585783  1
  Nb5+  Nb101  1  0.49878475  -0.00174742  0.74604597  1
  Nb5+  Nb102  1  0.50375443  0.49896012  0.24339729  1
  Nb5+  Nb103  1  0.50585975  0.49990578  0.75244000  1
  Nb5+  Nb104  1  0.23995149  0.25467424  0.25078688  1
  Nb5+  Nb105  1  0.25234666  0.25235676  0.74921727  1
  Nb5+  Nb106  1  0.25412015  0.74934555  0.25456094  1
  Nb5+  Nb107  1  0.24932514  0.75598867  0.74483623  1
  Nb5+  Nb108  1  0.75003998  0.24505274  0.24561391  1
  Nb5+  Nb109  1  0.74971817  0.24984811  0.75108422  1
  Nb5+  Nb110  1  0.74952349  0.74382903  0.25171546  1
  Nb5+  Nb111  1  0.75006957  0.75228167  0.74733808  1
  Nb5+  Nb112  1  -0.00893852  0.24870156  0.49930684  1
  Nb5+  Nb113  1  0.00432326  0.25157643  1.00691124  1
  Nb5+  Nb114  1  0.00532971  0.75040427  0.50487262  1
  Nb5+  Nb115  1  -0.00114866  0.75158004  1.00081257  1
  Nb5+  Nb116  1  0.49323178  0.24958951  0.50315581  1
  Nb5+  Nb117  1  0.49656413  0.24863370  0.99264873  1
  Nb5+  Nb118  1  0.49600416  0.75450058  0.49552533  1
  Nb5+  Nb119  1  0.50179720  0.74383823  1.00362460  1
  Nb5+  Nb120  1  0.24860989  -0.00052489  -0.00008825  1
  Nb5+  Nb121  1  0.25383928  0.00052180  0.49900782  1
  Nb5+  Nb122  1  0.25203491  0.50364246  0.00627007  1
  Nb5+  Nb123  1  0.24562869  0.49753918  0.50020659  1
  Nb5+  Nb124  1  0.75301110  -0.00483141  -0.00724924  1
  Nb5+  Nb125  1  0.74707728  0.00497244  0.49918611  1
  Nb5+  Nb126  1  0.74887951  0.50059038  0.00740570  1
  Nb5+  Nb127  1  0.74745455  0.50687785  0.50061527  1
  O2-  O128  1  -0.02521883  -0.01228673  0.13777537  1
  O2-  O129  1  -0.01464165  -0.00528811  0.61867233  1
  O2-  O130  1  -0.00626718  0.48388704  0.12960162  1
  O2-  O131  1  -0.01102658  0.46748080  0.63225753  1
  O2-  O132  1  0.49797558  -0.00631811  0.12729852  1
  O2-  O133  1  0.49303884  -0.02306033  0.63228514  1
  O2-  O134  1  0.49221528  0.46888454  0.13401399  1
  O2-  O135  1  0.49688852  0.47292308  0.61959497  1
  O2-  O136  1  0.00726338  0.02432211  0.38151797  1
  O2-  O137  1  0.01753203  0.02017242  0.86603715  1
  O2-  O138  1  0.00982292  0.51741900  0.36986502  1
  O2-  O139  1  -0.00790543  0.50985463  0.85806817  1
  O2-  O140  1  0.52870813  0.01755027  0.36670455  1
  O2-  O141  1  0.50743721  0.01913657  0.88151725  1
  O2-  O142  1  0.50855815  0.50940235  0.38151501  1
  O2-  O143  1  0.50565558  0.53057027  0.86240821  1
  O2-  O144  1  0.21742213  0.24109728  0.13854564  1
  O2-  O145  1  0.22783514  0.23698882  0.61823647  1
  O2-  O146  1  0.25825472  0.72674482  0.13477235  1
  O2-  O147  1  0.26926935  0.72175557  0.63070281  1
  O2-  O148  1  0.72157857  0.23172948  0.13638863  1
  O2-  O149  1  0.73627233  0.23314692  0.62021301  1
  O2-  O150  1  0.76841071  0.72393775  0.13923170  1
  O2-  O151  1  0.75996632  0.72499930  0.61864163  1
  O2-  O152  1  0.27299903  0.26656376  0.38435567  1
  O2-  O153  1  0.27057600  0.27502616  0.85978477  1
  O2-  O154  1  0.24503678  0.78399231  0.36949896  1
  O2-  O155  1  0.22461850  0.76429357  0.86126816  1
  O2-  O156  1  0.77106016  0.25865259  0.38516033  1
  O2-  O157  1  0.77389843  0.26947355  0.86207292  1
  O2-  O158  1  0.73181034  0.76890646  0.38413531  1
  O2-  O159  1  0.73186601  0.76516852  0.86160485  1
  O2-  O160  1  0.02046393  0.27595643  0.11773988  1
  O2-  O161  1  0.01113795  0.26571918  0.62093778  1
  O2-  O162  1  -0.03046934  0.75192561  0.11735052  1
  O2-  O163  1  -0.03538657  0.77055534  0.61270248  1
  O2-  O164  1  0.52127169  0.26546014  0.13375014  1
  O2-  O165  1  0.51299943  0.27868138  0.61291441  1
  O2-  O166  1  0.47980092  0.77029468  0.11826906  1
  O2-  O167  1  0.49204406  0.77008158  0.61370199  1
  O2-  O168  1  0.23176455  -0.01658164  0.38521962  1
  O2-  O169  1  0.25458888  -0.02897717  0.88396585  1
  O2-  O170  1  0.24987870  0.47235334  0.38770617  1
  O2-  O171  1  0.24631805  0.47369744  0.86098907  1
  O2-  O172  1  0.74671645  -0.01861754  0.37927858  1
  O2-  O173  1  0.75214407  -0.04486478  0.88666008  1
  O2-  O174  1  0.74331467  0.47434639  0.38990876  1
  O2-  O175  1  0.75421167  0.48230865  0.86318553  1
  O2-  O176  1  -0.01397485  0.22192643  0.38733160  1
  O2-  O177  1  -0.01634658  0.23081832  0.86377585  1
  O2-  O178  1  0.00697582  0.73400532  0.38844554  1
  O2-  O179  1  0.02335159  0.75216887  0.87892944  1
  O2-  O180  1  0.49121132  0.23079219  0.37779690  1
  O2-  O181  1  0.47669273  0.22353208  0.88273605  1
  O2-  O182  1  0.52815838  0.73179144  0.38526769  1
  O2-  O183  1  0.52420324  0.74042933  0.88531662  1
  O2-  O184  1  0.26078848  0.02984486  0.11690540  1
  O2-  O185  1  0.24785105  0.02844769  0.61438901  1
  O2-  O186  1  0.25429892  0.53397252  0.11636267  1
  O2-  O187  1  0.25752591  0.51497727  0.62346916  1
  O2-  O188  1  0.75813610  0.02983136  0.13552036  1
  O2-  O189  1  0.75939268  0.01680284  0.61564939  1
  O2-  O190  1  0.74160706  0.51865968  0.11955685  1
  O2-  O191  1  0.73585084  0.51084122  0.62338459  1
  O2-  O192  1  0.13302900  0.27469834  0.28426249  1
  O2-  O193  1  0.11864100  0.27193711  0.75735702  1
  O2-  O194  1  0.13462127  0.77251721  0.24157275  1
  O2-  O195  1  0.13242174  0.75862312  0.71517335  1
  O2-  O196  1  0.62698993  0.25954908  0.27706079  1
  O2-  O197  1  0.63616166  0.27695654  0.75873672  1
  O2-  O198  1  0.63872567  0.78388579  0.24021161  1
  O2-  O199  1  0.63293171  0.75422272  0.72658378  1
  O2-  O200  1  0.38600410  0.22783016  0.23789109  1
  O2-  O201  1  0.36261651  0.23787410  0.71818828  1
  O2-  O202  1  0.37223673  0.72276049  0.26588602  1
  O2-  O203  1  0.36273501  0.72528074  0.76687739  1
  O2-  O204  1  0.86285778  0.21699057  0.23733229  1
  O2-  O205  1  0.87504968  0.24065414  0.72557134  1
  O2-  O206  1  0.86289543  0.74670660  0.28130305  1
  O2-  O207  1  0.86349375  0.71829076  0.76170924  1
  O2-  O208  1  0.28374828  0.36275425  0.23924483  1
  O2-  O209  1  0.25462745  0.37655019  0.72100252  1
  O2-  O210  1  0.28120574  0.86937500  0.23035850  1
  O2-  O211  1  0.26718027  0.86813017  0.72501783  1
  O2-  O212  1  0.77093748  0.35935158  0.23943448  1
  O2-  O213  1  0.76392123  0.37855262  0.72484658  1
  O2-  O214  1  0.77247017  0.88566299  0.24157058  1
  O2-  O215  1  0.77217202  0.86217668  0.72270628  1
  O2-  O216  1  0.24075633  0.13948525  0.27761060  1
  O2-  O217  1  0.22513357  0.14071375  0.76507065  1
  O2-  O218  1  0.23315279  0.63282784  0.28017156  1
  O2-  O219  1  0.22373919  0.61345454  0.76066912  1
  O2-  O220  1  0.73304352  0.12227936  0.28067873  1
  O2-  O221  1  0.73116203  0.13628935  0.76514283  1
  O2-  O222  1  0.72282359  0.63484355  0.27523590  1
  O2-  O223  1  0.72756386  0.61557966  0.75732456  1
  O2-  O224  1  0.11804284  0.46685522  0.24506584  1
  O2-  O225  1  0.12172435  0.47798440  0.74054997  1
  O2-  O226  1  0.11663233  0.97781156  0.23825879  1
  O2-  O227  1  0.11240103  0.98910183  0.72868983  1
  O2-  O228  1  0.61685442  0.46566382  0.25296258  1
  O2-  O229  1  0.62207514  0.47724475  0.74889745  1
  O2-  O230  1  0.63214278  0.98661995  0.23953356  1
  O2-  O231  1  0.61640988  0.96722785  0.75274048  1
  O2-  O232  1  0.38933311  0.02642742  0.26492573  1
  O2-  O233  1  0.38410429  0.03592953  0.75216927  1
  O2-  O234  1  0.38845351  0.51093395  0.26733494  1
  O2-  O235  1  0.36934164  0.51557889  0.75007951  1
  O2-  O236  1  0.87232121  0.02316901  0.26465207  1
  O2-  O237  1  0.88369572  0.03725536  0.75526727  1
  O2-  O238  1  0.88257174  0.53469177  0.25095791  1
  O2-  O239  1  0.86914474  0.51690988  0.73921007  1
  O2-  O240  1  0.48669607  0.36466496  0.27033247  1
  O2-  O241  1  0.47231699  0.38716927  0.76658809  1
  O2-  O242  1  0.48704298  0.88823977  0.26609554  1
  O2-  O243  1  0.46937129  0.88553672  0.77584506  1
  O2-  O244  1  0.96664348  0.38434097  0.26748504  1
  O2-  O245  1  0.97993811  0.37018861  0.76252865  1
  O2-  O246  1  0.98253675  0.88841236  0.28264214  1
  O2-  O247  1  0.96924639  0.88901223  0.76002596  1
  O2-  O248  1  0.02557304  0.11727097  0.23809138  1
  O2-  O249  1  0.01560273  0.13362248  0.72971734  1
  O2-  O250  1  0.02937690  0.61837927  0.23666049  1
  O2-  O251  1  0.01636957  0.61399788  0.72210131  1
  O2-  O252  1  0.52622823  0.12762285  0.23633039  1
  O2-  O253  1  0.53385606  0.11528744  0.73850705  1
  O2-  O254  1  0.52708964  0.61165647  0.22876094  1
  O2-  O255  1  0.50794939  0.61123795  0.71404777  1
  O2-  O256  1  0.13753060  0.47118644  -0.00512966  1
  O2-  O257  1  0.13387344  0.47060346  0.51244937  1
  O2-  O258  1  0.13498676  0.97973193  0.01461922  1
  O2-  O259  1  0.11920584  0.98932423  0.50944457  1
  O2-  O260  1  0.63373043  0.46674499  -0.00553207  1
  O2-  O261  1  0.62216010  0.47559978  0.50468629  1
  O2-  O262  1  0.62189217  0.98336384  0.00871569  1
  O2-  O263  1  0.63544039  0.97694028  0.50975123  1
  O2-  O264  1  0.38264185  0.01909618  -0.00151223  1
  O2-  O265  1  0.36526177  0.02992099  0.48511058  1
  O2-  O266  1  0.36688194  0.51387343  -0.02390292  1
  O2-  O267  1  0.37872787  0.50765428  0.49923417  1
  O2-  O268  1  0.86384066  0.02775743  -0.00434656  1
  O2-  O269  1  0.87429413  0.01166301  0.49121596  1
  O2-  O270  1  0.86558702  0.52334636  -0.00431635  1
  O2-  O271  1  0.86157622  0.52233182  0.50261506  1
  O2-  O272  1  0.47765894  0.36282899  -0.01341843  1
  O2-  O273  1  0.48806587  0.37093893  0.47653833  1
  O2-  O274  1  0.48534610  0.88236759  -0.01334302  1
  O2-  O275  1  0.47339155  0.86529241  0.47321067  1
  O2-  O276  1  0.97808337  0.36544858  -0.01832256  1
  O2-  O277  1  0.97828233  0.36293852  0.47963708  1
  O2-  O278  1  0.96472082  0.86806383  -0.01107425  1
  O2-  O279  1  0.98455381  0.88237169  0.48315906  1
  O2-  O280  1  0.02739966  0.13284869  0.01644296  1
  O2-  O281  1  0.01281643  0.12583608  0.51953290  1
  O2-  O282  1  0.03083948  0.63503237  0.00901039  1
  O2-  O283  1  0.01696447  0.63631919  0.52644919  1
  O2-  O284  1  0.51782574  0.12273010  0.01622704  1
  O2-  O285  1  0.52462209  0.13760657  0.51892387  1
  O2-  O286  1  0.51581425  0.63176766  0.02942327  1
  O2-  O287  1  0.51964688  0.61381093  0.51691775  1
  O2-  O288  1  0.11660163  0.26537854  -0.03332923  1
  O2-  O289  1  0.12447943  0.26801272  0.48358620  1
  O2-  O290  1  0.11452387  0.78377072  0.01914939  1
  O2-  O291  1  0.11659636  0.77569395  0.51703191  1
  O2-  O292  1  0.61464334  0.26234761  -0.01874624  1
  O2-  O293  1  0.63144524  0.26505697  0.48501048  1
  O2-  O294  1  0.61785440  0.77019142  0.01998100  1
  O2-  O295  1  0.62751089  0.76130291  0.51846053  1
  O2-  O296  1  0.38539201  0.22987127  0.03288294  1
  O2-  O297  1  0.37769025  0.23282333  0.51414380  1
  O2-  O298  1  0.38388609  0.73604401  -0.02061251  1
  O2-  O299  1  0.38798917  0.71424320  0.48884341  1
  O2-  O300  1  0.88719736  0.22262133  0.01176289  1
  O2-  O301  1  0.87409007  0.23271640  0.51921589  1
  O2-  O302  1  0.88214207  0.72351452  -0.02840401  1
  O2-  O303  1  0.86493583  0.73011530  0.48444995  1
  O2-  O304  1  0.27456360  0.38452811  0.02352989  1
  O2-  O305  1  0.26874133  0.36860174  0.52220708  1
  O2-  O306  1  0.27649084  0.88379610  0.02247607  1
  O2-  O307  1  0.27139130  0.88852487  0.52466924  1
  O2-  O308  1  0.77527847  0.38173296  0.01382839  1
  O2-  O309  1  0.76556401  0.36987188  0.52094404  1
  O2-  O310  1  0.75874031  0.88786581  0.04264328  1
  O2-  O311  1  0.76638301  0.87078454  0.51664965  1
  O2-  O312  1  0.23966261  0.11596811  -0.03131436  1
  O2-  O313  1  0.23233601  0.13399496  0.48209029  1
  O2-  O314  1  0.23192424  0.61487083  -0.03303092  1
  O2-  O315  1  0.22905740  0.61140507  0.48281191  1
  O2-  O316  1  0.72223409  0.11008716  -0.02382701  1
  O2-  O317  1  0.73606125  0.12264639  0.48461881  1
  O2-  O318  1  0.72081472  0.61459025  -0.01951043  1
  O2-  O319  1  0.72370775  0.62062171  0.48743604  1
