# generated using pymatgen
data_Sr64Ca21Nb43O192
_symmetry_space_group_name_H-M   'P 1'
_cell_length_a   16.60799350
_cell_length_b   16.60355316
_cell_length_c   16.74062771
_cell_angle_alpha   89.99578258
_cell_angle_beta   89.99977641
_cell_angle_gamma   89.94430643
_symmetry_Int_Tables_number   1
_chemical_formula_structural   Sr64Ca21Nb43O192
_chemical_formula_sum   'Sr64 Ca21 Nb43 O192'
_cell_volume   4616.25440665
_cell_formula_units_Z   1
loop_
 _symmetry_equiv_pos_site_id
 _symmetry_equiv_pos_as_xyz
  1  'x, y, z'
loop_
 _atom_type_symbol
 _atom_type_oxidation_number
  Sr2+  2.0
  Ca2+  2.0
  Nb5+  5.0
  O2-  -2.0
loop_
 _atom_site_type_symbol
 _atom_site_label
 _atom_site_symmetry_multiplicity
 _atom_site_fract_x
 _atom_site_fract_y
 _atom_site_fract_z
 _atom_site_occupancy
  Sr2+  Sr0  1  0.11898924  0.13370467  0.13014623  1
  Sr2+  Sr1  1  0.12621871  0.14435113  0.61760921  1
  Sr2+  Sr2  1  0.11539739  0.63831316  0.12571577  1
  Sr2+  Sr3  1  0.11485985  0.63513446  0.62452546  1
  Sr2+  Sr4  1  0.62348840  0.13835957  0.12616306  1
  Sr2+  Sr5  1  0.62223420  0.11259067  0.62979437  1
  Sr2+  Sr6  1  0.62799904  0.64169433  0.12119500  1
  Sr2+  Sr7  1  0.62716480  0.61117971  0.62443465  1
  Sr2+  Sr8  1  0.37636813  0.38282063  0.13275587  1
  Sr2+  Sr9  1  0.36887747  0.38343697  0.62035413  1
  Sr2+  Sr10  1  0.37757134  0.87758162  0.13946793  1
  Sr2+  Sr11  1  0.37160618  0.88070470  0.63116625  1
  Sr2+  Sr12  1  0.86470332  0.39387701  0.12585879  1
  Sr2+  Sr13  1  0.87141438  0.39063390  0.63137103  1
  Sr2+  Sr14  1  0.87075763  0.87691266  0.12613932  1
  Sr2+  Sr15  1  0.86404819  0.87687850  0.62970460  1
  Sr2+  Sr16  1  0.12670274  0.37432329  0.37135091  1
  Sr2+  Sr17  1  0.13801270  0.36709982  0.88174315  1
  Sr2+  Sr18  1  0.13227257  0.86502461  0.36521364  1
  Sr2+  Sr19  1  0.13300998  0.86974879  0.87376815  1
  Sr2+  Sr20  1  0.62644135  0.36765016  0.38586588  1
  Sr2+  Sr21  1  0.62861247  0.36658066  0.87455002  1
  Sr2+  Sr22  1  0.63063635  0.86965064  0.38522688  1
  Sr2+  Sr23  1  0.61756749  0.86306126  0.87828453  1
  Sr2+  Sr24  1  0.36969753  0.12266299  0.37713444  1
  Sr2+  Sr25  1  0.37100658  0.12578657  0.87766727  1
  Sr2+  Sr26  1  0.37902888  0.61816053  0.37046422  1
  Sr2+  Sr27  1  0.37102197  0.62117779  0.87680679  1
  Sr2+  Sr28  1  0.88612866  0.11723780  0.38434704  1
  Sr2+  Sr29  1  0.88709991  0.11960255  0.87729706  1
  Sr2+  Sr30  1  0.89211571  0.61909235  0.37614811  1
  Sr2+  Sr31  1  0.88407979  0.61846807  0.87802570  1
  Sr2+  Sr32  1  0.13194160  0.11029102  0.37871130  1
  Sr2+  Sr33  1  0.12516221  0.11344275  0.88009292  1
  Sr2+  Sr34  1  0.13064724  0.61416041  0.37210986  1
  Sr2+  Sr35  1  0.13778964  0.60870621  0.88364824  1
  Sr2+  Sr36  1  0.62593900  0.11239198  0.37774873  1
  Sr2+  Sr37  1  0.62688322  0.12107443  0.87902037  1
  Sr2+  Sr38  1  0.63087609  0.61612306  0.37945840  1
  Sr2+  Sr39  1  0.62179565  0.62600333  0.87943963  1
  Sr2+  Sr40  1  0.38274139  0.37986641  0.37573182  1
  Sr2+  Sr41  1  0.37919959  0.38264811  0.87596144  1
  Sr2+  Sr42  1  0.37726704  0.85379927  0.37337724  1
  Sr2+  Sr43  1  0.37246418  0.85674558  0.87213481  1
  Sr2+  Sr44  1  0.87874476  0.37711128  0.35549596  1
  Sr2+  Sr45  1  0.87913873  0.37572488  0.87387164  1
  Sr2+  Sr46  1  0.87698254  0.86812860  0.38854969  1
  Sr2+  Sr47  1  0.88126927  0.87784464  0.88087669  1
  Sr2+  Sr48  1  0.11192415  0.39027927  0.12444042  1
  Sr2+  Sr49  1  0.11069832  0.38103949  0.62701204  1
  Sr2+  Sr50  1  0.11288336  0.88382502  0.12786371  1
  Sr2+  Sr51  1  0.11684415  0.88528975  0.63290412  1
  Sr2+  Sr52  1  0.63372258  0.37428034  0.13226189  1
  Sr2+  Sr53  1  0.62351750  0.37906245  0.63075654  1
  Sr2+  Sr54  1  0.62271623  0.87985692  0.11612612  1
  Sr2+  Sr55  1  0.61692150  0.87646235  0.62163076  1
  Sr2+  Sr56  1  0.37641251  0.13279439  0.13866643  1
  Sr2+  Sr57  1  0.36763436  0.12836760  0.62849912  1
  Sr2+  Sr58  1  0.36418454  0.63072286  0.12027430  1
  Sr2+  Sr59  1  0.36426754  0.62850702  0.62236111  1
  Sr2+  Sr60  1  0.86318067  0.12824308  0.11865647  1
  Sr2+  Sr61  1  0.87891003  0.13720783  0.62397621  1
  Sr2+  Sr62  1  0.87186423  0.63013207  0.13592364  1
  Sr2+  Sr63  1  0.86687847  0.62979566  0.63129876  1
  Ca2+  Ca64  1  0.50518757  0.49867147  -0.00063591  1
  Ca2+  Ca65  1  -0.00117929  0.50078611  0.50159227  1
  Ca2+  Ca66  1  0.49821139  0.00289413  -0.00096044  1
  Ca2+  Ca67  1  -0.00253200  0.50117429  0.00076585  1
  Ca2+  Ca68  1  0.00288824  -0.00034741  0.50530191  1
  Ca2+  Ca69  1  0.75074649  0.25044401  0.50139191  1
  Ca2+  Ca70  1  0.25191291  0.25317523  0.49487533  1
  Ca2+  Ca71  1  0.25083270  0.24712851  0.00351293  1
  Ca2+  Ca72  1  0.24642942  0.75200447  0.00184464  1
  Ca2+  Ca73  1  0.25111388  0.74973585  0.50159950  1
  Ca2+  Ca74  1  -0.00164150  0.24950180  0.24639871  1
  Ca2+  Ca75  1  0.74461091  0.50453512  0.25023374  1
  Ca2+  Ca76  1  0.75188045  -0.00485908  0.25093100  1
  Ca2+  Ca77  1  0.75014847  -0.00344226  0.75314755  1
  Ca2+  Ca78  1  0.50721902  0.75166647  0.25049394  1
  Ca2+  Ca79  1  -0.00261423  0.75148575  0.75191771  1
  Ca2+  Ca80  1  0.25094334  0.49773129  0.24947598  1
  Ca2+  Ca81  1  0.24640691  0.49483060  0.74739813  1
  Ca2+  Ca82  1  0.50093596  0.75053812  0.74719113  1
  Ca2+  Ca83  1  -0.00349525  0.75418835  0.25159714  1
  Ca2+  Ca84  1  0.74759755  0.50045082  0.75520471  1
  Nb5+  Nb85  1  0.50015912  0.49623183  0.49911412  1
  Nb5+  Nb86  1  0.49561808  -0.00417371  0.49819280  1
  Nb5+  Nb87  1  0.00039563  0.00137191  0.00279954  1
  Nb5+  Nb88  1  0.75407002  0.75595896  0.00235837  1
  Nb5+  Nb89  1  0.74984537  0.74805910  0.50819980  1
  Nb5+  Nb90  1  0.75150575  0.25584492  0.00004081  1
  Nb5+  Nb91  1  0.50154424  0.24839104  0.75074229  1
  Nb5+  Nb92  1  0.25188380  -0.00112818  0.25500193  1
  Nb5+  Nb93  1  0.24869219  0.00215077  0.75768183  1
  Nb5+  Nb94  1  0.50257111  0.24931803  0.25978812  1
  Nb5+  Nb95  1  0.00751365  0.25073011  0.75279170  1
  Nb5+  Nb96  1  -0.00475921  0.00453273  0.25288376  1
  Nb5+  Nb97  1  -0.00282054  0.00465478  0.74762575  1
  Nb5+  Nb98  1  0.00080978  0.50172114  0.24897744  1
  Nb5+  Nb99  1  0.00397809  0.50602581  0.75384428  1
  Nb5+  Nb100  1  0.50295293  -0.00135198  0.25217826  1
  Nb5+  Nb101  1  0.49484199  0.00237131  0.75279757  1
  Nb5+  Nb102  1  0.50824343  0.50255269  0.24547709  1
  Nb5+  Nb103  1  0.49685131  0.50307544  0.74845546  1
  Nb5+  Nb104  1  0.24893712  0.25268563  0.24833627  1
  Nb5+  Nb105  1  0.25659623  0.24828263  0.75267437  1
  Nb5+  Nb106  1  0.24977032  0.74461428  0.24577745  1
  Nb5+  Nb107  1  0.24661100  0.74300889  0.74713294  1
  Nb5+  Nb108  1  0.75006053  0.24319499  0.25652638  1
  Nb5+  Nb109  1  0.75752187  0.24627455  0.75136796  1
  Nb5+  Nb110  1  0.74931835  0.75029713  0.26247821  1
  Nb5+  Nb111  1  0.74779896  0.74980529  0.76062924  1
  Nb5+  Nb112  1  -0.00017300  0.25583944  0.49371833  1
  Nb5+  Nb113  1  -0.00251902  0.25141273  1.00332410  1
  Nb5+  Nb114  1  0.00557274  0.75565289  0.50323218  1
  Nb5+  Nb115  1  0.00161234  0.75149948  0.99740922  1
  Nb5+  Nb116  1  0.50016197  0.24533027  0.50782459  1
  Nb5+  Nb117  1  0.49854543  0.24869360  1.00614692  1
  Nb5+  Nb118  1  0.50207326  0.74135965  0.49899581  1
  Nb5+  Nb119  1  0.49516980  0.74825325  0.99794994  1
  Nb5+  Nb120  1  0.25137976  -0.00017043  0.00994317  1
  Nb5+  Nb121  1  0.24818673  -0.00561449  0.50699309  1
  Nb5+  Nb122  1  0.25173223  0.49404027  0.00399343  1
  Nb5+  Nb123  1  0.24396888  0.49806775  0.49994264  1
  Nb5+  Nb124  1  0.74853415  0.00380270  -0.00224845  1
  Nb5+  Nb125  1  0.75163873  0.00386106  0.50489715  1
  Nb5+  Nb126  1  0.74879550  0.51093402  -0.00238695  1
  Nb5+  Nb127  1  0.75474501  0.49840704  0.49705948  1
  O2-  O128  1  0.02034208  0.01973498  0.11743506  1
  O2-  O129  1  0.03269005  0.02508242  0.63859128  1
  O2-  O130  1  0.02323589  0.52079277  0.13240707  1
  O2-  O131  1  0.02725546  0.51075446  0.63524109  1
  O2-  O132  1  0.51576814  -0.00741720  0.13657986  1
  O2-  O133  1  0.50814141  -0.00602854  0.61922237  1
  O2-  O134  1  0.52292254  0.47850887  0.13447287  1
  O2-  O135  1  0.52024821  0.48993921  0.61710803  1
  O2-  O136  1  -0.01947919  -0.01136096  0.36592895  1
  O2-  O137  1  -0.01424464  -0.00705867  0.87325889  1
  O2-  O138  1  -0.01903766  0.48160421  0.36756737  1
  O2-  O139  1  -0.02617858  0.48985706  0.86743515  1
  O2-  O140  1  0.48577712  0.02150917  0.37960505  1
  O2-  O141  1  0.48273351  0.02788439  0.86314420  1
  O2-  O142  1  0.48578601  0.50810629  0.37946592  1
  O2-  O143  1  0.47255357  0.50713356  0.86077556  1
  O2-  O144  1  0.28712114  0.25486610  0.13643200  1
  O2-  O145  1  0.26783437  0.25456558  0.63461306  1
  O2-  O146  1  0.28077460  0.76786821  0.13301405  1
  O2-  O147  1  0.28095651  0.76509697  0.63517725  1
  O2-  O148  1  0.76522883  0.25001492  0.11925922  1
  O2-  O149  1  0.77128708  0.26301223  0.63827359  1
  O2-  O150  1  0.77111567  0.75178182  0.11651125  1
  O2-  O151  1  0.76639604  0.75554214  0.62259576  1
  O2-  O152  1  0.23555993  0.21728714  0.35954415  1
  O2-  O153  1  0.23339524  0.21818384  0.86423185  1
  O2-  O154  1  0.22534063  0.74203165  0.36466518  1
  O2-  O155  1  0.22347264  0.73854948  0.86587565  1
  O2-  O156  1  0.71831424  0.24126923  0.36616344  1
  O2-  O157  1  0.72713517  0.23750374  0.88253478  1
  O2-  O158  1  0.72617567  0.74563828  0.37644980  1
  O2-  O159  1  0.72799068  0.74594041  0.87590170  1
  O2-  O160  1  -0.01805318  0.21891368  0.11289495  1
  O2-  O161  1  -0.00606334  0.22777580  0.63781907  1
  O2-  O162  1  -0.02669934  0.74042321  0.11219109  1
  O2-  O163  1  -0.02022363  0.72535844  0.61574622  1
  O2-  O164  1  0.48643263  0.25663452  0.12100351  1
  O2-  O165  1  0.47213254  0.25700672  0.61886061  1
  O2-  O166  1  0.48702919  0.76068673  0.11550735  1
  O2-  O167  1  0.48485564  0.76667322  0.61159617  1
  O2-  O168  1  0.26011373  0.01566915  0.36946951  1
  O2-  O169  1  0.25983122  0.02352547  0.87004278  1
  O2-  O170  1  0.26418359  0.52923944  0.38439572  1
  O2-  O171  1  0.26394945  0.52089698  0.88253623  1
  O2-  O172  1  0.76337848  0.00584051  0.38749328  1
  O2-  O173  1  0.78046574  0.00853206  0.88529261  1
  O2-  O174  1  0.76120517  0.53086862  0.38468758  1
  O2-  O175  1  0.78533759  0.50462324  0.88550712  1
  O2-  O176  1  0.00395139  0.28305281  0.38263076  1
  O2-  O177  1  0.00788488  0.26455733  0.87601951  1
  O2-  O178  1  0.00510424  0.78400737  0.38572240  1
  O2-  O179  1  0.00516262  0.78710832  0.88501769  1
  O2-  O180  1  0.52755536  0.24323144  0.37187158  1
  O2-  O181  1  0.51786476  0.23469076  0.86330359  1
  O2-  O182  1  0.52960170  0.75374231  0.38517239  1
  O2-  O183  1  0.52545188  0.74258279  0.88079441  1
  O2-  O184  1  0.24143792  -0.02632489  0.12216042  1
  O2-  O185  1  0.24006884  -0.02019870  0.62190868  1
  O2-  O186  1  0.24437146  0.46033606  0.11798352  1
  O2-  O187  1  0.23762288  0.46502716  0.61434703  1
  O2-  O188  1  0.74189460  -0.02242365  0.11339157  1
  O2-  O189  1  0.72863258  -0.02142899  0.61833191  1
  O2-  O190  1  0.72163799  0.49376337  0.11247430  1
  O2-  O191  1  0.72923439  0.48782441  0.61466408  1
  O2-  O192  1  0.13745179  0.26794921  0.22227579  1
  O2-  O193  1  0.12352056  0.26371062  0.73924439  1
  O2-  O194  1  0.13480743  0.77453311  0.22733769  1
  O2-  O195  1  0.13381257  0.77580935  0.72699152  1
  O2-  O196  1  0.61808713  0.26012524  0.22691415  1
  O2-  O197  1  0.61497146  0.26205999  0.72819834  1
  O2-  O198  1  0.64046105  0.78762655  0.22846121  1
  O2-  O199  1  0.63663108  0.78885955  0.73777860  1
  O2-  O200  1  0.38504064  0.22647731  0.26645412  1
  O2-  O201  1  0.37294727  0.22522299  0.76441831  1
  O2-  O202  1  0.36837224  0.73314225  0.27238822  1
  O2-  O203  1  0.36479269  0.73549039  0.77666507  1
  O2-  O204  1  0.86299001  0.22497978  0.27484705  1
  O2-  O205  1  0.87120972  0.22853632  0.76930374  1
  O2-  O206  1  0.86347920  0.71581018  0.26500706  1
  O2-  O207  1  0.86240285  0.71265409  0.76210162  1
  O2-  O208  1  0.27201312  0.36148938  0.27541062  1
  O2-  O209  1  0.26639178  0.35970900  0.77396128  1
  O2-  O210  1  0.27266994  0.88115004  0.26259774  1
  O2-  O211  1  0.26649098  0.88479427  0.76327092  1
  O2-  O212  1  0.76188642  0.36195341  0.24556665  1
  O2-  O213  1  0.75442380  0.36126029  0.77534333  1
  O2-  O214  1  0.79026931  0.86334480  0.26025211  1
  O2-  O215  1  0.78776463  0.86305647  0.76085492  1
  O2-  O216  1  0.23948212  0.11562206  0.22463551  1
  O2-  O217  1  0.23310288  0.11829699  0.72522492  1
  O2-  O218  1  0.23275663  0.63225664  0.22407136  1
  O2-  O219  1  0.22982565  0.63062226  0.72798869  1
  O2-  O220  1  0.72465374  0.13043797  0.23397102  1
  O2-  O221  1  0.72169215  0.13459182  0.74711667  1
  O2-  O222  1  0.71762525  0.63797414  0.23887173  1
  O2-  O223  1  0.71363580  0.63466463  0.74483955  1
  O2-  O224  1  0.11809971  0.47482166  0.26625937  1
  O2-  O225  1  0.11318920  0.46277818  0.77040380  1
  O2-  O226  1  0.13307906  0.98127192  0.26027152  1
  O2-  O227  1  0.12931244  0.98683921  0.76980540  1
  O2-  O228  1  0.61483955  0.46789728  0.27930178  1
  O2-  O229  1  0.60898167  0.46680667  0.75882222  1
  O2-  O230  1  0.61441988  0.98434050  0.27782249  1
  O2-  O231  1  0.60988872  0.99111119  0.76069071  1
  O2-  O232  1  0.37341949  0.01844824  0.23758171  1
  O2-  O233  1  0.36846162  0.01929118  0.73220080  1
  O2-  O234  1  0.38939980  0.51215149  0.23767479  1
  O2-  O235  1  0.38308186  0.50567968  0.71516901  1
  O2-  O236  1  0.88635565  0.03191831  0.23170229  1
  O2-  O237  1  0.88575707  0.02770286  0.72984352  1
  O2-  O238  1  0.88028606  0.51637686  0.23496869  1
  O2-  O239  1  0.88530015  0.51075854  0.72518698  1
  O2-  O240  1  0.48071425  0.36529380  0.25682858  1
  O2-  O241  1  0.47392640  0.36300182  0.74891300  1
  O2-  O242  1  0.47348924  0.88732694  0.26243059  1
  O2-  O243  1  0.47160251  0.88935283  0.75643859  1
  O2-  O244  1  0.97871133  0.38189360  0.22389481  1
  O2-  O245  1  0.97542788  0.36327607  0.74025140  1
  O2-  O246  1  0.99095450  0.89144718  0.22168995  1
  O2-  O247  1  0.98535647  0.89042424  0.73090698  1
  O2-  O248  1  0.03447028  0.11629438  0.26354371  1
  O2-  O249  1  0.01334624  0.12990559  0.77547700  1
  O2-  O250  1  0.02041884  0.61909487  0.27028635  1
  O2-  O251  1  0.02989096  0.61702788  0.77104424  1
  O2-  O252  1  0.51350501  0.12583433  0.24133944  1
  O2-  O253  1  0.50219009  0.12832417  0.72279924  1
  O2-  O254  1  0.53035019  0.61514964  0.24483988  1
  O2-  O255  1  0.51925964  0.61460470  0.73614996  1
  O2-  O256  1  0.13194223  0.47643447  -0.01447141  1
  O2-  O257  1  0.13272275  0.48081706  0.47703455  1
  O2-  O258  1  0.11740294  0.97978818  -0.01615872  1
  O2-  O259  1  0.13775039  0.97315745  0.48005242  1
  O2-  O260  1  0.63776696  0.48749013  -0.03832062  1
  O2-  O261  1  0.62299290  0.49073672  0.48216089  1
  O2-  O262  1  0.63683475  0.98303325  -0.02582246  1
  O2-  O263  1  0.61621973  0.98707859  0.48561179  1
  O2-  O264  1  0.36258671  0.02904346  0.01531753  1
  O2-  O265  1  0.37935876  0.02405436  0.51195584  1
  O2-  O266  1  0.37024982  0.51554207  0.01992236  1
  O2-  O267  1  0.38526630  0.52034693  0.51564325  1
  O2-  O268  1  0.87861696  0.01642431  0.01641759  1
  O2-  O269  1  0.86487001  0.02297220  0.52169015  1
  O2-  O270  1  0.86392653  0.51874527  0.03089920  1
  O2-  O271  1  0.86452632  0.52327424  0.52214764  1
  O2-  O272  1  0.49637920  0.36083350  -0.02630742  1
  O2-  O273  1  0.48689699  0.37945767  0.49147192  1
  O2-  O274  1  0.49063714  0.86820736  -0.01765685  1
  O2-  O275  1  0.48353380  0.88171735  0.48854874  1
  O2-  O276  1  0.96843638  0.36233611  0.01515615  1
  O2-  O277  1  0.97734659  0.36473621  0.53326914  1
  O2-  O278  1  0.97770150  0.88479724  0.01602470  1
  O2-  O279  1  0.96780969  0.86861937  0.52439835  1
  O2-  O280  1  0.00858357  0.12258199  -0.02158986  1
  O2-  O281  1  0.02434721  0.13540308  0.48240498  1
  O2-  O282  1  0.01608163  0.63905595  -0.02484128  1
  O2-  O283  1  0.01862041  0.63902245  0.47529527  1
  O2-  O284  1  0.53436409  0.13639083  0.00155962  1
  O2-  O285  1  0.51888703  0.13020244  0.50957913  1
  O2-  O286  1  0.52808701  0.63387786  0.00727871  1
  O2-  O287  1  0.52343810  0.62627332  0.50622626  1
  O2-  O288  1  0.11137165  0.26825038  0.01538760  1
  O2-  O289  1  0.11674940  0.27148496  0.51766765  1
  O2-  O290  1  0.11245578  0.77304074  0.02241557  1
  O2-  O291  1  0.11666957  0.77690437  0.52409506  1
  O2-  O292  1  0.63148008  0.26742298  0.01802057  1
  O2-  O293  1  0.61311492  0.27735351  0.51642564  1
  O2-  O294  1  0.63427473  0.76974929  0.01437276  1
  O2-  O295  1  0.62702028  0.76963430  0.51644701  1
  O2-  O296  1  0.38797331  0.22557324  -0.01504358  1
  O2-  O297  1  0.39058022  0.24293403  0.46741259  1
  O2-  O298  1  0.38244039  0.72884129  -0.02017967  1
  O2-  O299  1  0.38884786  0.72844216  0.47515336  1
  O2-  O300  1  0.86788643  0.22794209  -0.01835568  1
  O2-  O301  1  0.88432647  0.22061967  0.49459964  1
  O2-  O302  1  0.86950931  0.73692533  -0.02473626  1
  O2-  O303  1  0.86310250  0.73329125  0.48024413  1
  O2-  O304  1  0.26905222  0.37756909  -0.02819546  1
  O2-  O305  1  0.28002586  0.38597513  0.47787567  1
  O2-  O306  1  0.26076372  0.88951299  -0.02986638  1
  O2-  O307  1  0.28642074  0.88576339  0.48600197  1
  O2-  O308  1  0.76764925  0.37017627  -0.00567846  1
  O2-  O309  1  0.76827840  0.38587184  0.47399395  1
  O2-  O310  1  0.76968143  0.87195678  -0.01082341  1
  O2-  O311  1  0.75986929  0.87171317  0.49215184  1
  O2-  O312  1  0.21293727  0.11093341  0.01251623  1
  O2-  O313  1  0.23841424  0.11306657  0.51000304  1
  O2-  O314  1  0.22829227  0.61366949  0.02493246  1
  O2-  O315  1  0.23752947  0.61420533  0.53199602  1
  O2-  O316  1  0.73444136  0.12030369  0.01207648  1
  O2-  O317  1  0.71989890  0.11570319  0.51252478  1
  O2-  O318  1  0.73150845  0.62858600  -0.00099869  1
  O2-  O319  1  0.72606306  0.63147313  0.51232208  1
