# generated using pymatgen
data_Sr64Ca21Nb43O192
_symmetry_space_group_name_H-M   'P 1'
_cell_length_a   16.61530045
_cell_length_b   16.57326424
_cell_length_c   16.76998162
_cell_angle_alpha   89.91831212
_cell_angle_beta   90.00962956
_cell_angle_gamma   90.00295096
_symmetry_Int_Tables_number   1
_chemical_formula_structural   Sr64Ca21Nb43O192
_chemical_formula_sum   'Sr64 Ca21 Nb43 O192'
_cell_volume   4617.94112834
_cell_formula_units_Z   1
loop_
 _symmetry_equiv_pos_site_id
 _symmetry_equiv_pos_as_xyz
  1  'x, y, z'
loop_
 _atom_type_symbol
 _atom_type_oxidation_number
  Sr2+  2.0
  Ca2+  2.0
  Nb5+  5.0
  O2-  -2.0
loop_
 _atom_site_type_symbol
 _atom_site_label
 _atom_site_symmetry_multiplicity
 _atom_site_fract_x
 _atom_site_fract_y
 _atom_site_fract_z
 _atom_site_occupancy
  Sr2+  Sr0  1  0.13301558  0.12558780  0.12154520  1
  Sr2+  Sr1  1  0.12961840  0.11274268  0.62990933  1
  Sr2+  Sr2  1  0.12534338  0.61760873  0.12253442  1
  Sr2+  Sr3  1  0.13396713  0.61896507  0.62965915  1
  Sr2+  Sr4  1  0.61811679  0.12655704  0.11945327  1
  Sr2+  Sr5  1  0.62367168  0.11372358  0.62524524  1
  Sr2+  Sr6  1  0.62003897  0.61605233  0.12526181  1
  Sr2+  Sr7  1  0.60983066  0.61572838  0.63071944  1
  Sr2+  Sr8  1  0.37256423  0.35687600  0.12334836  1
  Sr2+  Sr9  1  0.37561046  0.40169848  0.62913165  1
  Sr2+  Sr10  1  0.37529348  0.90354104  0.12863086  1
  Sr2+  Sr11  1  0.37783282  0.86586100  0.61635766  1
  Sr2+  Sr12  1  0.87500927  0.37382609  0.12378115  1
  Sr2+  Sr13  1  0.86949746  0.36164517  0.62792822  1
  Sr2+  Sr14  1  0.87545779  0.86238375  0.12444894  1
  Sr2+  Sr15  1  0.87465454  0.87743667  0.63880752  1
  Sr2+  Sr16  1  0.12567176  0.38202903  0.37851876  1
  Sr2+  Sr17  1  0.11593586  0.37716638  0.86726619  1
  Sr2+  Sr18  1  0.11844883  0.87743294  0.37370853  1
  Sr2+  Sr19  1  0.12776130  0.87869442  0.88144526  1
  Sr2+  Sr20  1  0.62691418  0.37700217  0.38064512  1
  Sr2+  Sr21  1  0.61743320  0.37074753  0.86806561  1
  Sr2+  Sr22  1  0.61009897  0.87848432  0.37146412  1
  Sr2+  Sr23  1  0.63200747  0.87544043  0.88259352  1
  Sr2+  Sr24  1  0.39000518  0.12536856  0.36790974  1
  Sr2+  Sr25  1  0.35655274  0.13650739  0.88105015  1
  Sr2+  Sr26  1  0.36386968  0.63291148  0.37871892  1
  Sr2+  Sr27  1  0.39713763  0.62997069  0.86820304  1
  Sr2+  Sr28  1  0.86690461  0.12968222  0.38099099  1
  Sr2+  Sr29  1  0.87360937  0.11820356  0.85847829  1
  Sr2+  Sr30  1  0.87725471  0.62683229  0.36921969  1
  Sr2+  Sr31  1  0.87368691  0.62862827  0.88125686  1
  Sr2+  Sr32  1  0.11129868  0.13696636  0.37696286  1
  Sr2+  Sr33  1  0.12195757  0.14159087  0.87357574  1
  Sr2+  Sr34  1  0.12200453  0.63525591  0.37929255  1
  Sr2+  Sr35  1  0.11645976  0.62649218  0.87290810  1
  Sr2+  Sr36  1  0.63154485  0.13837733  0.37668791  1
  Sr2+  Sr37  1  0.63140707  0.13563443  0.87654876  1
  Sr2+  Sr38  1  0.63586856  0.62248961  0.37462409  1
  Sr2+  Sr39  1  0.63148821  0.63987726  0.87326429  1
  Sr2+  Sr40  1  0.37058217  0.38958164  0.37324439  1
  Sr2+  Sr41  1  0.37878808  0.37501703  0.85427682  1
  Sr2+  Sr42  1  0.37270395  0.88251356  0.36630559  1
  Sr2+  Sr43  1  0.37551457  0.88363859  0.90294679  1
  Sr2+  Sr44  1  0.86551507  0.38483220  0.37369247  1
  Sr2+  Sr45  1  0.87724567  0.39698239  0.87696691  1
  Sr2+  Sr46  1  0.87968933  0.88749146  0.37576219  1
  Sr2+  Sr47  1  0.86915756  0.87328185  0.87585135  1
  Sr2+  Sr48  1  0.12926392  0.37156608  0.12220045  1
  Sr2+  Sr49  1  0.14193342  0.36542307  0.62854818  1
  Sr2+  Sr50  1  0.13646219  0.86840134  0.12349470  1
  Sr2+  Sr51  1  0.13926360  0.86801235  0.62749163  1
  Sr2+  Sr52  1  0.60512098  0.36663166  0.12113745  1
  Sr2+  Sr53  1  0.60999606  0.36068740  0.62737283  1
  Sr2+  Sr54  1  0.60924330  0.86323614  0.12510342  1
  Sr2+  Sr55  1  0.60875762  0.86962925  0.61776940  1
  Sr2+  Sr56  1  0.38066734  0.12271941  0.11808246  1
  Sr2+  Sr57  1  0.36885109  0.12236792  0.63018331  1
  Sr2+  Sr58  1  0.37142465  0.62042604  0.12347146  1
  Sr2+  Sr59  1  0.37433668  0.63297486  0.62524715  1
  Sr2+  Sr60  1  0.88270361  0.12814913  0.13549426  1
  Sr2+  Sr61  1  0.87417368  0.11386513  0.62288981  1
  Sr2+  Sr62  1  0.87330931  0.61878282  0.12282105  1
  Sr2+  Sr63  1  0.87215465  0.61802663  0.64113897  1
  Ca2+  Ca64  1  -0.00164227  0.50231972  0.49927340  1
  Ca2+  Ca65  1  0.50669008  0.00156989  -0.00374532  1
  Ca2+  Ca66  1  -0.00465819  -0.00009678  0.00003307  1
  Ca2+  Ca67  1  0.50120918  0.49714264  0.49673260  1
  Ca2+  Ca68  1  0.49893406  0.50054427  -0.00041535  1
  Ca2+  Ca69  1  0.24982735  0.74783269  0.00370955  1
  Ca2+  Ca70  1  0.25094796  0.24842138  0.49797469  1
  Ca2+  Ca71  1  0.75208729  0.25267527  -0.00024485  1
  Ca2+  Ca72  1  0.75056478  0.74826339  0.49906057  1
  Ca2+  Ca73  1  0.24620636  0.25765786  -0.00049376  1
  Ca2+  Ca74  1  -0.00347442  0.25012661  0.74582430  1
  Ca2+  Ca75  1  0.24640996  0.00328475  0.25306933  1
  Ca2+  Ca76  1  0.74704281  0.49946745  0.75213649  1
  Ca2+  Ca77  1  0.24809973  0.50445301  0.75299118  1
  Ca2+  Ca78  1  0.00275316  0.75166591  0.75117398  1
  Ca2+  Ca79  1  0.75232340  -0.00119941  0.25099031  1
  Ca2+  Ca80  1  0.50146922  0.25215806  0.25112935  1
  Ca2+  Ca81  1  0.49882156  0.24105511  0.74612789  1
  Ca2+  Ca82  1  0.25425368  -0.00451033  0.75189097  1
  Ca2+  Ca83  1  0.49953641  0.75762923  0.75273470  1
  Ca2+  Ca84  1  0.49738964  0.74503484  0.24994896  1
  Nb5+  Nb85  1  0.49148105  0.00271105  0.49813938  1
  Nb5+  Nb86  1  -0.00025266  0.00019812  0.49898644  1
  Nb5+  Nb87  1  0.00032388  0.49990051  0.00209454  1
  Nb5+  Nb88  1  0.75125441  0.74977665  0.00328349  1
  Nb5+  Nb89  1  0.24826997  0.75157192  0.49929932  1
  Nb5+  Nb90  1  0.74955233  0.25096424  0.50257962  1
  Nb5+  Nb91  1  0.24285412  0.50105480  0.24939679  1
  Nb5+  Nb92  1  0.74382841  0.49732625  0.24525953  1
  Nb5+  Nb93  1  0.74550096  -0.00049613  0.74932835  1
  Nb5+  Nb94  1  -0.00037722  0.75302374  0.25130027  1
  Nb5+  Nb95  1  -0.00012426  0.25958440  0.25382808  1
  Nb5+  Nb96  1  -0.00030099  0.00522573  0.24677824  1
  Nb5+  Nb97  1  0.00442477  -0.00108898  0.75019973  1
  Nb5+  Nb98  1  -0.00172770  0.50580189  0.25066104  1
  Nb5+  Nb99  1  -0.00348351  0.49700058  0.74079442  1
  Nb5+  Nb100  1  0.50427774  0.00195086  0.24801270  1
  Nb5+  Nb101  1  0.49924390  -0.00046034  0.75332476  1
  Nb5+  Nb102  1  0.48985534  0.50255531  0.25042068  1
  Nb5+  Nb103  1  0.50268422  0.50022581  0.75051168  1
  Nb5+  Nb104  1  0.25014835  0.24722681  0.25525586  1
  Nb5+  Nb105  1  0.24910253  0.24776260  0.74931376  1
  Nb5+  Nb106  1  0.25187760  0.74716433  0.24882572  1
  Nb5+  Nb107  1  0.25171074  0.75475811  0.76043611  1
  Nb5+  Nb108  1  0.74804864  0.25372967  0.24589080  1
  Nb5+  Nb109  1  0.75364880  0.25063605  0.75342216  1
  Nb5+  Nb110  1  0.75053058  0.75150098  0.25213014  1
  Nb5+  Nb111  1  0.74628974  0.75222615  0.74160778  1
  Nb5+  Nb112  1  -0.00215430  0.25832144  0.49843296  1
  Nb5+  Nb113  1  -0.00594385  0.24677597  1.00032968  1
  Nb5+  Nb114  1  -0.00031415  0.75030422  0.50598333  1
  Nb5+  Nb115  1  -0.00065680  0.75051500  1.00109480  1
  Nb5+  Nb116  1  0.49136726  0.24725636  0.50183828  1
  Nb5+  Nb117  1  0.49962688  0.25075850  0.99619223  1
  Nb5+  Nb118  1  0.50342329  0.74523643  0.49276763  1
  Nb5+  Nb119  1  0.49493186  0.74669543  1.00323274  1
  Nb5+  Nb120  1  0.24583480  0.00233891  0.00106156  1
  Nb5+  Nb121  1  0.24315297  0.00184963  0.49511334  1
  Nb5+  Nb122  1  0.24942288  0.50300002  -0.00556704  1
  Nb5+  Nb123  1  0.25108094  0.50051552  0.50177914  1
  Nb5+  Nb124  1  0.75470029  0.00144698  0.00859665  1
  Nb5+  Nb125  1  0.74461649  -0.00367116  0.49911259  1
  Nb5+  Nb126  1  0.74731503  0.49955962  0.00208629  1
  Nb5+  Nb127  1  0.75194563  0.49930751  0.50899632  1
  O2-  O128  1  -0.03069712  -0.01002713  0.13784933  1
  O2-  O129  1  -0.01430756  -0.02105635  0.61388403  1
  O2-  O130  1  -0.01389374  0.48710794  0.13062619  1
  O2-  O131  1  -0.03291546  0.48592479  0.63159569  1
  O2-  O132  1  0.49782671  0.02281917  0.13343456  1
  O2-  O133  1  0.48832549  0.02434712  0.61379510  1
  O2-  O134  1  0.49005941  0.53050051  0.13471723  1
  O2-  O135  1  0.47999740  0.52496028  0.63045505  1
  O2-  O136  1  0.02570121  0.00645335  0.37953017  1
  O2-  O137  1  0.01748447  0.02347246  0.86181161  1
  O2-  O138  1  0.02182398  0.51325787  0.36308309  1
  O2-  O139  1  0.01619943  0.51054628  0.88723550  1
  O2-  O140  1  0.50438810  -0.01802296  0.37846569  1
  O2-  O141  1  0.51655021  -0.02996950  0.86196764  1
  O2-  O142  1  0.51273335  0.47037754  0.36244868  1
  O2-  O143  1  0.51695842  0.47711786  0.86612593  1
  O2-  O144  1  0.22191879  0.24832196  0.14015029  1
  O2-  O145  1  0.22815061  0.22660155  0.63141237  1
  O2-  O146  1  0.22557263  0.72917619  0.13864348  1
  O2-  O147  1  0.23459494  0.73142702  0.61403547  1
  O2-  O148  1  0.73134691  0.27048468  0.13495946  1
  O2-  O149  1  0.73810949  0.26520436  0.61952124  1
  O2-  O150  1  0.74368485  0.75772565  0.12806327  1
  O2-  O151  1  0.73320365  0.77673214  0.63174068  1
  O2-  O152  1  0.25999381  0.28444328  0.36502073  1
  O2-  O153  1  0.26593625  0.27112560  0.86740164  1
  O2-  O154  1  0.26291312  0.76002765  0.37489650  1
  O2-  O155  1  0.26611065  0.77750704  0.87061097  1
  O2-  O156  1  0.76633145  0.24565024  0.37899867  1
  O2-  O157  1  0.76503596  0.22303916  0.86445999  1
  O2-  O158  1  0.76394051  0.72263244  0.36398163  1
  O2-  O159  1  0.76654264  0.73954189  0.88462054  1
  O2-  O160  1  0.01671486  0.26438814  0.13861383  1
  O2-  O161  1  0.00909578  0.28084601  0.61010811  1
  O2-  O162  1  0.01265241  0.76216286  0.13135105  1
  O2-  O163  1  0.01473182  0.77617092  0.61485013  1
  O2-  O164  1  0.51983482  0.23395173  0.11851994  1
  O2-  O165  1  0.52568177  0.22452073  0.61147439  1
  O2-  O166  1  0.52601827  0.73210223  0.11712445  1
  O2-  O167  1  0.50897328  0.73922761  0.61200520  1
  O2-  O168  1  0.24277478  -0.03543348  0.38459767  1
  O2-  O169  1  0.24353657  -0.02818876  0.88532987  1
  O2-  O170  1  0.23720981  0.48487657  0.37077498  1
  O2-  O171  1  0.22706771  0.47900816  0.88603766  1
  O2-  O172  1  0.73764314  0.02307123  0.38650198  1
  O2-  O173  1  0.72440853  0.00696645  0.86256430  1
  O2-  O174  1  0.73350448  0.50069546  0.36399576  1
  O2-  O175  1  0.73205279  0.51791305  0.88890777  1
  O2-  O176  1  -0.01665279  0.22592216  0.37041368  1
  O2-  O177  1  -0.02563781  0.23060528  0.88880789  1
  O2-  O178  1  -0.01030227  0.73238345  0.36981077  1
  O2-  O179  1  -0.00978741  0.72588685  0.88863064  1
  O2-  O180  1  0.49381005  0.26505045  0.38630162  1
  O2-  O181  1  0.48325937  0.26573230  0.88007489  1
  O2-  O182  1  0.47476567  0.77165000  0.38278282  1
  O2-  O183  1  0.49007566  0.77593376  0.88777128  1
  O2-  O184  1  0.25916243  0.02898493  0.11973777  1
  O2-  O185  1  0.26304775  0.01614523  0.61095586  1
  O2-  O186  1  0.25558800  0.52722674  0.13513193  1
  O2-  O187  1  0.26503452  0.52680121  0.61428524  1
  O2-  O188  1  0.78779603  -0.00397254  0.11638544  1
  O2-  O189  1  0.77162543  -0.00514727  0.61686031  1
  O2-  O190  1  0.77780800  0.49580165  0.12822313  1
  O2-  O191  1  0.78193824  0.49056563  0.61765363  1
  O2-  O192  1  0.11646366  0.26763261  0.27511018  1
  O2-  O193  1  0.12845211  0.26597862  0.76767952  1
  O2-  O194  1  0.12041090  0.75997956  0.26802516  1
  O2-  O195  1  0.13350148  0.78363401  0.76414693  1
  O2-  O196  1  0.63797170  0.27170695  0.27352936  1
  O2-  O197  1  0.63652993  0.26687226  0.75726400  1
  O2-  O198  1  0.63766395  0.76978669  0.26297706  1
  O2-  O199  1  0.63625153  0.76983687  0.77773383  1
  O2-  O200  1  0.36349026  0.23019120  0.23603231  1
  O2-  O201  1  0.36553206  0.22030743  0.74156483  1
  O2-  O202  1  0.36245701  0.71531466  0.24172063  1
  O2-  O203  1  0.36603917  0.72172917  0.74227560  1
  O2-  O204  1  0.87847548  0.24110765  0.23888109  1
  O2-  O205  1  0.86440430  0.22785983  0.71983443  1
  O2-  O206  1  0.88248277  0.72600178  0.23578502  1
  O2-  O207  1  0.86462523  0.73512282  0.74039031  1
  O2-  O208  1  0.26609796  0.38515639  0.23519638  1
  O2-  O209  1  0.26678600  0.36629912  0.72512077  1
  O2-  O210  1  0.26690645  0.86162254  0.23492008  1
  O2-  O211  1  0.27023680  0.86294200  0.71547552  1
  O2-  O212  1  0.77664100  0.37937326  0.25367290  1
  O2-  O213  1  0.77613786  0.36435729  0.76558897  1
  O2-  O214  1  0.78383233  0.86148912  0.25887314  1
  O2-  O215  1  0.76986198  0.87833753  0.76055607  1
  O2-  O216  1  0.22438471  0.13732409  0.27590109  1
  O2-  O217  1  0.22712717  0.12909641  0.77279855  1
  O2-  O218  1  0.22860934  0.62095141  0.27382645  1
  O2-  O219  1  0.21699735  0.63898226  0.76132790  1
  O2-  O220  1  0.74309949  0.13756485  0.23743203  1
  O2-  O221  1  0.73493211  0.11924847  0.73412143  1
  O2-  O222  1  0.73870400  0.61860186  0.23621925  1
  O2-  O223  1  0.72923475  0.63635337  0.73054203  1
  O2-  O224  1  0.12512385  0.48311900  0.23489673  1
  O2-  O225  1  0.11360820  0.47528886  0.73219900  1
  O2-  O226  1  0.11204258  0.97284856  0.23621896  1
  O2-  O227  1  0.11552625  0.98082650  0.72691410  1
  O2-  O228  1  0.63292140  0.47879285  0.22735270  1
  O2-  O229  1  0.61776744  0.48090308  0.71997531  1
  O2-  O230  1  0.61983485  0.97082090  0.24368685  1
  O2-  O231  1  0.63502405  0.97774825  0.71705373  1
  O2-  O232  1  0.38331268  0.01877312  0.26085091  1
  O2-  O233  1  0.38917782  0.02875663  0.76231741  1
  O2-  O234  1  0.37354306  0.51974033  0.26643750  1
  O2-  O235  1  0.38244667  0.51361530  0.77062190  1
  O2-  O236  1  0.88823950  0.01245087  0.28538131  1
  O2-  O237  1  0.86872028  0.01454171  0.75113591  1
  O2-  O238  1  0.88150934  0.51493693  0.26449748  1
  O2-  O239  1  0.88307029  0.52445209  0.77557516  1
  O2-  O240  1  0.48329981  0.38649421  0.22242666  1
  O2-  O241  1  0.48300919  0.37989222  0.73010016  1
  O2-  O242  1  0.47902302  0.88250105  0.23844611  1
  O2-  O243  1  0.49133995  0.88912674  0.71233899  1
  O2-  O244  1  0.98510014  0.37565171  0.26651120  1
  O2-  O245  1  0.98062089  0.38384670  0.77558471  1
  O2-  O246  1  0.98286207  0.86818334  0.26344418  1
  O2-  O247  1  0.97152490  0.88642654  0.76329264  1
  O2-  O248  1  0.01640860  0.12214580  0.23687827  1
  O2-  O249  1  0.00380572  0.11348881  0.71684126  1
  O2-  O250  1  0.01582593  0.62163548  0.23501955  1
  O2-  O251  1  0.02097105  0.61500986  0.73669440  1
  O2-  O252  1  0.52431398  0.11657160  0.27519404  1
  O2-  O253  1  0.54321993  0.10820247  0.75652809  1
  O2-  O254  1  0.53118978  0.61209265  0.27205781  1
  O2-  O255  1  0.52322014  0.61905171  0.76876398  1
  O2-  O256  1  0.11511903  0.48462012  0.02250231  1
  O2-  O257  1  0.13395557  0.48198081  0.51072922  1
  O2-  O258  1  0.12887658  0.97687429  0.01680600  1
  O2-  O259  1  0.12701416  0.98137188  0.51532928  1
  O2-  O260  1  0.63747864  0.48667556  0.03128365  1
  O2-  O261  1  0.63907975  0.46295264  0.50860262  1
  O2-  O262  1  0.64298267  0.96528938  0.01228543  1
  O2-  O263  1  0.62919490  0.98587656  0.51373468  1
  O2-  O264  1  0.36856057  0.01952482  -0.00994522  1
  O2-  O265  1  0.37571432  0.01244076  0.48304855  1
  O2-  O266  1  0.36097597  0.52934538  -0.01352071  1
  O2-  O267  1  0.36640984  0.51370808  0.47234631  1
  O2-  O268  1  0.86068044  0.00757043  -0.04252576  1
  O2-  O269  1  0.88297141  0.01269213  0.48246574  1
  O2-  O270  1  0.87811345  0.52291852  -0.00796210  1
  O2-  O271  1  0.86205987  0.51538965  0.46784138  1
  O2-  O272  1  0.48239774  0.36763230  0.02239611  1
  O2-  O273  1  0.47829032  0.36015408  0.52490070  1
  O2-  O274  1  0.48241982  0.86622959  0.02664916  1
  O2-  O275  1  0.49123167  0.88338963  0.51350712  1
  O2-  O276  1  0.97617925  0.38132754  -0.00370625  1
  O2-  O277  1  0.98068520  0.36651636  0.46779314  1
  O2-  O278  1  0.97128002  0.86303207  -0.00660089  1
  O2-  O279  1  0.99268595  0.87263384  0.47510205  1
  O2-  O280  1  0.01348689  0.13525579  0.02670066  1
  O2-  O281  1  0.01729432  0.11744562  0.51232312  1
  O2-  O282  1  0.01046341  0.62285449  0.02265997  1
  O2-  O283  1  0.03191537  0.63817313  0.51100788  1
  O2-  O284  1  0.53004374  0.13317114  -0.01431842  1
  O2-  O285  1  0.52147261  0.11763182  0.47567330  1
  O2-  O286  1  0.52615377  0.63465720  -0.02508383  1
  O2-  O287  1  0.52014266  0.63273779  0.47704682  1
  O2-  O288  1  0.10791024  0.27639070  -0.01169982  1
  O2-  O289  1  0.11240743  0.25882062  0.47685279  1
  O2-  O290  1  0.11326176  0.77208241  -0.00614020  1
  O2-  O291  1  0.13001063  0.76853601  0.48097290  1
  O2-  O292  1  0.61943324  0.27651528  -0.01890331  1
  O2-  O293  1  0.63391421  0.26212039  0.48463699  1
  O2-  O294  1  0.63561485  0.76755474  -0.00858058  1
  O2-  O295  1  0.61560591  0.77331784  0.47963040  1
  O2-  O296  1  0.38108955  0.22817460  0.01551221  1
  O2-  O297  1  0.38348964  0.21058031  0.50656592  1
  O2-  O298  1  0.38345575  0.71968834  0.01112416  1
  O2-  O299  1  0.37208745  0.73660830  0.51053601  1
  O2-  O300  1  0.88337054  0.24459087  0.04052293  1
  O2-  O301  1  0.87827641  0.22785830  0.51157464  1
  O2-  O302  1  0.87559850  0.72997894  0.02087025  1
  O2-  O303  1  0.88714179  0.72626110  0.51401800  1
  O2-  O304  1  0.25689393  0.39232972  0.03363080  1
  O2-  O305  1  0.26874576  0.38506924  0.51866596  1
  O2-  O306  1  0.26956768  0.88299925  0.02783817  1
  O2-  O307  1  0.26409327  0.86920909  0.51593927  1
  O2-  O308  1  0.77657862  0.38865222  -0.00928631  1
  O2-  O309  1  0.77803532  0.36847385  0.49491324  1
  O2-  O310  1  0.77625968  0.86711676  -0.00189182  1
  O2-  O311  1  0.77013020  0.88549417  0.48294498  1
  O2-  O312  1  0.22340226  0.11983812  -0.02027697  1
  O2-  O313  1  0.23052266  0.11238445  0.47013973  1
  O2-  O314  1  0.21056789  0.61502639  -0.00668017  1
  O2-  O315  1  0.23687339  0.62825898  0.47899001  1
  O2-  O316  1  0.72805028  0.11407282  0.00949697  1
  O2-  O317  1  0.74300955  0.12875538  0.51237257  1
  O2-  O318  1  0.74036261  0.62793139  0.01740042  1
  O2-  O319  1  0.72042738  0.61144499  0.51366355  1
