# generated using pymatgen
data_Sr64Ca21Nb43O192
_symmetry_space_group_name_H-M   'P 1'
_cell_length_a   16.55108620
_cell_length_b   16.60270708
_cell_length_c   16.74137444
_cell_angle_alpha   89.95333993
_cell_angle_beta   90.01917666
_cell_angle_gamma   90.05576379
_symmetry_Int_Tables_number   1
_chemical_formula_structural   Sr64Ca21Nb43O192
_chemical_formula_sum   'Sr64 Ca21 Nb43 O192'
_cell_volume   4600.40580286
_cell_formula_units_Z   1
loop_
 _symmetry_equiv_pos_site_id
 _symmetry_equiv_pos_as_xyz
  1  'x, y, z'
loop_
 _atom_type_symbol
 _atom_type_oxidation_number
  Sr2+  2.0
  Ca2+  2.0
  Nb5+  5.0
  O2-  -2.0
loop_
 _atom_site_type_symbol
 _atom_site_label
 _atom_site_symmetry_multiplicity
 _atom_site_fract_x
 _atom_site_fract_y
 _atom_site_fract_z
 _atom_site_occupancy
  Sr2+  Sr0  1  0.12166119  0.12713098  0.12049730  1
  Sr2+  Sr1  1  0.11519557  0.14277504  0.63634708  1
  Sr2+  Sr2  1  0.11788048  0.61800667  0.13188753  1
  Sr2+  Sr3  1  0.12019986  0.61588268  0.62392952  1
  Sr2+  Sr4  1  0.62158849  0.12623095  0.12572953  1
  Sr2+  Sr5  1  0.61634166  0.12273494  0.61369471  1
  Sr2+  Sr6  1  0.61459058  0.61550382  0.12367234  1
  Sr2+  Sr7  1  0.62248528  0.61409693  0.63292982  1
  Sr2+  Sr8  1  0.36736951  0.37419797  0.12648793  1
  Sr2+  Sr9  1  0.36750742  0.37938987  0.62116872  1
  Sr2+  Sr10  1  0.37556847  0.87719280  0.12314436  1
  Sr2+  Sr11  1  0.36458714  0.88016882  0.62212035  1
  Sr2+  Sr12  1  0.86751687  0.37181414  0.13228946  1
  Sr2+  Sr13  1  0.87382945  0.37647644  0.61771497  1
  Sr2+  Sr14  1  0.87444894  0.87630737  0.12583805  1
  Sr2+  Sr15  1  0.86002120  0.88117572  0.61988985  1
  Sr2+  Sr16  1  0.12815419  0.37351332  0.38213171  1
  Sr2+  Sr17  1  0.13389471  0.37514430  0.87762411  1
  Sr2+  Sr18  1  0.13633433  0.87326313  0.37648535  1
  Sr2+  Sr19  1  0.12378521  0.87998236  0.87422659  1
  Sr2+  Sr20  1  0.62379996  0.36593185  0.37093567  1
  Sr2+  Sr21  1  0.63309025  0.37442151  0.87719775  1
  Sr2+  Sr22  1  0.64750911  0.87449635  0.37375532  1
  Sr2+  Sr23  1  0.64165706  0.86990064  0.87656763  1
  Sr2+  Sr24  1  0.38966568  0.12508999  0.37574634  1
  Sr2+  Sr25  1  0.38480567  0.11623000  0.87384359  1
  Sr2+  Sr26  1  0.38827255  0.63361327  0.37357586  1
  Sr2+  Sr27  1  0.38217012  0.62877765  0.86912674  1
  Sr2+  Sr28  1  0.87640930  0.12483401  0.37739630  1
  Sr2+  Sr29  1  0.88135900  0.12296348  0.87603129  1
  Sr2+  Sr30  1  0.89014772  0.63289279  0.37746682  1
  Sr2+  Sr31  1  0.86435112  0.62619451  0.86511873  1
  Sr2+  Sr32  1  0.13310077  0.12441024  0.36881706  1
  Sr2+  Sr33  1  0.12975983  0.12447605  0.87756069  1
  Sr2+  Sr34  1  0.13016881  0.63429781  0.37337052  1
  Sr2+  Sr35  1  0.13195472  0.63291134  0.87083462  1
  Sr2+  Sr36  1  0.63648925  0.11441295  0.37747544  1
  Sr2+  Sr37  1  0.62581138  0.12487056  0.87522445  1
  Sr2+  Sr38  1  0.62658994  0.62987123  0.36286038  1
  Sr2+  Sr39  1  0.63537155  0.63505791  0.87305869  1
  Sr2+  Sr40  1  0.38726199  0.38074792  0.37836197  1
  Sr2+  Sr41  1  0.37729372  0.37567870  0.87505186  1
  Sr2+  Sr42  1  0.37777334  0.86649922  0.38280159  1
  Sr2+  Sr43  1  0.37648011  0.87917491  0.87032626  1
  Sr2+  Sr44  1  0.88694175  0.37042682  0.37814269  1
  Sr2+  Sr45  1  0.87465318  0.37157475  0.87869645  1
  Sr2+  Sr46  1  0.88306843  0.87423861  0.37851555  1
  Sr2+  Sr47  1  0.88318712  0.87107797  0.87397256  1
  Sr2+  Sr48  1  0.11483025  0.37750481  0.12280421  1
  Sr2+  Sr49  1  0.10946366  0.37818719  0.62341154  1
  Sr2+  Sr50  1  0.11480620  0.87879812  0.12169247  1
  Sr2+  Sr51  1  0.12029773  0.87884726  0.62894546  1
  Sr2+  Sr52  1  0.61778847  0.37606482  0.12528772  1
  Sr2+  Sr53  1  0.60035929  0.36814508  0.62570121  1
  Sr2+  Sr54  1  0.61754145  0.87582401  0.12474387  1
  Sr2+  Sr55  1  0.62352334  0.87646764  0.61188353  1
  Sr2+  Sr56  1  0.36750845  0.12795659  0.12476815  1
  Sr2+  Sr57  1  0.38223292  0.12796342  0.62452194  1
  Sr2+  Sr58  1  0.37899840  0.62570405  0.13765640  1
  Sr2+  Sr59  1  0.36464643  0.62046076  0.61920985  1
  Sr2+  Sr60  1  0.86381929  0.13100631  0.13013949  1
  Sr2+  Sr61  1  0.86138471  0.13280072  0.61840262  1
  Sr2+  Sr62  1  0.86832806  0.62080302  0.13330923  1
  Sr2+  Sr63  1  0.86217010  0.61579091  0.62618804  1
  Ca2+  Ca64  1  0.00306286  0.00031230  0.50212790  1
  Ca2+  Ca65  1  0.49857613  0.49798146  -0.00573527  1
  Ca2+  Ca66  1  0.49779846  -0.00348860  0.49613395  1
  Ca2+  Ca67  1  -0.00179768  0.49870093  -0.00239910  1
  Ca2+  Ca68  1  0.49978726  0.50154018  0.49853704  1
  Ca2+  Ca69  1  0.75231762  0.75297302  0.00737652  1
  Ca2+  Ca70  1  0.74817832  0.25535357  0.50133005  1
  Ca2+  Ca71  1  0.75321300  0.74435364  0.49958511  1
  Ca2+  Ca72  1  0.25039918  0.75351002  0.00318442  1
  Ca2+  Ca73  1  0.25134656  0.24843500  0.50459457  1
  Ca2+  Ca74  1  0.75091465  -0.00320880  0.24641587  1
  Ca2+  Ca75  1  0.49865892  0.74893214  0.74774827  1
  Ca2+  Ca76  1  0.75118226  0.50119536  0.25279137  1
  Ca2+  Ca77  1  0.50078382  0.25012583  0.75383830  1
  Ca2+  Ca78  1  -0.00067147  0.74787457  0.74806488  1
  Ca2+  Ca79  1  0.25005960  0.00035501  0.24843578  1
  Ca2+  Ca80  1  0.00442609  0.24909923  0.24888999  1
  Ca2+  Ca81  1  0.74731182  0.00372097  0.74957903  1
  Ca2+  Ca82  1  0.25153294  0.49892567  0.25066586  1
  Ca2+  Ca83  1  -0.00372369  0.25311514  0.75387376  1
  Ca2+  Ca84  1  0.49869495  0.24570595  0.24711532  1
  Nb5+  Nb85  1  0.50717532  -0.00220959  -0.00253637  1
  Nb5+  Nb86  1  0.00279652  0.00124540  -0.00226499  1
  Nb5+  Nb87  1  -0.00178491  0.50373749  0.49896440  1
  Nb5+  Nb88  1  0.74237821  0.25071270  0.00274688  1
  Nb5+  Nb89  1  0.25101243  0.74873973  0.50103842  1
  Nb5+  Nb90  1  0.24562625  0.25123751  0.00022627  1
  Nb5+  Nb91  1  0.00828346  0.75229849  0.25149364  1
  Nb5+  Nb92  1  0.50868713  0.75384502  0.24997419  1
  Nb5+  Nb93  1  0.24332002  0.50387695  0.74813955  1
  Nb5+  Nb94  1  0.24717556  0.00828771  0.74866966  1
  Nb5+  Nb95  1  0.74165841  0.49576000  0.74905618  1
  Nb5+  Nb96  1  0.00116603  0.00130264  0.25204998  1
  Nb5+  Nb97  1  -0.00363274  0.00579891  0.74611163  1
  Nb5+  Nb98  1  -0.00297544  0.49936256  0.24836561  1
  Nb5+  Nb99  1  -0.00583605  0.49822928  0.75314678  1
  Nb5+  Nb100  1  0.49830253  -0.00156769  0.25139436  1
  Nb5+  Nb101  1  0.50309701  -0.00515210  0.74897234  1
  Nb5+  Nb102  1  0.49817953  0.49483463  0.24591057  1
  Nb5+  Nb103  1  0.49061607  0.49855562  0.75114059  1
  Nb5+  Nb104  1  0.25018834  0.24958577  0.25623003  1
  Nb5+  Nb105  1  0.25383019  0.25689031  0.75190594  1
  Nb5+  Nb106  1  0.25522587  0.75555024  0.24804178  1
  Nb5+  Nb107  1  0.25270151  0.75624183  0.75193299  1
  Nb5+  Nb108  1  0.74981317  0.24843131  0.25511258  1
  Nb5+  Nb109  1  0.74718005  0.25030240  0.74965294  1
  Nb5+  Nb110  1  0.76061040  0.74923647  0.24921670  1
  Nb5+  Nb111  1  0.75202317  0.75564230  0.74994793  1
  Nb5+  Nb112  1  0.00302846  0.24329162  0.49645614  1
  Nb5+  Nb113  1  -0.00823540  0.25034869  1.00265271  1
  Nb5+  Nb114  1  0.00339905  0.74956475  0.50574558  1
  Nb5+  Nb115  1  0.00141110  0.74473947  1.00018756  1
  Nb5+  Nb116  1  0.49871742  0.24899758  0.49699737  1
  Nb5+  Nb117  1  0.49171766  0.24844579  1.00074765  1
  Nb5+  Nb118  1  0.50721764  0.74798453  0.50136350  1
  Nb5+  Nb119  1  0.49855335  0.74867574  0.99746589  1
  Nb5+  Nb120  1  0.25456532  0.00033026  -0.00186235  1
  Nb5+  Nb121  1  0.24443265  0.00762944  0.50215821  1
  Nb5+  Nb122  1  0.25006764  0.50552180  0.00012235  1
  Nb5+  Nb123  1  0.24730060  0.50219607  0.49420604  1
  Nb5+  Nb124  1  0.75799072  0.00195242  -0.00234067  1
  Nb5+  Nb125  1  0.75232057  0.00019738  0.49986956  1
  Nb5+  Nb126  1  0.75131813  0.50207921  0.00137245  1
  Nb5+  Nb127  1  0.74174435  0.49901851  0.49919079  1
  O2-  O128  1  0.02060197  0.00958651  0.11454498  1
  O2-  O129  1  0.02639967  0.01810752  0.63636447  1
  O2-  O130  1  -0.01645288  0.52283915  0.13390693  1
  O2-  O131  1  -0.00957708  0.52353544  0.61885889  1
  O2-  O132  1  0.51990849  0.00942402  0.11513570  1
  O2-  O133  1  0.51152299  0.01244558  0.63440134  1
  O2-  O134  1  0.48423963  0.52327804  0.12829589  1
  O2-  O135  1  0.48928618  0.52993697  0.63518205  1
  O2-  O136  1  -0.02024795  -0.01102487  0.36413635  1
  O2-  O137  1  -0.01597485  -0.01474192  0.87761794  1
  O2-  O138  1  0.01557093  0.48669746  0.37769212  1
  O2-  O139  1  0.01153810  0.46871355  0.86204753  1
  O2-  O140  1  0.46623434  -0.01426984  0.36138894  1
  O2-  O141  1  0.48037515  -0.01510799  0.87856573  1
  O2-  O142  1  0.51697892  0.47671085  0.36292408  1
  O2-  O143  1  0.50783897  0.45969038  0.86179246  1
  O2-  O144  1  0.26929394  0.25585273  0.11560499  1
  O2-  O145  1  0.28129377  0.25352947  0.64066001  1
  O2-  O146  1  0.24018200  0.78763436  0.13915973  1
  O2-  O147  1  0.23333806  0.76572607  0.62209117  1
  O2-  O148  1  0.76739394  0.26260606  0.11965604  1
  O2-  O149  1  0.77273021  0.26528956  0.63855722  1
  O2-  O150  1  0.74400494  0.79027130  0.13924505  1
  O2-  O151  1  0.73658923  0.77388318  0.63429973  1
  O2-  O152  1  0.23073445  0.24060522  0.36918618  1
  O2-  O153  1  0.22743465  0.24364635  0.87879954  1
  O2-  O154  1  0.26104845  0.72714164  0.38141540  1
  O2-  O155  1  0.27182949  0.73446052  0.86491200  1
  O2-  O156  1  0.73344188  0.23291460  0.36746069  1
  O2-  O157  1  0.72950085  0.23874898  0.88455095  1
  O2-  O158  1  0.75737804  0.71514890  0.36474209  1
  O2-  O159  1  0.76232872  0.73299653  0.87130110  1
  O2-  O160  1  -0.00405863  0.21511347  0.11472390  1
  O2-  O161  1  -0.01716514  0.22804387  0.61543019  1
  O2-  O162  1  0.02610867  0.74262272  0.13391637  1
  O2-  O163  1  0.03283957  0.73867626  0.61541496  1
  O2-  O164  1  0.49351081  0.21436063  0.11301300  1
  O2-  O165  1  0.50210590  0.22546213  0.61788671  1
  O2-  O166  1  0.51899079  0.73895643  0.13064326  1
  O2-  O167  1  0.52217833  0.72782341  0.61296785  1
  O2-  O168  1  0.25525764  0.02715538  0.38836995  1
  O2-  O169  1  0.25715116  0.01696397  0.87200583  1
  O2-  O170  1  0.22013714  0.51102218  0.38391845  1
  O2-  O171  1  0.22640430  0.50832785  0.86568127  1
  O2-  O172  1  0.76409272  0.02297313  0.38179314  1
  O2-  O173  1  0.75419444  0.03350702  0.88401151  1
  O2-  O174  1  0.72182795  0.51372837  0.38785398  1
  O2-  O175  1  0.73064365  0.51323907  0.86925798  1
  O2-  O176  1  0.01521864  0.27752792  0.38247235  1
  O2-  O177  1  0.01686872  0.27335328  0.89043874  1
  O2-  O178  1  -0.00964912  0.76104277  0.37350297  1
  O2-  O179  1  -0.02441072  0.75277681  0.88806087  1
  O2-  O180  1  0.49699206  0.27375234  0.37929274  1
  O2-  O181  1  0.52475653  0.25853289  0.89018292  1
  O2-  O182  1  0.48529973  0.76454298  0.36772748  1
  O2-  O183  1  0.47269732  0.76330063  0.88637141  1
  O2-  O184  1  0.23137406  -0.01143702  0.10948595  1
  O2-  O185  1  0.23793969  -0.01998032  0.63464778  1
  O2-  O186  1  0.27505965  0.49391192  0.11158544  1
  O2-  O187  1  0.26445368  0.49308553  0.62933066  1
  O2-  O188  1  0.72904707  -0.01294480  0.10908267  1
  O2-  O189  1  0.73542812  -0.02390007  0.61824465  1
  O2-  O190  1  0.77746487  0.48831489  0.11298868  1
  O2-  O191  1  0.77103138  0.48574344  0.63456909  1
  O2-  O192  1  0.13825101  0.28646717  0.23358572  1
  O2-  O193  1  0.13597712  0.26530256  0.73546596  1
  O2-  O194  1  0.12508304  0.76595673  0.26924206  1
  O2-  O195  1  0.13536407  0.76048721  0.77189279  1
  O2-  O196  1  0.63437944  0.27720455  0.23556719  1
  O2-  O197  1  0.63595660  0.28831682  0.74970262  1
  O2-  O198  1  0.62383800  0.76559853  0.26585892  1
  O2-  O199  1  0.63355254  0.75673792  0.77058902  1
  O2-  O200  1  0.36434631  0.21012039  0.25432585  1
  O2-  O201  1  0.36523573  0.23702110  0.78614650  1
  O2-  O202  1  0.37303265  0.73944415  0.24134463  1
  O2-  O203  1  0.36342699  0.72689043  0.72425380  1
  O2-  O204  1  0.86914956  0.22230243  0.25814351  1
  O2-  O205  1  0.86169762  0.24015959  0.78385524  1
  O2-  O206  1  0.87873757  0.73152906  0.24021721  1
  O2-  O207  1  0.86625193  0.72254075  0.73507454  1
  O2-  O208  1  0.28926079  0.36373238  0.25887883  1
  O2-  O209  1  0.26504357  0.37606562  0.76342848  1
  O2-  O210  1  0.26283201  0.86670506  0.28820060  1
  O2-  O211  1  0.26597404  0.87312019  0.76096110  1
  O2-  O212  1  0.77871075  0.36605160  0.26375504  1
  O2-  O213  1  0.76944727  0.38235944  0.77287564  1
  O2-  O214  1  0.76997255  0.86372044  0.28386696  1
  O2-  O215  1  0.77364968  0.86828500  0.77109124  1
  O2-  O216  1  0.21615312  0.13443461  0.23409821  1
  O2-  O217  1  0.23098096  0.12414269  0.74140037  1
  O2-  O218  1  0.23294609  0.63994682  0.23303940  1
  O2-  O219  1  0.23267898  0.62098368  0.73819291  1
  O2-  O220  1  0.72991680  0.13254023  0.22806692  1
  O2-  O221  1  0.71785007  0.13901170  0.73537547  1
  O2-  O222  1  0.73271320  0.63811644  0.21620754  1
  O2-  O223  1  0.73593588  0.61761212  0.73878984  1
  O2-  O224  1  0.11538678  0.49284155  0.22869696  1
  O2-  O225  1  0.12833309  0.48351933  0.73148262  1
  O2-  O226  1  0.11370117  0.96500528  0.25230159  1
  O2-  O227  1  0.12977783  0.98285287  0.76617716  1
  O2-  O228  1  0.61672073  0.49572482  0.22579800  1
  O2-  O229  1  0.62617077  0.48369141  0.73254000  1
  O2-  O230  1  0.61294361  0.96735212  0.25736341  1
  O2-  O231  1  0.61353447  0.97018401  0.76669584  1
  O2-  O232  1  0.38458892  0.00739058  0.21317051  1
  O2-  O233  1  0.36609343  0.01775774  0.74302481  1
  O2-  O234  1  0.38458037  0.52579053  0.26788226  1
  O2-  O235  1  0.37095464  0.51376546  0.76383804  1
  O2-  O236  1  0.88761316  0.00774362  0.21695900  1
  O2-  O237  1  0.88334536  0.03012371  0.73506257  1
  O2-  O238  1  0.88470558  0.53085743  0.27083046  1
  O2-  O239  1  0.87837223  0.51685254  0.76038449  1
  O2-  O240  1  0.48182936  0.38243794  0.22361075  1
  O2-  O241  1  0.47820810  0.38345669  0.71898272  1
  O2-  O242  1  0.48318514  0.86937135  0.22816343  1
  O2-  O243  1  0.46502941  0.88298279  0.73864683  1
  O2-  O244  1  0.97654945  0.38637600  0.23777662  1
  O2-  O245  1  0.98820928  0.38611880  0.71589573  1
  O2-  O246  1  0.98000575  0.86739553  0.23704178  1
  O2-  O247  1  0.98423785  0.88655031  0.74034021  1
  O2-  O248  1  0.02692396  0.11305613  0.26134043  1
  O2-  O249  1  0.02239141  0.11801799  0.77626473  1
  O2-  O250  1  0.01883864  0.63233183  0.26520341  1
  O2-  O251  1  0.02554471  0.61123703  0.76362843  1
  O2-  O252  1  0.52451860  0.11033629  0.26547655  1
  O2-  O253  1  0.50816998  0.11192782  0.77245551  1
  O2-  O254  1  0.51204137  0.63365143  0.26074619  1
  O2-  O255  1  0.51389735  0.61156799  0.78290691  1
  O2-  O256  1  0.13641805  0.46943746  0.00427537  1
  O2-  O257  1  0.12430212  0.48937377  0.52032920  1
  O2-  O258  1  0.12156938  0.99250164  -0.02049019  1
  O2-  O259  1  0.13582274  0.96128876  0.49840476  1
  O2-  O260  1  0.63582475  0.47249954  0.00789121  1
  O2-  O261  1  0.63324106  0.47874464  0.52902525  1
  O2-  O262  1  0.62194409  0.98631577  -0.02164722  1
  O2-  O263  1  0.63260481  0.97745686  0.48369829  1
  O2-  O264  1  0.37099025  0.01773734  0.00869772  1
  O2-  O265  1  0.36033387  0.01013705  0.52526024  1
  O2-  O266  1  0.36198370  0.50938853  -0.03778453  1
  O2-  O267  1  0.36187342  0.52498755  0.48383379  1
  O2-  O268  1  0.87471568  0.02197005  0.01219931  1
  O2-  O269  1  0.87003181  0.01982169  0.52160691  1
  O2-  O270  1  0.86497734  0.50721968  -0.03516449  1
  O2-  O271  1  0.88239775  0.52381400  0.48662997  1
  O2-  O272  1  0.48027982  0.36091555  0.02347299  1
  O2-  O273  1  0.46826006  0.36634428  0.51747161  1
  O2-  O274  1  0.48024705  0.88175701  0.01455602  1
  O2-  O275  1  0.47292492  0.86102868  0.51343373  1
  O2-  O276  1  0.98489396  0.36236469  0.03362466  1
  O2-  O277  1  0.98646397  0.38542412  0.51382774  1
  O2-  O278  1  0.97979193  0.88385258  0.01098871  1
  O2-  O279  1  0.98150151  0.86304865  0.51397493  1
  O2-  O280  1  0.01006307  0.12223871  -0.02303893  1
  O2-  O281  1  0.02295755  0.13273768  0.47241255  1
  O2-  O282  1  0.03075758  0.63374031  -0.00524659  1
  O2-  O283  1  0.02453965  0.62357383  0.48136623  1
  O2-  O284  1  0.51024519  0.11697919  -0.02004224  1
  O2-  O285  1  0.52658833  0.13121950  0.47639039  1
  O2-  O286  1  0.52113359  0.63551271  -0.01551620  1
  O2-  O287  1  0.51295355  0.63498334  0.46646617  1
  O2-  O288  1  0.12917134  0.25956752  0.01754491  1
  O2-  O289  1  0.11654139  0.27248351  0.52120922  1
  O2-  O290  1  0.11344577  0.78464175  -0.00711949  1
  O2-  O291  1  0.12907533  0.75957188  0.47881663  1
  O2-  O292  1  0.62704216  0.26099195  0.02113209  1
  O2-  O293  1  0.61568217  0.28120386  0.50238309  1
  O2-  O294  1  0.61413875  0.78002091  -0.00556363  1
  O2-  O295  1  0.61798152  0.77323194  0.48169544  1
  O2-  O296  1  0.37543121  0.23055296  -0.01752183  1
  O2-  O297  1  0.38177606  0.21408463  0.49403542  1
  O2-  O298  1  0.38502491  0.73920689  0.03357154  1
  O2-  O299  1  0.36968159  0.72777384  0.51034071  1
  O2-  O300  1  0.87605472  0.23483117  -0.01346623  1
  O2-  O301  1  0.88424280  0.23854572  0.48016708  1
  O2-  O302  1  0.88940662  0.73957024  0.03754077  1
  O2-  O303  1  0.89110980  0.72053386  0.51264083  1
  O2-  O304  1  0.26807784  0.36732573  -0.01462695  1
  O2-  O305  1  0.26544174  0.38667969  0.49163907  1
  O2-  O306  1  0.26397014  0.88770553  -0.02473641  1
  O2-  O307  1  0.26866994  0.86567262  0.48841007  1
  O2-  O308  1  0.76571539  0.36802764  -0.01443056  1
  O2-  O309  1  0.78319249  0.38968538  0.49128050  1
  O2-  O310  1  0.77106339  0.88918655  -0.02552988  1
  O2-  O311  1  0.77675995  0.88080582  0.48340630  1
  O2-  O312  1  0.23634221  0.12648491  0.00468090  1
  O2-  O313  1  0.21506718  0.11440699  0.52711155  1
  O2-  O314  1  0.22500646  0.61768416  0.00608676  1
  O2-  O315  1  0.23126022  0.62566203  0.52091317  1
  O2-  O316  1  0.73817901  0.12988759  0.01863349  1
  O2-  O317  1  0.73140533  0.11857821  0.52029660  1
  O2-  O318  1  0.73180821  0.61589230  0.01246960  1
  O2-  O319  1  0.74007548  0.61238764  0.53309523  1
