# generated using pymatgen
data_Sr64Ca21Nb43O192
_symmetry_space_group_name_H-M   'P 1'
_cell_length_a   16.56952079
_cell_length_b   16.58812747
_cell_length_c   16.72727812
_cell_angle_alpha   90.02668351
_cell_angle_beta   90.01233325
_cell_angle_gamma   89.94248174
_symmetry_Int_Tables_number   1
_chemical_formula_structural   Sr64Ca21Nb43O192
_chemical_formula_sum   'Sr64 Ca21 Nb43 O192'
_cell_volume   4597.61196220
_cell_formula_units_Z   1
loop_
 _symmetry_equiv_pos_site_id
 _symmetry_equiv_pos_as_xyz
  1  'x, y, z'
loop_
 _atom_type_symbol
 _atom_type_oxidation_number
  Sr2+  2.0
  Ca2+  2.0
  Nb5+  5.0
  O2-  -2.0
loop_
 _atom_site_type_symbol
 _atom_site_label
 _atom_site_symmetry_multiplicity
 _atom_site_fract_x
 _atom_site_fract_y
 _atom_site_fract_z
 _atom_site_occupancy
  Sr2+  Sr0  1  0.13702440  0.11355634  0.12233307  1
  Sr2+  Sr1  1  0.12467743  0.11166360  0.62355563  1
  Sr2+  Sr2  1  0.13161190  0.63206552  0.12882590  1
  Sr2+  Sr3  1  0.14163040  0.63919239  0.62780207  1
  Sr2+  Sr4  1  0.63339751  0.11010597  0.12500960  1
  Sr2+  Sr5  1  0.63069773  0.11404795  0.62120674  1
  Sr2+  Sr6  1  0.63517500  0.63820012  0.12276955  1
  Sr2+  Sr7  1  0.63848988  0.64268837  0.62434715  1
  Sr2+  Sr8  1  0.37608276  0.38224813  0.13231326  1
  Sr2+  Sr9  1  0.38154026  0.38611995  0.62822093  1
  Sr2+  Sr10  1  0.37900945  0.87652238  0.11881172  1
  Sr2+  Sr11  1  0.37366831  0.87739429  0.62975842  1
  Sr2+  Sr12  1  0.87416771  0.39858912  0.12638950  1
  Sr2+  Sr13  1  0.88546367  0.37900396  0.62771813  1
  Sr2+  Sr14  1  0.87932635  0.86615162  0.12180221  1
  Sr2+  Sr15  1  0.87451326  0.87544596  0.63124258  1
  Sr2+  Sr16  1  0.13382714  0.37500465  0.36810055  1
  Sr2+  Sr17  1  0.11064969  0.37006245  0.87442022  1
  Sr2+  Sr18  1  0.11637864  0.87213345  0.37339638  1
  Sr2+  Sr19  1  0.12759238  0.87203613  0.88015667  1
  Sr2+  Sr20  1  0.63135741  0.37001722  0.37843799  1
  Sr2+  Sr21  1  0.61120465  0.37242034  0.87406910  1
  Sr2+  Sr22  1  0.62077590  0.88045457  0.36891030  1
  Sr2+  Sr23  1  0.62096830  0.87059910  0.89146711  1
  Sr2+  Sr24  1  0.36328164  0.13349337  0.37536386  1
  Sr2+  Sr25  1  0.35692446  0.12777668  0.87578468  1
  Sr2+  Sr26  1  0.35955360  0.61668524  0.37831654  1
  Sr2+  Sr27  1  0.35993146  0.62147613  0.87424912  1
  Sr2+  Sr28  1  0.86185079  0.12730190  0.37572840  1
  Sr2+  Sr29  1  0.86239142  0.12911684  0.87019431  1
  Sr2+  Sr30  1  0.86412863  0.62394349  0.36926495  1
  Sr2+  Sr31  1  0.86433817  0.61299328  0.87436098  1
  Sr2+  Sr32  1  0.11952461  0.12814743  0.37010378  1
  Sr2+  Sr33  1  0.12293438  0.12389743  0.88238233  1
  Sr2+  Sr34  1  0.12221924  0.62381883  0.37056307  1
  Sr2+  Sr35  1  0.12224711  0.62008235  0.87324712  1
  Sr2+  Sr36  1  0.62351103  0.12557179  0.37781591  1
  Sr2+  Sr37  1  0.62636744  0.12357289  0.88135209  1
  Sr2+  Sr38  1  0.62036218  0.61556218  0.37695158  1
  Sr2+  Sr39  1  0.62608433  0.63369719  0.87472293  1
  Sr2+  Sr40  1  0.37272349  0.38033591  0.37869695  1
  Sr2+  Sr41  1  0.36740397  0.36655578  0.87081345  1
  Sr2+  Sr42  1  0.36307645  0.87159054  0.38284748  1
  Sr2+  Sr43  1  0.37244190  0.85057652  0.87722915  1
  Sr2+  Sr44  1  0.86756911  0.36734626  0.37547529  1
  Sr2+  Sr45  1  0.86802677  0.37820769  0.86809129  1
  Sr2+  Sr46  1  0.87144776  0.86753420  0.36710953  1
  Sr2+  Sr47  1  0.86869063  0.85217956  0.87599746  1
  Sr2+  Sr48  1  0.12951288  0.38221133  0.12594059  1
  Sr2+  Sr49  1  0.12349741  0.37580247  0.63058495  1
  Sr2+  Sr50  1  0.11468027  0.87505534  0.13201449  1
  Sr2+  Sr51  1  0.10831765  0.87674938  0.62171806  1
  Sr2+  Sr52  1  0.63100923  0.37838823  0.12199222  1
  Sr2+  Sr53  1  0.62574858  0.37897230  0.62342218  1
  Sr2+  Sr54  1  0.60448125  0.87853114  0.12147097  1
  Sr2+  Sr55  1  0.60787776  0.87635779  0.62533801  1
  Sr2+  Sr56  1  0.37360038  0.12211283  0.12832989  1
  Sr2+  Sr57  1  0.38270663  0.12150982  0.62648903  1
  Sr2+  Sr58  1  0.38812443  0.62881450  0.12774833  1
  Sr2+  Sr59  1  0.38620675  0.63440732  0.62741711  1
  Sr2+  Sr60  1  0.87920092  0.12304064  0.10983335  1
  Sr2+  Sr61  1  0.88621643  0.12025577  0.62600230  1
  Sr2+  Sr62  1  0.89488891  0.62991710  0.12105338  1
  Sr2+  Sr63  1  0.88553658  0.63219489  0.63692281  1
  Ca2+  Ca64  1  -0.00202575  -0.00062629  -0.00097595  1
  Ca2+  Ca65  1  0.00267819  0.49903459  -0.00016892  1
  Ca2+  Ca66  1  0.49954272  0.49832301  0.00108689  1
  Ca2+  Ca67  1  -0.00126902  0.49864758  0.50020555  1
  Ca2+  Ca68  1  0.49672866  0.00518442  -0.00246898  1
  Ca2+  Ca69  1  0.25136347  0.24813119  0.50049965  1
  Ca2+  Ca70  1  0.75283539  0.75335535  0.49790027  1
  Ca2+  Ca71  1  0.75346003  0.74787961  0.00453216  1
  Ca2+  Ca72  1  0.25088343  0.75153287  0.49899727  1
  Ca2+  Ca73  1  0.24925821  0.74647754  0.00403734  1
  Ca2+  Ca74  1  0.75004935  -0.00038140  0.75090296  1
  Ca2+  Ca75  1  0.00251548  0.74964102  0.75037418  1
  Ca2+  Ca76  1  0.24970750  0.49770430  0.75030316  1
  Ca2+  Ca77  1  0.49921217  0.74859007  0.25478366  1
  Ca2+  Ca78  1  0.74521068  0.49832374  0.74704530  1
  Ca2+  Ca79  1  0.74775553  0.50254412  0.25296221  1
  Ca2+  Ca80  1  0.25102151  0.00003424  0.74948036  1
  Ca2+  Ca81  1  0.50196519  0.74982689  0.75008955  1
  Ca2+  Ca82  1  0.25159131  -0.00210290  0.25229920  1
  Ca2+  Ca83  1  0.75353625  -0.00030453  0.24850777  1
  Ca2+  Ca84  1  -0.00416868  0.25183326  0.24726206  1
  Nb5+  Nb85  1  0.49618843  0.00508702  0.49612649  1
  Nb5+  Nb86  1  0.49902223  0.50645699  0.49994129  1
  Nb5+  Nb87  1  -0.00851064  0.00041489  0.49601759  1
  Nb5+  Nb88  1  0.24166025  0.25364285  0.00182086  1
  Nb5+  Nb89  1  0.74251038  0.25609570  -0.00712960  1
  Nb5+  Nb90  1  0.75059626  0.24813191  0.50019267  1
  Nb5+  Nb91  1  0.50100316  0.25079853  0.25461403  1
  Nb5+  Nb92  1  -0.00628643  0.24605946  0.75067796  1
  Nb5+  Nb93  1  0.49333813  0.24604767  0.75434348  1
  Nb5+  Nb94  1  0.24855920  0.50135041  0.24941935  1
  Nb5+  Nb95  1  0.00189486  0.74840008  0.25151246  1
  Nb5+  Nb96  1  -0.00144704  0.00383130  0.24845811  1
  Nb5+  Nb97  1  0.00128113  -0.00060359  0.75498800  1
  Nb5+  Nb98  1  -0.00290742  0.49971819  0.25535949  1
  Nb5+  Nb99  1  0.00417303  0.50366823  0.74600055  1
  Nb5+  Nb100  1  0.49561346  -0.00159497  0.25137722  1
  Nb5+  Nb101  1  0.50070590  0.00197343  0.75386198  1
  Nb5+  Nb102  1  0.50265144  0.49635998  0.25113768  1
  Nb5+  Nb103  1  0.50171969  0.50566762  0.74992339  1
  Nb5+  Nb104  1  0.24782284  0.25181583  0.24894169  1
  Nb5+  Nb105  1  0.24105491  0.24694531  0.74533689  1
  Nb5+  Nb106  1  0.25486374  0.75208702  0.24886965  1
  Nb5+  Nb107  1  0.25096773  0.75102084  0.75072092  1
  Nb5+  Nb108  1  0.75090778  0.24610810  0.23789005  1
  Nb5+  Nb109  1  0.73996636  0.25069370  0.74269414  1
  Nb5+  Nb110  1  0.74598515  0.75458017  0.24880012  1
  Nb5+  Nb111  1  0.75091217  0.75133666  0.75060248  1
  Nb5+  Nb112  1  0.00062297  0.25009416  0.49821312  1
  Nb5+  Nb113  1  -0.00963611  0.25455718  1.00333184  1
  Nb5+  Nb114  1  0.00151585  0.74439248  0.50001218  1
  Nb5+  Nb115  1  0.00636776  0.74846892  0.99417035  1
  Nb5+  Nb116  1  0.49966952  0.25331581  0.50458190  1
  Nb5+  Nb117  1  0.49311365  0.25131074  1.00809438  1
  Nb5+  Nb118  1  0.50303167  0.75744140  0.49550638  1
  Nb5+  Nb119  1  0.50075912  0.74703787  1.00158943  1
  Nb5+  Nb120  1  0.25228116  -0.00495554  0.00172098  1
  Nb5+  Nb121  1  0.24198405  -0.00189541  0.49825686  1
  Nb5+  Nb122  1  0.25115522  0.49805328  -0.00096973  1
  Nb5+  Nb123  1  0.24358061  0.49562021  0.50344686  1
  Nb5+  Nb124  1  0.75411374  -0.00345278  0.00057111  1
  Nb5+  Nb125  1  0.74672812  -0.00302402  0.50241698  1
  Nb5+  Nb126  1  0.74433393  0.50180277  0.00099021  1
  Nb5+  Nb127  1  0.75102186  0.50378731  0.50389861  1
  O2-  O128  1  -0.02798219  -0.01222676  0.13764621  1
  O2-  O129  1  -0.01497317  -0.01196196  0.61579985  1
  O2-  O130  1  0.01387626  0.48033216  0.13844412  1
  O2-  O131  1  0.01001096  0.46648049  0.63254885  1
  O2-  O132  1  0.47928819  -0.00812538  0.13584786  1
  O2-  O133  1  0.48332074  -0.01052320  0.61295336  1
  O2-  O134  1  0.50781066  0.46768727  0.13942379  1
  O2-  O135  1  0.50793005  0.47435371  0.61251650  1
  O2-  O136  1  0.02366432  0.01673442  0.38363052  1
  O2-  O137  1  0.02502926  0.01252088  0.86547878  1
  O2-  O138  1  -0.01030003  0.53494529  0.36860593  1
  O2-  O139  1  -0.00703396  0.52241357  0.86427497  1
  O2-  O140  1  0.52294774  0.01397725  0.37808830  1
  O2-  O141  1  0.52255545  0.01908308  0.86363135  1
  O2-  O142  1  0.47616171  0.51019438  0.37687774  1
  O2-  O143  1  0.48927257  0.52572843  0.86201624  1
  O2-  O144  1  0.25097870  0.23650289  0.12399499  1
  O2-  O145  1  0.24067544  0.22183965  0.63440386  1
  O2-  O146  1  0.26295677  0.71423828  0.13615802  1
  O2-  O147  1  0.27014262  0.72707144  0.63221945  1
  O2-  O148  1  0.73962866  0.23770290  0.12323500  1
  O2-  O149  1  0.73531683  0.23188636  0.62744909  1
  O2-  O150  1  0.77630384  0.72162366  0.13776757  1
  O2-  O151  1  0.77813095  0.73398580  0.63321994  1
  O2-  O152  1  0.26237294  0.27110049  0.36317418  1
  O2-  O153  1  0.25160390  0.26797494  0.88319387  1
  O2-  O154  1  0.22954037  0.76442440  0.36322710  1
  O2-  O155  1  0.23346363  0.76642303  0.86909549  1
  O2-  O156  1  0.75523853  0.26124003  0.38223863  1
  O2-  O157  1  0.74843204  0.27191485  0.87647837  1
  O2-  O158  1  0.74006689  0.78509066  0.36498915  1
  O2-  O159  1  0.73021419  0.76587552  0.86964851  1
  O2-  O160  1  -0.01372080  0.28609423  0.11292986  1
  O2-  O161  1  0.00176810  0.26338863  0.62714331  1
  O2-  O162  1  -0.01343287  0.76175878  0.13265497  1
  O2-  O163  1  -0.02118051  0.76897712  0.61208757  1
  O2-  O164  1  0.49825179  0.27491002  0.12110057  1
  O2-  O165  1  0.49969081  0.26784595  0.62010002  1
  O2-  O166  1  0.47681704  0.76609039  0.12019300  1
  O2-  O167  1  0.47527853  0.76511298  0.61257079  1
  O2-  O168  1  0.24277045  -0.03305242  0.38349441  1
  O2-  O169  1  0.22646802  -0.00618434  0.88640244  1
  O2-  O170  1  0.26149310  0.47987448  0.36971791  1
  O2-  O171  1  0.27697614  0.48422201  0.88699659  1
  O2-  O172  1  0.73394476  -0.00348866  0.38624000  1
  O2-  O173  1  0.72557676  -0.00461113  0.88595380  1
  O2-  O174  1  0.76417276  0.47348813  0.39001898  1
  O2-  O175  1  0.76563327  0.48622133  0.88418205  1
  O2-  O176  1  -0.01569764  0.22466066  0.38622746  1
  O2-  O177  1  0.00207226  0.22516763  0.86814915  1
  O2-  O178  1  0.02559319  0.74056362  0.37140872  1
  O2-  O179  1  0.03339133  0.74180629  0.88240201  1
  O2-  O180  1  0.50163087  0.23418284  0.37090967  1
  O2-  O181  1  0.50068999  0.22705974  0.86751377  1
  O2-  O182  1  0.54031636  0.74241442  0.38444751  1
  O2-  O183  1  0.52728563  0.74352343  0.88365334  1
  O2-  O184  1  0.26379143  0.02257341  0.11901909  1
  O2-  O185  1  0.26675287  0.02770309  0.61081232  1
  O2-  O186  1  0.22766014  0.50658003  0.13228474  1
  O2-  O187  1  0.22820028  0.51118200  0.61545243  1
  O2-  O188  1  0.76665946  0.03014661  0.11633938  1
  O2-  O189  1  0.76432399  0.03004025  0.61428544  1
  O2-  O190  1  0.72364811  0.50165678  0.12039565  1
  O2-  O191  1  0.70956497  0.50453516  0.61259479  1
  O2-  O192  1  0.13275722  0.27286789  0.24849737  1
  O2-  O193  1  0.12547369  0.26946112  0.75205045  1
  O2-  O194  1  0.12620910  0.75847800  0.23225621  1
  O2-  O195  1  0.13554082  0.77238620  0.72396231  1
  O2-  O196  1  0.61891378  0.27796022  0.24844142  1
  O2-  O197  1  0.62389140  0.26992429  0.75047812  1
  O2-  O198  1  0.63438836  0.77066828  0.22402811  1
  O2-  O199  1  0.63572697  0.77029900  0.72408294  1
  O2-  O200  1  0.37914772  0.23697235  0.24052875  1
  O2-  O201  1  0.37722137  0.22790744  0.74831405  1
  O2-  O202  1  0.36612651  0.72620324  0.27300408  1
  O2-  O203  1  0.37026641  0.72374290  0.77076189  1
  O2-  O204  1  0.86222047  0.21616400  0.24301458  1
  O2-  O205  1  0.87682719  0.22941922  0.74480549  1
  O2-  O206  1  0.88568369  0.73400869  0.27041488  1
  O2-  O207  1  0.87078608  0.72362843  0.77594154  1
  O2-  O208  1  0.26204600  0.37662232  0.23191359  1
  O2-  O209  1  0.27493275  0.35936075  0.73860690  1
  O2-  O210  1  0.27030343  0.86327198  0.22394174  1
  O2-  O211  1  0.28200152  0.86752535  0.74431772  1
  O2-  O212  1  0.77124313  0.36238910  0.24413557  1
  O2-  O213  1  0.77558924  0.36136455  0.73584052  1
  O2-  O214  1  0.78133386  0.86723757  0.23076116  1
  O2-  O215  1  0.78167590  0.86811998  0.74481243  1
  O2-  O216  1  0.23228644  0.13706627  0.26387313  1
  O2-  O217  1  0.23590007  0.13650068  0.78259493  1
  O2-  O218  1  0.23476885  0.61650669  0.26902007  1
  O2-  O219  1  0.22665393  0.63038408  0.76899681  1
  O2-  O220  1  0.71690837  0.13788185  0.26596705  1
  O2-  O221  1  0.73767160  0.13923148  0.77608892  1
  O2-  O222  1  0.73492203  0.63733810  0.28178405  1
  O2-  O223  1  0.72619863  0.63132075  0.76308870  1
  O2-  O224  1  0.12674283  0.48685831  0.26780228  1
  O2-  O225  1  0.11720949  0.46696149  0.76232543  1
  O2-  O226  1  0.11522853  0.97849957  0.24511937  1
  O2-  O227  1  0.11556015  0.99145838  0.72006894  1
  O2-  O228  1  0.61292665  0.47930041  0.27810969  1
  O2-  O229  1  0.61059247  0.46239469  0.75373582  1
  O2-  O230  1  0.61417202  0.98627450  0.23689135  1
  O2-  O231  1  0.61424362  0.99632159  0.71872096  1
  O2-  O232  1  0.38563355  0.03615846  0.26904565  1
  O2-  O233  1  0.38806441  0.03617976  0.75204539  1
  O2-  O234  1  0.36987533  0.51131666  0.23876264  1
  O2-  O235  1  0.38628710  0.50770350  0.72299226  1
  O2-  O236  1  0.88813065  0.00908001  0.28870240  1
  O2-  O237  1  0.88824190  0.03286775  0.75341419  1
  O2-  O238  1  0.88346803  0.52007590  0.23409147  1
  O2-  O239  1  0.88413651  0.51084356  0.73485533  1
  O2-  O240  1  0.47620760  0.37085472  0.26948138  1
  O2-  O241  1  0.47815850  0.36490407  0.76130028  1
  O2-  O242  1  0.47601454  0.88683664  0.27256294  1
  O2-  O243  1  0.48119421  0.88865642  0.75869827  1
  O2-  O244  1  0.98596026  0.38638128  0.28320824  1
  O2-  O245  1  0.98190798  0.36384762  0.76669890  1
  O2-  O246  1  0.99269509  0.87001427  0.26565053  1
  O2-  O247  1  0.97943842  0.88596036  0.76024568  1
  O2-  O248  1  0.02217811  0.11691225  0.23468556  1
  O2-  O249  1  0.02106541  0.13013809  0.72989732  1
  O2-  O250  1  0.02015578  0.62792848  0.23441514  1
  O2-  O251  1  0.02567772  0.61481170  0.72155519  1
  O2-  O252  1  0.51955021  0.13601906  0.23225870  1
  O2-  O253  1  0.51948931  0.13486101  0.72148992  1
  O2-  O254  1  0.51555189  0.61060997  0.23420765  1
  O2-  O255  1  0.52424964  0.61341689  0.71884953  1
  O2-  O256  1  0.13822674  0.46273402  -0.00616891  1
  O2-  O257  1  0.13296026  0.46782928  0.48382864  1
  O2-  O258  1  0.13338425  0.98821959  0.02631320  1
  O2-  O259  1  0.12567023  0.98891669  0.51566592  1
  O2-  O260  1  0.63250974  0.46246872  -0.01160934  1
  O2-  O261  1  0.61395392  0.48471313  0.47519041  1
  O2-  O262  1  0.63462432  0.98912848  0.02364831  1
  O2-  O263  1  0.62803732  0.98610980  0.51611774  1
  O2-  O264  1  0.36446478  0.03428121  -0.01187151  1
  O2-  O265  1  0.38353461  0.01731252  0.47768311  1
  O2-  O266  1  0.36455723  0.51100906  0.03388005  1
  O2-  O267  1  0.37774479  0.51566462  0.51040237  1
  O2-  O268  1  0.86634852  0.03371932  -0.01800302  1
  O2-  O269  1  0.87706986  0.02408455  0.48542686  1
  O2-  O270  1  0.86420118  0.51330309  0.02207723  1
  O2-  O271  1  0.86187585  0.51440867  0.53204914  1
  O2-  O272  1  0.48481362  0.36093377  -0.03380301  1
  O2-  O273  1  0.48608572  0.36783463  0.48246653  1
  O2-  O274  1  0.48402271  0.86989280  -0.01230434  1
  O2-  O275  1  0.49478264  0.87854712  0.48142340  1
  O2-  O276  1  0.98622961  0.36392861  -0.03850587  1
  O2-  O277  1  0.96620985  0.36093542  0.48978545  1
  O2-  O278  1  0.97473339  0.86499345  -0.00898290  1
  O2-  O279  1  0.98373616  0.88470125  0.48059392  1
  O2-  O280  1  0.02219609  0.14128908  0.01939136  1
  O2-  O281  1  0.01117848  0.12605903  0.52088088  1
  O2-  O282  1  0.02556519  0.63327313  0.02204381  1
  O2-  O283  1  0.02438798  0.63405167  0.52126546  1
  O2-  O284  1  0.53063674  0.14129052  0.01147522  1
  O2-  O285  1  0.52146969  0.12268825  0.51091033  1
  O2-  O286  1  0.52107652  0.63077147  0.02473141  1
  O2-  O287  1  0.51498386  0.62115841  0.51318817  1
  O2-  O288  1  0.12666345  0.27370539  0.00391302  1
  O2-  O289  1  0.11375933  0.26898605  0.49068680  1
  O2-  O290  1  0.11856672  0.77837720  0.02263886  1
  O2-  O291  1  0.11540083  0.77984778  0.50795019  1
  O2-  O292  1  0.62726808  0.27582941  -0.00265350  1
  O2-  O293  1  0.62229755  0.25999220  0.49534906  1
  O2-  O294  1  0.61976042  0.76970063  0.02339824  1
  O2-  O295  1  0.61850593  0.76098175  0.52895656  1
  O2-  O296  1  0.37850298  0.22869548  0.00186926  1
  O2-  O297  1  0.38806917  0.22290062  0.50031351  1
  O2-  O298  1  0.38408132  0.72674101  -0.02257788  1
  O2-  O299  1  0.38913065  0.73673548  0.46812749  1
  O2-  O300  1  0.87499516  0.23139961  -0.00666436  1
  O2-  O301  1  0.86593249  0.22945246  0.51384073  1
  O2-  O302  1  0.88782744  0.72241492  -0.01861882  1
  O2-  O303  1  0.88886080  0.73670893  0.46732065  1
  O2-  O304  1  0.27583845  0.36748910  0.01931938  1
  O2-  O305  1  0.28002191  0.38201161  0.51342149  1
  O2-  O306  1  0.28005451  0.88321919  0.00795590  1
  O2-  O307  1  0.27800885  0.88610688  0.51844160  1
  O2-  O308  1  0.77531327  0.36691804  0.01859136  1
  O2-  O309  1  0.75513270  0.36648867  0.52062787  1
  O2-  O310  1  0.77919834  0.88460417  0.00904551  1
  O2-  O311  1  0.77639036  0.88805839  0.51670147  1
  O2-  O312  1  0.22949435  0.13626323  -0.01014759  1
  O2-  O313  1  0.23709049  0.11418548  0.46490623  1
  O2-  O314  1  0.22638184  0.61018300  -0.01506111  1
  O2-  O315  1  0.23637212  0.61159725  0.47642343  1
  O2-  O316  1  0.73343491  0.13877967  -0.01342152  1
  O2-  O317  1  0.73037160  0.13059049  0.48699094  1
  O2-  O318  1  0.72074698  0.61417279  -0.01127195  1
  O2-  O319  1  0.73198712  0.61519548  0.48027321  1
