# generated using pymatgen
data_Sr64Ca21Nb43O192
_symmetry_space_group_name_H-M   'P 1'
_cell_length_a   16.54977358
_cell_length_b   16.57801269
_cell_length_c   16.74453542
_cell_angle_alpha   89.95830793
_cell_angle_beta   89.96244470
_cell_angle_gamma   90.06541089
_symmetry_Int_Tables_number   1
_chemical_formula_structural   Sr64Ca21Nb43O192
_chemical_formula_sum   'Sr64 Ca21 Nb43 O192'
_cell_volume   4594.06499435
_cell_formula_units_Z   1
loop_
 _symmetry_equiv_pos_site_id
 _symmetry_equiv_pos_as_xyz
  1  'x, y, z'
loop_
 _atom_type_symbol
 _atom_type_oxidation_number
  Sr2+  2.0
  Ca2+  2.0
  Nb5+  5.0
  O2-  -2.0
loop_
 _atom_site_type_symbol
 _atom_site_label
 _atom_site_symmetry_multiplicity
 _atom_site_fract_x
 _atom_site_fract_y
 _atom_site_fract_z
 _atom_site_occupancy
  Sr2+  Sr0  1  0.11596312  0.12905556  0.12800471  1
  Sr2+  Sr1  1  0.12237528  0.11958941  0.62947243  1
  Sr2+  Sr2  1  0.12985526  0.62549385  0.11691196  1
  Sr2+  Sr3  1  0.12617410  0.62112625  0.61993099  1
  Sr2+  Sr4  1  0.63485982  0.11780452  0.11434027  1
  Sr2+  Sr5  1  0.63083712  0.10397225  0.62704910  1
  Sr2+  Sr6  1  0.62667855  0.62506969  0.13151356  1
  Sr2+  Sr7  1  0.62695208  0.64409168  0.61802759  1
  Sr2+  Sr8  1  0.36889229  0.37818949  0.11374105  1
  Sr2+  Sr9  1  0.37426787  0.38314057  0.62840577  1
  Sr2+  Sr10  1  0.37460747  0.86538387  0.12159685  1
  Sr2+  Sr11  1  0.37448553  0.87464174  0.63349702  1
  Sr2+  Sr12  1  0.86980916  0.37155768  0.12425761  1
  Sr2+  Sr13  1  0.87472931  0.36837706  0.62628204  1
  Sr2+  Sr14  1  0.87363011  0.89566549  0.12963638  1
  Sr2+  Sr15  1  0.87011231  0.88009004  0.63237436  1
  Sr2+  Sr16  1  0.13470726  0.37061867  0.37501588  1
  Sr2+  Sr17  1  0.12242778  0.37889925  0.87902565  1
  Sr2+  Sr18  1  0.12296842  0.87302146  0.36243422  1
  Sr2+  Sr19  1  0.13021901  0.87624292  0.88324847  1
  Sr2+  Sr20  1  0.62280649  0.36931860  0.37315650  1
  Sr2+  Sr21  1  0.61105554  0.35913015  0.87581713  1
  Sr2+  Sr22  1  0.61250124  0.89091587  0.37389366  1
  Sr2+  Sr23  1  0.61684281  0.88375692  0.87273950  1
  Sr2+  Sr24  1  0.39418467  0.12517528  0.37726287  1
  Sr2+  Sr25  1  0.40110684  0.12549716  0.87056931  1
  Sr2+  Sr26  1  0.37320077  0.62505902  0.37780303  1
  Sr2+  Sr27  1  0.36405419  0.62592277  0.87348511  1
  Sr2+  Sr28  1  0.87905348  0.12615929  0.37167073  1
  Sr2+  Sr29  1  0.85850616  0.13088442  0.87862638  1
  Sr2+  Sr30  1  0.87835358  0.62492366  0.37202367  1
  Sr2+  Sr31  1  0.87859001  0.62803621  0.86570355  1
  Sr2+  Sr32  1  0.13961063  0.12452067  0.37696505  1
  Sr2+  Sr33  1  0.12945192  0.11466803  0.87169620  1
  Sr2+  Sr34  1  0.12220451  0.63164165  0.37105841  1
  Sr2+  Sr35  1  0.12894600  0.63326975  0.87882532  1
  Sr2+  Sr36  1  0.62973947  0.12661760  0.38184709  1
  Sr2+  Sr37  1  0.62947441  0.12311991  0.87931638  1
  Sr2+  Sr38  1  0.62160124  0.62881397  0.37579606  1
  Sr2+  Sr39  1  0.63324467  0.63226986  0.85321389  1
  Sr2+  Sr40  1  0.37204957  0.36662640  0.37779398  1
  Sr2+  Sr41  1  0.36905312  0.37122374  0.86988303  1
  Sr2+  Sr42  1  0.36520297  0.88291450  0.36723539  1
  Sr2+  Sr43  1  0.36660083  0.89048157  0.87712478  1
  Sr2+  Sr44  1  0.87445475  0.36948166  0.37218261  1
  Sr2+  Sr45  1  0.88190515  0.36765787  0.87459711  1
  Sr2+  Sr46  1  0.88365554  0.88057887  0.36850715  1
  Sr2+  Sr47  1  0.88062928  0.89170794  0.88163875  1
  Sr2+  Sr48  1  0.10959997  0.37954321  0.12343886  1
  Sr2+  Sr49  1  0.12385600  0.38076949  0.62118800  1
  Sr2+  Sr50  1  0.11945382  0.86436741  0.12701375  1
  Sr2+  Sr51  1  0.11189045  0.87655332  0.62869783  1
  Sr2+  Sr52  1  0.62053827  0.37812681  0.12503651  1
  Sr2+  Sr53  1  0.62736179  0.37747677  0.62235347  1
  Sr2+  Sr54  1  0.61854384  0.86979716  0.12409915  1
  Sr2+  Sr55  1  0.62489379  0.86778659  0.62539015  1
  Sr2+  Sr56  1  0.38578635  0.13804593  0.12070690  1
  Sr2+  Sr57  1  0.38029270  0.11969750  0.62926991  1
  Sr2+  Sr58  1  0.38007435  0.62753139  0.12454457  1
  Sr2+  Sr59  1  0.39261868  0.62102058  0.62287732  1
  Sr2+  Sr60  1  0.87268334  0.12788063  0.10291450  1
  Sr2+  Sr61  1  0.86849883  0.12650312  0.62311722  1
  Sr2+  Sr62  1  0.85347232  0.61985776  0.12698532  1
  Sr2+  Sr63  1  0.85470807  0.62558196  0.62412036  1
  Ca2+  Ca64  1  0.49677797  -0.00276356  0.00441547  1
  Ca2+  Ca65  1  0.50024912  0.50293196  -0.00263235  1
  Ca2+  Ca66  1  0.00009152  0.00255711  0.50059265  1
  Ca2+  Ca67  1  0.49851163  0.00012434  0.50198466  1
  Ca2+  Ca68  1  0.00570255  -0.00049280  0.00140871  1
  Ca2+  Ca69  1  0.74961063  0.74905645  0.00010238  1
  Ca2+  Ca70  1  0.24666328  0.24796088  -0.00782224  1
  Ca2+  Ca71  1  0.75403221  0.75194270  0.49431038  1
  Ca2+  Ca72  1  0.24753569  0.75008155  0.50045699  1
  Ca2+  Ca73  1  0.74884845  0.25768350  0.00119630  1
  Ca2+  Ca74  1  0.00088280  0.74894022  0.75151188  1
  Ca2+  Ca75  1  0.25171417  0.00450010  0.24611743  1
  Ca2+  Ca76  1  0.74767782  0.00181688  0.25138737  1
  Ca2+  Ca77  1  0.50081257  0.25050890  0.74451518  1
  Ca2+  Ca78  1  0.49961122  0.25350775  0.24836044  1
  Ca2+  Ca79  1  0.00144901  0.25471463  0.25346412  1
  Ca2+  Ca80  1  0.74983466  0.49631035  0.74891786  1
  Ca2+  Ca81  1  0.00064796  0.24729710  0.74731492  1
  Ca2+  Ca82  1  0.49617383  0.74884085  0.75033494  1
  Ca2+  Ca83  1  0.24984043  0.49456107  0.25002705  1
  Ca2+  Ca84  1  0.75058698  -0.00089905  0.75285477  1
  Nb5+  Nb85  1  -0.00387118  0.50408555  -0.00633650  1
  Nb5+  Nb86  1  0.00221768  0.49778286  0.49272595  1
  Nb5+  Nb87  1  0.50749015  0.49831368  0.49896160  1
  Nb5+  Nb88  1  0.25733540  0.24688312  0.50230073  1
  Nb5+  Nb89  1  0.25318079  0.75083338  -0.00129916  1
  Nb5+  Nb90  1  0.75264907  0.25015849  0.49830937  1
  Nb5+  Nb91  1  0.74891477  0.49904601  0.25297083  1
  Nb5+  Nb92  1  0.24599875  0.50462717  0.74821890  1
  Nb5+  Nb93  1  0.24936497  0.00510660  0.75004281  1
  Nb5+  Nb94  1  0.49619665  0.74893660  0.25470645  1
  Nb5+  Nb95  1  -0.00984824  0.74809634  0.24457932  1
  Nb5+  Nb96  1  0.00366526  0.00785701  0.25403624  1
  Nb5+  Nb97  1  -0.00330284  0.00263973  0.75242728  1
  Nb5+  Nb98  1  -0.00110781  0.50230183  0.24360525  1
  Nb5+  Nb99  1  -0.00141837  0.50351139  0.74006211  1
  Nb5+  Nb100  1  0.50160316  0.00579460  0.24705820  1
  Nb5+  Nb101  1  0.50223504  -0.00546546  0.74865498  1
  Nb5+  Nb102  1  0.49695505  0.50179836  0.25327365  1
  Nb5+  Nb103  1  0.50162323  0.49972382  0.75380275  1
  Nb5+  Nb104  1  0.25348803  0.25071008  0.24125249  1
  Nb5+  Nb105  1  0.24616492  0.25397570  0.74706636  1
  Nb5+  Nb106  1  0.24642278  0.74781005  0.25036069  1
  Nb5+  Nb107  1  0.24544168  0.75501322  0.74645906  1
  Nb5+  Nb108  1  0.74721232  0.24828009  0.25009255  1
  Nb5+  Nb109  1  0.74805326  0.25275320  0.75227737  1
  Nb5+  Nb110  1  0.74299828  0.75381368  0.25234158  1
  Nb5+  Nb111  1  0.75393424  0.75171773  0.75161661  1
  Nb5+  Nb112  1  0.00877184  0.25082082  0.49843027  1
  Nb5+  Nb113  1  0.00577227  0.24700933  0.99723610  1
  Nb5+  Nb114  1  0.00039489  0.75028798  0.50353342  1
  Nb5+  Nb115  1  -0.00644047  0.74805187  1.00454326  1
  Nb5+  Nb116  1  0.50702088  0.25149686  0.50324858  1
  Nb5+  Nb117  1  0.49793517  0.25258442  1.00057795  1
  Nb5+  Nb118  1  0.49504112  0.75484756  0.49548699  1
  Nb5+  Nb119  1  0.50120154  0.74421957  0.99211395  1
  Nb5+  Nb120  1  0.25129974  0.00588888  0.00659438  1
  Nb5+  Nb121  1  0.25184047  -0.00461268  0.50275208  1
  Nb5+  Nb122  1  0.24825963  0.49877313  0.00146479  1
  Nb5+  Nb123  1  0.25266157  0.49827465  0.49958360  1
  Nb5+  Nb124  1  0.74987053  -0.00284922  0.00041537  1
  Nb5+  Nb125  1  0.75569941  -0.00542125  0.49902653  1
  Nb5+  Nb126  1  0.74675669  0.50013866  -0.00742464  1
  Nb5+  Nb127  1  0.75501285  0.49871812  0.49944517  1
  O2-  O128  1  -0.01652600  0.02497386  0.13680427  1
  O2-  O129  1  -0.01836896  0.02294486  0.63457718  1
  O2-  O130  1  0.01573702  0.51835680  0.12967878  1
  O2-  O131  1  0.01558722  0.51430084  0.62547836  1
  O2-  O132  1  0.47874411  -0.03156378  0.13837076  1
  O2-  O133  1  0.47677261  -0.02176661  0.63317917  1
  O2-  O134  1  0.51097713  0.48381625  0.13986310  1
  O2-  O135  1  0.50482261  0.47808226  0.61663945  1
  O2-  O136  1  0.01481779  -0.03059148  0.36812905  1
  O2-  O137  1  0.02376469  -0.02327464  0.86713583  1
  O2-  O138  1  -0.01857954  0.48911359  0.38006713  1
  O2-  O139  1  -0.01270295  0.48918294  0.87948034  1
  O2-  O140  1  0.52294968  0.01996199  0.36830832  1
  O2-  O141  1  0.51950480  0.01374778  0.86718570  1
  O2-  O142  1  0.49294089  0.52509178  0.38158047  1
  O2-  O143  1  0.48227965  0.52775813  0.86262604  1
  O2-  O144  1  0.26839450  0.24994365  0.12808636  1
  O2-  O145  1  0.27816649  0.24377917  0.61983907  1
  O2-  O146  1  0.24416731  0.74254426  0.12065194  1
  O2-  O147  1  0.21646579  0.75379437  0.63550517  1
  O2-  O148  1  0.76974572  0.25128445  0.13672936  1
  O2-  O149  1  0.75912642  0.26275496  0.61598804  1
  O2-  O150  1  0.72330169  0.74744014  0.13695395  1
  O2-  O151  1  0.74093279  0.76739366  0.63018134  1
  O2-  O152  1  0.23894477  0.25570961  0.38308590  1
  O2-  O153  1  0.21233282  0.25177021  0.85686651  1
  O2-  O154  1  0.26552197  0.75370405  0.36369572  1
  O2-  O155  1  0.26851695  0.74831525  0.87977090  1
  O2-  O156  1  0.72810347  0.25088371  0.37999888  1
  O2-  O157  1  0.73613825  0.25258745  0.86680165  1
  O2-  O158  1  0.77312266  0.73262943  0.36261172  1
  O2-  O159  1  0.75929532  0.72121348  0.86729948  1
  O2-  O160  1  -0.00762532  0.23804870  0.11780193  1
  O2-  O161  1  -0.02434009  0.24042426  0.60916280  1
  O2-  O162  1  0.02495672  0.73111691  0.12969081  1
  O2-  O163  1  0.02692114  0.73481869  0.61365313  1
  O2-  O164  1  0.47574416  0.27828511  0.11685774  1
  O2-  O165  1  0.48132006  0.28096069  0.61209424  1
  O2-  O166  1  0.50885684  0.76456445  0.13925519  1
  O2-  O167  1  0.50592118  0.76801809  0.61234350  1
  O2-  O168  1  0.22834248  -0.00830337  0.38815195  1
  O2-  O169  1  0.22987319  -0.00766036  0.86865589  1
  O2-  O170  1  0.26261100  0.48508926  0.38618916  1
  O2-  O171  1  0.25856548  0.50260305  0.86695387  1
  O2-  O172  1  0.72652817  0.00831539  0.38607845  1
  O2-  O173  1  0.72381983  -0.00604681  0.88436325  1
  O2-  O174  1  0.76411431  0.50849683  0.37600384  1
  O2-  O175  1  0.76381487  0.52155999  0.88272575  1
  O2-  O176  1  0.00508143  0.28999316  0.38794317  1
  O2-  O177  1  0.00826645  0.27997233  0.88278090  1
  O2-  O178  1  -0.01827756  0.75897666  0.36304084  1
  O2-  O179  1  -0.01761610  0.76156007  0.89076473  1
  O2-  O180  1  0.51104885  0.23304830  0.38509990  1
  O2-  O181  1  0.52146937  0.23127660  0.88128407  1
  O2-  O182  1  0.49003830  0.71990227  0.37519012  1
  O2-  O183  1  0.49163226  0.71314971  0.88355769  1
  O2-  O184  1  0.28558298  0.00770664  0.11454592  1
  O2-  O185  1  0.27460370  0.00052985  0.63220111  1
  O2-  O186  1  0.22683730  0.48912971  0.11429560  1
  O2-  O187  1  0.23405203  0.49735374  0.62473768  1
  O2-  O188  1  0.77187041  0.01353347  0.11912360  1
  O2-  O189  1  0.77097362  0.00295877  0.61873186  1
  O2-  O190  1  0.74455061  0.48795972  0.13463640  1
  O2-  O191  1  0.74428646  0.48013469  0.61307103  1
  O2-  O192  1  0.13775615  0.28998506  0.24371854  1
  O2-  O193  1  0.13603687  0.25686482  0.70397690  1
  O2-  O194  1  0.12771252  0.76082586  0.25878304  1
  O2-  O195  1  0.13535055  0.76056683  0.78604583  1
  O2-  O196  1  0.63512334  0.28799805  0.24279289  1
  O2-  O197  1  0.63409111  0.28711595  0.73604305  1
  O2-  O198  1  0.62644949  0.76348920  0.27502571  1
  O2-  O199  1  0.63268856  0.77349259  0.76548655  1
  O2-  O200  1  0.36503323  0.21195240  0.26309024  1
  O2-  O201  1  0.36109367  0.23069068  0.76571902  1
  O2-  O202  1  0.37960001  0.72841199  0.24176727  1
  O2-  O203  1  0.35851907  0.72094224  0.73715369  1
  O2-  O204  1  0.86308717  0.24297816  0.27808070  1
  O2-  O205  1  0.86409912  0.21549625  0.75125878  1
  O2-  O206  1  0.87680795  0.73264408  0.22620116  1
  O2-  O207  1  0.86958963  0.71815977  0.73695253  1
  O2-  O208  1  0.29303524  0.36471430  0.24983639  1
  O2-  O209  1  0.26505976  0.37251460  0.74405733  1
  O2-  O210  1  0.26837138  0.86375138  0.23515140  1
  O2-  O211  1  0.26815036  0.87052047  0.74981081  1
  O2-  O212  1  0.77191562  0.38251994  0.26060023  1
  O2-  O213  1  0.78981065  0.36573612  0.75277342  1
  O2-  O214  1  0.77358072  0.86444127  0.25250329  1
  O2-  O215  1  0.78702059  0.86513987  0.76387031  1
  O2-  O216  1  0.21072203  0.13695962  0.24679285  1
  O2-  O217  1  0.23200594  0.12092686  0.74587097  1
  O2-  O218  1  0.23442301  0.63040422  0.24573093  1
  O2-  O219  1  0.22484198  0.61978020  0.74919869  1
  O2-  O220  1  0.71818474  0.13706343  0.25369088  1
  O2-  O221  1  0.71655494  0.13478593  0.74588417  1
  O2-  O222  1  0.73728008  0.62105442  0.24466420  1
  O2-  O223  1  0.72270489  0.63079423  0.72904652  1
  O2-  O224  1  0.11072471  0.48809780  0.27261489  1
  O2-  O225  1  0.12915219  0.47321810  0.75489375  1
  O2-  O226  1  0.11633536  0.97595927  0.23063850  1
  O2-  O227  1  0.13395852  0.98172305  0.72968055  1
  O2-  O228  1  0.63066914  0.48973398  0.26776992  1
  O2-  O229  1  0.61347310  0.47609797  0.76685106  1
  O2-  O230  1  0.61444317  0.96592521  0.23918699  1
  O2-  O231  1  0.61561426  0.97276269  0.73093284  1
  O2-  O232  1  0.38598605  0.00695508  0.27959059  1
  O2-  O233  1  0.36897012  0.01244166  0.76924427  1
  O2-  O234  1  0.38578441  0.52923846  0.24600281  1
  O2-  O235  1  0.36465357  0.51554487  0.73190686  1
  O2-  O236  1  0.88494409  0.00308543  0.27326633  1
  O2-  O237  1  0.88544300  0.01724061  0.78024407  1
  O2-  O238  1  0.87527605  0.52418685  0.24697615  1
  O2-  O239  1  0.88641830  0.52914687  0.73975111  1
  O2-  O240  1  0.48919727  0.39012179  0.28248490  1
  O2-  O241  1  0.46805020  0.38678268  0.75925169  1
  O2-  O242  1  0.48618356  0.86154151  0.28077344  1
  O2-  O243  1  0.47225610  0.88006615  0.77173414  1
  O2-  O244  1  0.97551045  0.38971170  0.23262913  1
  O2-  O245  1  0.98392197  0.38623035  0.73944746  1
  O2-  O246  1  0.98788612  0.86511466  0.23008727  1
  O2-  O247  1  0.99166775  0.88388227  0.72531191  1
  O2-  O248  1  0.01949271  0.11921726  0.27963016  1
  O2-  O249  1  0.03410215  0.11500763  0.76196805  1
  O2-  O250  1  0.00966163  0.62641071  0.26728255  1
  O2-  O251  1  0.03149027  0.61252042  0.76901138  1
  O2-  O252  1  0.51789457  0.11600441  0.21977385  1
  O2-  O253  1  0.50485585  0.11333673  0.72819979  1
  O2-  O254  1  0.52731489  0.62577800  0.24594793  1
  O2-  O255  1  0.51455462  0.61279562  0.71719556  1
  O2-  O256  1  0.12301181  0.49041108  -0.01573618  1
  O2-  O257  1  0.12229847  0.47815136  0.48987935  1
  O2-  O258  1  0.14029314  0.96433710  0.01611826  1
  O2-  O259  1  0.13703198  0.99222180  0.53379079  1
  O2-  O260  1  0.63572607  0.46948354  -0.01074355  1
  O2-  O261  1  0.62459704  0.48288866  0.48679640  1
  O2-  O262  1  0.63282070  0.98022147  0.02586010  1
  O2-  O263  1  0.63565545  0.98087922  0.52341086  1
  O2-  O264  1  0.36233693  0.01397898  -0.03308747  1
  O2-  O265  1  0.36300232  0.03598578  0.49349315  1
  O2-  O266  1  0.36285661  0.52016304  0.01534233  1
  O2-  O267  1  0.37164040  0.50812881  0.51329530  1
  O2-  O268  1  0.87127363  0.02088746  -0.02044345  1
  O2-  O269  1  0.86611419  0.03658794  0.48529572  1
  O2-  O270  1  0.88331437  0.52992099  0.00963561  1
  O2-  O271  1  0.87591548  0.51218618  0.51024168  1
  O2-  O272  1  0.47675451  0.36971754  -0.02790838  1
  O2-  O273  1  0.48832957  0.38033441  0.47537705  1
  O2-  O274  1  0.46957277  0.85838780  -0.00951066  1
  O2-  O275  1  0.47669902  0.86550738  0.47075814  1
  O2-  O276  1  0.98461332  0.39039325  0.02132390  1
  O2-  O277  1  0.98879472  0.38311460  0.52407171  1
  O2-  O278  1  0.98847478  0.86180988  0.02917159  1
  O2-  O279  1  0.97932158  0.86308015  0.51646889  1
  O2-  O280  1  0.03050661  0.13537011  -0.01447517  1
  O2-  O281  1  0.01836537  0.13942187  0.47238475  1
  O2-  O282  1  0.02615365  0.62463215  -0.00646913  1
  O2-  O283  1  0.02367634  0.61477356  0.48795454  1
  O2-  O284  1  0.51371476  0.13348669  0.02620976  1
  O2-  O285  1  0.51485423  0.13831540  0.52656973  1
  O2-  O286  1  0.51078143  0.63552210  0.03718687  1
  O2-  O287  1  0.51485361  0.61637620  0.51695224  1
  O2-  O288  1  0.11672069  0.28591200  0.01310312  1
  O2-  O289  1  0.12427518  0.26843325  0.51327313  1
  O2-  O290  1  0.13171529  0.76053220  -0.00844961  1
  O2-  O291  1  0.11291040  0.75875560  0.46408178  1
  O2-  O292  1  0.61584285  0.27610840  0.01678436  1
  O2-  O293  1  0.62257314  0.27601083  0.50912856  1
  O2-  O294  1  0.61336285  0.77340309  -0.01264986  1
  O2-  O295  1  0.61467827  0.75737971  0.48375971  1
  O2-  O296  1  0.38027603  0.22630292  -0.01826161  1
  O2-  O297  1  0.37367127  0.24127635  0.48250363  1
  O2-  O298  1  0.37116283  0.72560962  0.01225161  1
  O2-  O299  1  0.38202668  0.71839724  0.50660096  1
  O2-  O300  1  0.88597144  0.23707005  -0.01271990  1
  O2-  O301  1  0.86840202  0.24019905  0.48161274  1
  O2-  O302  1  0.88521165  0.72129595  0.02256612  1
  O2-  O303  1  0.88946276  0.71291919  0.50315421  1
  O2-  O304  1  0.26685435  0.38544078  -0.01635329  1
  O2-  O305  1  0.25780328  0.37189443  0.51187588  1
  O2-  O306  1  0.27208829  0.86743001  0.00168446  1
  O2-  O307  1  0.28059789  0.88377357  0.50818357  1
  O2-  O308  1  0.78958924  0.39056046  -0.00084145  1
  O2-  O309  1  0.76259978  0.37606629  0.48433823  1
  O2-  O310  1  0.78212694  0.88203615  0.00474284  1
  O2-  O311  1  0.78719140  0.88442666  0.49047448  1
  O2-  O312  1  0.21475377  0.11457330  0.00228427  1
  O2-  O313  1  0.22689182  0.13279155  0.50393276  1
  O2-  O314  1  0.23327919  0.62345957  -0.00726206  1
  O2-  O315  1  0.22818651  0.61159115  0.49679990  1
  O2-  O316  1  0.73398332  0.12083991  -0.00514552  1
  O2-  O317  1  0.72610289  0.13567669  0.50704475  1
  O2-  O318  1  0.73315038  0.61166702  0.02524591  1
  O2-  O319  1  0.73292050  0.61307179  0.50866085  1
