# generated using pymatgen
data_Sr64Ca21Nb43O192
_symmetry_space_group_name_H-M   'P 1'
_cell_length_a   16.55519180
_cell_length_b   16.54938303
_cell_length_c   16.73857688
_cell_angle_alpha   89.97822862
_cell_angle_beta   90.00945586
_cell_angle_gamma   90.05716068
_symmetry_Int_Tables_number   1
_chemical_formula_structural   Sr64Ca21Nb43O192
_chemical_formula_sum   'Sr64 Ca21 Nb43 O192'
_cell_volume   4586.00266134
_cell_formula_units_Z   1
loop_
 _symmetry_equiv_pos_site_id
 _symmetry_equiv_pos_as_xyz
  1  'x, y, z'
loop_
 _atom_type_symbol
 _atom_type_oxidation_number
  Sr2+  2.0
  Ca2+  2.0
  Nb5+  5.0
  O2-  -2.0
loop_
 _atom_site_type_symbol
 _atom_site_label
 _atom_site_symmetry_multiplicity
 _atom_site_fract_x
 _atom_site_fract_y
 _atom_site_fract_z
 _atom_site_occupancy
  Sr2+  Sr0  1  0.12555867  0.13850677  0.12064947  1
  Sr2+  Sr1  1  0.12691740  0.13977658  0.63061149  1
  Sr2+  Sr2  1  0.12428046  0.62384019  0.11209494  1
  Sr2+  Sr3  1  0.12027736  0.63343212  0.62999008  1
  Sr2+  Sr4  1  0.62226189  0.12531437  0.12040718  1
  Sr2+  Sr5  1  0.61550275  0.14194231  0.63010070  1
  Sr2+  Sr6  1  0.62796054  0.62625229  0.11782226  1
  Sr2+  Sr7  1  0.62406071  0.63036371  0.63040777  1
  Sr2+  Sr8  1  0.37419152  0.38660739  0.12746040  1
  Sr2+  Sr9  1  0.37185298  0.37124944  0.62257935  1
  Sr2+  Sr10  1  0.37865488  0.88089805  0.12114808  1
  Sr2+  Sr11  1  0.37750787  0.89411483  0.62493457  1
  Sr2+  Sr12  1  0.87500748  0.37687451  0.11388513  1
  Sr2+  Sr13  1  0.87173828  0.37727798  0.62911817  1
  Sr2+  Sr14  1  0.87571089  0.87789470  0.12776340  1
  Sr2+  Sr15  1  0.87255452  0.88221921  0.62448534  1
  Sr2+  Sr16  1  0.12825693  0.36923700  0.38360307  1
  Sr2+  Sr17  1  0.11768769  0.36774336  0.88962120  1
  Sr2+  Sr18  1  0.11328609  0.88477035  0.38273329  1
  Sr2+  Sr19  1  0.12319577  0.87629289  0.87109712  1
  Sr2+  Sr20  1  0.61961724  0.37370597  0.37474128  1
  Sr2+  Sr21  1  0.63083230  0.37793913  0.86830198  1
  Sr2+  Sr22  1  0.62942688  0.87568842  0.37508787  1
  Sr2+  Sr23  1  0.61992510  0.87783395  0.88059493  1
  Sr2+  Sr24  1  0.36450230  0.12752405  0.37507232  1
  Sr2+  Sr25  1  0.36510574  0.11652268  0.87563293  1
  Sr2+  Sr26  1  0.37108964  0.62756719  0.37071997  1
  Sr2+  Sr27  1  0.36521688  0.62270013  0.87519937  1
  Sr2+  Sr28  1  0.89886616  0.12004590  0.37202720  1
  Sr2+  Sr29  1  0.90940380  0.12640808  0.87673870  1
  Sr2+  Sr30  1  0.87428318  0.62294922  0.36762945  1
  Sr2+  Sr31  1  0.87993649  0.62824032  0.87471147  1
  Sr2+  Sr32  1  0.12338203  0.13164965  0.37350094  1
  Sr2+  Sr33  1  0.12501699  0.12106766  0.87687269  1
  Sr2+  Sr34  1  0.11582004  0.62695090  0.37253103  1
  Sr2+  Sr35  1  0.12048864  0.63943341  0.87952779  1
  Sr2+  Sr36  1  0.62533264  0.13237812  0.37022671  1
  Sr2+  Sr37  1  0.62467486  0.12713781  0.88077982  1
  Sr2+  Sr38  1  0.63029819  0.62802430  0.37391079  1
  Sr2+  Sr39  1  0.63392310  0.62439555  0.87143450  1
  Sr2+  Sr40  1  0.37818329  0.36837481  0.37028496  1
  Sr2+  Sr41  1  0.36828729  0.37081434  0.88448619  1
  Sr2+  Sr42  1  0.37046744  0.88446727  0.37520058  1
  Sr2+  Sr43  1  0.37378347  0.88648648  0.86898199  1
  Sr2+  Sr44  1  0.87083597  0.37218914  0.37335874  1
  Sr2+  Sr45  1  0.87446266  0.35879121  0.87357574  1
  Sr2+  Sr46  1  0.86669630  0.88946741  0.37259962  1
  Sr2+  Sr47  1  0.87821621  0.89800488  0.87059112  1
  Sr2+  Sr48  1  0.13465635  0.38904427  0.12092081  1
  Sr2+  Sr49  1  0.11572163  0.38178546  0.62003539  1
  Sr2+  Sr50  1  0.12341082  0.85602942  0.12369860  1
  Sr2+  Sr51  1  0.14319634  0.86905591  0.62680221  1
  Sr2+  Sr52  1  0.62806021  0.37646380  0.12435933  1
  Sr2+  Sr53  1  0.61296262  0.38768263  0.62480987  1
  Sr2+  Sr54  1  0.62644687  0.87210032  0.12017529  1
  Sr2+  Sr55  1  0.61682325  0.87342580  0.62668684  1
  Sr2+  Sr56  1  0.37831804  0.12062297  0.11051246  1
  Sr2+  Sr57  1  0.37160373  0.12501755  0.64479892  1
  Sr2+  Sr58  1  0.35463225  0.62711790  0.12969869  1
  Sr2+  Sr59  1  0.36898203  0.62515432  0.62522181  1
  Sr2+  Sr60  1  0.87758341  0.12226365  0.11423812  1
  Sr2+  Sr61  1  0.87979466  0.12904571  0.65600400  1
  Sr2+  Sr62  1  0.89500849  0.62933909  0.12501462  1
  Sr2+  Sr63  1  0.87665269  0.62949882  0.62867381  1
  Ca2+  Ca64  1  0.50416888  -0.00020936  0.49508494  1
  Ca2+  Ca65  1  0.00414801  -0.00441751  0.00409254  1
  Ca2+  Ca66  1  0.50245445  0.50056123  0.00270582  1
  Ca2+  Ca67  1  -0.00184428  0.50132240  -0.00159687  1
  Ca2+  Ca68  1  -0.00172107  0.00091134  0.50420458  1
  Ca2+  Ca69  1  0.25061798  0.24821055  0.00471403  1
  Ca2+  Ca70  1  0.25263090  0.75453012  0.00176043  1
  Ca2+  Ca71  1  0.75091186  0.75100226  0.00000943  1
  Ca2+  Ca72  1  0.75021227  0.25056021  0.50260465  1
  Ca2+  Ca73  1  0.74863188  0.24922974  -0.00127110  1
  Ca2+  Ca74  1  0.49913690  0.25408045  0.75106515  1
  Ca2+  Ca75  1  0.25023448  -0.00226516  0.24912878  1
  Ca2+  Ca76  1  -0.00303997  0.75206565  0.74671761  1
  Ca2+  Ca77  1  -0.00066463  0.75334816  0.25251020  1
  Ca2+  Ca78  1  0.24732640  -0.00200888  0.74798409  1
  Ca2+  Ca79  1  0.24954943  0.50016697  0.25486728  1
  Ca2+  Ca80  1  0.74862977  0.00079785  0.75159361  1
  Ca2+  Ca81  1  0.24734534  0.49717569  0.75175063  1
  Ca2+  Ca82  1  -0.00059445  0.25589099  0.24797767  1
  Ca2+  Ca83  1  0.00523203  0.25566422  0.75065680  1
  Ca2+  Ca84  1  0.49624017  0.74679003  0.74723563  1
  Nb5+  Nb85  1  -0.00808914  0.50305255  0.50051632  1
  Nb5+  Nb86  1  0.49301561  0.50456492  0.49746402  1
  Nb5+  Nb87  1  0.50071862  -0.00087573  -0.00077871  1
  Nb5+  Nb88  1  0.74800830  0.75050570  0.50010174  1
  Nb5+  Nb89  1  0.25081840  0.25630504  0.50123855  1
  Nb5+  Nb90  1  0.24781263  0.75399336  0.49910777  1
  Nb5+  Nb91  1  0.74843169  0.00086902  0.24920426  1
  Nb5+  Nb92  1  0.50065833  0.75493880  0.24907037  1
  Nb5+  Nb93  1  0.74980511  0.49879132  0.24623295  1
  Nb5+  Nb94  1  0.75011833  0.50078829  0.74343327  1
  Nb5+  Nb95  1  0.49807867  0.25506529  0.24649227  1
  Nb5+  Nb96  1  0.00650009  -0.00183686  0.24609303  1
  Nb5+  Nb97  1  0.00118321  -0.00284622  0.74529914  1
  Nb5+  Nb98  1  0.00307277  0.49566014  0.25073768  1
  Nb5+  Nb99  1  0.00054487  0.49709916  0.75482768  1
  Nb5+  Nb100  1  0.50259698  0.00667422  0.25038422  1
  Nb5+  Nb101  1  0.50486025  0.00109196  0.74675270  1
  Nb5+  Nb102  1  0.50497717  0.50825118  0.25108328  1
  Nb5+  Nb103  1  0.49578076  0.50130173  0.75501992  1
  Nb5+  Nb104  1  0.25034714  0.24965869  0.24706454  1
  Nb5+  Nb105  1  0.24906586  0.25255298  0.75676040  1
  Nb5+  Nb106  1  0.24689454  0.75434987  0.25531116  1
  Nb5+  Nb107  1  0.25130544  0.74607475  0.75339404  1
  Nb5+  Nb108  1  0.75170233  0.24527511  0.25404057  1
  Nb5+  Nb109  1  0.74601182  0.24699196  0.74912340  1
  Nb5+  Nb110  1  0.74677312  0.74560139  0.24922017  1
  Nb5+  Nb111  1  0.75081523  0.75303797  0.75084091  1
  Nb5+  Nb112  1  -0.00410314  0.24966218  0.49694432  1
  Nb5+  Nb113  1  -0.00021718  0.25056763  1.00491444  1
  Nb5+  Nb114  1  -0.00953854  0.74954782  0.49617849  1
  Nb5+  Nb115  1  -0.00372010  0.75328601  0.99642429  1
  Nb5+  Nb116  1  0.49893874  0.24882750  0.49825069  1
  Nb5+  Nb117  1  0.49955374  0.25410244  0.99813474  1
  Nb5+  Nb118  1  0.49214248  0.74598026  0.49861032  1
  Nb5+  Nb119  1  0.49952532  0.74771859  0.99522922  1
  Nb5+  Nb120  1  0.24561380  -0.00675934  0.00386826  1
  Nb5+  Nb121  1  0.24878286  0.00672037  0.49790089  1
  Nb5+  Nb122  1  0.25245960  0.50207118  -0.00097941  1
  Nb5+  Nb123  1  0.24302618  0.50638038  0.49634444  1
  Nb5+  Nb124  1  0.75183517  0.00047346  -0.00118288  1
  Nb5+  Nb125  1  0.74464057  0.00707962  0.50223509  1
  Nb5+  Nb126  1  0.75151118  0.50031493  -0.00923112  1
  Nb5+  Nb127  1  0.74522050  0.50053036  0.49635813  1
  O2-  O128  1  -0.03321035  -0.00130111  0.13550888  1
  O2-  O129  1  -0.03498405  0.00132730  0.63171237  1
  O2-  O130  1  0.01416535  0.49479535  0.13585721  1
  O2-  O131  1  0.00898387  0.49497412  0.61824831  1
  O2-  O132  1  0.48858149  0.00625924  0.12723376  1
  O2-  O133  1  0.49738137  0.01647918  0.63100705  1
  O2-  O134  1  0.53358011  0.50350306  0.13981537  1
  O2-  O135  1  0.51396868  0.51867891  0.61150511  1
  O2-  O136  1  0.01661234  0.00913859  0.36678941  1
  O2-  O137  1  0.02321614  0.00054608  0.86708722  1
  O2-  O138  1  -0.01991246  0.50584583  0.37946317  1
  O2-  O139  1  -0.02479198  0.50788849  0.86507607  1
  O2-  O140  1  0.52679283  -0.01467230  0.36087224  1
  O2-  O141  1  0.51028497  -0.01073487  0.88140601  1
  O2-  O142  1  0.49163921  0.48619715  0.37333626  1
  O2-  O143  1  0.48882460  0.47668154  0.86608344  1
  O2-  O144  1  0.27558345  0.22869372  0.13817222  1
  O2-  O145  1  0.27447632  0.23780155  0.61452052  1
  O2-  O146  1  0.23416472  0.73756493  0.14013250  1
  O2-  O147  1  0.24869200  0.72730429  0.61419497  1
  O2-  O148  1  0.76569553  0.26252296  0.13996875  1
  O2-  O149  1  0.78340924  0.25406723  0.63397446  1
  O2-  O150  1  0.73346313  0.74765793  0.13690911  1
  O2-  O151  1  0.76554825  0.74377118  0.61590081  1
  O2-  O152  1  0.23583305  0.25989756  0.38052971  1
  O2-  O153  1  0.22745382  0.26048965  0.86898018  1
  O2-  O154  1  0.26801502  0.76065283  0.38203039  1
  O2-  O155  1  0.25685342  0.75803456  0.86668850  1
  O2-  O156  1  0.71658083  0.25814981  0.36668088  1
  O2-  O157  1  0.71541714  0.25455620  0.86429568  1
  O2-  O158  1  0.75021881  0.74421258  0.37840960  1
  O2-  O159  1  0.73038887  0.75155597  0.86367519  1
  O2-  O160  1  -0.03343305  0.25144713  0.11861275  1
  O2-  O161  1  -0.01614409  0.26105922  0.61203464  1
  O2-  O162  1  0.00602152  0.75594400  0.11943376  1
  O2-  O163  1  0.00402852  0.73973358  0.61076150  1
  O2-  O164  1  0.47557563  0.24037568  0.13371970  1
  O2-  O165  1  0.47449450  0.23744603  0.61112477  1
  O2-  O166  1  0.52105385  0.74058499  0.13590098  1
  O2-  O167  1  0.50055946  0.71976560  0.61002796  1
  O2-  O168  1  0.23379998  -0.02498602  0.38396195  1
  O2-  O169  1  0.24292069  -0.00892383  0.88271262  1
  O2-  O170  1  0.27499823  0.48373219  0.38753215  1
  O2-  O171  1  0.27992631  0.49349572  0.88380660  1
  O2-  O172  1  0.72252030  0.00077057  0.36655522  1
  O2-  O173  1  0.73225932  -0.01969160  0.88740096  1
  O2-  O174  1  0.76446039  0.50974193  0.37987188  1
  O2-  O175  1  0.76016735  0.51031365  0.87311227  1
  O2-  O176  1  0.03311336  0.25589548  0.38240618  1
  O2-  O177  1  0.02927372  0.24312353  0.88362002  1
  O2-  O178  1  0.00992736  0.73188849  0.38395695  1
  O2-  O179  1  0.00010340  0.74187931  0.87912103  1
  O2-  O180  1  0.51366089  0.26417495  0.37289672  1
  O2-  O181  1  0.52337563  0.26538766  0.88629459  1
  O2-  O182  1  0.49801512  0.76083359  0.37559983  1
  O2-  O183  1  0.47990013  0.76501185  0.88434699  1
  O2-  O184  1  0.27648708  0.00505304  0.11764144  1
  O2-  O185  1  0.27411262  0.00797118  0.61288556  1
  O2-  O186  1  0.23113284  0.51440808  0.12222027  1
  O2-  O187  1  0.25181273  0.50276123  0.61195188  1
  O2-  O188  1  0.76663400  0.01134712  0.13252000  1
  O2-  O189  1  0.76772499  -0.00223711  0.61355051  1
  O2-  O190  1  0.73183375  0.49471454  0.13356299  1
  O2-  O191  1  0.73776039  0.49806688  0.62304913  1
  O2-  O192  1  0.13748723  0.26994256  0.22809855  1
  O2-  O193  1  0.13906762  0.27370987  0.71631851  1
  O2-  O194  1  0.13678943  0.78191719  0.26985026  1
  O2-  O195  1  0.13312090  0.77538111  0.74505481  1
  O2-  O196  1  0.61783254  0.26153302  0.23345982  1
  O2-  O197  1  0.63317283  0.27336732  0.71457692  1
  O2-  O198  1  0.62435448  0.76406980  0.26843151  1
  O2-  O199  1  0.63549996  0.75939057  0.72129391  1
  O2-  O200  1  0.38247453  0.23722195  0.27542769  1
  O2-  O201  1  0.36640166  0.22061359  0.76559744  1
  O2-  O202  1  0.38671617  0.72446213  0.24859242  1
  O2-  O203  1  0.36447908  0.70920519  0.74674347  1
  O2-  O204  1  0.86226125  0.23655062  0.28211496  1
  O2-  O205  1  0.86424197  0.23288603  0.77679318  1
  O2-  O206  1  0.86190329  0.73102977  0.25094965  1
  O2-  O207  1  0.86198095  0.71320221  0.75152049  1
  O2-  O208  1  0.27892367  0.36539991  0.24726265  1
  O2-  O209  1  0.28657984  0.36457083  0.74410096  1
  O2-  O210  1  0.29160614  0.86208780  0.24684375  1
  O2-  O211  1  0.27611991  0.86094427  0.72786077  1
  O2-  O212  1  0.76124225  0.38228083  0.25955663  1
  O2-  O213  1  0.76696520  0.38221926  0.75675985  1
  O2-  O214  1  0.75893185  0.87719732  0.25187916  1
  O2-  O215  1  0.77785724  0.86407194  0.74197402  1
  O2-  O216  1  0.23907116  0.13343438  0.27546925  1
  O2-  O217  1  0.22505899  0.13329740  0.74808768  1
  O2-  O218  1  0.24338810  0.63606810  0.27722641  1
  O2-  O219  1  0.21344279  0.63059153  0.75446244  1
  O2-  O220  1  0.72843140  0.12855313  0.24940205  1
  O2-  O221  1  0.72214709  0.13356164  0.73972666  1
  O2-  O222  1  0.72607125  0.62639092  0.25290742  1
  O2-  O223  1  0.72617281  0.61876238  0.74662150  1
  O2-  O224  1  0.11359716  0.47143118  0.27439832  1
  O2-  O225  1  0.11162240  0.46422577  0.76157104  1
  O2-  O226  1  0.11581015  0.96981245  0.22651357  1
  O2-  O227  1  0.11513051  0.97074089  0.72779598  1
  O2-  O228  1  0.63030086  0.48949457  0.27698487  1
  O2-  O229  1  0.62922774  0.47866509  0.75481215  1
  O2-  O230  1  0.62616286  0.98878526  0.22483751  1
  O2-  O231  1  0.61735162  0.96385315  0.74937455  1
  O2-  O232  1  0.38886423  0.01384220  0.26948224  1
  O2-  O233  1  0.38593692  0.01853685  0.76429048  1
  O2-  O234  1  0.39044902  0.51663458  0.23526766  1
  O2-  O235  1  0.38546995  0.52895924  0.73989553  1
  O2-  O236  1  0.86312500  0.01831128  0.27055693  1
  O2-  O237  1  0.88085791  0.02463826  0.77566751  1
  O2-  O238  1  0.86473611  0.52745285  0.24307944  1
  O2-  O239  1  0.86718465  0.51990434  0.73168823  1
  O2-  O240  1  0.49015727  0.37430941  0.24329211  1
  O2-  O241  1  0.48862970  0.38883208  0.71657573  1
  O2-  O242  1  0.48878149  0.87150152  0.23960631  1
  O2-  O243  1  0.47647065  0.88130950  0.73745811  1
  O2-  O244  1  0.95764801  0.38751102  0.25372588  1
  O2-  O245  1  0.96431358  0.38469052  0.74471721  1
  O2-  O246  1  0.96833132  0.88532947  0.26329464  1
  O2-  O247  1  0.96571615  0.88256958  0.75064057  1
  O2-  O248  1  0.01816684  0.11842308  0.24538959  1
  O2-  O249  1  0.01938783  0.11932658  0.73866004  1
  O2-  O250  1  0.01379161  0.61484093  0.25070649  1
  O2-  O251  1  0.01630988  0.61275017  0.73770023  1
  O2-  O252  1  0.51895898  0.12466701  0.25550157  1
  O2-  O253  1  0.53088292  0.11743221  0.76100454  1
  O2-  O254  1  0.52194986  0.62374262  0.26607244  1
  O2-  O255  1  0.53319299  0.61289280  0.75981408  1
  O2-  O256  1  0.13501242  0.47515688  -0.01138722  1
  O2-  O257  1  0.12798927  0.48498311  0.48719940  1
  O2-  O258  1  0.13589494  0.96135562  0.01919805  1
  O2-  O259  1  0.13548201  0.97453751  0.51677386  1
  O2-  O260  1  0.63643723  0.46490319  -0.00691735  1
  O2-  O261  1  0.62853598  0.48472259  0.48719158  1
  O2-  O262  1  0.62036862  0.98115275  0.01499878  1
  O2-  O263  1  0.63742561  0.95782319  0.50434576  1
  O2-  O264  1  0.38354817  0.02202945  -0.00987084  1
  O2-  O265  1  0.36799769  0.00539013  0.47400262  1
  O2-  O266  1  0.37022222  0.52453916  0.02537400  1
  O2-  O267  1  0.37929138  0.52570110  0.50458187  1
  O2-  O268  1  0.86475071  0.02389944  -0.01549375  1
  O2-  O269  1  0.85736504  0.01049184  0.46684148  1
  O2-  O270  1  0.86206874  0.52279914  0.02579444  1
  O2-  O271  1  0.87681061  0.52161934  0.51387412  1
  O2-  O272  1  0.47291881  0.36490060  0.01584037  1
  O2-  O273  1  0.48033062  0.38456749  0.50431473  1
  O2-  O274  1  0.48328681  0.88037074  0.01221556  1
  O2-  O275  1  0.48329266  0.86010614  0.51433668  1
  O2-  O276  1  0.98052855  0.36765526  -0.01111022  1
  O2-  O277  1  0.99459704  0.38181991  0.49341397  1
  O2-  O278  1  0.95906925  0.86671829  -0.00415588  1
  O2-  O279  1  0.97533977  0.86331699  0.48927013  1
  O2-  O280  1  0.02460449  0.12997417  0.00865729  1
  O2-  O281  1  0.01841850  0.13603396  0.49964718  1
  O2-  O282  1  0.02759539  0.63271925  0.00394822  1
  O2-  O283  1  0.02504158  0.61731390  0.50027047  1
  O2-  O284  1  0.52173802  0.12038614  -0.00037597  1
  O2-  O285  1  0.51600067  0.13639182  0.48080329  1
  O2-  O286  1  0.52763187  0.63500214  -0.01326302  1
  O2-  O287  1  0.51821656  0.62143073  0.47235864  1
  O2-  O288  1  0.11745176  0.27177473  0.03319046  1
  O2-  O289  1  0.13277722  0.26454920  0.51930331  1
  O2-  O290  1  0.11660236  0.78058138  -0.00762968  1
  O2-  O291  1  0.13113121  0.76837568  0.49526094  1
  O2-  O292  1  0.61160310  0.25811515  0.03505096  1
  O2-  O293  1  0.61066689  0.27701906  0.51696843  1
  O2-  O294  1  0.61317815  0.78038363  -0.00046208  1
  O2-  O295  1  0.62958751  0.76078690  0.50126076  1
  O2-  O296  1  0.38601199  0.21950760  -0.01505197  1
  O2-  O297  1  0.37337230  0.24716694  0.47480275  1
  O2-  O298  1  0.38859374  0.73402960  0.03128281  1
  O2-  O299  1  0.37702535  0.72141512  0.49617508  1
  O2-  O300  1  0.88276220  0.22843835  -0.02192516  1
  O2-  O301  1  0.88533162  0.24410797  0.46627691  1
  O2-  O302  1  0.88108470  0.71411994  0.00198730  1
  O2-  O303  1  0.87702427  0.71995184  0.49194441  1
  O2-  O304  1  0.27586402  0.38201864  0.01384350  1
  O2-  O305  1  0.26077955  0.37353837  0.50827820  1
  O2-  O306  1  0.29078844  0.88318430  0.00028733  1
  O2-  O307  1  0.27224298  0.86585170  0.51580618  1
  O2-  O308  1  0.77929001  0.38309551  -0.00699407  1
  O2-  O309  1  0.77432675  0.38845505  0.49870564  1
  O2-  O310  1  0.76256446  0.88590900  0.02788969  1
  O2-  O311  1  0.77420852  0.86407282  0.49559640  1
  O2-  O312  1  0.22519417  0.11271956  -0.00336071  1
  O2-  O313  1  0.23496515  0.12408981  0.48650103  1
  O2-  O314  1  0.22991885  0.62037438  -0.01335549  1
  O2-  O315  1  0.23071591  0.62274283  0.48267655  1
  O2-  O316  1  0.72019206  0.11453882  0.00662544  1
  O2-  O317  1  0.71009924  0.11658103  0.50219530  1
  O2-  O318  1  0.71742800  0.61470506  -0.00009170  1
  O2-  O319  1  0.73461476  0.62316818  0.50236788  1
