# generated using pymatgen
data_Sr64Ca21Nb43O192
_symmetry_space_group_name_H-M   'P 1'
_cell_length_a   16.53860198
_cell_length_b   16.51300536
_cell_length_c   16.69203518
_cell_angle_alpha   90.00326628
_cell_angle_beta   90.00827027
_cell_angle_gamma   89.97714696
_symmetry_Int_Tables_number   1
_chemical_formula_structural   Sr64Ca21Nb43O192
_chemical_formula_sum   'Sr64 Ca21 Nb43 O192'
_cell_volume   4558.62816181
_cell_formula_units_Z   1
loop_
 _symmetry_equiv_pos_site_id
 _symmetry_equiv_pos_as_xyz
  1  'x, y, z'
loop_
 _atom_type_symbol
 _atom_type_oxidation_number
  Sr2+  2.0
  Ca2+  2.0
  Nb5+  5.0
  O2-  -2.0
loop_
 _atom_site_type_symbol
 _atom_site_label
 _atom_site_symmetry_multiplicity
 _atom_site_fract_x
 _atom_site_fract_y
 _atom_site_fract_z
 _atom_site_occupancy
  Sr2+  Sr0  1  0.12234651  0.12855766  0.13621367  1
  Sr2+  Sr1  1  0.12801356  0.12799704  0.62772799  1
  Sr2+  Sr2  1  0.12302019  0.62072248  0.12185604  1
  Sr2+  Sr3  1  0.12710419  0.63559044  0.62589221  1
  Sr2+  Sr4  1  0.62907555  0.14448017  0.12789357  1
  Sr2+  Sr5  1  0.62219318  0.12543536  0.62294510  1
  Sr2+  Sr6  1  0.62286320  0.62490893  0.12906105  1
  Sr2+  Sr7  1  0.62597330  0.62535105  0.61216713  1
  Sr2+  Sr8  1  0.37273429  0.39919973  0.12878183  1
  Sr2+  Sr9  1  0.37491451  0.37904840  0.62441784  1
  Sr2+  Sr10  1  0.38280676  0.87315607  0.12899165  1
  Sr2+  Sr11  1  0.38577195  0.85917956  0.62490060  1
  Sr2+  Sr12  1  0.88791439  0.37891790  0.13118070  1
  Sr2+  Sr13  1  0.88856235  0.38153788  0.62090916  1
  Sr2+  Sr14  1  0.87902455  0.86803588  0.12462645  1
  Sr2+  Sr15  1  0.87382631  0.86238510  0.62660750  1
  Sr2+  Sr16  1  0.12366105  0.36740885  0.37470146  1
  Sr2+  Sr17  1  0.11713638  0.37175831  0.87409122  1
  Sr2+  Sr18  1  0.10498407  0.87352428  0.37996602  1
  Sr2+  Sr19  1  0.12942477  0.88500001  0.86667073  1
  Sr2+  Sr20  1  0.64234871  0.36823513  0.37389157  1
  Sr2+  Sr21  1  0.62388889  0.36952372  0.88296518  1
  Sr2+  Sr22  1  0.62090519  0.88625384  0.36906793  1
  Sr2+  Sr23  1  0.62086442  0.87807923  0.87669194  1
  Sr2+  Sr24  1  0.37069193  0.12665555  0.37535037  1
  Sr2+  Sr25  1  0.36887151  0.12105677  0.87692435  1
  Sr2+  Sr26  1  0.36463067  0.63515210  0.35998097  1
  Sr2+  Sr27  1  0.37430222  0.62020177  0.87454537  1
  Sr2+  Sr28  1  0.87189588  0.11696857  0.36970270  1
  Sr2+  Sr29  1  0.86112786  0.12689506  0.87121252  1
  Sr2+  Sr30  1  0.87010288  0.61646990  0.37971617  1
  Sr2+  Sr31  1  0.86326835  0.62845254  0.88173081  1
  Sr2+  Sr32  1  0.11957527  0.13040316  0.37821459  1
  Sr2+  Sr33  1  0.11934868  0.12890838  0.87237339  1
  Sr2+  Sr34  1  0.11319271  0.63933747  0.36983316  1
  Sr2+  Sr35  1  0.11953430  0.60922497  0.88019751  1
  Sr2+  Sr36  1  0.62511679  0.13012056  0.37305656  1
  Sr2+  Sr37  1  0.62517623  0.13841057  0.87346440  1
  Sr2+  Sr38  1  0.62493537  0.59722488  0.37327673  1
  Sr2+  Sr39  1  0.62690022  0.63265435  0.88146244  1
  Sr2+  Sr40  1  0.37358494  0.36543099  0.36598584  1
  Sr2+  Sr41  1  0.37362029  0.37571268  0.88028236  1
  Sr2+  Sr42  1  0.37543726  0.87626877  0.36846171  1
  Sr2+  Sr43  1  0.37962856  0.87874098  0.87724838  1
  Sr2+  Sr44  1  0.87876779  0.38644954  0.38156152  1
  Sr2+  Sr45  1  0.88231587  0.36444736  0.87191804  1
  Sr2+  Sr46  1  0.87582774  0.88203502  0.37147085  1
  Sr2+  Sr47  1  0.86659407  0.86133588  0.87753563  1
  Sr2+  Sr48  1  0.12256125  0.37695851  0.13124279  1
  Sr2+  Sr49  1  0.12773047  0.37933119  0.62488329  1
  Sr2+  Sr50  1  0.11901579  0.86900512  0.13144584  1
  Sr2+  Sr51  1  0.12019899  0.87003041  0.62312882  1
  Sr2+  Sr52  1  0.61384144  0.38380695  0.13198241  1
  Sr2+  Sr53  1  0.64057445  0.38367086  0.61794585  1
  Sr2+  Sr54  1  0.62346855  0.87338340  0.12860826  1
  Sr2+  Sr55  1  0.62302155  0.86736544  0.61807225  1
  Sr2+  Sr56  1  0.37671454  0.13169771  0.12164381  1
  Sr2+  Sr57  1  0.37564676  0.12735891  0.61955076  1
  Sr2+  Sr58  1  0.38143657  0.62634318  0.12164529  1
  Sr2+  Sr59  1  0.37607263  0.62819253  0.62889245  1
  Sr2+  Sr60  1  0.88069190  0.12589496  0.12930363  1
  Sr2+  Sr61  1  0.87537705  0.12447912  0.62939259  1
  Sr2+  Sr62  1  0.90185682  0.62723009  0.12152710  1
  Sr2+  Sr63  1  0.85514636  0.62251186  0.62805521  1
  Ca2+  Ca64  1  0.49414268  0.49718908  0.50110486  1
  Ca2+  Ca65  1  0.00707429  0.50261515  0.50256354  1
  Ca2+  Ca66  1  -0.00125653  0.00103220  0.50314917  1
  Ca2+  Ca67  1  0.00073382  0.00244458  -0.00271962  1
  Ca2+  Ca68  1  -0.00392616  0.49483127  -0.00003516  1
  Ca2+  Ca69  1  0.75256266  0.24445232  0.50145159  1
  Ca2+  Ca70  1  0.24836959  0.25129846  -0.00310559  1
  Ca2+  Ca71  1  0.25111211  0.75428997  -0.00425916  1
  Ca2+  Ca72  1  0.75550253  0.25023042  0.00272832  1
  Ca2+  Ca73  1  0.74698510  0.75138908  0.49113078  1
  Ca2+  Ca74  1  0.50436180  0.74944816  0.25166041  1
  Ca2+  Ca75  1  -0.00088870  0.74811568  0.75331048  1
  Ca2+  Ca76  1  0.24738981  0.50186847  0.25449718  1
  Ca2+  Ca77  1  -0.00527461  0.74919019  0.24868754  1
  Ca2+  Ca78  1  0.75257373  0.50089191  0.24463043  1
  Ca2+  Ca79  1  0.24975686  0.00116718  0.25112383  1
  Ca2+  Ca80  1  0.50029277  0.24940611  0.25013164  1
  Ca2+  Ca81  1  -0.00204728  0.25141588  0.25593959  1
  Ca2+  Ca82  1  0.50033549  0.25340336  0.74965632  1
  Ca2+  Ca83  1  0.74609601  0.50029129  0.75412067  1
  Ca2+  Ca84  1  0.50316533  0.74691255  0.75064781  1
  Nb5+  Nb85  1  0.50050665  -0.00053778  0.49595729  1
  Nb5+  Nb86  1  0.50492780  0.00765101  -0.00255070  1
  Nb5+  Nb87  1  0.50214851  0.50531996  -0.00158411  1
  Nb5+  Nb88  1  0.25098005  0.25546686  0.50125985  1
  Nb5+  Nb89  1  0.74523902  0.74880171  0.00723302  1
  Nb5+  Nb90  1  0.25332084  0.75860796  0.49967718  1
  Nb5+  Nb91  1  0.74261398  -0.00341605  0.74714906  1
  Nb5+  Nb92  1  0.25063994  -0.00549916  0.74446419  1
  Nb5+  Nb93  1  0.74917328  -0.00018164  0.24132073  1
  Nb5+  Nb94  1  0.24826663  0.49424577  0.74767354  1
  Nb5+  Nb95  1  0.00048523  0.24889902  0.74871950  1
  Nb5+  Nb96  1  0.00265497  -0.00217244  0.24948313  1
  Nb5+  Nb97  1  -0.00864123  -0.00070445  0.75228872  1
  Nb5+  Nb98  1  0.00024974  0.50085031  0.25368214  1
  Nb5+  Nb99  1  -0.00147281  0.50567035  0.75056396  1
  Nb5+  Nb100  1  0.50022454  0.00533194  0.24316312  1
  Nb5+  Nb101  1  0.49568312  0.00205160  0.74513941  1
  Nb5+  Nb102  1  0.49453804  0.50048861  0.25781955  1
  Nb5+  Nb103  1  0.50367695  0.49524049  0.75099552  1
  Nb5+  Nb104  1  0.25003862  0.24666337  0.24396641  1
  Nb5+  Nb105  1  0.25083469  0.24498816  0.74984383  1
  Nb5+  Nb106  1  0.24633640  0.75222847  0.24260087  1
  Nb5+  Nb107  1  0.24940663  0.74617972  0.75268328  1
  Nb5+  Nb108  1  0.75666540  0.25201910  0.24898219  1
  Nb5+  Nb109  1  0.75171926  0.25480482  0.74659523  1
  Nb5+  Nb110  1  0.75138989  0.74834841  0.25376044  1
  Nb5+  Nb111  1  0.74219831  0.74723764  0.74820942  1
  Nb5+  Nb112  1  -0.00174972  0.24494403  0.50080073  1
  Nb5+  Nb113  1  0.00154123  0.24792757  1.00565619  1
  Nb5+  Nb114  1  -0.00825089  0.74461966  0.50318679  1
  Nb5+  Nb115  1  0.00655044  0.75475407  0.99330018  1
  Nb5+  Nb116  1  0.50058871  0.25277921  0.50172490  1
  Nb5+  Nb117  1  0.49908668  0.25862076  1.00333978  1
  Nb5+  Nb118  1  0.50189007  0.74671645  0.49239627  1
  Nb5+  Nb119  1  0.49889619  0.75750471  0.99981290  1
  Nb5+  Nb120  1  0.24868472  0.00071939  0.00436607  1
  Nb5+  Nb121  1  0.25061498  0.00196715  0.50016381  1
  Nb5+  Nb122  1  0.24827934  0.50037011  -0.00129229  1
  Nb5+  Nb123  1  0.25230977  0.50887150  0.49704934  1
  Nb5+  Nb124  1  0.74756357  0.00016413  -0.00420683  1
  Nb5+  Nb125  1  0.75086531  0.00147258  0.49705440  1
  Nb5+  Nb126  1  0.75075698  0.49899733  0.00096050  1
  Nb5+  Nb127  1  0.75067194  0.49900079  0.50099846  1
  O2-  O128  1  -0.01014019  0.00116982  0.13184564  1
  O2-  O129  1  0.00154820  -0.00448142  0.63699519  1
  O2-  O130  1  0.01000341  0.48148699  0.13217489  1
  O2-  O131  1  0.01147162  0.48017178  0.63692141  1
  O2-  O132  1  0.50113233  0.00189685  0.12338215  1
  O2-  O133  1  0.50124183  0.00202097  0.62752373  1
  O2-  O134  1  0.51079009  0.50393610  0.11778942  1
  O2-  O135  1  0.51344311  0.51552026  0.63742334  1
  O2-  O136  1  -0.01211803  0.00253173  0.36885332  1
  O2-  O137  1  0.02751518  0.00987457  0.86343677  1
  O2-  O138  1  -0.01501434  0.51653498  0.37090061  1
  O2-  O139  1  -0.00660782  0.48864345  0.86625459  1
  O2-  O140  1  0.50410196  -0.00006704  0.37696379  1
  O2-  O141  1  0.50335090  -0.00579468  0.87766019  1
  O2-  O142  1  0.46876470  0.50298255  0.36892141  1
  O2-  O143  1  0.48715334  0.48150115  0.88184328  1
  O2-  O144  1  0.24980553  0.22432503  0.13058022  1
  O2-  O145  1  0.25500379  0.23543965  0.62631098  1
  O2-  O146  1  0.21965167  0.74037274  0.13024123  1
  O2-  O147  1  0.24092676  0.73757589  0.62244690  1
  O2-  O148  1  0.76412891  0.22745983  0.13305327  1
  O2-  O149  1  0.75728312  0.22087435  0.63535068  1
  O2-  O150  1  0.72214016  0.75765743  0.12090580  1
  O2-  O151  1  0.73503338  0.75128428  0.63010615  1
  O2-  O152  1  0.24428987  0.26283596  0.38420359  1
  O2-  O153  1  0.24076257  0.27506214  0.86050051  1
  O2-  O154  1  0.26964231  0.76530312  0.38359492  1
  O2-  O155  1  0.26523953  0.77790180  0.86145760  1
  O2-  O156  1  0.73851222  0.24490876  0.36762356  1
  O2-  O157  1  0.75232707  0.24560535  0.86510352  1
  O2-  O158  1  0.78965172  0.75293090  0.36213315  1
  O2-  O159  1  0.75594702  0.74775538  0.87604885  1
  O2-  O160  1  -0.00705728  0.25425321  0.12041353  1
  O2-  O161  1  -0.00660065  0.25325188  0.62759757  1
  O2-  O162  1  0.01360126  0.76185972  0.11289779  1
  O2-  O163  1  0.01150831  0.76203733  0.61957479  1
  O2-  O164  1  0.49434246  0.22867799  0.11628011  1
  O2-  O165  1  0.49087774  0.23012018  0.61689273  1
  O2-  O166  1  0.52208548  0.74622617  0.11536972  1
  O2-  O167  1  0.51007645  0.75189633  0.61362132  1
  O2-  O168  1  0.26526840  -0.01301808  0.38774974  1
  O2-  O169  1  0.25817973  -0.01768293  0.86206293  1
  O2-  O170  1  0.28191053  0.49067628  0.38877652  1
  O2-  O171  1  0.26375502  0.48536290  0.86732577  1
  O2-  O172  1  0.74743040  -0.00597288  0.37803721  1
  O2-  O173  1  0.74057646  -0.01156217  0.87546603  1
  O2-  O174  1  0.76578635  0.49171914  0.38178059  1
  O2-  O175  1  0.74215134  0.52421501  0.88557856  1
  O2-  O176  1  0.02212074  0.24724305  0.38805637  1
  O2-  O177  1  0.00929632  0.24753375  0.86871078  1
  O2-  O178  1  -0.00592454  0.74046117  0.38381356  1
  O2-  O179  1  -0.03041947  0.73441853  0.88343289  1
  O2-  O180  1  0.49750993  0.23546154  0.38586782  1
  O2-  O181  1  0.51857158  0.25738094  0.88488331  1
  O2-  O182  1  0.46637967  0.75371585  0.38199274  1
  O2-  O183  1  0.49187215  0.75770772  0.88335491  1
  O2-  O184  1  0.25067628  0.02997782  0.11468108  1
  O2-  O185  1  0.26011509  0.02101542  0.62574991  1
  O2-  O186  1  0.23981527  0.51676999  0.11367659  1
  O2-  O187  1  0.22543494  0.51735836  0.63273273  1
  O2-  O188  1  0.74807711  -0.00037592  0.12309754  1
  O2-  O189  1  0.75044750  0.00562659  0.63021160  1
  O2-  O190  1  0.71910220  0.49724529  0.11371703  1
  O2-  O191  1  0.73030635  0.51231486  0.62017939  1
  O2-  O192  1  0.13332188  0.27661589  0.24603756  1
  O2-  O193  1  0.12340707  0.26395689  0.73788118  1
  O2-  O194  1  0.13309944  0.77827932  0.27072051  1
  O2-  O195  1  0.13631657  0.78283093  0.75015907  1
  O2-  O196  1  0.63682543  0.27132177  0.23611054  1
  O2-  O197  1  0.63758295  0.27464766  0.74188313  1
  O2-  O198  1  0.63856778  0.78461439  0.26327218  1
  O2-  O199  1  0.63349671  0.79202781  0.75757275  1
  O2-  O200  1  0.36585183  0.22188516  0.26057191  1
  O2-  O201  1  0.36458961  0.22728153  0.75627046  1
  O2-  O202  1  0.36610401  0.72819913  0.23043777  1
  O2-  O203  1  0.36620918  0.73620287  0.73374760  1
  O2-  O204  1  0.86827431  0.21118671  0.25900585  1
  O2-  O205  1  0.88096174  0.22537477  0.75449988  1
  O2-  O206  1  0.86007884  0.73894133  0.20839140  1
  O2-  O207  1  0.86073110  0.73058542  0.73978027  1
  O2-  O208  1  0.27726914  0.36471703  0.24364628  1
  O2-  O209  1  0.26056826  0.37747632  0.72611024  1
  O2-  O210  1  0.27898036  0.86783281  0.23810316  1
  O2-  O211  1  0.27386551  0.88261853  0.72576312  1
  O2-  O212  1  0.78348347  0.36455388  0.24738442  1
  O2-  O213  1  0.78398640  0.36578898  0.73781508  1
  O2-  O214  1  0.77267826  0.88158475  0.24898775  1
  O2-  O215  1  0.77889569  0.88182121  0.74830744  1
  O2-  O216  1  0.22239736  0.13341118  0.27437854  1
  O2-  O217  1  0.22997076  0.12738903  0.76069032  1
  O2-  O218  1  0.23282567  0.63764757  0.27694816  1
  O2-  O219  1  0.22855280  0.63039948  0.76624482  1
  O2-  O220  1  0.72388376  0.11497277  0.25595377  1
  O2-  O221  1  0.73560547  0.11508648  0.76323834  1
  O2-  O222  1  0.72045454  0.63627553  0.25602893  1
  O2-  O223  1  0.70965360  0.63631925  0.74973338  1
  O2-  O224  1  0.11687432  0.46996355  0.26581686  1
  O2-  O225  1  0.12871592  0.48036212  0.76668950  1
  O2-  O226  1  0.11556831  0.96794562  0.24912007  1
  O2-  O227  1  0.13506759  0.98293768  0.73821563  1
  O2-  O228  1  0.61394380  0.47330916  0.26961758  1
  O2-  O229  1  0.61291800  0.45988961  0.76087639  1
  O2-  O230  1  0.62803300  0.97483138  0.24641576  1
  O2-  O231  1  0.62760177  0.97601668  0.74414667  1
  O2-  O232  1  0.38721593  0.03062455  0.24781485  1
  O2-  O233  1  0.37933392  0.02782869  0.74999385  1
  O2-  O234  1  0.38128471  0.52425224  0.22661733  1
  O2-  O235  1  0.36408596  0.52387596  0.74105673  1
  O2-  O236  1  0.86616432  0.02299703  0.24951662  1
  O2-  O237  1  0.87648072  0.02405248  0.75694344  1
  O2-  O238  1  0.88327941  0.53448471  0.23705271  1
  O2-  O239  1  0.88358044  0.52987156  0.74532662  1
  O2-  O240  1  0.47519922  0.38304843  0.23877332  1
  O2-  O241  1  0.45741254  0.38577089  0.74880949  1
  O2-  O242  1  0.48240263  0.88674934  0.25087871  1
  O2-  O243  1  0.47725117  0.88633015  0.75207048  1
  O2-  O244  1  0.96606384  0.38400136  0.26239669  1
  O2-  O245  1  0.98194551  0.36788556  0.75296784  1
  O2-  O246  1  0.96822356  0.88221028  0.25309722  1
  O2-  O247  1  0.97638555  0.88489845  0.76262053  1
  O2-  O248  1  0.02507167  0.11585041  0.25155038  1
  O2-  O249  1  0.02020104  0.12690405  0.74299062  1
  O2-  O250  1  0.03221702  0.61803051  0.23606163  1
  O2-  O251  1  0.03502709  0.61510068  0.74832281  1
  O2-  O252  1  0.53697011  0.11524647  0.25140700  1
  O2-  O253  1  0.53051959  0.11423506  0.75817106  1
  O2-  O254  1  0.52755483  0.61523707  0.25080350  1
  O2-  O255  1  0.50890548  0.61027290  0.78013174  1
  O2-  O256  1  0.13458022  0.48211359  -0.01670018  1
  O2-  O257  1  0.14246697  0.46848872  0.49337733  1
  O2-  O258  1  0.13899360  0.96595102  0.00251820  1
  O2-  O259  1  0.13889391  0.97304324  0.50460844  1
  O2-  O260  1  0.61731811  0.47615870  -0.01232515  1
  O2-  O261  1  0.63014942  0.47137260  0.48496746  1
  O2-  O262  1  0.62059133  0.96910165  0.00400133  1
  O2-  O263  1  0.61942089  0.97204830  0.50523888  1
  O2-  O264  1  0.38682000  0.02454373  -0.00092261  1
  O2-  O265  1  0.38080123  0.02161468  0.50386633  1
  O2-  O266  1  0.38019384  0.52224309  0.00442503  1
  O2-  O267  1  0.36109615  0.50916064  0.54107910  1
  O2-  O268  1  0.86076495  0.02067820  -0.00788339  1
  O2-  O269  1  0.86193980  0.03217352  0.50321939  1
  O2-  O270  1  0.86094916  0.53338136  0.01067619  1
  O2-  O271  1  0.86816397  0.52185696  0.51573457  1
  O2-  O272  1  0.47573069  0.37391019  0.01302725  1
  O2-  O273  1  0.46409139  0.36229336  0.50179732  1
  O2-  O274  1  0.48214313  0.87524109  0.00634413  1
  O2-  O275  1  0.47501617  0.88036672  0.50073720  1
  O2-  O276  1  0.96089540  0.36197402  -0.00561170  1
  O2-  O277  1  0.98045496  0.36394221  0.49936590  1
  O2-  O278  1  0.96732553  0.86735419  -0.00904318  1
  O2-  O279  1  0.97849326  0.86496300  0.49373287  1
  O2-  O280  1  0.04541509  0.13513694  0.00535410  1
  O2-  O281  1  0.03691070  0.13226429  0.51149125  1
  O2-  O282  1  0.02090091  0.63295473  0.00852914  1
  O2-  O283  1  0.03944853  0.63537383  0.50734113  1
  O2-  O284  1  0.53052378  0.11980767  -0.00562031  1
  O2-  O285  1  0.52256538  0.11695134  0.50188157  1
  O2-  O286  1  0.52054745  0.62184789  -0.00794209  1
  O2-  O287  1  0.52538527  0.63308860  0.49117970  1
  O2-  O288  1  0.11540823  0.28973663  0.00238218  1
  O2-  O289  1  0.13277593  0.26870188  0.51617990  1
  O2-  O290  1  0.11667537  0.77676156  -0.02929613  1
  O2-  O291  1  0.13574933  0.77527117  0.49331287  1
  O2-  O292  1  0.61913954  0.27504799  0.01508243  1
  O2-  O293  1  0.61423977  0.27673897  0.50711725  1
  O2-  O294  1  0.62394466  0.76888808  -0.01807331  1
  O2-  O295  1  0.61231928  0.78119017  0.47890475  1
  O2-  O296  1  0.38640241  0.22310681  -0.01350710  1
  O2-  O297  1  0.36755992  0.22106518  0.49794588  1
  O2-  O298  1  0.38595120  0.72954389  0.01141509  1
  O2-  O299  1  0.37262924  0.73135090  0.51721469  1
  O2-  O300  1  0.88892092  0.20734539  -0.00921543  1
  O2-  O301  1  0.88686251  0.21453635  0.49600392  1
  O2-  O302  1  0.86152199  0.73122122  0.01318311  1
  O2-  O303  1  0.88121428  0.71620529  0.51538106  1
  O2-  O304  1  0.28175882  0.38665622  0.00687664  1
  O2-  O305  1  0.27240387  0.36864317  0.51487076  1
  O2-  O306  1  0.29078512  0.88995490  0.00815341  1
  O2-  O307  1  0.27626706  0.87473812  0.51921950  1
  O2-  O308  1  0.77416263  0.38681544  -0.01272177  1
  O2-  O309  1  0.77256035  0.37965428  0.51732872  1
  O2-  O310  1  0.76287401  0.87360475  0.00187565  1
  O2-  O311  1  0.77180927  0.88522686  0.51102237  1
  O2-  O312  1  0.24171156  0.11188908  -0.03731942  1
  O2-  O313  1  0.23208372  0.12005025  0.49182100  1
  O2-  O314  1  0.24195116  0.61735159  -0.03028152  1
  O2-  O315  1  0.23425924  0.62564837  0.48703008  1
  O2-  O316  1  0.71579921  0.11142029  -0.00577915  1
  O2-  O317  1  0.70959284  0.11202288  0.50013172  1
  O2-  O318  1  0.71882090  0.63279426  0.00572395  1
  O2-  O319  1  0.72228510  0.61741989  0.48962064  1
