# generated using pymatgen
data_Sr64Ca21Nb43O192
_symmetry_space_group_name_H-M   'P 1'
_cell_length_a   16.58737645
_cell_length_b   16.55348248
_cell_length_c   16.75927633
_cell_angle_alpha   89.94072545
_cell_angle_beta   89.99340981
_cell_angle_gamma   90.03569534
_symmetry_Int_Tables_number   1
_chemical_formula_structural   Sr64Ca21Nb43O192
_chemical_formula_sum   'Sr64 Ca21 Nb43 O192'
_cell_volume   4601.73936104
_cell_formula_units_Z   1
loop_
 _symmetry_equiv_pos_site_id
 _symmetry_equiv_pos_as_xyz
  1  'x, y, z'
loop_
 _atom_type_symbol
 _atom_type_oxidation_number
  Sr2+  2.0
  Ca2+  2.0
  Nb5+  5.0
  O2-  -2.0
loop_
 _atom_site_type_symbol
 _atom_site_label
 _atom_site_symmetry_multiplicity
 _atom_site_fract_x
 _atom_site_fract_y
 _atom_site_fract_z
 _atom_site_occupancy
  Sr2+  Sr0  1  0.12737876  0.12476147  0.12144084  1
  Sr2+  Sr1  1  0.12656264  0.12266682  0.62965845  1
  Sr2+  Sr2  1  0.13436055  0.60693938  0.12756830  1
  Sr2+  Sr3  1  0.13018509  0.62550100  0.61658138  1
  Sr2+  Sr4  1  0.62322350  0.13153275  0.12577248  1
  Sr2+  Sr5  1  0.61934883  0.12432121  0.61959423  1
  Sr2+  Sr6  1  0.60951965  0.61609414  0.12585323  1
  Sr2+  Sr7  1  0.62082153  0.61231097  0.62389919  1
  Sr2+  Sr8  1  0.37533283  0.38515590  0.11572591  1
  Sr2+  Sr9  1  0.37261363  0.39845327  0.62772044  1
  Sr2+  Sr10  1  0.37096415  0.87079739  0.13555237  1
  Sr2+  Sr11  1  0.36381510  0.88799131  0.61732862  1
  Sr2+  Sr12  1  0.87989857  0.35981234  0.12694527  1
  Sr2+  Sr13  1  0.87744944  0.36889581  0.62462602  1
  Sr2+  Sr14  1  0.87346537  0.88290427  0.12996991  1
  Sr2+  Sr15  1  0.87129633  0.86842006  0.62243665  1
  Sr2+  Sr16  1  0.12031686  0.37885181  0.37245860  1
  Sr2+  Sr17  1  0.12300188  0.37410195  0.87223950  1
  Sr2+  Sr18  1  0.14890294  0.87142531  0.37839873  1
  Sr2+  Sr19  1  0.12731491  0.87353365  0.87325420  1
  Sr2+  Sr20  1  0.62700391  0.36700881  0.37075608  1
  Sr2+  Sr21  1  0.64094262  0.38472411  0.87654815  1
  Sr2+  Sr22  1  0.62340393  0.87221391  0.37456090  1
  Sr2+  Sr23  1  0.61270973  0.87208285  0.87974927  1
  Sr2+  Sr24  1  0.39120471  0.13000703  0.38174121  1
  Sr2+  Sr25  1  0.39014561  0.12507618  0.87332573  1
  Sr2+  Sr26  1  0.37755672  0.63630816  0.37248322  1
  Sr2+  Sr27  1  0.40365244  0.62657270  0.87437709  1
  Sr2+  Sr28  1  0.87055515  0.11773805  0.36811753  1
  Sr2+  Sr29  1  0.87927118  0.12382073  0.86990932  1
  Sr2+  Sr30  1  0.86801996  0.63063591  0.37760245  1
  Sr2+  Sr31  1  0.87197324  0.62515211  0.87517936  1
  Sr2+  Sr32  1  0.12698778  0.12675399  0.38238768  1
  Sr2+  Sr33  1  0.12425258  0.11983622  0.87264093  1
  Sr2+  Sr34  1  0.13021982  0.61731017  0.36352715  1
  Sr2+  Sr35  1  0.12490599  0.63116950  0.87512027  1
  Sr2+  Sr36  1  0.63156862  0.11314216  0.37576128  1
  Sr2+  Sr37  1  0.63225979  0.13128786  0.87672980  1
  Sr2+  Sr38  1  0.62915781  0.62782730  0.36852654  1
  Sr2+  Sr39  1  0.63082071  0.61771152  0.86967506  1
  Sr2+  Sr40  1  0.37656871  0.38165765  0.38016995  1
  Sr2+  Sr41  1  0.38272515  0.38477221  0.86672548  1
  Sr2+  Sr42  1  0.37952484  0.86882609  0.37375575  1
  Sr2+  Sr43  1  0.37308982  0.87642300  0.86805896  1
  Sr2+  Sr44  1  0.88060162  0.39542269  0.37355981  1
  Sr2+  Sr45  1  0.88002741  0.38147787  0.87625374  1
  Sr2+  Sr46  1  0.86813156  0.88577198  0.37374834  1
  Sr2+  Sr47  1  0.88003527  0.85675897  0.87537854  1
  Sr2+  Sr48  1  0.14170666  0.36601480  0.12936052  1
  Sr2+  Sr49  1  0.12911726  0.37031026  0.61738773  1
  Sr2+  Sr50  1  0.12906937  0.87853869  0.12015351  1
  Sr2+  Sr51  1  0.13075616  0.87672117  0.62596904  1
  Sr2+  Sr52  1  0.62319057  0.36759308  0.12272648  1
  Sr2+  Sr53  1  0.60287812  0.36928042  0.62236571  1
  Sr2+  Sr54  1  0.61807095  0.87761691  0.12921278  1
  Sr2+  Sr55  1  0.62273698  0.87184823  0.61765593  1
  Sr2+  Sr56  1  0.37465322  0.13370626  0.12004521  1
  Sr2+  Sr57  1  0.39192248  0.12657023  0.62663615  1
  Sr2+  Sr58  1  0.36958602  0.62999681  0.13723556  1
  Sr2+  Sr59  1  0.37932710  0.62417270  0.63561981  1
  Sr2+  Sr60  1  0.87116758  0.11943330  0.12737684  1
  Sr2+  Sr61  1  0.86650893  0.12184399  0.62712977  1
  Sr2+  Sr62  1  0.87533700  0.61767292  0.12990784  1
  Sr2+  Sr63  1  0.86927762  0.62624672  0.61703179  1
  Ca2+  Ca64  1  0.00257944  -0.00291642  0.49841750  1
  Ca2+  Ca65  1  0.50325721  0.50165273  0.49445793  1
  Ca2+  Ca66  1  0.49872380  -0.00127612  0.49809763  1
  Ca2+  Ca67  1  0.50241477  0.50266903  0.00136847  1
  Ca2+  Ca68  1  0.49860081  -0.00220629  0.00216424  1
  Ca2+  Ca69  1  0.25165423  0.74835421  0.50162861  1
  Ca2+  Ca70  1  0.25476741  0.74920163  -0.00123680  1
  Ca2+  Ca71  1  0.74728853  0.75241305  0.00199780  1
  Ca2+  Ca72  1  0.25040870  0.25097306  0.50606929  1
  Ca2+  Ca73  1  0.74899397  0.25211676  0.50118800  1
  Ca2+  Ca74  1  0.49938922  0.24855669  0.75230489  1
  Ca2+  Ca75  1  0.25207176  0.00821246  0.24789380  1
  Ca2+  Ca76  1  0.75115933  -0.00505319  0.75207223  1
  Ca2+  Ca77  1  0.49963506  0.75417577  0.74754833  1
  Ca2+  Ca78  1  0.74919456  0.50007114  0.24819801  1
  Ca2+  Ca79  1  0.49338348  0.24793034  0.24846941  1
  Ca2+  Ca80  1  0.24709545  0.50285782  0.75330272  1
  Ca2+  Ca81  1  0.25558474  0.49400143  0.25132960  1
  Ca2+  Ca82  1  0.00059735  0.24743638  0.24917979  1
  Ca2+  Ca83  1  0.75722452  0.49764556  0.74550339  1
  Ca2+  Ca84  1  -0.00109266  0.75119646  0.25173677  1
  Nb5+  Nb85  1  0.00361987  0.49549978  -0.00346024  1
  Nb5+  Nb86  1  -0.00175684  -0.00758152  -0.00235365  1
  Nb5+  Nb87  1  0.00020793  0.50262939  0.49727564  1
  Nb5+  Nb88  1  0.25318201  0.24843674  -0.00271639  1
  Nb5+  Nb89  1  0.74830639  0.75014248  0.49960810  1
  Nb5+  Nb90  1  0.75745625  0.24907833  -0.00056998  1
  Nb5+  Nb91  1  0.25019172  0.00204136  0.75048447  1
  Nb5+  Nb92  1  0.74693915  -0.00071597  0.24837017  1
  Nb5+  Nb93  1  0.50277979  0.74970916  0.25054947  1
  Nb5+  Nb94  1  -0.00025586  0.25252467  0.74976380  1
  Nb5+  Nb95  1  -0.00013276  0.75276102  0.74814900  1
  Nb5+  Nb96  1  0.00494087  -0.00128608  0.25159028  1
  Nb5+  Nb97  1  -0.00020940  0.00095108  0.74878489  1
  Nb5+  Nb98  1  -0.00095079  0.49899150  0.23804476  1
  Nb5+  Nb99  1  0.00206571  0.50537196  0.74226151  1
  Nb5+  Nb100  1  0.49781377  0.00297165  0.24649344  1
  Nb5+  Nb101  1  0.50597633  -0.00620685  0.75107432  1
  Nb5+  Nb102  1  0.49944241  0.49424829  0.24892486  1
  Nb5+  Nb103  1  0.50484803  0.49920210  0.75039066  1
  Nb5+  Nb104  1  0.24920778  0.24804532  0.25851527  1
  Nb5+  Nb105  1  0.25060657  0.24845548  0.75121816  1
  Nb5+  Nb106  1  0.24475552  0.75445433  0.24901687  1
  Nb5+  Nb107  1  0.24932832  0.74666141  0.75100453  1
  Nb5+  Nb108  1  0.74970443  0.25021465  0.25480109  1
  Nb5+  Nb109  1  0.74500946  0.25236514  0.74805901  1
  Nb5+  Nb110  1  0.74985213  0.74989805  0.24422922  1
  Nb5+  Nb111  1  0.74609020  0.75063917  0.75022307  1
  Nb5+  Nb112  1  -0.00376336  0.24638998  0.49869099  1
  Nb5+  Nb113  1  0.00566793  0.24571722  0.99830519  1
  Nb5+  Nb114  1  -0.00043732  0.75025273  0.49739985  1
  Nb5+  Nb115  1  0.00013473  0.74355071  1.00505127  1
  Nb5+  Nb116  1  0.49850760  0.25241018  0.49808781  1
  Nb5+  Nb117  1  0.50627011  0.25097170  0.99542819  1
  Nb5+  Nb118  1  0.49918988  0.74413783  0.50436512  1
  Nb5+  Nb119  1  0.49893826  0.75236229  1.00043283  1
  Nb5+  Nb120  1  0.25258230  0.00336341  -0.00201547  1
  Nb5+  Nb121  1  0.25109543  0.00609371  0.49353755  1
  Nb5+  Nb122  1  0.25122634  0.50359104  -0.00516833  1
  Nb5+  Nb123  1  0.25279058  0.50523707  0.49891080  1
  Nb5+  Nb124  1  0.75007660  -0.00047412  -0.00409556  1
  Nb5+  Nb125  1  0.75027707  -0.00118729  0.50397175  1
  Nb5+  Nb126  1  0.75259487  0.50288887  0.00810149  1
  Nb5+  Nb127  1  0.75027861  0.49601657  0.50002092  1
  O2-  O128  1  0.00714633  -0.02139716  0.11554199  1
  O2-  O129  1  0.00887594  -0.01692892  0.63567979  1
  O2-  O130  1  -0.02260578  0.49368606  0.12389725  1
  O2-  O131  1  -0.02335014  0.49447902  0.63179625  1
  O2-  O132  1  0.53449851  0.00858585  0.13385811  1
  O2-  O133  1  0.50828011  0.02085620  0.63451614  1
  O2-  O134  1  0.47425143  0.52483632  0.13362975  1
  O2-  O135  1  0.48513369  0.51970612  0.63171973  1
  O2-  O136  1  -0.00149950  0.02879361  0.36236208  1
  O2-  O137  1  -0.00756204  0.00706373  0.87609471  1
  O2-  O138  1  0.02059946  0.50463281  0.38310156  1
  O2-  O139  1  0.02521212  0.50943988  0.88379431  1
  O2-  O140  1  0.48137283  -0.02018456  0.36216532  1
  O2-  O141  1  0.48849649  -0.02851264  0.86809514  1
  O2-  O142  1  0.53462996  0.48448298  0.36204483  1
  O2-  O143  1  0.52279124  0.48314050  0.86830745  1
  O2-  O144  1  0.23580780  0.23664012  0.11431708  1
  O2-  O145  1  0.21952984  0.24381214  0.64094720  1
  O2-  O146  1  0.26142626  0.76107020  0.13255346  1
  O2-  O147  1  0.25150680  0.76788233  0.63548248  1
  O2-  O148  1  0.74199047  0.26691883  0.11722104  1
  O2-  O149  1  0.73404408  0.28080114  0.63818462  1
  O2-  O150  1  0.75360002  0.78120621  0.13491623  1
  O2-  O151  1  0.75171727  0.77114600  0.61962866  1
  O2-  O152  1  0.26050202  0.26557430  0.37035712  1
  O2-  O153  1  0.25275689  0.25424691  0.87655483  1
  O2-  O154  1  0.25335728  0.74323729  0.36695549  1
  O2-  O155  1  0.23567065  0.76425224  0.86588918  1
  O2-  O156  1  0.75083193  0.21835188  0.36520896  1
  O2-  O157  1  0.76187978  0.22358406  0.88302620  1
  O2-  O158  1  0.74874285  0.73948776  0.37823808  1
  O2-  O159  1  0.74601859  0.72712203  0.86441095  1
  O2-  O160  1  0.01080215  0.26737696  0.11094331  1
  O2-  O161  1  0.01931335  0.25932399  0.63613111  1
  O2-  O162  1  -0.01745353  0.76413229  0.11478864  1
  O2-  O163  1  -0.00984135  0.75745917  0.62918381  1
  O2-  O164  1  0.49895858  0.22628549  0.11226185  1
  O2-  O165  1  0.51541888  0.23079739  0.61865103  1
  O2-  O166  1  0.50787569  0.73530593  0.13159154  1
  O2-  O167  1  0.51646675  0.72746629  0.61644748  1
  O2-  O168  1  0.26765974  0.02373125  0.38179442  1
  O2-  O169  1  0.24789714  0.00031211  0.87486759  1
  O2-  O170  1  0.22346524  0.48508191  0.38489579  1
  O2-  O171  1  0.21398702  0.48885184  0.88549817  1
  O2-  O172  1  0.75700284  0.01305919  0.36957435  1
  O2-  O173  1  0.75702765  0.02956270  0.88537867  1
  O2-  O174  1  0.74126075  0.52774211  0.38554975  1
  O2-  O175  1  0.74348039  0.51489437  0.88853532  1
  O2-  O176  1  -0.02723327  0.23909875  0.38705730  1
  O2-  O177  1  -0.01810938  0.24497167  0.87809298  1
  O2-  O178  1  0.00521454  0.72073448  0.38729538  1
  O2-  O179  1  0.00878109  0.73740774  0.86858806  1
  O2-  O180  1  0.48432472  0.27478879  0.38104535  1
  O2-  O181  1  0.47302837  0.26454203  0.88463598  1
  O2-  O182  1  0.49722341  0.76509081  0.37276753  1
  O2-  O183  1  0.49175518  0.77043764  0.88460706  1
  O2-  O184  1  0.22751313  0.00772905  0.11159899  1
  O2-  O185  1  0.23327438  -0.00424009  0.63345349  1
  O2-  O186  1  0.26825490  0.50383772  0.11294599  1
  O2-  O187  1  0.26692727  0.52384342  0.61866946  1
  O2-  O188  1  0.74755492  -0.01447073  0.12684476  1
  O2-  O189  1  0.74968255  -0.02571527  0.61600042  1
  O2-  O190  1  0.78538597  0.47345455  0.11651375  1
  O2-  O191  1  0.78907861  0.49251513  0.61208759  1
  O2-  O192  1  0.13134820  0.28309080  0.25849604  1
  O2-  O193  1  0.11728995  0.25702644  0.77630216  1
  O2-  O194  1  0.13229885  0.77984128  0.24617351  1
  O2-  O195  1  0.11800863  0.77331335  0.74197028  1
  O2-  O196  1  0.63228822  0.26512037  0.24250361  1
  O2-  O197  1  0.63488745  0.26361900  0.78048792  1
  O2-  O198  1  0.62551962  0.77119486  0.25839272  1
  O2-  O199  1  0.63540544  0.78202970  0.74958029  1
  O2-  O200  1  0.35991003  0.20341366  0.24810457  1
  O2-  O201  1  0.36043920  0.21656878  0.74596608  1
  O2-  O202  1  0.38308153  0.73676562  0.25060299  1
  O2-  O203  1  0.36265369  0.72086499  0.75688997  1
  O2-  O204  1  0.86261607  0.23007985  0.22765469  1
  O2-  O205  1  0.88112188  0.22746800  0.74047141  1
  O2-  O206  1  0.86317917  0.72743211  0.25434162  1
  O2-  O207  1  0.88320469  0.72271958  0.75290094  1
  O2-  O208  1  0.27884269  0.35940235  0.22627725  1
  O2-  O209  1  0.27003402  0.36331120  0.74854437  1
  O2-  O210  1  0.27550396  0.87154360  0.26282227  1
  O2-  O211  1  0.26407923  0.88240724  0.75448625  1
  O2-  O212  1  0.76532150  0.36384909  0.27597192  1
  O2-  O213  1  0.77560600  0.36268548  0.77754959  1
  O2-  O214  1  0.76389932  0.87807693  0.26541775  1
  O2-  O215  1  0.79007758  0.86067033  0.75692864  1
  O2-  O216  1  0.20286218  0.13668265  0.25314284  1
  O2-  O217  1  0.22027727  0.12042311  0.75724705  1
  O2-  O218  1  0.23505302  0.63350837  0.24263232  1
  O2-  O219  1  0.21263930  0.63703008  0.75007434  1
  O2-  O220  1  0.72962227  0.11893742  0.23290266  1
  O2-  O221  1  0.73776461  0.13411711  0.72725012  1
  O2-  O222  1  0.72413392  0.63767507  0.22894084  1
  O2-  O223  1  0.73860824  0.63525844  0.72196436  1
  O2-  O224  1  0.11655484  0.47727290  0.23483178  1
  O2-  O225  1  0.11170728  0.46617170  0.73925873  1
  O2-  O226  1  0.11583439  0.96925574  0.25513946  1
  O2-  O227  1  0.12083732  0.98186425  0.76365443  1
  O2-  O228  1  0.61630766  0.48683620  0.21546365  1
  O2-  O229  1  0.62230091  0.47945198  0.73003926  1
  O2-  O230  1  0.62959887  0.98027901  0.26458811  1
  O2-  O231  1  0.61726682  0.96477620  0.75428786  1
  O2-  O232  1  0.38692514  0.01171052  0.21476079  1
  O2-  O233  1  0.36455468  0.02442303  0.74809604  1
  O2-  O234  1  0.38664911  0.52056287  0.28156518  1
  O2-  O235  1  0.38333800  0.51783707  0.77034208  1
  O2-  O236  1  0.86762073  0.01788908  0.24353471  1
  O2-  O237  1  0.88539593  0.02091901  0.74584278  1
  O2-  O238  1  0.88641510  0.52788556  0.26880861  1
  O2-  O239  1  0.89274796  0.50773786  0.78241295  1
  O2-  O240  1  0.47559936  0.38280871  0.23141072  1
  O2-  O241  1  0.47821227  0.38186320  0.73448512  1
  O2-  O242  1  0.49144473  0.87164786  0.23331761  1
  O2-  O243  1  0.46151637  0.88459181  0.72874771  1
  O2-  O244  1  0.97364151  0.38425047  0.25876774  1
  O2-  O245  1  0.98144615  0.36849159  0.75929013  1
  O2-  O246  1  0.96423789  0.88731796  0.25538877  1
  O2-  O247  1  0.98200242  0.87113121  0.76159085  1
  O2-  O248  1  0.00663092  0.11125805  0.21412690  1
  O2-  O249  1  0.01812789  0.12120546  0.74763735  1
  O2-  O250  1  0.02713361  0.61623236  0.23512782  1
  O2-  O251  1  0.02456296  0.62129892  0.74096304  1
  O2-  O252  1  0.52059502  0.11385530  0.27122237  1
  O2-  O253  1  0.51534588  0.11117271  0.77651870  1
  O2-  O254  1  0.52055816  0.63174968  0.26277168  1
  O2-  O255  1  0.52293010  0.61937480  0.76732753  1
  O2-  O256  1  0.11683404  0.48347625  0.03037765  1
  O2-  O257  1  0.11398809  0.48865733  0.52730700  1
  O2-  O258  1  0.11800106  0.98937705  -0.01353200  1
  O2-  O259  1  0.13533309  0.96904599  0.49044126  1
  O2-  O260  1  0.64028058  0.47978256  0.02019177  1
  O2-  O261  1  0.63882218  0.48561999  0.52835697  1
  O2-  O262  1  0.63759219  0.97986037  -0.00926126  1
  O2-  O263  1  0.63490620  0.97808433  0.48445565  1
  O2-  O264  1  0.36299771  0.03553752  0.00239295  1
  O2-  O265  1  0.36354962  0.02107662  0.52608234  1
  O2-  O266  1  0.36350749  0.50623131  -0.03194546  1
  O2-  O267  1  0.36508448  0.52008701  0.47518648  1
  O2-  O268  1  0.88220600  0.02460916  0.00779804  1
  O2-  O269  1  0.86730098  0.01836937  0.49261523  1
  O2-  O270  1  0.88488573  0.51577134  -0.01434977  1
  O2-  O271  1  0.88094522  0.52179657  0.48094558  1
  O2-  O272  1  0.49078100  0.36682417  0.01961806  1
  O2-  O273  1  0.47060045  0.36898720  0.52062511  1
  O2-  O274  1  0.46461390  0.86439535  0.02285883  1
  O2-  O275  1  0.48354862  0.86225512  0.51499351  1
  O2-  O276  1  0.98674725  0.37821100  -0.01210822  1
  O2-  O277  1  0.97705176  0.38365325  0.50220340  1
  O2-  O278  1  0.98254017  0.87797834  -0.01540131  1
  O2-  O279  1  0.97046179  0.86178037  0.48678760  1
  O2-  O280  1  0.01512039  0.12870133  0.00406411  1
  O2-  O281  1  0.01918332  0.13502269  0.51674927  1
  O2-  O282  1  0.01766311  0.62579394  0.01382494  1
  O2-  O283  1  0.00711722  0.62234440  0.52477502  1
  O2-  O284  1  0.51849285  0.13223461  -0.02334674  1
  O2-  O285  1  0.52437287  0.13356935  0.47645013  1
  O2-  O286  1  0.53865926  0.63616678  -0.01513310  1
  O2-  O287  1  0.53298518  0.63418264  0.47718911  1
  O2-  O288  1  0.11967723  0.26520054  -0.01691753  1
  O2-  O289  1  0.10900982  0.27946495  0.48824557  1
  O2-  O290  1  0.11315804  0.77602174  0.00079549  1
  O2-  O291  1  0.11246651  0.77069301  0.51177011  1
  O2-  O292  1  0.62621812  0.26413006  -0.01323955  1
  O2-  O293  1  0.61637381  0.28126044  0.49151455  1
  O2-  O294  1  0.61550088  0.78782694  0.00466201  1
  O2-  O295  1  0.63107494  0.77355081  0.49643274  1
  O2-  O296  1  0.36761485  0.23355904  0.00505011  1
  O2-  O297  1  0.38205519  0.21804626  0.50764546  1
  O2-  O298  1  0.38737044  0.70726158  0.00687933  1
  O2-  O299  1  0.38638815  0.71694903  0.50538765  1
  O2-  O300  1  0.87572157  0.23778822  0.01223539  1
  O2-  O301  1  0.88372054  0.24347069  0.53764163  1
  O2-  O302  1  0.88527755  0.73677185  -0.02153663  1
  O2-  O303  1  0.87130024  0.73016289  0.50346532  1
  O2-  O304  1  0.25546573  0.36979788  0.00638659  1
  O2-  O305  1  0.25815445  0.38802085  0.52380091  1
  O2-  O306  1  0.26972383  0.88913712  -0.00048192  1
  O2-  O307  1  0.27496748  0.88454187  0.48547859  1
  O2-  O308  1  0.76607960  0.36742068  -0.01997921  1
  O2-  O309  1  0.76876827  0.38581118  0.47295106  1
  O2-  O310  1  0.78298521  0.88943570  -0.01363175  1
  O2-  O311  1  0.77093631  0.87232558  0.48538029  1
  O2-  O312  1  0.22267328  0.12988619  -0.01178253  1
  O2-  O313  1  0.21206291  0.11797331  0.50626649  1
  O2-  O314  1  0.21970160  0.61518494  -0.00360966  1
  O2-  O315  1  0.21356158  0.61753820  0.49063987  1
  O2-  O316  1  0.73806154  0.12725756  0.02254123  1
  O2-  O317  1  0.73210387  0.11480159  0.51973095  1
  O2-  O318  1  0.74642094  0.61584773  0.03258390  1
  O2-  O319  1  0.73620746  0.63234248  0.51771985  1
