# generated using pymatgen
data_Sr64Ca21Nb43O192
_symmetry_space_group_name_H-M   'P 1'
_cell_length_a   16.52803792
_cell_length_b   16.53850008
_cell_length_c   16.69926200
_cell_angle_alpha   89.98062280
_cell_angle_beta   90.00194185
_cell_angle_gamma   89.98315441
_symmetry_Int_Tables_number   1
_chemical_formula_structural   Sr64Ca21Nb43O192
_chemical_formula_sum   'Sr64 Ca21 Nb43 O192'
_cell_volume   4564.72538136
_cell_formula_units_Z   1
loop_
 _symmetry_equiv_pos_site_id
 _symmetry_equiv_pos_as_xyz
  1  'x, y, z'
loop_
 _atom_type_symbol
 _atom_type_oxidation_number
  Sr2+  2.0
  Ca2+  2.0
  Nb5+  5.0
  O2-  -2.0
loop_
 _atom_site_type_symbol
 _atom_site_label
 _atom_site_symmetry_multiplicity
 _atom_site_fract_x
 _atom_site_fract_y
 _atom_site_fract_z
 _atom_site_occupancy
  Sr2+  Sr0  1  0.12591057  0.12524942  0.11781067  1
  Sr2+  Sr1  1  0.12337101  0.12243823  0.62958020  1
  Sr2+  Sr2  1  0.12813901  0.61769984  0.12951109  1
  Sr2+  Sr3  1  0.12595253  0.63338456  0.62103999  1
  Sr2+  Sr4  1  0.62090662  0.12648582  0.12490032  1
  Sr2+  Sr5  1  0.61714762  0.12979289  0.62730582  1
  Sr2+  Sr6  1  0.61486214  0.62327957  0.12612611  1
  Sr2+  Sr7  1  0.61463566  0.61693411  0.61647441  1
  Sr2+  Sr8  1  0.37880943  0.37290384  0.13083265  1
  Sr2+  Sr9  1  0.38589943  0.38007582  0.62265627  1
  Sr2+  Sr10  1  0.38117771  0.85369807  0.11747958  1
  Sr2+  Sr11  1  0.37562200  0.86046558  0.62759160  1
  Sr2+  Sr12  1  0.87067013  0.36816151  0.11987452  1
  Sr2+  Sr13  1  0.87920304  0.37626227  0.63149229  1
  Sr2+  Sr14  1  0.87162875  0.87346336  0.12621934  1
  Sr2+  Sr15  1  0.87178380  0.86571732  0.62706975  1
  Sr2+  Sr16  1  0.12975057  0.37946237  0.37702326  1
  Sr2+  Sr17  1  0.11929443  0.37251511  0.87651929  1
  Sr2+  Sr18  1  0.12366610  0.87651875  0.37577897  1
  Sr2+  Sr19  1  0.11549404  0.87214260  0.87417177  1
  Sr2+  Sr20  1  0.62149282  0.37168947  0.38254621  1
  Sr2+  Sr21  1  0.62580822  0.37315361  0.87318186  1
  Sr2+  Sr22  1  0.63055454  0.87790395  0.37415990  1
  Sr2+  Sr23  1  0.60442405  0.87855613  0.87456215  1
  Sr2+  Sr24  1  0.35803541  0.13066376  0.37803499  1
  Sr2+  Sr25  1  0.35416281  0.11867214  0.87550491  1
  Sr2+  Sr26  1  0.36062024  0.62757770  0.37648275  1
  Sr2+  Sr27  1  0.37910775  0.63488006  0.86468455  1
  Sr2+  Sr28  1  0.86864551  0.11851336  0.37591877  1
  Sr2+  Sr29  1  0.87358550  0.12516614  0.87285677  1
  Sr2+  Sr30  1  0.86323560  0.63224345  0.37761089  1
  Sr2+  Sr31  1  0.87886954  0.62147682  0.87386174  1
  Sr2+  Sr32  1  0.11066644  0.12787945  0.37231856  1
  Sr2+  Sr33  1  0.11810242  0.11296584  0.87328810  1
  Sr2+  Sr34  1  0.11902816  0.63720407  0.37778477  1
  Sr2+  Sr35  1  0.12511569  0.60985497  0.87369052  1
  Sr2+  Sr36  1  0.62477426  0.11501041  0.37537851  1
  Sr2+  Sr37  1  0.62502883  0.11931166  0.87136471  1
  Sr2+  Sr38  1  0.62817000  0.63777111  0.37722169  1
  Sr2+  Sr39  1  0.63886654  0.62440161  0.86897432  1
  Sr2+  Sr40  1  0.37593256  0.38415264  0.37215711  1
  Sr2+  Sr41  1  0.37127871  0.38153303  0.85854264  1
  Sr2+  Sr42  1  0.37487753  0.87824106  0.38839212  1
  Sr2+  Sr43  1  0.37237359  0.87791198  0.87260707  1
  Sr2+  Sr44  1  0.88936750  0.36604999  0.36899575  1
  Sr2+  Sr45  1  0.87830051  0.38577606  0.87777141  1
  Sr2+  Sr46  1  0.88322791  0.87488734  0.37254970  1
  Sr2+  Sr47  1  0.88238376  0.85891834  0.87739895  1
  Sr2+  Sr48  1  0.14262663  0.37858469  0.12844711  1
  Sr2+  Sr49  1  0.11717525  0.37695742  0.62192585  1
  Sr2+  Sr50  1  0.11278903  0.86941495  0.12378124  1
  Sr2+  Sr51  1  0.13064310  0.87381333  0.61870953  1
  Sr2+  Sr52  1  0.62154635  0.36300247  0.12278527  1
  Sr2+  Sr53  1  0.62140934  0.38156389  0.62521766  1
  Sr2+  Sr54  1  0.61701803  0.87304440  0.12487154  1
  Sr2+  Sr55  1  0.61779256  0.87004721  0.62219074  1
  Sr2+  Sr56  1  0.36752393  0.12640061  0.12787824  1
  Sr2+  Sr57  1  0.36578990  0.12071056  0.62414441  1
  Sr2+  Sr58  1  0.37065508  0.61971038  0.12984041  1
  Sr2+  Sr59  1  0.36643513  0.62094079  0.62425109  1
  Sr2+  Sr60  1  0.86159155  0.12777616  0.12802595  1
  Sr2+  Sr61  1  0.86487042  0.13065515  0.62392383  1
  Sr2+  Sr62  1  0.86849772  0.62003433  0.12079203  1
  Sr2+  Sr63  1  0.84858155  0.61662213  0.62273625  1
  Ca2+  Ca64  1  -0.00414704  0.50094826  0.49793635  1
  Ca2+  Ca65  1  0.50055903  0.00154156  0.49888940  1
  Ca2+  Ca66  1  -0.00042308  0.00176150  0.50224003  1
  Ca2+  Ca67  1  0.49688496  0.49673361  -0.00098999  1
  Ca2+  Ca68  1  0.49816618  0.50088193  0.49527716  1
  Ca2+  Ca69  1  0.25015834  0.25330648  -0.00214903  1
  Ca2+  Ca70  1  0.24831751  0.74753291  0.00225433  1
  Ca2+  Ca71  1  0.74894056  0.75220448  -0.00213861  1
  Ca2+  Ca72  1  0.74880501  0.25032867  0.49921662  1
  Ca2+  Ca73  1  0.24839473  0.25158267  0.50285218  1
  Ca2+  Ca74  1  0.49980790  0.75168053  0.25212690  1
  Ca2+  Ca75  1  0.74998632  0.49746793  0.74902263  1
  Ca2+  Ca76  1  -0.00071958  0.25080797  0.24245166  1
  Ca2+  Ca77  1  0.74934563  0.49882639  0.25099308  1
  Ca2+  Ca78  1  0.25127922  -0.00300438  0.24911474  1
  Ca2+  Ca79  1  0.50279448  0.74923256  0.74917688  1
  Ca2+  Ca80  1  -0.00003745  0.74780877  0.25024542  1
  Ca2+  Ca81  1  0.75276403  -0.00341114  0.75440981  1
  Ca2+  Ca82  1  0.24903937  -0.00055940  0.75044215  1
  Ca2+  Ca83  1  0.24680727  0.49767269  0.74727721  1
  Ca2+  Ca84  1  0.00196087  0.74702137  0.74592224  1
  Nb5+  Nb85  1  -0.00949725  -0.00150267  0.00104699  1
  Nb5+  Nb86  1  0.49140262  0.00509288  0.00190388  1
  Nb5+  Nb87  1  0.00019675  0.49473424  0.00334851  1
  Nb5+  Nb88  1  0.24614962  0.75207926  0.49910609  1
  Nb5+  Nb89  1  0.74881664  0.24882250  -0.00434514  1
  Nb5+  Nb90  1  0.74348294  0.75453574  0.50171612  1
  Nb5+  Nb91  1  0.75100697  -0.00027120  0.24833622  1
  Nb5+  Nb92  1  -0.00637477  0.24860025  0.75039970  1
  Nb5+  Nb93  1  0.50105700  0.24610249  0.25544645  1
  Nb5+  Nb94  1  0.49264322  0.24746114  0.75448774  1
  Nb5+  Nb95  1  0.24965755  0.50134206  0.25392745  1
  Nb5+  Nb96  1  0.00397314  0.00053765  0.24827055  1
  Nb5+  Nb97  1  -0.00264998  -0.00293137  0.74809633  1
  Nb5+  Nb98  1  -0.00424700  0.50241600  0.25170526  1
  Nb5+  Nb99  1  0.00374156  0.50030365  0.74762615  1
  Nb5+  Nb100  1  0.49742090  0.00131763  0.24826459  1
  Nb5+  Nb101  1  0.49886450  0.00215760  0.74744795  1
  Nb5+  Nb102  1  0.50545464  0.50003111  0.24932516  1
  Nb5+  Nb103  1  0.50324484  0.50192684  0.75488359  1
  Nb5+  Nb104  1  0.24680173  0.25051231  0.25408956  1
  Nb5+  Nb105  1  0.23980740  0.25304025  0.74970154  1
  Nb5+  Nb106  1  0.25475015  0.75337416  0.24922490  1
  Nb5+  Nb107  1  0.25100209  0.75142269  0.75493864  1
  Nb5+  Nb108  1  0.74908250  0.24745021  0.25415769  1
  Nb5+  Nb109  1  0.74363092  0.25276527  0.74690463  1
  Nb5+  Nb110  1  0.74741662  0.74967921  0.24448699  1
  Nb5+  Nb111  1  0.75124799  0.74959401  0.75202120  1
  Nb5+  Nb112  1  -0.00119853  0.25012796  0.49636056  1
  Nb5+  Nb113  1  -0.00116223  0.24575362  1.00051805  1
  Nb5+  Nb114  1  -0.00909930  0.74974824  0.50329210  1
  Nb5+  Nb115  1  0.00398160  0.73922958  0.99962445  1
  Nb5+  Nb116  1  0.49917022  0.24754775  0.50589556  1
  Nb5+  Nb117  1  0.49610346  0.24518574  1.00017386  1
  Nb5+  Nb118  1  0.49446070  0.74999199  0.49963601  1
  Nb5+  Nb119  1  0.50534673  0.74203020  0.99733601  1
  Nb5+  Nb120  1  0.24013001  -0.00157592  0.00245995  1
  Nb5+  Nb121  1  0.24521513  0.00443168  0.49449565  1
  Nb5+  Nb122  1  0.25306204  0.50205027  -0.00224908  1
  Nb5+  Nb123  1  0.24870092  0.49807623  0.50368952  1
  Nb5+  Nb124  1  0.74655675  -0.00045926  -0.00045235  1
  Nb5+  Nb125  1  0.74948463  -0.00297895  0.50908503  1
  Nb5+  Nb126  1  0.74506043  0.50131129  0.00415881  1
  Nb5+  Nb127  1  0.75200302  0.49232048  0.49136615  1
  O2-  O128  1  0.00963844  0.00443552  0.11787640  1
  O2-  O129  1  0.01878611  -0.00153066  0.63649050  1
  O2-  O130  1  -0.00606146  0.51723022  0.11924983  1
  O2-  O131  1  -0.00287844  0.48697308  0.63431937  1
  O2-  O132  1  0.50819748  0.02020593  0.12130297  1
  O2-  O133  1  0.51281782  0.01403811  0.63477625  1
  O2-  O134  1  0.47472256  0.50124123  0.13385926  1
  O2-  O135  1  0.49571594  0.50025012  0.63447902  1
  O2-  O136  1  -0.00515329  0.00774998  0.36371257  1
  O2-  O137  1  -0.01115430  0.00536146  0.88249458  1
  O2-  O138  1  0.00446553  0.47646612  0.36317528  1
  O2-  O139  1  0.00893555  0.49788315  0.88201254  1
  O2-  O140  1  0.51388432  -0.01175367  0.36114062  1
  O2-  O141  1  0.49237544  -0.00131985  0.88306176  1
  O2-  O142  1  0.50650015  0.47384339  0.36254162  1
  O2-  O143  1  0.50215319  0.47045429  0.86855770  1
  O2-  O144  1  0.25815067  0.23516079  0.13663040  1
  O2-  O145  1  0.24656667  0.21747500  0.63577701  1
  O2-  O146  1  0.24142428  0.72567361  0.13792795  1
  O2-  O147  1  0.24162052  0.73651782  0.61802601  1
  O2-  O148  1  0.75466670  0.26315996  0.11985623  1
  O2-  O149  1  0.76177345  0.27577028  0.63500956  1
  O2-  O150  1  0.75062099  0.77687477  0.13229347  1
  O2-  O151  1  0.74482680  0.77777972  0.61883045  1
  O2-  O152  1  0.26692855  0.27651049  0.36734829  1
  O2-  O153  1  0.24914725  0.28563087  0.86577095  1
  O2-  O154  1  0.26852446  0.76229285  0.37898548  1
  O2-  O155  1  0.27212744  0.75834045  0.86878546  1
  O2-  O156  1  0.73101066  0.22353080  0.36492622  1
  O2-  O157  1  0.73745730  0.22620473  0.87785462  1
  O2-  O158  1  0.75035921  0.73728352  0.37951255  1
  O2-  O159  1  0.76022580  0.72065391  0.86482034  1
  O2-  O160  1  -0.03059044  0.24127973  0.11089903  1
  O2-  O161  1  -0.00730588  0.25211820  0.63282305  1
  O2-  O162  1  0.00521788  0.75236003  0.11627855  1
  O2-  O163  1  0.02609148  0.75996299  0.61494156  1
  O2-  O164  1  0.50185682  0.23681594  0.11994261  1
  O2-  O165  1  0.49697141  0.24309384  0.62723471  1
  O2-  O166  1  0.51984524  0.74623329  0.11676604  1
  O2-  O167  1  0.52082215  0.74157850  0.61613263  1
  O2-  O168  1  0.25360979  -0.03272898  0.38116651  1
  O2-  O169  1  0.26474485  -0.01653023  0.88793653  1
  O2-  O170  1  0.24751608  0.47998170  0.37353619  1
  O2-  O171  1  0.23908917  0.47934172  0.88600978  1
  O2-  O172  1  0.74681990  0.01772029  0.36586496  1
  O2-  O173  1  0.75506535  0.03089559  0.88892999  1
  O2-  O174  1  0.73664758  0.53580425  0.38149328  1
  O2-  O175  1  0.74942501  0.51918650  0.88691895  1
  O2-  O176  1  0.00324598  0.25201658  0.37971629  1
  O2-  O177  1  0.00532807  0.25093516  0.87658790  1
  O2-  O178  1  -0.00374591  0.75449375  0.38510340  1
  O2-  O179  1  -0.00281976  0.75633723  0.88149509  1
  O2-  O180  1  0.50829699  0.25185331  0.37104297  1
  O2-  O181  1  0.50943757  0.25581831  0.87352683  1
  O2-  O182  1  0.49883618  0.77241250  0.38437019  1
  O2-  O183  1  0.48074389  0.76574556  0.88397137  1
  O2-  O184  1  0.24374644  0.03039221  0.11718870  1
  O2-  O185  1  0.24042388  0.01903023  0.61459937  1
  O2-  O186  1  0.25319684  0.52133152  0.13370295  1
  O2-  O187  1  0.24356303  0.52888561  0.61538624  1
  O2-  O188  1  0.75628589  -0.01319309  0.12301539  1
  O2-  O189  1  0.75381255  -0.03018754  0.61931142  1
  O2-  O190  1  0.77560495  0.48373332  0.11633475  1
  O2-  O191  1  0.76388899  0.47748986  0.61265038  1
  O2-  O192  1  0.13463525  0.27700225  0.25032571  1
  O2-  O193  1  0.12297383  0.27332018  0.74542224  1
  O2-  O194  1  0.13830915  0.77023471  0.26550361  1
  O2-  O195  1  0.13726932  0.78444243  0.75202506  1
  O2-  O196  1  0.62395644  0.26499516  0.23827592  1
  O2-  O197  1  0.62675673  0.27073827  0.74464209  1
  O2-  O198  1  0.63466357  0.78284074  0.25943739  1
  O2-  O199  1  0.63628616  0.78314760  0.75938029  1
  O2-  O200  1  0.38413245  0.22661510  0.24997056  1
  O2-  O201  1  0.37916166  0.22744807  0.75809843  1
  O2-  O202  1  0.36878701  0.71327781  0.24843075  1
  O2-  O203  1  0.36845358  0.72288425  0.73062098  1
  O2-  O204  1  0.86379482  0.22440321  0.25783900  1
  O2-  O205  1  0.87698563  0.22878766  0.75697609  1
  O2-  O206  1  0.86393448  0.73239627  0.25556290  1
  O2-  O207  1  0.86796653  0.72012856  0.73050178  1
  O2-  O208  1  0.27179260  0.37853572  0.23443341  1
  O2-  O209  1  0.27774511  0.36319158  0.72243869  1
  O2-  O210  1  0.28585520  0.86294705  0.23487866  1
  O2-  O211  1  0.28091974  0.86799632  0.73813300  1
  O2-  O212  1  0.76889911  0.36191617  0.26477882  1
  O2-  O213  1  0.76904187  0.36252201  0.78187471  1
  O2-  O214  1  0.77320930  0.88367228  0.26322589  1
  O2-  O215  1  0.78638469  0.86350678  0.76485961  1
  O2-  O216  1  0.23344582  0.13648362  0.27773322  1
  O2-  O217  1  0.23431318  0.13799607  0.78144484  1
  O2-  O218  1  0.23187968  0.61776824  0.27528766  1
  O2-  O219  1  0.22362483  0.63410489  0.76174870  1
  O2-  O220  1  0.73270755  0.12312847  0.22700766  1
  O2-  O221  1  0.73549813  0.13573420  0.72841178  1
  O2-  O222  1  0.72194053  0.63740122  0.23018508  1
  O2-  O223  1  0.72126723  0.63404425  0.72167565  1
  O2-  O224  1  0.13112797  0.47603609  0.24328164  1
  O2-  O225  1  0.11559027  0.46126856  0.75574201  1
  O2-  O226  1  0.11617452  0.96750685  0.24822328  1
  O2-  O227  1  0.11382357  0.99038031  0.77630759  1
  O2-  O228  1  0.61592016  0.47114112  0.22799314  1
  O2-  O229  1  0.61827302  0.46825761  0.74948002  1
  O2-  O230  1  0.63158458  0.98473906  0.23944054  1
  O2-  O231  1  0.61598681  0.99096867  0.77231328  1
  O2-  O232  1  0.38725552  0.03428087  0.25278495  1
  O2-  O233  1  0.38581301  0.03562953  0.75221055  1
  O2-  O234  1  0.37252268  0.51412351  0.26357016  1
  O2-  O235  1  0.38237850  0.51678731  0.76039657  1
  O2-  O236  1  0.87220975  0.02609474  0.24259059  1
  O2-  O237  1  0.88669321  0.03789822  0.74596075  1
  O2-  O238  1  0.88484755  0.53593917  0.25514988  1
  O2-  O239  1  0.88640975  0.51394752  0.76419460  1
  O2-  O240  1  0.48322625  0.36302845  0.23991417  1
  O2-  O241  1  0.47950287  0.36498789  0.74221490  1
  O2-  O242  1  0.48297242  0.88932369  0.22456287  1
  O2-  O243  1  0.47768373  0.88782157  0.74780000  1
  O2-  O244  1  0.97620303  0.38685703  0.22576244  1
  O2-  O245  1  0.97692674  0.36835536  0.75824972  1
  O2-  O246  1  0.97114341  0.88617797  0.23796560  1
  O2-  O247  1  0.97189816  0.88518640  0.75541495  1
  O2-  O248  1  0.03046242  0.11707269  0.23799185  1
  O2-  O249  1  0.02486551  0.13315673  0.75313353  1
  O2-  O250  1  0.03639238  0.61377925  0.25226577  1
  O2-  O251  1  0.03291282  0.61227070  0.75039972  1
  O2-  O252  1  0.53040847  0.12679456  0.25237888  1
  O2-  O253  1  0.52747895  0.13283397  0.75538732  1
  O2-  O254  1  0.52856359  0.61318338  0.25798079  1
  O2-  O255  1  0.52588348  0.61477603  0.77037301  1
  O2-  O256  1  0.11834508  0.47509825  0.01068579  1
  O2-  O257  1  0.13207845  0.48041263  0.49548219  1
  O2-  O258  1  0.12205578  0.98078358  -0.00553722  1
  O2-  O259  1  0.13246458  0.96577585  0.49596754  1
  O2-  O260  1  0.63391903  0.47001595  0.01115243  1
  O2-  O261  1  0.63380659  0.48283469  0.50884003  1
  O2-  O262  1  0.63038661  0.98381122  0.00001368  1
  O2-  O263  1  0.63606930  0.96765293  0.49341014  1
  O2-  O264  1  0.37838374  0.02672769  0.00821776  1
  O2-  O265  1  0.36550005  0.02009446  0.49611575  1
  O2-  O266  1  0.36352144  0.53397931  -0.01111710  1
  O2-  O267  1  0.36430222  0.52783491  0.49013877  1
  O2-  O268  1  0.87791388  0.02882064  0.00966261  1
  O2-  O269  1  0.86461335  0.02218104  0.49446399  1
  O2-  O270  1  0.88051674  0.51906658  -0.00885703  1
  O2-  O271  1  0.86362477  0.53415140  0.49251351  1
  O2-  O272  1  0.47788666  0.35898846  0.00760752  1
  O2-  O273  1  0.46841627  0.36306859  0.49615682  1
  O2-  O274  1  0.48441137  0.88753161  0.01043585  1
  O2-  O275  1  0.47731940  0.86812505  0.51729653  1
  O2-  O276  1  0.97641686  0.37688742  0.00239197  1
  O2-  O277  1  0.96127082  0.36412899  0.50693976  1
  O2-  O278  1  0.97549227  0.88280586  0.00283459  1
  O2-  O279  1  0.97154559  0.86789818  0.50233443  1
  O2-  O280  1  0.01949842  0.12775517  -0.00370780  1
  O2-  O281  1  0.03553644  0.13638402  0.50857771  1
  O2-  O282  1  0.02473044  0.62369868  -0.00568834  1
  O2-  O283  1  0.02688767  0.63505628  0.50155304  1
  O2-  O284  1  0.53173098  0.12342420  -0.00881287  1
  O2-  O285  1  0.53669074  0.13520514  0.49397699  1
  O2-  O286  1  0.53444470  0.63098338  -0.01565434  1
  O2-  O287  1  0.52567118  0.63542330  0.48517686  1
  O2-  O288  1  0.11088507  0.27177572  0.01569365  1
  O2-  O289  1  0.11456192  0.28681802  0.50367245  1
  O2-  O290  1  0.11552034  0.78244733  -0.00329046  1
  O2-  O291  1  0.13192670  0.77227695  0.48744089  1
  O2-  O292  1  0.62783404  0.26508609  0.00072529  1
  O2-  O293  1  0.61562241  0.28428332  0.50830126  1
  O2-  O294  1  0.61741339  0.78383770  -0.01247431  1
  O2-  O295  1  0.62919624  0.77676702  0.49290656  1
  O2-  O296  1  0.38545922  0.21506701  -0.00641762  1
  O2-  O297  1  0.38454103  0.21486841  0.50172691  1
  O2-  O298  1  0.38706282  0.73098997  0.01969214  1
  O2-  O299  1  0.37751583  0.72701152  0.50867415  1
  O2-  O300  1  0.87023389  0.23648967  -0.01813922  1
  O2-  O301  1  0.88245462  0.21443683  0.49595411  1
  O2-  O302  1  0.88459177  0.72787397  0.00126208  1
  O2-  O303  1  0.87430896  0.72722195  0.51331751  1
  O2-  O304  1  0.26498995  0.38887297  0.03231210  1
  O2-  O305  1  0.27351102  0.38657951  0.52171206  1
  O2-  O306  1  0.26891570  0.88592265  0.02547507  1
  O2-  O307  1  0.27471404  0.86729046  0.51654563  1
  O2-  O308  1  0.76687464  0.36888045  -0.01538707  1
  O2-  O309  1  0.76897150  0.38369957  0.45731224  1
  O2-  O310  1  0.77929027  0.88998093  -0.01484985  1
  O2-  O311  1  0.77680641  0.87169089  0.47912065  1
  O2-  O312  1  0.22703464  0.11842766  -0.02083586  1
  O2-  O313  1  0.22528934  0.11591278  0.46770521  1
  O2-  O314  1  0.21175378  0.61317033  -0.00388552  1
  O2-  O315  1  0.23191093  0.63141148  0.48071859  1
  O2-  O316  1  0.73884756  0.12864019  0.02313438  1
  O2-  O317  1  0.72609334  0.11179302  0.52225942  1
  O2-  O318  1  0.72820539  0.61546213  0.02475482  1
  O2-  O319  1  0.72894797  0.63755036  0.52014270  1
