# generated using pymatgen
data_Sr64Ca21Nb43O192
_symmetry_space_group_name_H-M   'P 1'
_cell_length_a   16.54409983
_cell_length_b   16.54566784
_cell_length_c   16.73990617
_cell_angle_alpha   89.99281251
_cell_angle_beta   89.97161281
_cell_angle_gamma   90.08614999
_symmetry_Int_Tables_number   1
_chemical_formula_structural   Sr64Ca21Nb43O192
_chemical_formula_sum   'Sr64 Ca21 Nb43 O192'
_cell_volume   4582.26197869
_cell_formula_units_Z   1
loop_
 _symmetry_equiv_pos_site_id
 _symmetry_equiv_pos_as_xyz
  1  'x, y, z'
loop_
 _atom_type_symbol
 _atom_type_oxidation_number
  Sr2+  2.0
  Ca2+  2.0
  Nb5+  5.0
  O2-  -2.0
loop_
 _atom_site_type_symbol
 _atom_site_label
 _atom_site_symmetry_multiplicity
 _atom_site_fract_x
 _atom_site_fract_y
 _atom_site_fract_z
 _atom_site_occupancy
  Sr2+  Sr0  1  0.12588508  0.13317112  0.12328504  1
  Sr2+  Sr1  1  0.13695787  0.13497595  0.63293435  1
  Sr2+  Sr2  1  0.12299244  0.62694045  0.12097986  1
  Sr2+  Sr3  1  0.12133457  0.61247934  0.62600746  1
  Sr2+  Sr4  1  0.62087799  0.11255761  0.13442598  1
  Sr2+  Sr5  1  0.61913073  0.11710059  0.61747732  1
  Sr2+  Sr6  1  0.62652697  0.60627790  0.12043174  1
  Sr2+  Sr7  1  0.61362775  0.62720148  0.63396583  1
  Sr2+  Sr8  1  0.38130543  0.37169314  0.12661682  1
  Sr2+  Sr9  1  0.37080726  0.39090665  0.62603046  1
  Sr2+  Sr10  1  0.37563136  0.86290434  0.12097652  1
  Sr2+  Sr11  1  0.38392917  0.87216593  0.62484960  1
  Sr2+  Sr12  1  0.86704794  0.38144857  0.13088670  1
  Sr2+  Sr13  1  0.87068058  0.36722030  0.62019785  1
  Sr2+  Sr14  1  0.86865416  0.87575200  0.12344056  1
  Sr2+  Sr15  1  0.86432688  0.88465761  0.63561845  1
  Sr2+  Sr16  1  0.12863200  0.37678254  0.37315963  1
  Sr2+  Sr17  1  0.13193460  0.37668363  0.87439760  1
  Sr2+  Sr18  1  0.12785932  0.87862844  0.36444736  1
  Sr2+  Sr19  1  0.12548455  0.88239452  0.87840498  1
  Sr2+  Sr20  1  0.63683576  0.38372707  0.37216663  1
  Sr2+  Sr21  1  0.63075930  0.37877225  0.88190088  1
  Sr2+  Sr22  1  0.61994396  0.88893570  0.37922083  1
  Sr2+  Sr23  1  0.65202171  0.87481741  0.87066013  1
  Sr2+  Sr24  1  0.38833575  0.12286389  0.37765174  1
  Sr2+  Sr25  1  0.37819303  0.12677350  0.87400157  1
  Sr2+  Sr26  1  0.37797324  0.63374782  0.37943024  1
  Sr2+  Sr27  1  0.38068058  0.63317264  0.86603316  1
  Sr2+  Sr28  1  0.87801107  0.13028000  0.37513097  1
  Sr2+  Sr29  1  0.88863066  0.12158046  0.87658262  1
  Sr2+  Sr30  1  0.88514302  0.62898580  0.37510565  1
  Sr2+  Sr31  1  0.87521546  0.63660091  0.86936546  1
  Sr2+  Sr32  1  0.13541834  0.14353533  0.37393192  1
  Sr2+  Sr33  1  0.12751156  0.14083275  0.87974128  1
  Sr2+  Sr34  1  0.12906583  0.63944800  0.37537309  1
  Sr2+  Sr35  1  0.13109003  0.63248059  0.87547994  1
  Sr2+  Sr36  1  0.62754558  0.12708957  0.37505838  1
  Sr2+  Sr37  1  0.62851521  0.12582407  0.89024353  1
  Sr2+  Sr38  1  0.62923053  0.63510063  0.37764087  1
  Sr2+  Sr39  1  0.63017830  0.63398416  0.87049348  1
  Sr2+  Sr40  1  0.37729424  0.39225639  0.36902731  1
  Sr2+  Sr41  1  0.38059443  0.39395556  0.87215732  1
  Sr2+  Sr42  1  0.37231610  0.86975135  0.38321182  1
  Sr2+  Sr43  1  0.37084320  0.87144557  0.87633696  1
  Sr2+  Sr44  1  0.88160850  0.38639917  0.37999406  1
  Sr2+  Sr45  1  0.88356185  0.37357095  0.86940870  1
  Sr2+  Sr46  1  0.88117558  0.87810244  0.37302143  1
  Sr2+  Sr47  1  0.87983266  0.88086720  0.87697102  1
  Sr2+  Sr48  1  0.13559332  0.36933815  0.12653984  1
  Sr2+  Sr49  1  0.11660686  0.37253079  0.62339905  1
  Sr2+  Sr50  1  0.12631921  0.87502357  0.12690560  1
  Sr2+  Sr51  1  0.12333854  0.88313220  0.62963517  1
  Sr2+  Sr52  1  0.61580577  0.37037465  0.12394305  1
  Sr2+  Sr53  1  0.63249364  0.36236188  0.62414898  1
  Sr2+  Sr54  1  0.62707135  0.87541740  0.12678521  1
  Sr2+  Sr55  1  0.62195461  0.87830305  0.62038415  1
  Sr2+  Sr56  1  0.39717467  0.12448884  0.12350342  1
  Sr2+  Sr57  1  0.37446626  0.12275128  0.63116987  1
  Sr2+  Sr58  1  0.38481925  0.61306148  0.11571110  1
  Sr2+  Sr59  1  0.36705576  0.62331188  0.62571881  1
  Sr2+  Sr60  1  0.88053216  0.11951196  0.12501891  1
  Sr2+  Sr61  1  0.85774144  0.13314773  0.62225341  1
  Sr2+  Sr62  1  0.86464178  0.62298596  0.12031853  1
  Sr2+  Sr63  1  0.86926441  0.61569722  0.62480079  1
  Ca2+  Ca64  1  0.50097960  0.49994998  0.50185439  1
  Ca2+  Ca65  1  0.00373129  0.00414123  0.49860378  1
  Ca2+  Ca66  1  0.50143539  0.49887199  -0.00290107  1
  Ca2+  Ca67  1  -0.00149310  0.50055079  -0.00103122  1
  Ca2+  Ca68  1  0.50145726  -0.00226778  -0.00332918  1
  Ca2+  Ca69  1  0.24557065  0.75178875  0.50305117  1
  Ca2+  Ca70  1  0.25564869  0.24818879  0.00045823  1
  Ca2+  Ca71  1  0.25538186  0.24985512  0.50234122  1
  Ca2+  Ca72  1  0.75250808  0.75139640  0.49883201  1
  Ca2+  Ca73  1  0.75222233  0.24980420  0.00737021  1
  Ca2+  Ca74  1  0.00214445  0.74849953  0.74910387  1
  Ca2+  Ca75  1  0.25301337  0.00216906  0.24760372  1
  Ca2+  Ca76  1  0.74939340  0.00762842  0.75153721  1
  Ca2+  Ca77  1  0.75102998  -0.00152886  0.25098873  1
  Ca2+  Ca78  1  0.49824635  0.75557184  0.75286482  1
  Ca2+  Ca79  1  0.50296018  0.25100260  0.74688791  1
  Ca2+  Ca80  1  0.75011274  0.49698397  0.74827657  1
  Ca2+  Ca81  1  0.50095046  0.75081939  0.24881845  1
  Ca2+  Ca82  1  0.25044854  0.50333575  0.24904638  1
  Ca2+  Ca83  1  -0.00219506  0.24685113  0.74696058  1
  Ca2+  Ca84  1  0.75117407  0.50260317  0.25176538  1
  Nb5+  Nb85  1  0.00082020  0.50211632  0.49739314  1
  Nb5+  Nb86  1  0.00371444  -0.00087052  0.00228369  1
  Nb5+  Nb87  1  0.49693252  0.00000564  0.50130853  1
  Nb5+  Nb88  1  0.25400363  0.74705533  0.00113695  1
  Nb5+  Nb89  1  0.74768307  0.25080990  0.49495606  1
  Nb5+  Nb90  1  0.75507375  0.75063428  0.00095015  1
  Nb5+  Nb91  1  0.24784993  0.00427869  0.75334450  1
  Nb5+  Nb92  1  0.50670294  0.25170968  0.25304975  1
  Nb5+  Nb93  1  0.00110822  0.25845160  0.24865784  1
  Nb5+  Nb94  1  -0.00367897  0.75702248  0.24728726  1
  Nb5+  Nb95  1  0.24670329  0.50624625  0.75139271  1
  Nb5+  Nb96  1  0.00445718  0.00879638  0.25266308  1
  Nb5+  Nb97  1  0.00251790  0.00469698  0.74213190  1
  Nb5+  Nb98  1  0.00246769  0.50832565  0.24841612  1
  Nb5+  Nb99  1  -0.00174069  0.49719398  0.75182957  1
  Nb5+  Nb100  1  0.49322753  -0.00570513  0.24997270  1
  Nb5+  Nb101  1  0.50202226  0.00126019  0.75410435  1
  Nb5+  Nb102  1  0.50491589  0.50442230  0.25347614  1
  Nb5+  Nb103  1  0.50540123  0.49682878  0.74582389  1
  Nb5+  Nb104  1  0.26273415  0.24750827  0.24990846  1
  Nb5+  Nb105  1  0.25354110  0.25850428  0.75128549  1
  Nb5+  Nb106  1  0.25366060  0.74414067  0.24640013  1
  Nb5+  Nb107  1  0.24427789  0.75577138  0.74704678  1
  Nb5+  Nb108  1  0.75598006  0.25139291  0.25069193  1
  Nb5+  Nb109  1  0.74757411  0.24819339  0.76051554  1
  Nb5+  Nb110  1  0.74895039  0.75132345  0.25236737  1
  Nb5+  Nb111  1  0.75036195  0.75240567  0.74292072  1
  Nb5+  Nb112  1  -0.00008903  0.24704067  0.49863422  1
  Nb5+  Nb113  1  -0.00357538  0.25515726  1.00296518  1
  Nb5+  Nb114  1  -0.00062393  0.75439817  0.50545283  1
  Nb5+  Nb115  1  0.00471503  0.75151645  0.99919619  1
  Nb5+  Nb116  1  0.49694119  0.25181530  0.49963978  1
  Nb5+  Nb117  1  0.50227544  0.24750714  0.99418413  1
  Nb5+  Nb118  1  0.50278996  0.74764366  0.49940152  1
  Nb5+  Nb119  1  0.50872272  0.75587800  0.99962386  1
  Nb5+  Nb120  1  0.25218041  0.00088984  0.00104751  1
  Nb5+  Nb121  1  0.24618178  -0.00390701  0.49832248  1
  Nb5+  Nb122  1  0.25253794  0.49747054  0.00076812  1
  Nb5+  Nb123  1  0.24752864  0.50172172  0.49624776  1
  Nb5+  Nb124  1  0.75003214  0.00170147  0.00234654  1
  Nb5+  Nb125  1  0.75445793  0.00048530  0.49844034  1
  Nb5+  Nb126  1  0.75449080  0.49629940  -0.00465042  1
  Nb5+  Nb127  1  0.74434775  0.50425765  0.50425285  1
  O2-  O128  1  0.00796495  0.01766192  0.12500277  1
  O2-  O129  1  0.02803362  0.02407135  0.63271746  1
  O2-  O130  1  -0.01551467  0.52270696  0.13597705  1
  O2-  O131  1  -0.00899630  0.51853946  0.61710882  1
  O2-  O132  1  0.49963917  -0.00039553  0.13342406  1
  O2-  O133  1  0.49710657  -0.01352555  0.61958450  1
  O2-  O134  1  0.47898992  0.49355602  0.13576343  1
  O2-  O135  1  0.46755891  0.51393738  0.63279959  1
  O2-  O136  1  -0.00049265  -0.02568229  0.36362126  1
  O2-  O137  1  -0.00629439  -0.01904615  0.88401637  1
  O2-  O138  1  0.01575653  0.47904173  0.37886065  1
  O2-  O139  1  0.00925620  0.46715979  0.86326646  1
  O2-  O140  1  0.49717477  0.00163078  0.37726223  1
  O2-  O141  1  0.49981445  0.03043131  0.86453491  1
  O2-  O142  1  0.52099892  0.48642526  0.36878594  1
  O2-  O143  1  0.51772234  0.48250124  0.86368622  1
  O2-  O144  1  0.24506382  0.25698246  0.13379395  1
  O2-  O145  1  0.26086882  0.23255959  0.63614744  1
  O2-  O146  1  0.22540182  0.75231427  0.11973204  1
  O2-  O147  1  0.21381259  0.75157203  0.63764183  1
  O2-  O148  1  0.74834849  0.28392871  0.13985930  1
  O2-  O149  1  0.74937404  0.26243704  0.61441027  1
  O2-  O150  1  0.74047230  0.77377820  0.11766896  1
  O2-  O151  1  0.74267609  0.78077788  0.63179610  1
  O2-  O152  1  0.24718734  0.25038737  0.36732197  1
  O2-  O153  1  0.23182909  0.25415119  0.86767705  1
  O2-  O154  1  0.26629041  0.74174430  0.36375036  1
  O2-  O155  1  0.26884867  0.74403260  0.88173602  1
  O2-  O156  1  0.75345672  0.22402148  0.37604861  1
  O2-  O157  1  0.74624735  0.23050972  0.87263169  1
  O2-  O158  1  0.76245833  0.72421571  0.36333807  1
  O2-  O159  1  0.75750103  0.73543512  0.88118546  1
  O2-  O160  1  -0.00206367  0.22548075  0.13269916  1
  O2-  O161  1  -0.00275624  0.22014059  0.60987351  1
  O2-  O162  1  0.01252928  0.73610107  0.12507388  1
  O2-  O163  1  0.02705758  0.73339269  0.61341420  1
  O2-  O164  1  0.50058714  0.25410959  0.13405662  1
  O2-  O165  1  0.52652051  0.24906034  0.61024150  1
  O2-  O166  1  0.51109326  0.77076004  0.11705518  1
  O2-  O167  1  0.51698579  0.76394444  0.61695744  1
  O2-  O168  1  0.25774210  -0.00858735  0.38463340  1
  O2-  O169  1  0.24756067  -0.01547252  0.87540942  1
  O2-  O170  1  0.22735629  0.49378978  0.38423613  1
  O2-  O171  1  0.22691963  0.49854705  0.87088762  1
  O2-  O172  1  0.73578929  0.01842288  0.38385213  1
  O2-  O173  1  0.76966597  0.02076599  0.88583065  1
  O2-  O174  1  0.73413484  0.52208388  0.38757028  1
  O2-  O175  1  0.72083297  0.51240519  0.88206711  1
  O2-  O176  1  -0.01258123  0.26922823  0.36602162  1
  O2-  O177  1  0.00213533  0.26722320  0.88690919  1
  O2-  O178  1  -0.02251128  0.76133218  0.36478612  1
  O2-  O179  1  -0.02312948  0.76434372  0.88746227  1
  O2-  O180  1  0.49423924  0.24331568  0.37400409  1
  O2-  O181  1  0.50829747  0.22990665  0.88138234  1
  O2-  O182  1  0.47637496  0.74988870  0.38204556  1
  O2-  O183  1  0.47605103  0.74751487  0.88675631  1
  O2-  O184  1  0.25203234  -0.01555076  0.11352384  1
  O2-  O185  1  0.24308508  0.00438430  0.63450799  1
  O2-  O186  1  0.27206269  0.50552361  0.11409655  1
  O2-  O187  1  0.26152740  0.50706392  0.63221830  1
  O2-  O188  1  0.74848780  -0.02621806  0.11682591  1
  O2-  O189  1  0.74316018  -0.01187250  0.61591696  1
  O2-  O190  1  0.77620918  0.49672241  0.11520309  1
  O2-  O191  1  0.78170433  0.48351309  0.61410473  1
  O2-  O192  1  0.11645657  0.27244021  0.25267819  1
  O2-  O193  1  0.13304867  0.26216004  0.73393335  1
  O2-  O194  1  0.11540725  0.76819705  0.26005617  1
  O2-  O195  1  0.13427522  0.76217511  0.78880893  1
  O2-  O196  1  0.62224938  0.27194207  0.26026010  1
  O2-  O197  1  0.63614834  0.29298598  0.75630696  1
  O2-  O198  1  0.63741484  0.78377637  0.26186058  1
  O2-  O199  1  0.63346788  0.77018420  0.76728171  1
  O2-  O200  1  0.37675069  0.22300633  0.24842036  1
  O2-  O201  1  0.36564336  0.22428151  0.76238603  1
  O2-  O202  1  0.36364451  0.71843071  0.22286051  1
  O2-  O203  1  0.35916144  0.72778901  0.73610028  1
  O2-  O204  1  0.87291626  0.22852208  0.24670766  1
  O2-  O205  1  0.86431080  0.21461835  0.74816677  1
  O2-  O206  1  0.88117525  0.72370245  0.23184309  1
  O2-  O207  1  0.86740196  0.72340703  0.73839993  1
  O2-  O208  1  0.27465917  0.36717700  0.25126517  1
  O2-  O209  1  0.27046105  0.37542247  0.74892481  1
  O2-  O210  1  0.26225705  0.86178899  0.24625871  1
  O2-  O211  1  0.26559834  0.87209567  0.74825177  1
  O2-  O212  1  0.76539512  0.36477609  0.28508255  1
  O2-  O213  1  0.78738045  0.36318271  0.75778416  1
  O2-  O214  1  0.78982957  0.86312277  0.25770625  1
  O2-  O215  1  0.77561566  0.86865472  0.77183428  1
  O2-  O216  1  0.21789692  0.13618334  0.24686791  1
  O2-  O217  1  0.22576666  0.11826938  0.76281955  1
  O2-  O218  1  0.20991545  0.63342158  0.24374777  1
  O2-  O219  1  0.22758181  0.62269958  0.75219238  1
  O2-  O220  1  0.72749964  0.13727156  0.23563049  1
  O2-  O221  1  0.71062375  0.13814721  0.73240008  1
  O2-  O222  1  0.73434202  0.63819266  0.22019998  1
  O2-  O223  1  0.72457922  0.63482177  0.73726603  1
  O2-  O224  1  0.11306021  0.46897995  0.23903122  1
  O2-  O225  1  0.12979437  0.47385076  0.73512321  1
  O2-  O226  1  0.11683462  0.97480541  0.24408991  1
  O2-  O227  1  0.12776469  0.97452323  0.75704847  1
  O2-  O228  1  0.61843999  0.47108686  0.23193862  1
  O2-  O229  1  0.61519041  0.48305080  0.71438175  1
  O2-  O230  1  0.61261907  0.97935691  0.25188591  1
  O2-  O231  1  0.61405181  0.97207384  0.75136082  1
  O2-  O232  1  0.38425883  0.03980501  0.25174650  1
  O2-  O233  1  0.36518927  0.02105491  0.75360073  1
  O2-  O234  1  0.38606871  0.52225124  0.27633878  1
  O2-  O235  1  0.36393475  0.51605357  0.77005648  1
  O2-  O236  1  0.88645468  0.02184352  0.24472537  1
  O2-  O237  1  0.88678243  0.02042271  0.73115784  1
  O2-  O238  1  0.88751240  0.50566391  0.27615225  1
  O2-  O239  1  0.88646412  0.52569548  0.76150709  1
  O2-  O240  1  0.47413044  0.36721528  0.25455363  1
  O2-  O241  1  0.46654567  0.38339307  0.74123789  1
  O2-  O242  1  0.45970043  0.88417216  0.25584496  1
  O2-  O243  1  0.46222827  0.88942282  0.75544092  1
  O2-  O244  1  0.97783869  0.37001810  0.23012334  1
  O2-  O245  1  0.98549768  0.38266410  0.71708662  1
  O2-  O246  1  0.98040423  0.87100086  0.23001842  1
  O2-  O247  1  0.98634154  0.88540031  0.73361528  1
  O2-  O248  1  0.02046460  0.12472077  0.26801523  1
  O2-  O249  1  0.02058893  0.11349567  0.78324122  1
  O2-  O250  1  0.01872712  0.62253240  0.26904474  1
  O2-  O251  1  0.03334119  0.61043217  0.75930764  1
  O2-  O252  1  0.52304842  0.13044231  0.25168730  1
  O2-  O253  1  0.50419456  0.11330483  0.71845773  1
  O2-  O254  1  0.53415842  0.61721358  0.25249048  1
  O2-  O255  1  0.51313197  0.61667421  0.76117727  1
  O2-  O256  1  0.13447444  0.47642820  0.01196557  1
  O2-  O257  1  0.11917827  0.47831407  0.51630149  1
  O2-  O258  1  0.12111836  0.97260895  0.00154962  1
  O2-  O259  1  0.13536366  0.96021192  0.49961236  1
  O2-  O260  1  0.63671025  0.48366456  0.02395326  1
  O2-  O261  1  0.63519971  0.46985010  0.51834785  1
  O2-  O262  1  0.63702459  0.97587493  -0.01434619  1
  O2-  O263  1  0.61971523  0.98193724  0.50313503  1
  O2-  O264  1  0.36469092  0.02331610  -0.00667120  1
  O2-  O265  1  0.37804923  0.02580036  0.50552326  1
  O2-  O266  1  0.36430669  0.52958463  -0.02815129  1
  O2-  O267  1  0.36236360  0.52332009  0.48316056  1
  O2-  O268  1  0.88090828  0.00814878  0.01270319  1
  O2-  O269  1  0.86710046  0.03048065  0.50171849  1
  O2-  O270  1  0.86549996  0.53618740  -0.02218527  1
  O2-  O271  1  0.88014608  0.51165859  0.48173398  1
  O2-  O272  1  0.46929464  0.36278988  -0.00043132  1
  O2-  O273  1  0.46773554  0.36347200  0.49865509  1
  O2-  O274  1  0.46387326  0.86788734  -0.00399776  1
  O2-  O275  1  0.47786919  0.88041157  0.49223031  1
  O2-  O276  1  0.97115519  0.36479592  0.02456194  1
  O2-  O277  1  0.98057737  0.37140739  0.51056315  1
  O2-  O278  1  0.98641856  0.87350568  0.02223705  1
  O2-  O279  1  0.97158583  0.86578399  0.51974399  1
  O2-  O280  1  0.01958268  0.11592618  -0.01196004  1
  O2-  O281  1  0.01001350  0.13703812  0.46004921  1
  O2-  O282  1  0.02039201  0.63618428  -0.01237133  1
  O2-  O283  1  0.01911362  0.61686795  0.47892000  1
  O2-  O284  1  0.53338119  0.13281182  0.01817555  1
  O2-  O285  1  0.52386273  0.11939722  0.49473081  1
  O2-  O286  1  0.51572948  0.63719400  0.01163931  1
  O2-  O287  1  0.53219765  0.63433096  0.49791510  1
  O2-  O288  1  0.11385367  0.25988612  0.01513563  1
  O2-  O289  1  0.11427402  0.26910606  0.49269277  1
  O2-  O290  1  0.12084169  0.77015940  -0.01257300  1
  O2-  O291  1  0.11018591  0.76554556  0.46491362  1
  O2-  O292  1  0.61828088  0.28188399  0.00020809  1
  O2-  O293  1  0.62749011  0.26748289  0.48033620  1
  O2-  O294  1  0.62442715  0.77482663  -0.01538558  1
  O2-  O295  1  0.61769823  0.77867192  0.47877368  1
  O2-  O296  1  0.38625038  0.21363193  0.00332538  1
  O2-  O297  1  0.38870734  0.21324959  0.50545188  1
  O2-  O298  1  0.36594313  0.73054791  0.02343564  1
  O2-  O299  1  0.38329788  0.72811608  0.51859947  1
  O2-  O300  1  0.88584480  0.21247002  0.00343699  1
  O2-  O301  1  0.87108466  0.23529403  0.49646284  1
  O2-  O302  1  0.87248303  0.73668053  0.01539057  1
  O2-  O303  1  0.88768584  0.71460300  0.50468835  1
  O2-  O304  1  0.27724932  0.38457738  -0.00572010  1
  O2-  O305  1  0.26363457  0.38552683  0.51680985  1
  O2-  O306  1  0.26304841  0.86798797  -0.00374933  1
  O2-  O307  1  0.28340269  0.88358068  0.51606031  1
  O2-  O308  1  0.78142678  0.38443544  -0.01956485  1
  O2-  O309  1  0.76531762  0.36980645  0.48038666  1
  O2-  O310  1  0.77000244  0.87195297  -0.01956057  1
  O2-  O311  1  0.77538251  0.88694954  0.48170087  1
  O2-  O312  1  0.21816316  0.11114651  -0.00156399  1
  O2-  O313  1  0.21985937  0.11191282  0.50403858  1
  O2-  O314  1  0.22205089  0.62936168  -0.00002313  1
  O2-  O315  1  0.21952054  0.61634904  0.50874399  1
  O2-  O316  1  0.73069271  0.11407028  0.02574230  1
  O2-  O317  1  0.73035951  0.12953047  0.51380380  1
  O2-  O318  1  0.72868315  0.63542853  0.01295902  1
  O2-  O319  1  0.72800557  0.61655393  0.52906624  1
