# generated using pymatgen
data_Sr64Ca21Nb43O192
_symmetry_space_group_name_H-M   'P 1'
_cell_length_a   16.55142546
_cell_length_b   16.54863712
_cell_length_c   16.68796146
_cell_angle_alpha   90.07122096
_cell_angle_beta   89.99258782
_cell_angle_gamma   90.01192575
_symmetry_Int_Tables_number   1
_chemical_formula_structural   Sr64Ca21Nb43O192
_chemical_formula_sum   'Sr64 Ca21 Nb43 O192'
_cell_volume   4570.88794750
_cell_formula_units_Z   1
loop_
 _symmetry_equiv_pos_site_id
 _symmetry_equiv_pos_as_xyz
  1  'x, y, z'
loop_
 _atom_type_symbol
 _atom_type_oxidation_number
  Sr2+  2.0
  Ca2+  2.0
  Nb5+  5.0
  O2-  -2.0
loop_
 _atom_site_type_symbol
 _atom_site_label
 _atom_site_symmetry_multiplicity
 _atom_site_fract_x
 _atom_site_fract_y
 _atom_site_fract_z
 _atom_site_occupancy
  Sr2+  Sr0  1  0.12407705  0.12714756  0.11588262  1
  Sr2+  Sr1  1  0.13816047  0.12399692  0.62948645  1
  Sr2+  Sr2  1  0.13850358  0.63107033  0.12904068  1
  Sr2+  Sr3  1  0.13022813  0.63350272  0.62958636  1
  Sr2+  Sr4  1  0.63605313  0.12115898  0.12406802  1
  Sr2+  Sr5  1  0.62740932  0.11074207  0.61933872  1
  Sr2+  Sr6  1  0.62790307  0.63609957  0.12550738  1
  Sr2+  Sr7  1  0.63347295  0.64006077  0.61903701  1
  Sr2+  Sr8  1  0.38075873  0.38463700  0.12546788  1
  Sr2+  Sr9  1  0.37986367  0.37131884  0.61597088  1
  Sr2+  Sr10  1  0.38484019  0.87049227  0.12886997  1
  Sr2+  Sr11  1  0.37619300  0.87635627  0.62561409  1
  Sr2+  Sr12  1  0.88640162  0.37515058  0.11744673  1
  Sr2+  Sr13  1  0.88567640  0.39164806  0.62459387  1
  Sr2+  Sr14  1  0.87676475  0.87926875  0.12893482  1
  Sr2+  Sr15  1  0.87399079  0.86799523  0.62521285  1
  Sr2+  Sr16  1  0.10975900  0.36909420  0.37574933  1
  Sr2+  Sr17  1  0.13536526  0.37434011  0.86814819  1
  Sr2+  Sr18  1  0.13003976  0.87781454  0.38494464  1
  Sr2+  Sr19  1  0.11617981  0.87346836  0.87474145  1
  Sr2+  Sr20  1  0.63570088  0.37062437  0.36823117  1
  Sr2+  Sr21  1  0.62717284  0.37349905  0.87700523  1
  Sr2+  Sr22  1  0.60944202  0.87616106  0.37520460  1
  Sr2+  Sr23  1  0.61525838  0.88207387  0.86788772  1
  Sr2+  Sr24  1  0.37697169  0.12250801  0.37963799  1
  Sr2+  Sr25  1  0.36728008  0.13203332  0.87344903  1
  Sr2+  Sr26  1  0.36352854  0.61993319  0.36982027  1
  Sr2+  Sr27  1  0.37042828  0.61376447  0.87667571  1
  Sr2+  Sr28  1  0.87117700  0.12855653  0.37149123  1
  Sr2+  Sr29  1  0.87081192  0.12434108  0.87133561  1
  Sr2+  Sr30  1  0.86498065  0.61170890  0.38011696  1
  Sr2+  Sr31  1  0.87205535  0.62824303  0.86779045  1
  Sr2+  Sr32  1  0.12304410  0.12240597  0.38514974  1
  Sr2+  Sr33  1  0.11668765  0.11822733  0.87736111  1
  Sr2+  Sr34  1  0.12161837  0.61158925  0.36833082  1
  Sr2+  Sr35  1  0.11877603  0.63107936  0.87334409  1
  Sr2+  Sr36  1  0.61933838  0.12490169  0.36718583  1
  Sr2+  Sr37  1  0.62308853  0.13401457  0.87060603  1
  Sr2+  Sr38  1  0.61690807  0.61981939  0.38236455  1
  Sr2+  Sr39  1  0.61895976  0.60498641  0.86750623  1
  Sr2+  Sr40  1  0.36121541  0.36407817  0.37002495  1
  Sr2+  Sr41  1  0.37603339  0.37073604  0.87839780  1
  Sr2+  Sr42  1  0.37245014  0.85537607  0.37472368  1
  Sr2+  Sr43  1  0.36492046  0.87032109  0.86849763  1
  Sr2+  Sr44  1  0.87501598  0.36994225  0.38714294  1
  Sr2+  Sr45  1  0.86560827  0.36915006  0.87189351  1
  Sr2+  Sr46  1  0.86192770  0.87066199  0.36923408  1
  Sr2+  Sr47  1  0.86898144  0.86990351  0.86973272  1
  Sr2+  Sr48  1  0.13583939  0.37730793  0.12605524  1
  Sr2+  Sr49  1  0.12630813  0.37835052  0.62378398  1
  Sr2+  Sr50  1  0.12232326  0.88647494  0.12080917  1
  Sr2+  Sr51  1  0.13379249  0.88115410  0.63090244  1
  Sr2+  Sr52  1  0.63314953  0.37941117  0.12404774  1
  Sr2+  Sr53  1  0.63251317  0.37660247  0.61930617  1
  Sr2+  Sr54  1  0.62927274  0.87699319  0.13026447  1
  Sr2+  Sr55  1  0.61791636  0.87779563  0.62320581  1
  Sr2+  Sr56  1  0.38821919  0.13595188  0.12642148  1
  Sr2+  Sr57  1  0.38667301  0.12567713  0.62089833  1
  Sr2+  Sr58  1  0.38832633  0.62696050  0.12386669  1
  Sr2+  Sr59  1  0.39097566  0.62664772  0.61975018  1
  Sr2+  Sr60  1  0.88563736  0.12249839  0.12483789  1
  Sr2+  Sr61  1  0.88288289  0.11911912  0.62531635  1
  Sr2+  Sr62  1  0.88414539  0.63761447  0.12265255  1
  Sr2+  Sr63  1  0.88717634  0.63218154  0.61865219  1
  Ca2+  Ca64  1  -0.00348412  -0.00022429  0.50118464  1
  Ca2+  Ca65  1  0.49694238  0.49494534  0.49344250  1
  Ca2+  Ca66  1  0.00263247  0.49989806  -0.00028752  1
  Ca2+  Ca67  1  0.49957779  0.00113764  -0.00002135  1
  Ca2+  Ca68  1  0.49957961  -0.00004868  0.49991412  1
  Ca2+  Ca69  1  0.75347541  0.75305621  0.49725225  1
  Ca2+  Ca70  1  0.25191820  0.75189906  0.00003696  1
  Ca2+  Ca71  1  0.74951950  0.24753227  0.50143988  1
  Ca2+  Ca72  1  0.74745769  0.75307203  -0.00281748  1
  Ca2+  Ca73  1  0.24970181  0.74521044  0.50155028  1
  Ca2+  Ca74  1  0.24867674  0.00203599  0.75358222  1
  Ca2+  Ca75  1  0.50046403  0.25112444  0.74880499  1
  Ca2+  Ca76  1  0.24723971  0.00120505  0.24838141  1
  Ca2+  Ca77  1  0.00183057  0.75154811  0.25190974  1
  Ca2+  Ca78  1  0.49951492  0.25192506  0.25165595  1
  Ca2+  Ca79  1  0.00159293  0.24891560  0.24972738  1
  Ca2+  Ca80  1  0.25457674  0.50167047  0.74823402  1
  Ca2+  Ca81  1  0.75006929  0.50076868  0.74731134  1
  Ca2+  Ca82  1  0.75235781  0.49917129  0.24762486  1
  Ca2+  Ca83  1  -0.00062221  0.25138649  0.74870864  1
  Ca2+  Ca84  1  0.50256205  0.74550462  0.75350214  1
  Nb5+  Nb85  1  -0.00432414  -0.00079883  -0.00260629  1
  Nb5+  Nb86  1  0.00303301  0.50263144  0.49982949  1
  Nb5+  Nb87  1  0.50216620  0.49866138  0.00127272  1
  Nb5+  Nb88  1  0.25337528  0.24968022  -0.00170648  1
  Nb5+  Nb89  1  0.24752482  0.24949715  0.49699062  1
  Nb5+  Nb90  1  0.75688209  0.24755658  0.00225335  1
  Nb5+  Nb91  1  0.75076465  0.00249163  0.24452996  1
  Nb5+  Nb92  1  0.75042215  0.00005879  0.74311021  1
  Nb5+  Nb93  1  0.50136359  0.74730483  0.25022474  1
  Nb5+  Nb94  1  0.00091749  0.75273092  0.74784123  1
  Nb5+  Nb95  1  0.25056797  0.49711392  0.25010106  1
  Nb5+  Nb96  1  0.00150314  -0.00040218  0.25584740  1
  Nb5+  Nb97  1  -0.00183092  -0.00072511  0.74735821  1
  Nb5+  Nb98  1  -0.00320141  0.50012398  0.24569194  1
  Nb5+  Nb99  1  -0.00078005  0.50085570  0.75535266  1
  Nb5+  Nb100  1  0.49777491  0.00417815  0.24543719  1
  Nb5+  Nb101  1  0.49613148  0.00169707  0.75419247  1
  Nb5+  Nb102  1  0.49999428  0.49738405  0.25268164  1
  Nb5+  Nb103  1  0.50104524  0.49544832  0.74077112  1
  Nb5+  Nb104  1  0.24229600  0.24352711  0.24587516  1
  Nb5+  Nb105  1  0.25176393  0.25132456  0.74329018  1
  Nb5+  Nb106  1  0.24882120  0.75417986  0.24488135  1
  Nb5+  Nb107  1  0.25602022  0.74690068  0.75274667  1
  Nb5+  Nb108  1  0.75549519  0.25337162  0.24697042  1
  Nb5+  Nb109  1  0.74803242  0.24830274  0.74413097  1
  Nb5+  Nb110  1  0.74961447  0.74451923  0.25568201  1
  Nb5+  Nb111  1  0.74774092  0.75031103  0.75171537  1
  Nb5+  Nb112  1  0.00066094  0.24678208  0.50733653  1
  Nb5+  Nb113  1  0.00401921  0.25322567  0.99583691  1
  Nb5+  Nb114  1  0.00638324  0.75246154  0.49183830  1
  Nb5+  Nb115  1  0.00025015  0.74941034  1.00138917  1
  Nb5+  Nb116  1  0.50510035  0.25396266  0.49821125  1
  Nb5+  Nb117  1  0.50733193  0.25029290  1.00446836  1
  Nb5+  Nb118  1  0.49875190  0.74899080  0.50269295  1
  Nb5+  Nb119  1  0.50253846  0.75036449  0.99485546  1
  Nb5+  Nb120  1  0.25490435  -0.00059630  0.00324299  1
  Nb5+  Nb121  1  0.25332381  -0.00268653  0.50204638  1
  Nb5+  Nb122  1  0.24826184  0.49955337  -0.00022528  1
  Nb5+  Nb123  1  0.24711844  0.50142808  0.50127684  1
  Nb5+  Nb124  1  0.75035106  -0.00180355  -0.00568234  1
  Nb5+  Nb125  1  0.75132383  0.00145200  0.48945177  1
  Nb5+  Nb126  1  0.75133985  0.50595897  0.00199220  1
  Nb5+  Nb127  1  0.74435495  0.49709698  0.49899957  1
  O2-  O128  1  -0.00692131  -0.01825129  0.11658300  1
  O2-  O129  1  -0.01779007  -0.02367296  0.63522524  1
  O2-  O130  1  0.01237068  0.46948330  0.13497513  1
  O2-  O131  1  0.01633346  0.48835108  0.61983948  1
  O2-  O132  1  0.50268722  -0.03370966  0.13336599  1
  O2-  O133  1  0.49352624  -0.02715074  0.63679242  1
  O2-  O134  1  0.50717475  0.48031504  0.12549601  1
  O2-  O135  1  0.50599082  0.47062767  0.62937387  1
  O2-  O136  1  0.00028674  0.03026684  0.36655225  1
  O2-  O137  1  -0.00621914  0.01704260  0.87542852  1
  O2-  O138  1  -0.00721851  0.52284313  0.37836845  1
  O2-  O139  1  -0.00951448  0.53132481  0.86663995  1
  O2-  O140  1  0.50942261  0.01496713  0.36280473  1
  O2-  O141  1  0.52613634  0.01995286  0.86850945  1
  O2-  O142  1  0.48706130  0.53201942  0.36178859  1
  O2-  O143  1  0.48761262  0.51804385  0.88615415  1
  O2-  O144  1  0.24302534  0.23430468  0.12596168  1
  O2-  O145  1  0.24666713  0.24267220  0.62543241  1
  O2-  O146  1  0.27343663  0.72269771  0.13339718  1
  O2-  O147  1  0.27136818  0.72102441  0.63581775  1
  O2-  O148  1  0.74587963  0.22613830  0.12091317  1
  O2-  O149  1  0.72198839  0.23054447  0.63481879  1
  O2-  O150  1  0.76753769  0.73565038  0.13755985  1
  O2-  O151  1  0.77578910  0.73709489  0.63578661  1
  O2-  O152  1  0.24457143  0.25700638  0.37693632  1
  O2-  O153  1  0.25602465  0.26787165  0.88222363  1
  O2-  O154  1  0.23660460  0.76520183  0.36278021  1
  O2-  O155  1  0.22988554  0.77489419  0.86719445  1
  O2-  O156  1  0.75926337  0.26818565  0.36325140  1
  O2-  O157  1  0.75989274  0.25985628  0.88398077  1
  O2-  O158  1  0.72980323  0.78573594  0.36424707  1
  O2-  O159  1  0.73767739  0.78822654  0.86406636  1
  O2-  O160  1  -0.00031908  0.26692826  0.11312654  1
  O2-  O161  1  -0.00081927  0.28728311  0.61769853  1
  O2-  O162  1  -0.02502366  0.76553116  0.11458074  1
  O2-  O163  1  -0.02068268  0.76019164  0.63092366  1
  O2-  O164  1  0.48719316  0.27589677  0.11763383  1
  O2-  O165  1  0.50008384  0.28081966  0.61557735  1
  O2-  O166  1  0.48015503  0.75791684  0.13004374  1
  O2-  O167  1  0.47435051  0.76257420  0.61647849  1
  O2-  O168  1  0.24376319  0.00122556  0.38379951  1
  O2-  O169  1  0.24308930  -0.01674584  0.88838880  1
  O2-  O170  1  0.26608262  0.48568684  0.36902949  1
  O2-  O171  1  0.27069775  0.48122623  0.88737139  1
  O2-  O172  1  0.74966798  -0.01226792  0.37217694  1
  O2-  O173  1  0.74821246  -0.01312759  0.87796053  1
  O2-  O174  1  0.77223244  0.47626682  0.38161753  1
  O2-  O175  1  0.75819616  0.47332497  0.88764980  1
  O2-  O176  1  0.01160882  0.23395996  0.38769345  1
  O2-  O177  1  -0.00443904  0.22212107  0.88265924  1
  O2-  O178  1  0.04131786  0.73959297  0.38337401  1
  O2-  O179  1  0.01743607  0.74226559  0.87253810  1
  O2-  O180  1  0.49598500  0.21755097  0.38323307  1
  O2-  O181  1  0.48829993  0.23118195  0.89019190  1
  O2-  O182  1  0.52295414  0.73578750  0.36768950  1
  O2-  O183  1  0.53505580  0.72842963  0.88727429  1
  O2-  O184  1  0.22009807  0.01380014  0.11485981  1
  O2-  O185  1  0.25021170  0.02104555  0.61967566  1
  O2-  O186  1  0.23547943  0.50725299  0.12703596  1
  O2-  O187  1  0.22559749  0.50510173  0.61358395  1
  O2-  O188  1  0.75660575  0.02055289  0.12690819  1
  O2-  O189  1  0.75889308  0.01976811  0.62884709  1
  O2-  O190  1  0.71914203  0.50915289  0.11476226  1
  O2-  O191  1  0.72394307  0.51745146  0.61486981  1
  O2-  O192  1  0.13356714  0.28813863  0.24819666  1
  O2-  O193  1  0.13442955  0.28067888  0.75087367  1
  O2-  O194  1  0.13672895  0.76555796  0.21801725  1
  O2-  O195  1  0.11853282  0.76998334  0.73395822  1
  O2-  O196  1  0.63549822  0.26922110  0.24758523  1
  O2-  O197  1  0.63486397  0.25953717  0.77894772  1
  O2-  O198  1  0.62191153  0.76373596  0.23057093  1
  O2-  O199  1  0.63665611  0.76695801  0.72403898  1
  O2-  O200  1  0.35950846  0.22815049  0.25505297  1
  O2-  O201  1  0.36594221  0.21738924  0.74860372  1
  O2-  O202  1  0.38117530  0.73251266  0.26868604  1
  O2-  O203  1  0.36772891  0.73413631  0.78256479  1
  O2-  O204  1  0.86841476  0.21846246  0.24377462  1
  O2-  O205  1  0.86253043  0.21782938  0.74700278  1
  O2-  O206  1  0.86472651  0.73310384  0.27796235  1
  O2-  O207  1  0.87918989  0.74214318  0.77013632  1
  O2-  O208  1  0.27197866  0.37806651  0.23486617  1
  O2-  O209  1  0.28149571  0.36618038  0.74367595  1
  O2-  O210  1  0.27806279  0.86590547  0.23389745  1
  O2-  O211  1  0.26482281  0.86532522  0.72606369  1
  O2-  O212  1  0.77552973  0.36440719  0.21908315  1
  O2-  O213  1  0.77239771  0.36200581  0.73540805  1
  O2-  O214  1  0.76421573  0.88291091  0.23171190  1
  O2-  O215  1  0.77246751  0.88184963  0.73448330  1
  O2-  O216  1  0.20830648  0.13500958  0.25921024  1
  O2-  O217  1  0.22078921  0.13768290  0.77167654  1
  O2-  O218  1  0.23650274  0.61939224  0.26370274  1
  O2-  O219  1  0.22048929  0.63413537  0.76909030  1
  O2-  O220  1  0.72906268  0.12232855  0.26292832  1
  O2-  O221  1  0.73276197  0.11733076  0.76895459  1
  O2-  O222  1  0.72466511  0.63369526  0.27452982  1
  O2-  O223  1  0.74099305  0.63733542  0.77965255  1
  O2-  O224  1  0.13157011  0.48088697  0.26237109  1
  O2-  O225  1  0.11606935  0.48148996  0.75848775  1
  O2-  O226  1  0.11184084  0.96338746  0.25589902  1
  O2-  O227  1  0.11263789  0.97796148  0.75380216  1
  O2-  O228  1  0.61448058  0.47792567  0.26083680  1
  O2-  O229  1  0.61622472  0.47530911  0.77059896  1
  O2-  O230  1  0.63008619  0.98526873  0.24683673  1
  O2-  O231  1  0.63395911  0.97795331  0.74225640  1
  O2-  O232  1  0.38297666  0.02478077  0.24344151  1
  O2-  O233  1  0.38302320  0.01850586  0.76929596  1
  O2-  O234  1  0.37197154  0.51817587  0.23271681  1
  O2-  O235  1  0.38766335  0.53667831  0.74195631  1
  O2-  O236  1  0.86950261  0.02174586  0.25386853  1
  O2-  O237  1  0.87232096  0.01566825  0.76030183  1
  O2-  O238  1  0.88572913  0.53128484  0.23349768  1
  O2-  O239  1  0.88528168  0.52316547  0.72445965  1
  O2-  O240  1  0.47218516  0.38630934  0.26895963  1
  O2-  O241  1  0.47375540  0.38514280  0.77351931  1
  O2-  O242  1  0.48660370  0.86921095  0.26704020  1
  O2-  O243  1  0.49003775  0.88134887  0.77865193  1
  O2-  O244  1  0.97970177  0.38717881  0.27947574  1
  O2-  O245  1  0.97355886  0.38827521  0.76962087  1
  O2-  O246  1  0.96426887  0.88640932  0.25848657  1
  O2-  O247  1  0.98274437  0.87356690  0.76838569  1
  O2-  O248  1  0.01485362  0.11100015  0.21796904  1
  O2-  O249  1  0.01525088  0.11354273  0.72895334  1
  O2-  O250  1  0.03140886  0.61470523  0.23455324  1
  O2-  O251  1  0.01657024  0.63224091  0.73661957  1
  O2-  O252  1  0.52089968  0.11580743  0.22200264  1
  O2-  O253  1  0.52248970  0.11455310  0.72652366  1
  O2-  O254  1  0.51489428  0.62615359  0.22823597  1
  O2-  O255  1  0.53499491  0.61329461  0.73222683  1
  O2-  O256  1  0.13614217  0.46814642  -0.00897209  1
  O2-  O257  1  0.12364657  0.47803204  0.47982754  1
  O2-  O258  1  0.11404200  0.98736099  -0.00789877  1
  O2-  O259  1  0.13192841  0.97914922  0.50508969  1
  O2-  O260  1  0.61905974  0.47757455  -0.01079433  1
  O2-  O261  1  0.63236409  0.47616918  0.47633497  1
  O2-  O262  1  0.63675953  0.98500527  0.01159469  1
  O2-  O263  1  0.63645278  0.97466633  0.51120402  1
  O2-  O264  1  0.36381250  0.03715432  0.00654401  1
  O2-  O265  1  0.36681041  0.03251460  0.49901455  1
  O2-  O266  1  0.37441868  0.50679906  0.01917357  1
  O2-  O267  1  0.36189193  0.51817558  0.51239024  1
  O2-  O268  1  0.87298112  0.02721201  -0.00230261  1
  O2-  O269  1  0.86413026  0.04012353  0.49617325  1
  O2-  O270  1  0.86497571  0.51731249  0.02369427  1
  O2-  O271  1  0.88334853  0.51613616  0.51332544  1
  O2-  O272  1  0.48501965  0.37536685  -0.01406360  1
  O2-  O273  1  0.46350527  0.36318925  0.47385250  1
  O2-  O274  1  0.47887614  0.86296096  -0.02146176  1
  O2-  O275  1  0.48405668  0.86489418  0.47493618  1
  O2-  O276  1  0.97421021  0.36437047  -0.02366525  1
  O2-  O277  1  0.98738516  0.38143441  0.48328799  1
  O2-  O278  1  0.97543344  0.88211563  -0.01931237  1
  O2-  O279  1  0.98150849  0.86483952  0.47613524  1
  O2-  O280  1  0.01172706  0.12346918  0.01483671  1
  O2-  O281  1  0.02383195  0.13610524  0.53326289  1
  O2-  O282  1  0.02628622  0.63643922  0.01792631  1
  O2-  O283  1  0.02567577  0.62090587  0.51494662  1
  O2-  O284  1  0.51587814  0.13666433  0.03067276  1
  O2-  O285  1  0.51186699  0.13696040  0.52846533  1
  O2-  O286  1  0.51713254  0.61512339  0.02247253  1
  O2-  O287  1  0.52104345  0.63041923  0.51540702  1
  O2-  O288  1  0.12271093  0.26751760  -0.00505805  1
  O2-  O289  1  0.12762351  0.27384234  0.50524762  1
  O2-  O290  1  0.11401776  0.78458137  0.00958477  1
  O2-  O291  1  0.11644755  0.76748906  0.53509487  1
  O2-  O292  1  0.62457496  0.26742699  -0.00028070  1
  O2-  O293  1  0.61632483  0.28331003  0.48927333  1
  O2-  O294  1  0.61447878  0.76098918  0.03415370  1
  O2-  O295  1  0.61794945  0.76596796  0.51767587  1
  O2-  O296  1  0.36858195  0.23244719  0.00515845  1
  O2-  O297  1  0.36459060  0.22985790  0.50361693  1
  O2-  O298  1  0.38827650  0.71772866  -0.01297876  1
  O2-  O299  1  0.38435074  0.72635238  0.47294229  1
  O2-  O300  1  0.87273791  0.23006893  0.00627901  1
  O2-  O301  1  0.88518284  0.23166027  0.50070822  1
  O2-  O302  1  0.88419551  0.73092967  -0.02361196  1
  O2-  O303  1  0.89235417  0.72037726  0.48502485  1
  O2-  O304  1  0.26421813  0.36752659  0.02316160  1
  O2-  O305  1  0.26491333  0.37287479  0.50621912  1
  O2-  O306  1  0.27908582  0.88712439  0.02095939  1
  O2-  O307  1  0.27680925  0.88313599  0.50996089  1
  O2-  O308  1  0.76415797  0.36634286  0.02081832  1
  O2-  O309  1  0.77315121  0.38328345  0.52587157  1
  O2-  O310  1  0.77473396  0.88814821  0.01793443  1
  O2-  O311  1  0.78528216  0.88842483  0.50875657  1
  O2-  O312  1  0.22514092  0.13278354  -0.01331108  1
  O2-  O313  1  0.22252616  0.13317999  0.49557475  1
  O2-  O314  1  0.22789784  0.61280407  -0.01176269  1
  O2-  O315  1  0.22521836  0.61240396  0.47758797  1
  O2-  O316  1  0.73087138  0.12701036  -0.01392263  1
  O2-  O317  1  0.71507734  0.11686346  0.48255732  1
  O2-  O318  1  0.72837225  0.61571635  -0.02206492  1
  O2-  O319  1  0.74013418  0.61541233  0.47656719  1
