# generated using pymatgen
data_Sr64Ca21Nb43O192
_symmetry_space_group_name_H-M   'P 1'
_cell_length_a   16.53651373
_cell_length_b   16.54688542
_cell_length_c   16.69190295
_cell_angle_alpha   90.03877207
_cell_angle_beta   89.97797817
_cell_angle_gamma   89.97286506
_symmetry_Int_Tables_number   1
_chemical_formula_structural   Sr64Ca21Nb43O192
_chemical_formula_sum   'Sr64 Ca21 Nb43 O192'
_cell_volume   4567.36675271
_cell_formula_units_Z   1
loop_
 _symmetry_equiv_pos_site_id
 _symmetry_equiv_pos_as_xyz
  1  'x, y, z'
loop_
 _atom_type_symbol
 _atom_type_oxidation_number
  Sr2+  2.0
  Ca2+  2.0
  Nb5+  5.0
  O2-  -2.0
loop_
 _atom_site_type_symbol
 _atom_site_label
 _atom_site_symmetry_multiplicity
 _atom_site_fract_x
 _atom_site_fract_y
 _atom_site_fract_z
 _atom_site_occupancy
  Sr2+  Sr0  1  0.12684330  0.11368587  0.13052407  1
  Sr2+  Sr1  1  0.13080878  0.12720322  0.62317502  1
  Sr2+  Sr2  1  0.12773999  0.62272586  0.11793455  1
  Sr2+  Sr3  1  0.12867872  0.61508601  0.62984011  1
  Sr2+  Sr4  1  0.62692830  0.12875553  0.12334580  1
  Sr2+  Sr5  1  0.62806870  0.12455393  0.62809218  1
  Sr2+  Sr6  1  0.62546402  0.60504652  0.13213337  1
  Sr2+  Sr7  1  0.63832274  0.61935030  0.62545061  1
  Sr2+  Sr8  1  0.37757632  0.38989962  0.12408310  1
  Sr2+  Sr9  1  0.37647289  0.37213877  0.61513168  1
  Sr2+  Sr10  1  0.37753212  0.87857513  0.12778001  1
  Sr2+  Sr11  1  0.38307833  0.87716416  0.62777382  1
  Sr2+  Sr12  1  0.88157502  0.37851466  0.12353024  1
  Sr2+  Sr13  1  0.88803878  0.36967561  0.62314722  1
  Sr2+  Sr14  1  0.86931829  0.87972398  0.13143974  1
  Sr2+  Sr15  1  0.87773661  0.88856920  0.62384998  1
  Sr2+  Sr16  1  0.11651755  0.37629640  0.38048722  1
  Sr2+  Sr17  1  0.11916613  0.38216630  0.87514466  1
  Sr2+  Sr18  1  0.10399954  0.87889700  0.37388868  1
  Sr2+  Sr19  1  0.13615100  0.86123505  0.87384217  1
  Sr2+  Sr20  1  0.62158106  0.38899368  0.36967998  1
  Sr2+  Sr21  1  0.62645165  0.37268070  0.87550332  1
  Sr2+  Sr22  1  0.63225251  0.86797297  0.37444619  1
  Sr2+  Sr23  1  0.62083933  0.87642790  0.87641482  1
  Sr2+  Sr24  1  0.36654425  0.12769412  0.37785675  1
  Sr2+  Sr25  1  0.37975556  0.12388370  0.87787384  1
  Sr2+  Sr26  1  0.37274209  0.63618231  0.37197790  1
  Sr2+  Sr27  1  0.38806268  0.63249288  0.87293608  1
  Sr2+  Sr28  1  0.88235065  0.13238278  0.37111759  1
  Sr2+  Sr29  1  0.87060287  0.12606779  0.87462119  1
  Sr2+  Sr30  1  0.86466283  0.62721041  0.37766298  1
  Sr2+  Sr31  1  0.89287250  0.62728083  0.87580083  1
  Sr2+  Sr32  1  0.12625239  0.12423008  0.37110012  1
  Sr2+  Sr33  1  0.13405992  0.13142581  0.87903600  1
  Sr2+  Sr34  1  0.11367034  0.62617507  0.37929141  1
  Sr2+  Sr35  1  0.12658684  0.62975937  0.87134621  1
  Sr2+  Sr36  1  0.61545850  0.14628178  0.37048795  1
  Sr2+  Sr37  1  0.61808716  0.12551231  0.87852034  1
  Sr2+  Sr38  1  0.62462288  0.63168794  0.37667264  1
  Sr2+  Sr39  1  0.62140283  0.63549040  0.86892707  1
  Sr2+  Sr40  1  0.36168224  0.37815769  0.37420622  1
  Sr2+  Sr41  1  0.35806129  0.37488803  0.87932328  1
  Sr2+  Sr42  1  0.37387431  0.88052141  0.37425686  1
  Sr2+  Sr43  1  0.37533542  0.88094137  0.87832179  1
  Sr2+  Sr44  1  0.87500066  0.37837909  0.37850183  1
  Sr2+  Sr45  1  0.87212323  0.36835396  0.88326231  1
  Sr2+  Sr46  1  0.87207005  0.87537366  0.37402237  1
  Sr2+  Sr47  1  0.87223385  0.87665456  0.87272315  1
  Sr2+  Sr48  1  0.13766011  0.37728206  0.11574304  1
  Sr2+  Sr49  1  0.14026221  0.37086009  0.62418757  1
  Sr2+  Sr50  1  0.13056127  0.87536474  0.13074003  1
  Sr2+  Sr51  1  0.13419466  0.87530458  0.62779838  1
  Sr2+  Sr52  1  0.64209552  0.36418377  0.12986660  1
  Sr2+  Sr53  1  0.62106242  0.37440250  0.63139679  1
  Sr2+  Sr54  1  0.62562608  0.87474104  0.12678560  1
  Sr2+  Sr55  1  0.63483895  0.87735227  0.62083297  1
  Sr2+  Sr56  1  0.36457697  0.11687105  0.12663893  1
  Sr2+  Sr57  1  0.38219963  0.12798195  0.61949527  1
  Sr2+  Sr58  1  0.37310141  0.62414040  0.13254406  1
  Sr2+  Sr59  1  0.40023377  0.61710545  0.62763249  1
  Sr2+  Sr60  1  0.87676706  0.13747943  0.12013370  1
  Sr2+  Sr61  1  0.86740525  0.12209565  0.63195947  1
  Sr2+  Sr62  1  0.88192539  0.62024778  0.12326409  1
  Sr2+  Sr63  1  0.88297401  0.62383019  0.62451815  1
  Ca2+  Ca64  1  0.50206827  0.50014185  0.49881875  1
  Ca2+  Ca65  1  -0.00127460  0.00105454  0.50078691  1
  Ca2+  Ca66  1  0.50322319  0.50237055  -0.00165624  1
  Ca2+  Ca67  1  -0.00098750  -0.00271222  -0.00108910  1
  Ca2+  Ca68  1  0.50330662  0.00302087  0.49915310  1
  Ca2+  Ca69  1  0.25285374  0.74823774  0.00132523  1
  Ca2+  Ca70  1  0.75030715  0.25118837  0.50252650  1
  Ca2+  Ca71  1  0.75038331  0.74819591  -0.00255573  1
  Ca2+  Ca72  1  0.25162124  0.75076735  0.50008204  1
  Ca2+  Ca73  1  0.25108576  0.24936566  0.00672874  1
  Ca2+  Ca74  1  -0.00006306  0.74366459  0.25049962  1
  Ca2+  Ca75  1  0.00152029  0.25454735  0.24953288  1
  Ca2+  Ca76  1  0.25004557  0.00385213  0.75072486  1
  Ca2+  Ca77  1  0.49522764  0.25072126  0.24830727  1
  Ca2+  Ca78  1  0.49707048  0.25061254  0.75253755  1
  Ca2+  Ca79  1  0.75398419  0.50130043  0.75196236  1
  Ca2+  Ca80  1  0.00367151  0.24990316  0.75004560  1
  Ca2+  Ca81  1  0.25375698  0.49966261  0.74896878  1
  Ca2+  Ca82  1  0.24304669  0.50128787  0.25347747  1
  Ca2+  Ca83  1  0.74586262  0.00432945  0.25135826  1
  Ca2+  Ca84  1  0.75389421  0.50030437  0.24762197  1
  Nb5+  Nb85  1  0.00033036  0.50052679  0.00144823  1
  Nb5+  Nb86  1  -0.00152954  0.49958962  0.50451693  1
  Nb5+  Nb87  1  0.50093310  -0.00052555  0.00241546  1
  Nb5+  Nb88  1  0.75113915  0.74934365  0.50118897  1
  Nb5+  Nb89  1  0.25007258  0.24964869  0.49898337  1
  Nb5+  Nb90  1  0.74958846  0.24803736  -0.00122858  1
  Nb5+  Nb91  1  0.50885003  0.75425930  0.74718040  1
  Nb5+  Nb92  1  0.24898836  -0.00464049  0.25242161  1
  Nb5+  Nb93  1  0.74698723  0.00046054  0.75073569  1
  Nb5+  Nb94  1  0.50016072  0.75130827  0.25088458  1
  Nb5+  Nb95  1  0.00486880  0.75351953  0.74825080  1
  Nb5+  Nb96  1  -0.00777084  0.00059596  0.24452164  1
  Nb5+  Nb97  1  0.00551605  -0.00147120  0.75446982  1
  Nb5+  Nb98  1  0.00113146  0.50040489  0.25570392  1
  Nb5+  Nb99  1  -0.00339888  0.49702399  0.75292537  1
  Nb5+  Nb100  1  0.50020749  0.00060459  0.25228252  1
  Nb5+  Nb101  1  0.50162253  0.00057523  0.74772065  1
  Nb5+  Nb102  1  0.49563007  0.49899182  0.25145925  1
  Nb5+  Nb103  1  0.49828148  0.49319723  0.75625978  1
  Nb5+  Nb104  1  0.24770544  0.25251206  0.24780167  1
  Nb5+  Nb105  1  0.25220327  0.24824594  0.75334057  1
  Nb5+  Nb106  1  0.24543708  0.75008792  0.25545969  1
  Nb5+  Nb107  1  0.26153957  0.74813944  0.74658359  1
  Nb5+  Nb108  1  0.75238548  0.24923691  0.25719295  1
  Nb5+  Nb109  1  0.75254621  0.25404496  0.74801509  1
  Nb5+  Nb110  1  0.75153586  0.74852164  0.24591805  1
  Nb5+  Nb111  1  0.75597230  0.75105673  0.74952457  1
  Nb5+  Nb112  1  0.00044235  0.24472032  0.50125615  1
  Nb5+  Nb113  1  0.00557383  0.24853907  0.99738410  1
  Nb5+  Nb114  1  -0.00103471  0.75122517  0.50123199  1
  Nb5+  Nb115  1  -0.00327992  0.75303486  1.00416671  1
  Nb5+  Nb116  1  0.50202703  0.25592723  0.49807122  1
  Nb5+  Nb117  1  0.49623848  0.25284415  1.00203456  1
  Nb5+  Nb118  1  0.49909212  0.75031890  0.50143427  1
  Nb5+  Nb119  1  0.50540328  0.75016025  1.00606270  1
  Nb5+  Nb120  1  0.24652405  -0.00331997  -0.00235359  1
  Nb5+  Nb121  1  0.25151961  -0.00201507  0.50241839  1
  Nb5+  Nb122  1  0.25452715  0.50576987  -0.00230987  1
  Nb5+  Nb123  1  0.25087666  0.50573429  0.49731025  1
  Nb5+  Nb124  1  0.75102912  -0.00071621  0.00167342  1
  Nb5+  Nb125  1  0.74880513  0.00605883  0.49458516  1
  Nb5+  Nb126  1  0.74753693  0.50023983  -0.00361076  1
  Nb5+  Nb127  1  0.75185076  0.49536170  0.50386670  1
  O2-  O128  1  0.03017728  -0.01074255  0.13197274  1
  O2-  O129  1  0.00737258  -0.00993057  0.63644005  1
  O2-  O130  1  -0.01147405  0.50348135  0.11877847  1
  O2-  O131  1  -0.01721904  0.49715480  0.62226042  1
  O2-  O132  1  0.50857886  -0.02191791  0.11998002  1
  O2-  O133  1  0.51185538  -0.02469124  0.63508777  1
  O2-  O134  1  0.47543651  0.50826592  0.13234742  1
  O2-  O135  1  0.48479558  0.48296582  0.63616913  1
  O2-  O136  1  -0.01876723  0.00139574  0.36445126  1
  O2-  O137  1  -0.03109652  -0.00617580  0.86617084  1
  O2-  O138  1  0.01111095  0.50577277  0.37541222  1
  O2-  O139  1  0.01360277  0.50509074  0.87023871  1
  O2-  O140  1  0.48162519  0.01348823  0.36412448  1
  O2-  O141  1  0.49266275  0.00695110  0.87631383  1
  O2-  O142  1  0.52691586  0.51672591  0.36485840  1
  O2-  O143  1  0.51496458  0.53472189  0.86647547  1
  O2-  O144  1  0.21381014  0.24226724  0.13818208  1
  O2-  O145  1  0.23654799  0.24063128  0.62057010  1
  O2-  O146  1  0.24928717  0.73748135  0.13743585  1
  O2-  O147  1  0.23850774  0.75857209  0.63275273  1
  O2-  O148  1  0.74030472  0.23153925  0.11709939  1
  O2-  O149  1  0.73957051  0.22616713  0.63512343  1
  O2-  O150  1  0.74559564  0.75835153  0.13198283  1
  O2-  O151  1  0.74204044  0.74288700  0.62293097  1
  O2-  O152  1  0.26927234  0.25401006  0.37957469  1
  O2-  O153  1  0.26253398  0.24796136  0.87077406  1
  O2-  O154  1  0.27644936  0.76444013  0.36843593  1
  O2-  O155  1  0.24556952  0.75167042  0.86485630  1
  O2-  O156  1  0.77342369  0.26045054  0.36973978  1
  O2-  O157  1  0.75902786  0.25906148  0.87478970  1
  O2-  O158  1  0.75133906  0.75291123  0.37976590  1
  O2-  O159  1  0.74788582  0.77118297  0.86198828  1
  O2-  O160  1  -0.00967220  0.26250411  0.11338262  1
  O2-  O161  1  0.01340838  0.27312392  0.61560538  1
  O2-  O162  1  0.00428132  0.73336944  0.11657876  1
  O2-  O163  1  -0.00504938  0.75017194  0.62600118  1
  O2-  O164  1  0.52828440  0.25932248  0.11463264  1
  O2-  O165  1  0.50216371  0.28149321  0.61780975  1
  O2-  O166  1  0.50101407  0.76588914  0.12474957  1
  O2-  O167  1  0.50042759  0.77263273  0.62596606  1
  O2-  O168  1  0.26836444  -0.00387956  0.36981157  1
  O2-  O169  1  0.27049804  0.00951531  0.88498149  1
  O2-  O170  1  0.23322432  0.47243484  0.38550981  1
  O2-  O171  1  0.23675985  0.47769113  0.88265778  1
  O2-  O172  1  0.77966101  -0.00160203  0.38420211  1
  O2-  O173  1  0.75773648  -0.01389857  0.87083250  1
  O2-  O174  1  0.74599911  0.49270197  0.38393888  1
  O2-  O175  1  0.74811508  0.46404683  0.88362622  1
  O2-  O176  1  -0.01853649  0.25478466  0.38557386  1
  O2-  O177  1  -0.01753682  0.25107732  0.88308075  1
  O2-  O178  1  -0.00845356  0.73092139  0.38644063  1
  O2-  O179  1  -0.00031494  0.74923666  0.86946126  1
  O2-  O180  1  0.48415736  0.22241804  0.38446972  1
  O2-  O181  1  0.49747582  0.22212396  0.88769033  1
  O2-  O182  1  0.50164991  0.73991167  0.37514348  1
  O2-  O183  1  0.50502288  0.74026697  0.86915361  1
  O2-  O184  1  0.23833061  -0.00381575  0.12780850  1
  O2-  O185  1  0.22972290  0.00820843  0.61573631  1
  O2-  O186  1  0.25426834  0.51695268  0.11841681  1
  O2-  O187  1  0.24987672  0.49913627  0.61361734  1
  O2-  O188  1  0.72501910  0.00219984  0.11413283  1
  O2-  O189  1  0.73006075  0.00880344  0.63001642  1
  O2-  O190  1  0.77318941  0.51269323  0.11132638  1
  O2-  O191  1  0.76698489  0.52485110  0.61660271  1
  O2-  O192  1  0.13596781  0.25741350  0.28697796  1
  O2-  O193  1  0.13637249  0.28830437  0.75851743  1
  O2-  O194  1  0.13408512  0.78219678  0.26009077  1
  O2-  O195  1  0.11769375  0.77736350  0.74670235  1
  O2-  O196  1  0.63173516  0.27613183  0.27130515  1
  O2-  O197  1  0.63489706  0.27203825  0.76116677  1
  O2-  O198  1  0.61905065  0.77605288  0.25241872  1
  O2-  O199  1  0.62316275  0.77676725  0.74685529  1
  O2-  O200  1  0.36074052  0.21653849  0.24000624  1
  O2-  O201  1  0.36583512  0.20947752  0.74336072  1
  O2-  O202  1  0.38160514  0.72965308  0.24438265  1
  O2-  O203  1  0.37807680  0.72823309  0.74273704  1
  O2-  O204  1  0.86567929  0.21396096  0.24331798  1
  O2-  O205  1  0.86596062  0.21541298  0.74939951  1
  O2-  O206  1  0.86400589  0.72159404  0.24758864  1
  O2-  O207  1  0.87101591  0.72988902  0.74722405  1
  O2-  O208  1  0.27558449  0.36445615  0.23693757  1
  O2-  O209  1  0.28785940  0.36251221  0.73800462  1
  O2-  O210  1  0.27375086  0.87614166  0.24182195  1
  O2-  O211  1  0.27340282  0.86832019  0.75175969  1
  O2-  O212  1  0.76908966  0.36295320  0.22512934  1
  O2-  O213  1  0.77814393  0.36456937  0.72971422  1
  O2-  O214  1  0.76774640  0.86687127  0.25946105  1
  O2-  O215  1  0.76512010  0.87421637  0.73047015  1
  O2-  O216  1  0.23209928  0.11472912  0.25310657  1
  O2-  O217  1  0.20955030  0.13470303  0.75185862  1
  O2-  O218  1  0.22752236  0.63645904  0.27419808  1
  O2-  O219  1  0.22151074  0.63587293  0.74900671  1
  O2-  O220  1  0.71336365  0.13512135  0.25675216  1
  O2-  O221  1  0.72691898  0.11615575  0.76491508  1
  O2-  O222  1  0.71499982  0.63599264  0.25617278  1
  O2-  O223  1  0.72253799  0.63961592  0.75659307  1
  O2-  O224  1  0.11148303  0.45651628  0.23853338  1
  O2-  O225  1  0.11196817  0.48657739  0.73033075  1
  O2-  O226  1  0.13212400  0.97598206  0.26391125  1
  O2-  O227  1  0.11471095  0.96444706  0.76729965  1
  O2-  O228  1  0.61447426  0.48082828  0.22542379  1
  O2-  O229  1  0.61712525  0.48223109  0.73789549  1
  O2-  O230  1  0.61153968  0.96795907  0.25978329  1
  O2-  O231  1  0.62660874  0.97277403  0.76108697  1
  O2-  O232  1  0.37447261  0.00852968  0.23119051  1
  O2-  O233  1  0.38695245  0.01826723  0.73936088  1
  O2-  O234  1  0.38082777  0.53157130  0.26758412  1
  O2-  O235  1  0.38571904  0.53541287  0.75806801  1
  O2-  O236  1  0.88120944  0.01778887  0.21598665  1
  O2-  O237  1  0.86587279  0.01183442  0.73660193  1
  O2-  O238  1  0.88724536  0.53892385  0.25499026  1
  O2-  O239  1  0.88602521  0.53873026  0.75499930  1
  O2-  O240  1  0.46893311  0.38627748  0.26061061  1
  O2-  O241  1  0.47981694  0.38482302  0.78896370  1
  O2-  O242  1  0.47401170  0.87121453  0.25703614  1
  O2-  O243  1  0.47902081  0.87194163  0.76605743  1
  O2-  O244  1  0.96011801  0.38735090  0.25485210  1
  O2-  O245  1  0.96662566  0.38639366  0.75700212  1
  O2-  O246  1  0.97769061  0.87948291  0.25314089  1
  O2-  O247  1  0.96928996  0.86774078  0.74894783  1
  O2-  O248  1  0.02540362  0.11530425  0.24917640  1
  O2-  O249  1  0.02517419  0.11254119  0.75619553  1
  O2-  O250  1  0.04299440  0.61198303  0.24416138  1
  O2-  O251  1  0.02011045  0.63292463  0.74609712  1
  O2-  O252  1  0.51908503  0.11204050  0.23026486  1
  O2-  O253  1  0.53020067  0.11263120  0.74154646  1
  O2-  O254  1  0.52154021  0.63472641  0.23957364  1
  O2-  O255  1  0.52244863  0.63797066  0.72908441  1
  O2-  O256  1  0.11783203  0.47793216  0.00701154  1
  O2-  O257  1  0.11574072  0.48027629  0.50986472  1
  O2-  O258  1  0.13502211  0.97088380  -0.01862450  1
  O2-  O259  1  0.13573822  0.97985619  0.47756937  1
  O2-  O260  1  0.63657198  0.47001947  0.01792331  1
  O2-  O261  1  0.63783061  0.47428533  0.51628215  1
  O2-  O262  1  0.62306523  0.98347207  -0.01616335  1
  O2-  O263  1  0.63793956  0.96460810  0.49092428  1
  O2-  O264  1  0.38251958  0.01956919  0.01000384  1
  O2-  O265  1  0.36584347  0.03160997  0.50469324  1
  O2-  O266  1  0.36684633  0.52997719  -0.01496465  1
  O2-  O267  1  0.36431466  0.52646825  0.48686963  1
  O2-  O268  1  0.86246828  0.03190151  0.01032549  1
  O2-  O269  1  0.86205235  0.01421801  0.52928931  1
  O2-  O270  1  0.87958359  0.51596720  -0.01831590  1
  O2-  O271  1  0.88023700  0.52418561  0.48665498  1
  O2-  O272  1  0.47162961  0.36544357  -0.01293472  1
  O2-  O273  1  0.46755082  0.36867877  0.47684800  1
  O2-  O274  1  0.48039617  0.87736095  -0.01241837  1
  O2-  O275  1  0.47776435  0.86559647  0.48905866  1
  O2-  O276  1  0.97840266  0.38137209  -0.00799959  1
  O2-  O277  1  0.97823925  0.38216903  0.49179880  1
  O2-  O278  1  0.96218727  0.86317428  0.00641341  1
  O2-  O279  1  0.97059887  0.86369171  0.49398362  1
  O2-  O280  1  0.02843243  0.13424481  0.00257823  1
  O2-  O281  1  0.03232119  0.13395368  0.50134236  1
  O2-  O282  1  0.02099662  0.61946355  -0.00957011  1
  O2-  O283  1  0.01822246  0.62248610  0.51227099  1
  O2-  O284  1  0.52319713  0.11629677  0.01249716  1
  O2-  O285  1  0.51608674  0.13846633  0.52917100  1
  O2-  O286  1  0.53688208  0.63904486  0.01022724  1
  O2-  O287  1  0.52995226  0.63560094  0.52179992  1
  O2-  O288  1  0.11654727  0.27945407  -0.01338207  1
  O2-  O289  1  0.12784324  0.27214343  0.48882840  1
  O2-  O290  1  0.11361425  0.77437647  -0.00389405  1
  O2-  O291  1  0.11270210  0.77449629  0.49807450  1
  O2-  O292  1  0.62974122  0.26730545  -0.01538669  1
  O2-  O293  1  0.61552325  0.27870636  0.48058139  1
  O2-  O294  1  0.61781130  0.78642099  -0.00358404  1
  O2-  O295  1  0.62818139  0.77042604  0.49715472  1
  O2-  O296  1  0.38569130  0.22227241  0.01934678  1
  O2-  O297  1  0.36822496  0.23304910  0.51391737  1
  O2-  O298  1  0.38933798  0.72771970  -0.00306651  1
  O2-  O299  1  0.38764327  0.71847842  0.50739817  1
  O2-  O300  1  0.86923270  0.22651138  -0.00146822  1
  O2-  O301  1  0.88631218  0.22059386  0.51733910  1
  O2-  O302  1  0.88338260  0.71430784  -0.00463740  1
  O2-  O303  1  0.87012373  0.72470906  0.50632708  1
  O2-  O304  1  0.26995682  0.38510567  0.01937785  1
  O2-  O305  1  0.26491814  0.37032925  0.50984426  1
  O2-  O306  1  0.28130244  0.88335604  0.00622538  1
  O2-  O307  1  0.28165390  0.88636580  0.50931874  1
  O2-  O308  1  0.77193119  0.36475030  0.01545542  1
  O2-  O309  1  0.78476677  0.38434363  0.51457967  1
  O2-  O310  1  0.77706839  0.88627005  0.00337583  1
  O2-  O311  1  0.77265209  0.86779279  0.50586835  1
  O2-  O312  1  0.23051556  0.11401245  0.01251946  1
  O2-  O313  1  0.22772447  0.12911880  0.48885994  1
  O2-  O314  1  0.21483214  0.61620041  -0.01024629  1
  O2-  O315  1  0.21700319  0.61628653  0.48884718  1
  O2-  O316  1  0.72742638  0.12519003  -0.01661037  1
  O2-  O317  1  0.71624721  0.11636296  0.48941820  1
  O2-  O318  1  0.72572680  0.61159642  -0.02366428  1
  O2-  O319  1  0.73073636  0.62820329  0.49074455  1
