# generated using pymatgen
data_Sr64Ca21Nb43O192
_symmetry_space_group_name_H-M   'P 1'
_cell_length_a   16.59792843
_cell_length_b   16.55957467
_cell_length_c   16.76725699
_cell_angle_alpha   89.98012857
_cell_angle_beta   90.03256183
_cell_angle_gamma   89.97954726
_symmetry_Int_Tables_number   1
_chemical_formula_structural   Sr64Ca21Nb43O192
_chemical_formula_sum   'Sr64 Ca21 Nb43 O192'
_cell_volume   4608.55698684
_cell_formula_units_Z   1
loop_
 _symmetry_equiv_pos_site_id
 _symmetry_equiv_pos_as_xyz
  1  'x, y, z'
loop_
 _atom_type_symbol
 _atom_type_oxidation_number
  Sr2+  2.0
  Ca2+  2.0
  Nb5+  5.0
  O2-  -2.0
loop_
 _atom_site_type_symbol
 _atom_site_label
 _atom_site_symmetry_multiplicity
 _atom_site_fract_x
 _atom_site_fract_y
 _atom_site_fract_z
 _atom_site_occupancy
  Sr2+  Sr0  1  0.12690682  0.13471887  0.12600055  1
  Sr2+  Sr1  1  0.12730124  0.13732942  0.62241702  1
  Sr2+  Sr2  1  0.12229865  0.60961468  0.12274317  1
  Sr2+  Sr3  1  0.12358401  0.61006807  0.63118034  1
  Sr2+  Sr4  1  0.62734310  0.13378635  0.12654994  1
  Sr2+  Sr5  1  0.63014807  0.12641632  0.60474343  1
  Sr2+  Sr6  1  0.62064769  0.62658368  0.14438038  1
  Sr2+  Sr7  1  0.62504964  0.62825492  0.60153323  1
  Sr2+  Sr8  1  0.37500154  0.37830587  0.12775772  1
  Sr2+  Sr9  1  0.36645769  0.38788692  0.62127935  1
  Sr2+  Sr10  1  0.36752926  0.85541159  0.12843339  1
  Sr2+  Sr11  1  0.37211456  0.86649015  0.62158672  1
  Sr2+  Sr12  1  0.88389814  0.38730132  0.12729429  1
  Sr2+  Sr13  1  0.87790049  0.38491472  0.62248978  1
  Sr2+  Sr14  1  0.88479705  0.86808012  0.13678267  1
  Sr2+  Sr15  1  0.88147698  0.86262283  0.61978797  1
  Sr2+  Sr16  1  0.12130951  0.36705071  0.39128639  1
  Sr2+  Sr17  1  0.11670082  0.35990161  0.87447212  1
  Sr2+  Sr18  1  0.09999552  0.87882676  0.37111436  1
  Sr2+  Sr19  1  0.11086014  0.87785919  0.87312045  1
  Sr2+  Sr20  1  0.62393014  0.37201799  0.37961575  1
  Sr2+  Sr21  1  0.63048191  0.37238237  0.87265627  1
  Sr2+  Sr22  1  0.63469801  0.87489859  0.37713952  1
  Sr2+  Sr23  1  0.62658907  0.87741358  0.87505914  1
  Sr2+  Sr24  1  0.38530548  0.12013543  0.37152926  1
  Sr2+  Sr25  1  0.37447348  0.11756877  0.87264477  1
  Sr2+  Sr26  1  0.38403155  0.63062522  0.36342327  1
  Sr2+  Sr27  1  0.37956646  0.62448191  0.87389128  1
  Sr2+  Sr28  1  0.89780989  0.12296277  0.37233469  1
  Sr2+  Sr29  1  0.84744766  0.12663880  0.87531290  1
  Sr2+  Sr30  1  0.86597867  0.61973830  0.35788099  1
  Sr2+  Sr31  1  0.87097501  0.63445307  0.87185931  1
  Sr2+  Sr32  1  0.12003895  0.12129551  0.37234390  1
  Sr2+  Sr33  1  0.12733202  0.11780281  0.88706393  1
  Sr2+  Sr34  1  0.11231137  0.61500656  0.37692315  1
  Sr2+  Sr35  1  0.11634292  0.62303050  0.87749533  1
  Sr2+  Sr36  1  0.61927869  0.11304036  0.36781942  1
  Sr2+  Sr37  1  0.62151150  0.11580068  0.87871318  1
  Sr2+  Sr38  1  0.63046647  0.60359706  0.37444148  1
  Sr2+  Sr39  1  0.62260579  0.61576867  0.87293653  1
  Sr2+  Sr40  1  0.37759516  0.35869996  0.37450673  1
  Sr2+  Sr41  1  0.38214830  0.36629810  0.87418632  1
  Sr2+  Sr42  1  0.37661701  0.88678966  0.37041584  1
  Sr2+  Sr43  1  0.37870155  0.86693571  0.86954983  1
  Sr2+  Sr44  1  0.87678798  0.36960433  0.38443416  1
  Sr2+  Sr45  1  0.86456199  0.36182329  0.86847603  1
  Sr2+  Sr46  1  0.86864843  0.88353759  0.36953765  1
  Sr2+  Sr47  1  0.87152222  0.88064899  0.86616713  1
  Sr2+  Sr48  1  0.12190046  0.37577751  0.12432839  1
  Sr2+  Sr49  1  0.12378523  0.37601350  0.62154795  1
  Sr2+  Sr50  1  0.12603278  0.87425377  0.13336706  1
  Sr2+  Sr51  1  0.12228791  0.87488126  0.62336208  1
  Sr2+  Sr52  1  0.62797425  0.38642072  0.12708131  1
  Sr2+  Sr53  1  0.64090991  0.38217708  0.61684589  1
  Sr2+  Sr54  1  0.64524183  0.87319372  0.13091370  1
  Sr2+  Sr55  1  0.63614126  0.87236768  0.61757424  1
  Sr2+  Sr56  1  0.37222374  0.12784292  0.13004732  1
  Sr2+  Sr57  1  0.36711125  0.11286423  0.62584379  1
  Sr2+  Sr58  1  0.36162043  0.62509579  0.12276770  1
  Sr2+  Sr59  1  0.36375300  0.62645128  0.62892675  1
  Sr2+  Sr60  1  0.88993852  0.12836206  0.12942638  1
  Sr2+  Sr61  1  0.88582414  0.13115937  0.61486156  1
  Sr2+  Sr62  1  0.84910947  0.62740943  0.12430576  1
  Sr2+  Sr63  1  0.86139832  0.62660261  0.63241579  1
  Ca2+  Ca64  1  -0.00104193  0.50116317  -0.00307911  1
  Ca2+  Ca65  1  -0.00106884  0.50610420  0.50325923  1
  Ca2+  Ca66  1  -0.00059899  -0.00058570  -0.00124162  1
  Ca2+  Ca67  1  0.00131426  -0.00378088  0.50377701  1
  Ca2+  Ca68  1  0.49542810  0.49908055  0.50122232  1
  Ca2+  Ca69  1  0.74713398  0.75258374  -0.00185123  1
  Ca2+  Ca70  1  0.75547154  0.75115397  0.49977635  1
  Ca2+  Ca71  1  0.25557812  0.24807888  0.50096176  1
  Ca2+  Ca72  1  0.75052510  0.24672534  0.49192663  1
  Ca2+  Ca73  1  0.24546569  0.75139045  0.50152687  1
  Ca2+  Ca74  1  0.49928575  0.75156355  0.24979465  1
  Ca2+  Ca75  1  0.74691819  0.00243930  0.74560282  1
  Ca2+  Ca76  1  0.00147486  0.74313017  0.24727569  1
  Ca2+  Ca77  1  0.25309208  -0.00205181  0.24864214  1
  Ca2+  Ca78  1  -0.00196775  0.24701018  0.75224381  1
  Ca2+  Ca79  1  0.75024395  0.00665116  0.24921729  1
  Ca2+  Ca80  1  0.24679918  0.49755548  0.25043118  1
  Ca2+  Ca81  1  0.74575406  0.50009590  0.75119340  1
  Ca2+  Ca82  1  0.00313321  0.25582030  0.24898084  1
  Ca2+  Ca83  1  0.50137187  0.24932222  0.74861460  1
  Ca2+  Ca84  1  0.75229461  0.49303701  0.24828816  1
  Nb5+  Nb85  1  0.49837965  0.49486148  -0.00019549  1
  Nb5+  Nb86  1  0.49724179  -0.00898516  -0.00248998  1
  Nb5+  Nb87  1  0.50050143  -0.00202469  0.49663581  1
  Nb5+  Nb88  1  0.24929062  0.24587668  -0.00057445  1
  Nb5+  Nb89  1  0.74137589  0.25146206  0.00456723  1
  Nb5+  Nb90  1  0.24665829  0.74634361  -0.00282520  1
  Nb5+  Nb91  1  0.24991924  -0.00825068  0.75165045  1
  Nb5+  Nb92  1  0.49724501  0.74888899  0.74956690  1
  Nb5+  Nb93  1  -0.00339240  0.74932361  0.74968330  1
  Nb5+  Nb94  1  0.24894295  0.49358663  0.75794245  1
  Nb5+  Nb95  1  0.50401923  0.25046399  0.24824861  1
  Nb5+  Nb96  1  0.00221226  -0.00067449  0.24591288  1
  Nb5+  Nb97  1  -0.00374304  0.00367738  0.74928762  1
  Nb5+  Nb98  1  0.00088485  0.49790429  0.25255893  1
  Nb5+  Nb99  1  -0.00567169  0.49959886  0.75549726  1
  Nb5+  Nb100  1  0.49962015  -0.00281009  0.23570019  1
  Nb5+  Nb101  1  0.49975227  -0.00167790  0.74489928  1
  Nb5+  Nb102  1  0.49465236  0.49735471  0.25479968  1
  Nb5+  Nb103  1  0.49644805  0.49979080  0.74961761  1
  Nb5+  Nb104  1  0.25059397  0.24946216  0.25083677  1
  Nb5+  Nb105  1  0.25414744  0.24410482  0.75046974  1
  Nb5+  Nb106  1  0.24808550  0.74506490  0.25881555  1
  Nb5+  Nb107  1  0.24434358  0.74634819  0.75367135  1
  Nb5+  Nb108  1  0.75471543  0.24983092  0.24801197  1
  Nb5+  Nb109  1  0.74873604  0.24709655  0.73933289  1
  Nb5+  Nb110  1  0.74834371  0.75239523  0.25122299  1
  Nb5+  Nb111  1  0.74169346  0.75322180  0.75195707  1
  Nb5+  Nb112  1  0.00112665  0.25065707  0.50252891  1
  Nb5+  Nb113  1  -0.01036538  0.24887047  0.99599092  1
  Nb5+  Nb114  1  -0.00039795  0.74748539  0.49514029  1
  Nb5+  Nb115  1  -0.00350873  0.74944686  0.99918160  1
  Nb5+  Nb116  1  0.49573419  0.24798407  0.50838763  1
  Nb5+  Nb117  1  0.49750211  0.24440981  0.99914697  1
  Nb5+  Nb118  1  0.49668458  0.75142587  0.49398093  1
  Nb5+  Nb119  1  0.50011079  0.74374631  0.99947225  1
  Nb5+  Nb120  1  0.25600776  -0.00905055  -0.00052859  1
  Nb5+  Nb121  1  0.25146261  -0.00004817  0.49764546  1
  Nb5+  Nb122  1  0.25030046  0.49064694  -0.00562891  1
  Nb5+  Nb123  1  0.25466834  0.50618557  0.49206480  1
  Nb5+  Nb124  1  0.75300728  0.00106195  0.00497191  1
  Nb5+  Nb125  1  0.75628345  0.00623015  0.50035565  1
  Nb5+  Nb126  1  0.75050669  0.50190782  -0.00176989  1
  Nb5+  Nb127  1  0.75346410  0.50009458  0.50032085  1
  O2-  O128  1  -0.00240212  -0.02700497  0.13040074  1
  O2-  O129  1  -0.00506404  -0.03482472  0.63839888  1
  O2-  O130  1  0.02216986  0.48344382  0.13148673  1
  O2-  O131  1  0.02764706  0.48822218  0.64225868  1
  O2-  O132  1  0.50183484  0.01680583  0.12112622  1
  O2-  O133  1  0.49473770  0.01408361  0.63047813  1
  O2-  O134  1  0.51826774  0.50856421  0.11596965  1
  O2-  O135  1  0.51410940  0.52193554  0.63941257  1
  O2-  O136  1  0.01080480  0.01786507  0.36810653  1
  O2-  O137  1  0.02497287  0.01022942  0.86306664  1
  O2-  O138  1  -0.01733667  0.52245669  0.36856036  1
  O2-  O139  1  -0.01242360  0.53674525  0.86588224  1
  O2-  O140  1  0.49855680  -0.01051605  0.38059664  1
  O2-  O141  1  0.49514345  -0.01734660  0.88018692  1
  O2-  O142  1  0.46730937  0.48501992  0.36528576  1
  O2-  O143  1  0.47453384  0.49489291  0.88011402  1
  O2-  O144  1  0.27817221  0.26012843  0.11205912  1
  O2-  O145  1  0.27876748  0.26354164  0.64013527  1
  O2-  O146  1  0.24450262  0.76898447  0.11040802  1
  O2-  O147  1  0.24450977  0.77317217  0.64233248  1
  O2-  O148  1  0.76681820  0.22169039  0.11645262  1
  O2-  O149  1  0.76180297  0.22101948  0.62994119  1
  O2-  O150  1  0.72875066  0.73207506  0.13008837  1
  O2-  O151  1  0.73499612  0.72596511  0.63726500  1
  O2-  O152  1  0.23016607  0.23777012  0.36247884  1
  O2-  O153  1  0.23278850  0.23927091  0.87958358  1
  O2-  O154  1  0.25584072  0.71996787  0.36881722  1
  O2-  O155  1  0.26611546  0.74039776  0.87410098  1
  O2-  O156  1  0.73901756  0.28046644  0.35779100  1
  O2-  O157  1  0.73865752  0.26865589  0.88737282  1
  O2-  O158  1  0.76352480  0.77286514  0.36700336  1
  O2-  O159  1  0.75815532  0.78265929  0.86648103  1
  O2-  O160  1  -0.01129917  0.27430163  0.11159010  1
  O2-  O161  1  -0.02544284  0.26668356  0.61880562  1
  O2-  O162  1  0.01144568  0.77502925  0.11058089  1
  O2-  O163  1  0.01513701  0.77089860  0.63662953  1
  O2-  O164  1  0.48053853  0.24215738  0.11920835  1
  O2-  O165  1  0.47643470  0.22087814  0.61633706  1
  O2-  O166  1  0.50200894  0.73264222  0.11306911  1
  O2-  O167  1  0.51346381  0.73925010  0.63599620  1
  O2-  O168  1  0.25327675  0.02497926  0.38603349  1
  O2-  O169  1  0.25365011  0.01729842  0.87255577  1
  O2-  O170  1  0.27133936  0.53158998  0.38305562  1
  O2-  O171  1  0.27245453  0.51991698  0.87846075  1
  O2-  O172  1  0.74435374  -0.02143179  0.38426694  1
  O2-  O173  1  0.73962952  -0.01246279  0.88728342  1
  O2-  O174  1  0.77615262  0.48499349  0.38349675  1
  O2-  O175  1  0.75725553  0.46724699  0.88645126  1
  O2-  O176  1  0.02575532  0.23658656  0.38262768  1
  O2-  O177  1  0.02682677  0.22805535  0.88530456  1
  O2-  O178  1  -0.01253668  0.72254301  0.38428479  1
  O2-  O179  1  -0.00260258  0.72906944  0.87036534  1
  O2-  O180  1  0.52042388  0.25896436  0.36339737  1
  O2-  O181  1  0.52168621  0.26449430  0.88781879  1
  O2-  O182  1  0.47478292  0.77269026  0.38447129  1
  O2-  O183  1  0.48950744  0.76434084  0.87503840  1
  O2-  O184  1  0.26726712  -0.01896229  0.11200685  1
  O2-  O185  1  0.26592607  -0.01888475  0.63590296  1
  O2-  O186  1  0.23420921  0.48877637  0.10897761  1
  O2-  O187  1  0.23516120  0.48064503  0.64413608  1
  O2-  O188  1  0.72378682  0.02006976  0.11535940  1
  O2-  O189  1  0.74751038  0.03290222  0.61620094  1
  O2-  O190  1  0.71823016  0.51629019  0.11168505  1
  O2-  O191  1  0.72041644  0.51578029  0.61868455  1
  O2-  O192  1  0.14005766  0.26464530  0.21994248  1
  O2-  O193  1  0.13846935  0.26809021  0.73691374  1
  O2-  O194  1  0.13543539  0.78029488  0.25555752  1
  O2-  O195  1  0.12891308  0.75882797  0.76835863  1
  O2-  O196  1  0.61751586  0.26893885  0.22111334  1
  O2-  O197  1  0.63325776  0.27891485  0.73500275  1
  O2-  O198  1  0.63011196  0.77804589  0.25809182  1
  O2-  O199  1  0.62177814  0.76402435  0.76456065  1
  O2-  O200  1  0.38233280  0.23113719  0.26172051  1
  O2-  O201  1  0.36701396  0.24136841  0.78407046  1
  O2-  O202  1  0.36693312  0.72302698  0.23560976  1
  O2-  O203  1  0.37545154  0.74057858  0.74618841  1
  O2-  O204  1  0.86583137  0.22250877  0.25800705  1
  O2-  O205  1  0.86366254  0.23435362  0.77568764  1
  O2-  O206  1  0.86608699  0.72993293  0.23172544  1
  O2-  O207  1  0.87867046  0.74141929  0.74466011  1
  O2-  O208  1  0.28280849  0.36311648  0.25099429  1
  O2-  O209  1  0.26409960  0.37942869  0.77597483  1
  O2-  O210  1  0.28218735  0.86220571  0.25733790  1
  O2-  O211  1  0.25950424  0.87621989  0.77370843  1
  O2-  O212  1  0.76024627  0.36165268  0.20974348  1
  O2-  O213  1  0.77160327  0.36602349  0.73137168  1
  O2-  O214  1  0.76748376  0.87047871  0.22618519  1
  O2-  O215  1  0.76550241  0.86636631  0.72295487  1
  O2-  O216  1  0.24839503  0.13441351  0.22028864  1
  O2-  O217  1  0.24393916  0.12550149  0.73978281  1
  O2-  O218  1  0.23040818  0.63404070  0.21984240  1
  O2-  O219  1  0.23990524  0.62957769  0.74214343  1
  O2-  O220  1  0.71238772  0.14017128  0.25500725  1
  O2-  O221  1  0.72466288  0.13626546  0.77723164  1
  O2-  O222  1  0.72900797  0.63154550  0.26660318  1
  O2-  O223  1  0.74836618  0.63659896  0.78049485  1
  O2-  O224  1  0.11621515  0.46043469  0.27372198  1
  O2-  O225  1  0.13319459  0.49908404  0.77944175  1
  O2-  O226  1  0.12140949  0.97699209  0.24741052  1
  O2-  O227  1  0.13388824  0.98707781  0.74262851  1
  O2-  O228  1  0.61276507  0.47502106  0.26452301  1
  O2-  O229  1  0.60841191  0.49172869  0.77909860  1
  O2-  O230  1  0.61179804  0.98300511  0.26111240  1
  O2-  O231  1  0.61151341  0.97090650  0.75124583  1
  O2-  O232  1  0.38814993  0.02580543  0.25780636  1
  O2-  O233  1  0.37495114  0.00732052  0.75746994  1
  O2-  O234  1  0.38428173  0.51266690  0.21793989  1
  O2-  O235  1  0.36980391  0.52273577  0.74422877  1
  O2-  O236  1  0.88364526  0.02680240  0.24902084  1
  O2-  O237  1  0.88339139  0.01200082  0.76979175  1
  O2-  O238  1  0.88417969  0.52823465  0.22583141  1
  O2-  O239  1  0.88276251  0.51091288  0.73255676  1
  O2-  O240  1  0.48177213  0.37110074  0.23524906  1
  O2-  O241  1  0.47110618  0.38767088  0.74025187  1
  O2-  O242  1  0.47434741  0.88551525  0.23040256  1
  O2-  O243  1  0.47787437  0.87138550  0.74329868  1
  O2-  O244  1  0.96142124  0.38362974  0.26378060  1
  O2-  O245  1  0.99321514  0.38594436  0.77847187  1
  O2-  O246  1  0.97814238  0.88139645  0.27060335  1
  O2-  O247  1  0.99335199  0.86947225  0.77329130  1
  O2-  O248  1  0.02298325  0.11876036  0.23000259  1
  O2-  O249  1  0.01269129  0.11358746  0.71865056  1
  O2-  O250  1  0.04009515  0.61308261  0.24303536  1
  O2-  O251  1  0.01149280  0.63087885  0.73315760  1
  O2-  O252  1  0.51865781  0.12948539  0.24851112  1
  O2-  O253  1  0.50847931  0.11043102  0.77328550  1
  O2-  O254  1  0.51770427  0.61304251  0.26587566  1
  O2-  O255  1  0.50290352  0.63113120  0.77301467  1
  O2-  O256  1  0.13793717  0.48454234  -0.02738473  1
  O2-  O257  1  0.13787118  0.48420257  0.48988573  1
  O2-  O258  1  0.14095749  0.98726844  -0.00197783  1
  O2-  O259  1  0.13893253  0.97872976  0.50854119  1
  O2-  O260  1  0.61515484  0.48803982  -0.02294100  1
  O2-  O261  1  0.62988555  0.48296798  0.47879080  1
  O2-  O262  1  0.61377227  0.98409259  -0.00397436  1
  O2-  O263  1  0.61664913  0.98154950  0.51126168  1
  O2-  O264  1  0.37862141  0.02584039  -0.00459785  1
  O2-  O265  1  0.38265000  0.02339883  0.50343823  1
  O2-  O266  1  0.37674592  0.51247539  0.01519878  1
  O2-  O267  1  0.36560747  0.51232872  0.53627517  1
  O2-  O268  1  0.86387638  0.03166159  0.00227414  1
  O2-  O269  1  0.86790872  0.03219547  0.49449621  1
  O2-  O270  1  0.86304426  0.50643240  0.02265427  1
  O2-  O271  1  0.86668238  0.51455409  0.53308726  1
  O2-  O272  1  0.48613786  0.37681729  0.00888726  1
  O2-  O273  1  0.47592591  0.36298518  0.51451939  1
  O2-  O274  1  0.47446118  0.87858117  0.01395129  1
  O2-  O275  1  0.48117429  0.88117096  0.51645317  1
  O2-  O276  1  0.99136047  0.36556577  -0.03009070  1
  O2-  O277  1  0.98985814  0.36993466  0.48516308  1
  O2-  O278  1  0.98530622  0.86403479  -0.03311966  1
  O2-  O279  1  0.96892023  0.86615341  0.47922108  1
  O2-  O280  1  0.01852791  0.13524019  0.02309187  1
  O2-  O281  1  0.01776173  0.13142529  0.52135672  1
  O2-  O282  1  0.03580066  0.63759133  0.00552906  1
  O2-  O283  1  0.03666263  0.63727849  0.51746170  1
  O2-  O284  1  0.51297754  0.12730907  -0.00887676  1
  O2-  O285  1  0.51994785  0.12073187  0.48718490  1
  O2-  O286  1  0.50870409  0.62720403  -0.01887460  1
  O2-  O287  1  0.51547559  0.63681324  0.47823092  1
  O2-  O288  1  0.13663900  0.26679294  0.01557350  1
  O2-  O289  1  0.12172558  0.26471452  0.52391370  1
  O2-  O290  1  0.13446906  0.77277781  -0.01920114  1
  O2-  O291  1  0.11347859  0.78819850  0.49457474  1
  O2-  O292  1  0.62300985  0.26120270  0.02301703  1
  O2-  O293  1  0.61244060  0.26656469  0.51282908  1
  O2-  O294  1  0.61042130  0.77619742  -0.00999689  1
  O2-  O295  1  0.61293415  0.77465789  0.50222834  1
  O2-  O296  1  0.37998762  0.23851212  -0.02149477  1
  O2-  O297  1  0.38722341  0.23219962  0.46376688  1
  O2-  O298  1  0.37410398  0.74047227  0.00161175  1
  O2-  O299  1  0.38585104  0.73905225  0.52990193  1
  O2-  O300  1  0.87357855  0.23656545  -0.01693775  1
  O2-  O301  1  0.88450168  0.23137108  0.47649292  1
  O2-  O302  1  0.88447830  0.72299330  0.00480348  1
  O2-  O303  1  0.88802931  0.73222625  0.53419777  1
  O2-  O304  1  0.27176749  0.37493156  -0.01713156  1
  O2-  O305  1  0.27147798  0.38506234  0.48596038  1
  O2-  O306  1  0.27456043  0.87770741  -0.02086219  1
  O2-  O307  1  0.28634533  0.88735852  0.49224956  1
  O2-  O308  1  0.75348812  0.36953046  0.02370572  1
  O2-  O309  1  0.76308486  0.38041981  0.52186374  1
  O2-  O310  1  0.76967211  0.88744060  0.02563911  1
  O2-  O311  1  0.76216967  0.88853739  0.52614530  1
  O2-  O312  1  0.24237608  0.12767767  0.00794601  1
  O2-  O313  1  0.24603437  0.11375665  0.53460085  1
  O2-  O314  1  0.23919495  0.62950649  0.00671532  1
  O2-  O315  1  0.23720303  0.61679937  0.53392615  1
  O2-  O316  1  0.72676662  0.13003579  -0.01702460  1
  O2-  O317  1  0.71416012  0.11642637  0.47799017  1
  O2-  O318  1  0.74035058  0.61447869  -0.02845600  1
  O2-  O319  1  0.73383009  0.61815286  0.48147329  1
