# generated using pymatgen
data_Sr64Ca21Nb43O192
_symmetry_space_group_name_H-M   'P 1'
_cell_length_a   16.59026097
_cell_length_b   16.61235903
_cell_length_c   16.76832421
_cell_angle_alpha   89.96958834
_cell_angle_beta   90.00077248
_cell_angle_gamma   90.15991980
_symmetry_Int_Tables_number   1
_chemical_formula_structural   Sr64Ca21Nb43O192
_chemical_formula_sum   'Sr64 Ca21 Nb43 O192'
_cell_volume   4621.38803577
_cell_formula_units_Z   1
loop_
 _symmetry_equiv_pos_site_id
 _symmetry_equiv_pos_as_xyz
  1  'x, y, z'
loop_
 _atom_type_symbol
 _atom_type_oxidation_number
  Sr2+  2.0
  Ca2+  2.0
  Nb5+  5.0
  O2-  -2.0
loop_
 _atom_site_type_symbol
 _atom_site_label
 _atom_site_symmetry_multiplicity
 _atom_site_fract_x
 _atom_site_fract_y
 _atom_site_fract_z
 _atom_site_occupancy
  Sr2+  Sr0  1  0.12538598  0.11631836  0.12311351  1
  Sr2+  Sr1  1  0.12614241  0.11744040  0.63214270  1
  Sr2+  Sr2  1  0.11623159  0.63379842  0.12072316  1
  Sr2+  Sr3  1  0.12568197  0.61586483  0.62939780  1
  Sr2+  Sr4  1  0.62301080  0.13142227  0.13089376  1
  Sr2+  Sr5  1  0.63286207  0.10715534  0.62401239  1
  Sr2+  Sr6  1  0.63242317  0.63084250  0.11721322  1
  Sr2+  Sr7  1  0.62526859  0.63861960  0.62873952  1
  Sr2+  Sr8  1  0.37812935  0.37157836  0.12365572  1
  Sr2+  Sr9  1  0.36230162  0.36864626  0.61836674  1
  Sr2+  Sr10  1  0.36429923  0.87543026  0.13206278  1
  Sr2+  Sr11  1  0.37798425  0.86230869  0.63064012  1
  Sr2+  Sr12  1  0.86117982  0.36610672  0.12805401  1
  Sr2+  Sr13  1  0.86832459  0.36716542  0.61952302  1
  Sr2+  Sr14  1  0.87054775  0.86366862  0.12352225  1
  Sr2+  Sr15  1  0.86888973  0.88556012  0.62531346  1
  Sr2+  Sr16  1  0.12520751  0.39062986  0.37205579  1
  Sr2+  Sr17  1  0.13545472  0.37539420  0.88589898  1
  Sr2+  Sr18  1  0.13984536  0.87769439  0.37768432  1
  Sr2+  Sr19  1  0.12729412  0.88354153  0.86798898  1
  Sr2+  Sr20  1  0.61183891  0.38054372  0.37553261  1
  Sr2+  Sr21  1  0.62081416  0.38707766  0.87067683  1
  Sr2+  Sr22  1  0.60797440  0.88290151  0.38439511  1
  Sr2+  Sr23  1  0.61642619  0.88320096  0.87257566  1
  Sr2+  Sr24  1  0.37797404  0.12412782  0.36927691  1
  Sr2+  Sr25  1  0.36525792  0.13204965  0.86594934  1
  Sr2+  Sr26  1  0.37273175  0.63224746  0.37891034  1
  Sr2+  Sr27  1  0.37339326  0.62806264  0.87736259  1
  Sr2+  Sr28  1  0.87413725  0.13802654  0.37479691  1
  Sr2+  Sr29  1  0.89227584  0.12592625  0.87875656  1
  Sr2+  Sr30  1  0.88748533  0.62594061  0.38031366  1
  Sr2+  Sr31  1  0.87915842  0.63164023  0.86691295  1
  Sr2+  Sr32  1  0.12916462  0.13382345  0.37444420  1
  Sr2+  Sr33  1  0.12942473  0.13532222  0.87821968  1
  Sr2+  Sr34  1  0.13114543  0.63619202  0.37877271  1
  Sr2+  Sr35  1  0.13387965  0.64285057  0.86756093  1
  Sr2+  Sr36  1  0.61893546  0.13079993  0.38371323  1
  Sr2+  Sr37  1  0.61765723  0.13424991  0.86116595  1
  Sr2+  Sr38  1  0.62120008  0.63900939  0.38744672  1
  Sr2+  Sr39  1  0.62623103  0.63128448  0.87214646  1
  Sr2+  Sr40  1  0.36944131  0.38322182  0.36895088  1
  Sr2+  Sr41  1  0.37179414  0.38131986  0.88290409  1
  Sr2+  Sr42  1  0.37128479  0.88405348  0.37664502  1
  Sr2+  Sr43  1  0.37155459  0.87925529  0.86806512  1
  Sr2+  Sr44  1  0.87833634  0.38578363  0.37806862  1
  Sr2+  Sr45  1  0.87206302  0.38448693  0.86896841  1
  Sr2+  Sr46  1  0.88205617  0.88527069  0.37376336  1
  Sr2+  Sr47  1  0.87459781  0.89072536  0.87747981  1
  Sr2+  Sr48  1  0.11855677  0.36418095  0.12785136  1
  Sr2+  Sr49  1  0.11375874  0.37561870  0.62506999  1
  Sr2+  Sr50  1  0.11166166  0.87498268  0.12573635  1
  Sr2+  Sr51  1  0.12103429  0.86790907  0.63584569  1
  Sr2+  Sr52  1  0.61523427  0.37663045  0.11567363  1
  Sr2+  Sr53  1  0.63312295  0.36895554  0.63314726  1
  Sr2+  Sr54  1  0.64070164  0.86558861  0.12806897  1
  Sr2+  Sr55  1  0.61666478  0.87511939  0.62079126  1
  Sr2+  Sr56  1  0.37170952  0.11893468  0.12560665  1
  Sr2+  Sr57  1  0.38818710  0.11108940  0.63119308  1
  Sr2+  Sr58  1  0.39068452  0.61175786  0.12510351  1
  Sr2+  Sr59  1  0.35905902  0.62142737  0.62427465  1
  Sr2+  Sr60  1  0.87076042  0.10896713  0.12751252  1
  Sr2+  Sr61  1  0.86479094  0.12759949  0.60774943  1
  Sr2+  Sr62  1  0.86040393  0.62654357  0.12315718  1
  Sr2+  Sr63  1  0.87004607  0.61126649  0.62588928  1
  Ca2+  Ca64  1  0.00294274  0.00134288  0.49621992  1
  Ca2+  Ca65  1  0.49833169  0.00223437  0.00071288  1
  Ca2+  Ca66  1  0.50153305  0.49895574  0.50263130  1
  Ca2+  Ca67  1  0.49508267  0.00191142  0.50024264  1
  Ca2+  Ca68  1  -0.00009692  0.50117076  0.00252772  1
  Ca2+  Ca69  1  0.25031469  0.75467290  0.00231517  1
  Ca2+  Ca70  1  0.24668182  0.75233478  0.50093137  1
  Ca2+  Ca71  1  0.74961864  0.24850419  -0.00280884  1
  Ca2+  Ca72  1  0.24601986  0.24680468  0.49632744  1
  Ca2+  Ca73  1  0.75373252  0.74935751  0.50132704  1
  Ca2+  Ca74  1  0.50238064  0.74975561  0.24836507  1
  Ca2+  Ca75  1  0.24910459  0.50242509  0.24609440  1
  Ca2+  Ca76  1  0.25005697  0.00290538  0.75298991  1
  Ca2+  Ca77  1  -0.00370289  0.75093563  0.74850602  1
  Ca2+  Ca78  1  -0.00008742  0.25278982  0.74948594  1
  Ca2+  Ca79  1  0.74744985  0.49809766  0.25051491  1
  Ca2+  Ca80  1  0.25172599  0.49581956  0.75211287  1
  Ca2+  Ca81  1  0.49720056  0.25373592  0.74856173  1
  Ca2+  Ca82  1  0.74922799  -0.00289264  0.25146072  1
  Ca2+  Ca83  1  0.50157980  0.74512029  0.75389080  1
  Ca2+  Ca84  1  0.75242399  0.00055547  0.75150260  1
  Nb5+  Nb85  1  0.50157884  0.50193097  -0.00066679  1
  Nb5+  Nb86  1  0.00176487  -0.00068064  0.00067531  1
  Nb5+  Nb87  1  0.00131117  0.50152984  0.50014914  1
  Nb5+  Nb88  1  0.25112545  0.25002331  0.00441644  1
  Nb5+  Nb89  1  0.75173766  0.75181316  -0.00518165  1
  Nb5+  Nb90  1  0.74490555  0.25246310  0.49645684  1
  Nb5+  Nb91  1  -0.00760164  0.25378719  0.24548363  1
  Nb5+  Nb92  1  0.74861351  0.49927329  0.74865795  1
  Nb5+  Nb93  1  -0.00300525  0.75790241  0.25206759  1
  Nb5+  Nb94  1  0.24695542  0.00152852  0.25158909  1
  Nb5+  Nb95  1  0.49114886  0.24902292  0.24952025  1
  Nb5+  Nb96  1  0.00189967  0.00716235  0.25315383  1
  Nb5+  Nb97  1  -0.00276513  0.00585983  0.74196938  1
  Nb5+  Nb98  1  0.00030609  0.51240156  0.24741587  1
  Nb5+  Nb99  1  0.00349042  0.49438626  0.75713580  1
  Nb5+  Nb100  1  0.50022469  -0.00270002  0.24405599  1
  Nb5+  Nb101  1  0.50233072  -0.00182054  0.75250137  1
  Nb5+  Nb102  1  0.50713029  0.50396115  0.25215700  1
  Nb5+  Nb103  1  0.49571231  0.49883060  0.74714359  1
  Nb5+  Nb104  1  0.24400863  0.25093677  0.25052761  1
  Nb5+  Nb105  1  0.24674796  0.25400492  0.74211925  1
  Nb5+  Nb106  1  0.24915449  0.74564542  0.24385002  1
  Nb5+  Nb107  1  0.25087083  0.75016319  0.75003069  1
  Nb5+  Nb108  1  0.73774593  0.25227897  0.24966750  1
  Nb5+  Nb109  1  0.75561839  0.24733119  0.75491651  1
  Nb5+  Nb110  1  0.75229347  0.74719242  0.25844398  1
  Nb5+  Nb111  1  0.75427841  0.75557192  0.74865337  1
  Nb5+  Nb112  1  0.00325476  0.25117056  0.49672538  1
  Nb5+  Nb113  1  -0.00403460  0.25062582  1.00665143  1
  Nb5+  Nb114  1  -0.00139457  0.75215416  0.50510158  1
  Nb5+  Nb115  1  -0.00025460  0.75231706  0.99454880  1
  Nb5+  Nb116  1  0.49476243  0.25281834  0.50515328  1
  Nb5+  Nb117  1  0.50081699  0.24835073  0.99758875  1
  Nb5+  Nb118  1  0.49873880  0.74725640  0.50059471  1
  Nb5+  Nb119  1  0.49558366  0.75340266  1.00282535  1
  Nb5+  Nb120  1  0.25309371  0.00191659  0.00016038  1
  Nb5+  Nb121  1  0.24829143  0.00187719  0.50864725  1
  Nb5+  Nb122  1  0.24583976  0.50324895  0.00729058  1
  Nb5+  Nb123  1  0.25310288  0.50058494  0.49676114  1
  Nb5+  Nb124  1  0.74204634  -0.00027086  0.00290503  1
  Nb5+  Nb125  1  0.75109481  -0.00405224  0.49333522  1
  Nb5+  Nb126  1  0.75507630  0.49948686  -0.00383781  1
  Nb5+  Nb127  1  0.74486119  0.49855196  0.49969165  1
  O2-  O128  1  -0.00901765  0.01190277  0.13021696  1
  O2-  O129  1  -0.01813131  0.03178854  0.63152496  1
  O2-  O130  1  -0.01360688  0.53414116  0.13546134  1
  O2-  O131  1  -0.00764819  0.51947382  0.61802860  1
  O2-  O132  1  0.45992869  -0.00666405  0.13343050  1
  O2-  O133  1  0.47583053  -0.01788923  0.63437975  1
  O2-  O134  1  0.48640089  0.48270258  0.12323857  1
  O2-  O135  1  0.47809544  0.47516981  0.63700427  1
  O2-  O136  1  0.02252404  -0.02505901  0.36176717  1
  O2-  O137  1  0.01493285  -0.01650817  0.88700399  1
  O2-  O138  1  0.00785301  0.48486439  0.37726175  1
  O2-  O139  1  0.01029500  0.46549274  0.86810055  1
  O2-  O140  1  0.51107297  0.01873429  0.36062060  1
  O2-  O141  1  0.53085639  0.01567288  0.86908358  1
  O2-  O142  1  0.53076094  0.51382218  0.36492383  1
  O2-  O143  1  0.52153819  0.51261871  0.88500898  1
  O2-  O144  1  0.23345811  0.25205930  0.12840321  1
  O2-  O145  1  0.22401591  0.26533077  0.63094113  1
  O2-  O146  1  0.21985171  0.77296594  0.13397830  1
  O2-  O147  1  0.22921338  0.76282217  0.63334694  1
  O2-  O148  1  0.72483388  0.26674997  0.13356292  1
  O2-  O149  1  0.73337966  0.25652458  0.61474542  1
  O2-  O150  1  0.74233133  0.75278230  0.11718325  1
  O2-  O151  1  0.72782663  0.76077294  0.63638761  1
  O2-  O152  1  0.27040137  0.23299668  0.36141040  1
  O2-  O153  1  0.26340515  0.24638978  0.88773609  1
  O2-  O154  1  0.26232185  0.74523272  0.36123132  1
  O2-  O155  1  0.27226492  0.73977169  0.87023001  1
  O2-  O156  1  0.75998291  0.24023972  0.37341539  1
  O2-  O157  1  0.78847562  0.24283784  0.86445103  1
  O2-  O158  1  0.77245721  0.72609544  0.36762979  1
  O2-  O159  1  0.77642620  0.74189971  0.87932980  1
  O2-  O160  1  0.02851662  0.23217958  0.13144656  1
  O2-  O161  1  0.02756370  0.23994414  0.60830322  1
  O2-  O162  1  0.01447342  0.74437390  0.12845558  1
  O2-  O163  1  0.02883733  0.73572689  0.61386140  1
  O2-  O164  1  0.51534237  0.26505286  0.13091133  1
  O2-  O165  1  0.51121814  0.28289006  0.61384078  1
  O2-  O166  1  0.53676442  0.75856967  0.11290436  1
  O2-  O167  1  0.51564911  0.76673429  0.61812768  1
  O2-  O168  1  0.22559867  0.00930155  0.36599328  1
  O2-  O169  1  0.22120758  0.00833168  0.88940660  1
  O2-  O170  1  0.22527840  0.50929140  0.38074606  1
  O2-  O171  1  0.24290361  0.48870131  0.89031223  1
  O2-  O172  1  0.71488294  0.00594408  0.38145501  1
  O2-  O173  1  0.74219032  -0.01404205  0.88787772  1
  O2-  O174  1  0.73403544  0.50703832  0.38688729  1
  O2-  O175  1  0.73134284  0.50066953  0.87101133  1
  O2-  O176  1  -0.02403333  0.26364087  0.36137457  1
  O2-  O177  1  -0.01851100  0.26138554  0.89274816  1
  O2-  O178  1  -0.02821424  0.76030507  0.36746851  1
  O2-  O179  1  -0.02685921  0.76953228  0.88508669  1
  O2-  O180  1  0.48856751  0.22869326  0.36640874  1
  O2-  O181  1  0.47609912  0.23157555  0.88742066  1
  O2-  O182  1  0.48891731  0.72296482  0.37991900  1
  O2-  O183  1  0.49344740  0.71843677  0.89135346  1
  O2-  O184  1  0.26231595  -0.00046718  0.12610823  1
  O2-  O185  1  0.27343688  0.00381091  0.61924319  1
  O2-  O186  1  0.28897322  0.49761926  0.11559376  1
  O2-  O187  1  0.26376645  0.48727772  0.61549000  1
  O2-  O188  1  0.77639195  -0.01340838  0.11550476  1
  O2-  O189  1  0.77398636  0.00589512  0.61329908  1
  O2-  O190  1  0.76848720  0.49622023  0.11162155  1
  O2-  O191  1  0.76909128  0.48757649  0.63009496  1
  O2-  O192  1  0.12731908  0.26383846  0.26686400  1
  O2-  O193  1  0.13437065  0.28290286  0.77429201  1
  O2-  O194  1  0.11496952  0.76807268  0.26829550  1
  O2-  O195  1  0.13101859  0.76741930  0.77568867  1
  O2-  O196  1  0.62290252  0.26057337  0.26989858  1
  O2-  O197  1  0.63853281  0.27280256  0.76803595  1
  O2-  O198  1  0.63988024  0.77662772  0.26910962  1
  O2-  O199  1  0.64103442  0.75957377  0.78152095  1
  O2-  O200  1  0.37583437  0.23357802  0.23002305  1
  O2-  O201  1  0.36313313  0.21916557  0.73222817  1
  O2-  O202  1  0.36253053  0.73265561  0.22196749  1
  O2-  O203  1  0.36802952  0.72815038  0.72863740  1
  O2-  O204  1  0.88198340  0.22827730  0.22544558  1
  O2-  O205  1  0.86575707  0.23654541  0.71185956  1
  O2-  O206  1  0.88161295  0.72592698  0.23124044  1
  O2-  O207  1  0.86407471  0.71335176  0.73563268  1
  O2-  O208  1  0.26778790  0.36440501  0.25131383  1
  O2-  O209  1  0.28898897  0.36407279  0.75839698  1
  O2-  O210  1  0.26110910  0.88125299  0.25653843  1
  O2-  O211  1  0.27088834  0.86894750  0.75836879  1
  O2-  O212  1  0.78144591  0.36085876  0.25883836  1
  O2-  O213  1  0.77089365  0.37529552  0.75408078  1
  O2-  O214  1  0.78477257  0.86164045  0.25101198  1
  O2-  O215  1  0.78538795  0.86521752  0.75452014  1
  O2-  O216  1  0.23336142  0.12432747  0.23824526  1
  O2-  O217  1  0.21990271  0.13778042  0.75486133  1
  O2-  O218  1  0.21712856  0.63543359  0.23600124  1
  O2-  O219  1  0.22667647  0.63001704  0.74370742  1
  O2-  O220  1  0.74256504  0.13531104  0.23666620  1
  O2-  O221  1  0.72689681  0.13465298  0.74705104  1
  O2-  O222  1  0.73468654  0.63332069  0.22984804  1
  O2-  O223  1  0.73148839  0.61597305  0.74399392  1
  O2-  O224  1  0.11099938  0.47254341  0.23786929  1
  O2-  O225  1  0.11563087  0.48056208  0.73351084  1
  O2-  O226  1  0.12558588  0.98834357  0.22851826  1
  O2-  O227  1  0.11455464  0.98158979  0.73655852  1
  O2-  O228  1  0.61627603  0.46029300  0.23447208  1
  O2-  O229  1  0.63181551  0.47425384  0.73804207  1
  O2-  O230  1  0.61204098  0.98738460  0.21774879  1
  O2-  O231  1  0.62036356  0.97495597  0.73011062  1
  O2-  O232  1  0.36463886  0.01693176  0.26556147  1
  O2-  O233  1  0.38480284  0.01885984  0.77542306  1
  O2-  O234  1  0.38891531  0.51358331  0.27183009  1
  O2-  O235  1  0.38672500  0.52816383  0.76871015  1
  O2-  O236  1  0.88758467  0.01930995  0.26892906  1
  O2-  O237  1  0.88628112  0.01569579  0.78105897  1
  O2-  O238  1  0.88562484  0.50698711  0.27073457  1
  O2-  O239  1  0.87125576  0.51429872  0.76692104  1
  O2-  O240  1  0.47965249  0.36682160  0.26312923  1
  O2-  O241  1  0.49150153  0.38710204  0.78627842  1
  O2-  O242  1  0.47724606  0.88441701  0.26343700  1
  O2-  O243  1  0.48605728  0.87948792  0.77430986  1
  O2-  O244  1  0.98416065  0.36768851  0.22634856  1
  O2-  O245  1  0.97480020  0.38534412  0.72166276  1
  O2-  O246  1  0.98225306  0.87323200  0.23547129  1
  O2-  O247  1  0.98013054  0.88626702  0.72802262  1
  O2-  O248  1  0.02055257  0.12357498  0.26339992  1
  O2-  O249  1  0.02024463  0.11925753  0.77588185  1
  O2-  O250  1  0.01916227  0.62545040  0.27070395  1
  O2-  O251  1  0.01323811  0.61222545  0.77121503  1
  O2-  O252  1  0.50814798  0.12786776  0.23106171  1
  O2-  O253  1  0.52367229  0.11784630  0.73140861  1
  O2-  O254  1  0.52409496  0.61383350  0.22455075  1
  O2-  O255  1  0.53561869  0.60937625  0.74437201  1
  O2-  O256  1  0.13539343  0.47803665  0.02892918  1
  O2-  O257  1  0.11741207  0.47570388  0.51176095  1
  O2-  O258  1  0.12248545  0.98858666  0.02362731  1
  O2-  O259  1  0.13194759  0.96705661  0.52201337  1
  O2-  O260  1  0.62609343  0.48513552  0.01068469  1
  O2-  O261  1  0.63610704  0.46529618  0.51841094  1
  O2-  O262  1  0.63324850  0.96824574  0.02021627  1
  O2-  O263  1  0.63317493  0.98496493  0.52133939  1
  O2-  O264  1  0.36252398  0.03515465  -0.01604081  1
  O2-  O265  1  0.36108291  0.03071672  0.47840158  1
  O2-  O266  1  0.38298374  0.51450433  -0.01776462  1
  O2-  O267  1  0.36647587  0.52301736  0.48060283  1
  O2-  O268  1  0.88316962  0.02007145  -0.01014187  1
  O2-  O269  1  0.86563059  0.02413695  0.46984661  1
  O2-  O270  1  0.86699030  0.52243898  -0.02665424  1
  O2-  O271  1  0.87614709  0.51036685  0.49035856  1
  O2-  O272  1  0.48355705  0.37498648  -0.00288677  1
  O2-  O273  1  0.48359428  0.36339426  0.46465019  1
  O2-  O274  1  0.48155371  0.86473640  -0.01936518  1
  O2-  O275  1  0.48134551  0.86637226  0.47800739  1
  O2-  O276  1  0.98725741  0.36342835  0.03286228  1
  O2-  O277  1  0.97972276  0.37534072  0.50725448  1
  O2-  O278  1  0.98229934  0.88113544  0.01978345  1
  O2-  O279  1  0.97015419  0.86377292  0.51239176  1
  O2-  O280  1  0.01938325  0.12272981  -0.00593314  1
  O2-  O281  1  0.00728932  0.13799207  0.47047945  1
  O2-  O282  1  0.02457931  0.63896722  -0.01477645  1
  O2-  O283  1  0.01777049  0.61676410  0.47928571  1
  O2-  O284  1  0.51696151  0.13755796  0.02458995  1
  O2-  O285  1  0.52921371  0.13944452  0.51035065  1
  O2-  O286  1  0.51467364  0.61672857  0.02259009  1
  O2-  O287  1  0.52998972  0.63050434  0.51492244  1
  O2-  O288  1  0.12680526  0.26442253  -0.00726388  1
  O2-  O289  1  0.11140185  0.27249595  0.46255920  1
  O2-  O290  1  0.11318468  0.78153449  -0.01547257  1
  O2-  O291  1  0.10954361  0.76108226  0.46609797  1
  O2-  O292  1  0.61332690  0.27035548  -0.02242150  1
  O2-  O293  1  0.62972427  0.27061998  0.47855640  1
  O2-  O294  1  0.63552188  0.76393656  -0.02053893  1
  O2-  O295  1  0.61992501  0.76937212  0.47950292  1
  O2-  O296  1  0.37143602  0.23928248  0.02459332  1
  O2-  O297  1  0.38313529  0.22875794  0.51982847  1
  O2-  O298  1  0.38621938  0.73082406  0.03014718  1
  O2-  O299  1  0.38180766  0.72442020  0.51606529  1
  O2-  O300  1  0.88547656  0.22544771  0.03117942  1
  O2-  O301  1  0.87465140  0.23946985  0.50505515  1
  O2-  O302  1  0.87833463  0.73399300  0.01910913  1
  O2-  O303  1  0.88784369  0.71140133  0.51215731  1
  O2-  O304  1  0.26483919  0.36912559  0.00634605  1
  O2-  O305  1  0.26856205  0.38168890  0.48496327  1
  O2-  O306  1  0.27914885  0.88960393  -0.00182610  1
  O2-  O307  1  0.27027709  0.88695464  0.48370495  1
  O2-  O308  1  0.77144589  0.38389255  -0.01195035  1
  O2-  O309  1  0.77301876  0.37177793  0.49259766  1
  O2-  O310  1  0.77464731  0.86762323  -0.00198061  1
  O2-  O311  1  0.77774940  0.88340441  0.49046899  1
  O2-  O312  1  0.23057758  0.13013624  0.01256616  1
  O2-  O313  1  0.20677520  0.11488883  0.50313639  1
  O2-  O314  1  0.22739292  0.61722816  0.00524306  1
  O2-  O315  1  0.22362106  0.61569593  0.51346357  1
  O2-  O316  1  0.72434948  0.11359753  0.00620211  1
  O2-  O317  1  0.73603847  0.13286764  0.50163460  1
  O2-  O318  1  0.73538089  0.62575372  0.00016576  1
  O2-  O319  1  0.73197849  0.61110989  0.52115163  1
