# generated using pymatgen
data_Sr64Ca21Nb43O192
_symmetry_space_group_name_H-M   'P 1'
_cell_length_a   16.54244830
_cell_length_b   16.54089439
_cell_length_c   16.71312114
_cell_angle_alpha   89.97819586
_cell_angle_beta   90.00791120
_cell_angle_gamma   89.96448430
_symmetry_Int_Tables_number   1
_chemical_formula_structural   Sr64Ca21Nb43O192
_chemical_formula_sum   'Sr64 Ca21 Nb43 O192'
_cell_volume   4573.15811357
_cell_formula_units_Z   1
loop_
 _symmetry_equiv_pos_site_id
 _symmetry_equiv_pos_as_xyz
  1  'x, y, z'
loop_
 _atom_type_symbol
 _atom_type_oxidation_number
  Sr2+  2.0
  Ca2+  2.0
  Nb5+  5.0
  O2-  -2.0
loop_
 _atom_site_type_symbol
 _atom_site_label
 _atom_site_symmetry_multiplicity
 _atom_site_fract_x
 _atom_site_fract_y
 _atom_site_fract_z
 _atom_site_occupancy
  Sr2+  Sr0  1  0.12573311  0.15217984  0.12082770  1
  Sr2+  Sr1  1  0.12620717  0.12559162  0.63335965  1
  Sr2+  Sr2  1  0.12392812  0.64946510  0.12449162  1
  Sr2+  Sr3  1  0.13665031  0.62518012  0.61871396  1
  Sr2+  Sr4  1  0.60983400  0.11627657  0.12831104  1
  Sr2+  Sr5  1  0.61384717  0.12923465  0.62367978  1
  Sr2+  Sr6  1  0.62111693  0.62499279  0.13182538  1
  Sr2+  Sr7  1  0.62107887  0.63865203  0.62212579  1
  Sr2+  Sr8  1  0.36867545  0.36773061  0.13427157  1
  Sr2+  Sr9  1  0.37104667  0.39990677  0.62776020  1
  Sr2+  Sr10  1  0.37252402  0.87304926  0.12722177  1
  Sr2+  Sr11  1  0.36905148  0.87045925  0.62377136  1
  Sr2+  Sr12  1  0.86907456  0.37760715  0.13530396  1
  Sr2+  Sr13  1  0.88255174  0.36881012  0.61169699  1
  Sr2+  Sr14  1  0.87057107  0.87767218  0.14195247  1
  Sr2+  Sr15  1  0.87293540  0.86446303  0.60277690  1
  Sr2+  Sr16  1  0.14773907  0.37841833  0.37559458  1
  Sr2+  Sr17  1  0.11891125  0.38333698  0.88110178  1
  Sr2+  Sr18  1  0.10335037  0.86629704  0.36856786  1
  Sr2+  Sr19  1  0.12221046  0.88261230  0.87477796  1
  Sr2+  Sr20  1  0.63449974  0.37810649  0.37437910  1
  Sr2+  Sr21  1  0.63017582  0.37949469  0.86756320  1
  Sr2+  Sr22  1  0.63543992  0.88296818  0.38823623  1
  Sr2+  Sr23  1  0.63353920  0.87920600  0.87287580  1
  Sr2+  Sr24  1  0.37762996  0.12499976  0.38008494  1
  Sr2+  Sr25  1  0.37718513  0.12542207  0.87259793  1
  Sr2+  Sr26  1  0.36578921  0.62427034  0.37735004  1
  Sr2+  Sr27  1  0.37175091  0.63268076  0.86945173  1
  Sr2+  Sr28  1  0.87419618  0.12641800  0.36992577  1
  Sr2+  Sr29  1  0.88256239  0.13396807  0.87831829  1
  Sr2+  Sr30  1  0.88071465  0.62348323  0.37359659  1
  Sr2+  Sr31  1  0.87203187  0.62354550  0.87972285  1
  Sr2+  Sr32  1  0.11886666  0.11969664  0.35870251  1
  Sr2+  Sr33  1  0.12448101  0.13464380  0.87440914  1
  Sr2+  Sr34  1  0.13287863  0.62614185  0.38089565  1
  Sr2+  Sr35  1  0.12301624  0.62050076  0.87893378  1
  Sr2+  Sr36  1  0.63072197  0.13422296  0.38517416  1
  Sr2+  Sr37  1  0.63244567  0.12807308  0.87275373  1
  Sr2+  Sr38  1  0.62810555  0.60802078  0.37825740  1
  Sr2+  Sr39  1  0.63332633  0.63435926  0.87578976  1
  Sr2+  Sr40  1  0.38221272  0.38988547  0.37853144  1
  Sr2+  Sr41  1  0.38417971  0.39075451  0.87217166  1
  Sr2+  Sr42  1  0.37998065  0.87187763  0.37363327  1
  Sr2+  Sr43  1  0.37773753  0.87945852  0.87657979  1
  Sr2+  Sr44  1  0.86974212  0.35601479  0.37321163  1
  Sr2+  Sr45  1  0.88172524  0.39240578  0.87335333  1
  Sr2+  Sr46  1  0.87490363  0.89937530  0.37362224  1
  Sr2+  Sr47  1  0.86422159  0.89253765  0.87389381  1
  Sr2+  Sr48  1  0.12524799  0.37870516  0.12062764  1
  Sr2+  Sr49  1  0.12220529  0.37377630  0.61825195  1
  Sr2+  Sr50  1  0.11403238  0.87891520  0.13116416  1
  Sr2+  Sr51  1  0.10833431  0.87579124  0.62324823  1
  Sr2+  Sr52  1  0.62102486  0.37917814  0.13822844  1
  Sr2+  Sr53  1  0.63094159  0.37349226  0.62420712  1
  Sr2+  Sr54  1  0.61906133  0.87766391  0.11957141  1
  Sr2+  Sr55  1  0.63433518  0.87681977  0.62920654  1
  Sr2+  Sr56  1  0.36682608  0.12250629  0.13188800  1
  Sr2+  Sr57  1  0.36905671  0.11945114  0.62307685  1
  Sr2+  Sr58  1  0.37651209  0.63018402  0.13320129  1
  Sr2+  Sr59  1  0.37334580  0.62898151  0.61491047  1
  Sr2+  Sr60  1  0.87818622  0.12519402  0.13738380  1
  Sr2+  Sr61  1  0.89404068  0.12406834  0.62148817  1
  Sr2+  Sr62  1  0.86481361  0.62419006  0.13010466  1
  Sr2+  Sr63  1  0.89029703  0.62326852  0.60990779  1
  Ca2+  Ca64  1  0.00300959  0.00321343  0.00016141  1
  Ca2+  Ca65  1  0.50517714  0.50097737  0.50280493  1
  Ca2+  Ca66  1  0.50092795  0.50016683  0.00019523  1
  Ca2+  Ca67  1  0.00184350  0.49682675  0.49210760  1
  Ca2+  Ca68  1  0.00498725  0.00314315  0.49757410  1
  Ca2+  Ca69  1  0.74604145  0.25291010  -0.00066421  1
  Ca2+  Ca70  1  0.25070606  0.24701630  0.50547613  1
  Ca2+  Ca71  1  0.75277846  0.24717403  0.50706390  1
  Ca2+  Ca72  1  0.24930970  0.75796375  0.50088182  1
  Ca2+  Ca73  1  0.74744334  0.74630541  0.49411566  1
  Ca2+  Ca74  1  0.24820676  0.50013733  0.24437863  1
  Ca2+  Ca75  1  0.25131462  0.00003557  0.24993500  1
  Ca2+  Ca76  1  -0.00519300  0.74567182  0.24701651  1
  Ca2+  Ca77  1  0.50035590  0.24848814  0.25178577  1
  Ca2+  Ca78  1  0.74168921  0.00079694  0.24974154  1
  Ca2+  Ca79  1  -0.00073839  0.74853056  0.75094562  1
  Ca2+  Ca80  1  0.00183093  0.25826122  0.24740633  1
  Ca2+  Ca81  1  0.24585361  0.50005676  0.75422595  1
  Ca2+  Ca82  1  0.75059198  0.50152110  0.75140207  1
  Ca2+  Ca83  1  0.50475873  0.75152612  0.25130988  1
  Ca2+  Ca84  1  0.74986609  0.00447130  0.74613054  1
  Nb5+  Nb85  1  0.00150804  0.50564578  0.00440641  1
  Nb5+  Nb86  1  0.49736958  0.00053897  0.00035155  1
  Nb5+  Nb87  1  0.49903205  -0.00003904  0.50903265  1
  Nb5+  Nb88  1  0.74733886  0.75227456  0.00188239  1
  Nb5+  Nb89  1  0.25002839  0.75801320  -0.00031059  1
  Nb5+  Nb90  1  0.25474159  0.25620810  -0.00460263  1
  Nb5+  Nb91  1  0.49623120  0.25509008  0.74960652  1
  Nb5+  Nb92  1  0.75276918  0.50131380  0.25381114  1
  Nb5+  Nb93  1  0.49761359  0.75824057  0.74980963  1
  Nb5+  Nb94  1  0.00579948  0.25357218  0.75082830  1
  Nb5+  Nb95  1  0.24854764  -0.00470854  0.74926683  1
  Nb5+  Nb96  1  -0.00078228  0.00158140  0.24603968  1
  Nb5+  Nb97  1  -0.00422047  -0.00042303  0.75499341  1
  Nb5+  Nb98  1  0.00312564  0.50128886  0.24900349  1
  Nb5+  Nb99  1  0.00254190  0.50246499  0.74458574  1
  Nb5+  Nb100  1  0.50015181  -0.00324216  0.26501346  1
  Nb5+  Nb101  1  0.49911479  0.00262120  0.75453313  1
  Nb5+  Nb102  1  0.49788561  0.50366608  0.25043148  1
  Nb5+  Nb103  1  0.50297301  0.51286110  0.75373749  1
  Nb5+  Nb104  1  0.25131202  0.24609107  0.25809976  1
  Nb5+  Nb105  1  0.25478980  0.25135738  0.75285371  1
  Nb5+  Nb106  1  0.25064553  0.75060604  0.25410545  1
  Nb5+  Nb107  1  0.24596717  0.75275274  0.75190100  1
  Nb5+  Nb108  1  0.74466574  0.24661420  0.24417910  1
  Nb5+  Nb109  1  0.76127419  0.24826345  0.75163251  1
  Nb5+  Nb110  1  0.74416194  0.74979853  0.25394945  1
  Nb5+  Nb111  1  0.75563662  0.74554966  0.74810993  1
  Nb5+  Nb112  1  0.00684068  0.24650137  0.49018890  1
  Nb5+  Nb113  1  -0.00467323  0.25375751  1.00023771  1
  Nb5+  Nb114  1  0.00152700  0.74800446  0.49751451  1
  Nb5+  Nb115  1  -0.00814607  0.75603685  0.99328395  1
  Nb5+  Nb116  1  0.49547067  0.25481016  0.50302179  1
  Nb5+  Nb117  1  0.49451345  0.25058960  0.99696677  1
  Nb5+  Nb118  1  0.50390151  0.75262996  0.49517719  1
  Nb5+  Nb119  1  0.49623959  0.74799441  0.99815723  1
  Nb5+  Nb120  1  0.24904768  0.00283760  0.00021772  1
  Nb5+  Nb121  1  0.24823196  -0.00035467  0.49570871  1
  Nb5+  Nb122  1  0.25179652  0.51020908  -0.00020371  1
  Nb5+  Nb123  1  0.25194993  0.50094320  0.49937382  1
  Nb5+  Nb124  1  0.74858616  0.00672793  0.00189202  1
  Nb5+  Nb125  1  0.75361883  0.00386168  0.50408275  1
  Nb5+  Nb126  1  0.74765726  0.49678683  0.00232326  1
  Nb5+  Nb127  1  0.75488355  0.49713116  0.50739520  1
  O2-  O128  1  -0.01014443  -0.02534635  0.12911919  1
  O2-  O129  1  0.00143424  -0.00034345  0.63671135  1
  O2-  O130  1  -0.00880103  0.47180334  0.11589120  1
  O2-  O131  1  -0.01558184  0.48692060  0.63243712  1
  O2-  O132  1  0.49082695  0.01523903  0.11496494  1
  O2-  O133  1  0.49094179  0.01708842  0.62778278  1
  O2-  O134  1  0.50278162  0.52571698  0.13185271  1
  O2-  O135  1  0.48287583  0.51967351  0.63788215  1
  O2-  O136  1  -0.00150779  0.02460673  0.36486205  1
  O2-  O137  1  0.02941702  0.01459086  0.86634921  1
  O2-  O138  1  0.00938484  0.53361054  0.35916789  1
  O2-  O139  1  0.01376703  0.50708121  0.88182845  1
  O2-  O140  1  0.50254962  -0.02062166  0.38051219  1
  O2-  O141  1  0.50177499  -0.02249468  0.86951160  1
  O2-  O142  1  0.50956293  0.47609448  0.36699315  1
  O2-  O143  1  0.51278264  0.47504454  0.86683316  1
  O2-  O144  1  0.25424911  0.25855934  0.11323383  1
  O2-  O145  1  0.22720273  0.25371180  0.64186132  1
  O2-  O146  1  0.26612599  0.75028707  0.11616966  1
  O2-  O147  1  0.25968085  0.74877521  0.63763277  1
  O2-  O148  1  0.74477994  0.28288987  0.13131116  1
  O2-  O149  1  0.75418604  0.28521516  0.64012944  1
  O2-  O150  1  0.77276953  0.76168241  0.11517417  1
  O2-  O151  1  0.75421748  0.76427433  0.63461453  1
  O2-  O152  1  0.24118404  0.22657358  0.36997124  1
  O2-  O153  1  0.25161980  0.22849747  0.87437718  1
  O2-  O154  1  0.23984135  0.74477212  0.36746923  1
  O2-  O155  1  0.25285055  0.74903867  0.88048374  1
  O2-  O156  1  0.75083680  0.23577784  0.36643964  1
  O2-  O157  1  0.75605529  0.21519496  0.86810311  1
  O2-  O158  1  0.70900106  0.73680544  0.36192055  1
  O2-  O159  1  0.75033540  0.73065191  0.88193670  1
  O2-  O160  1  0.00953505  0.27255402  0.11228342  1
  O2-  O161  1  0.01007858  0.25904326  0.63242384  1
  O2-  O162  1  0.00048196  0.77114383  0.10874536  1
  O2-  O163  1  -0.01104541  0.76876756  0.61878780  1
  O2-  O164  1  0.50182715  0.22362648  0.10894988  1
  O2-  O165  1  0.49162606  0.22363799  0.63653883  1
  O2-  O166  1  0.48850039  0.73959866  0.11237963  1
  O2-  O167  1  0.49305032  0.73369736  0.63451283  1
  O2-  O168  1  0.24904724  0.02988636  0.38544651  1
  O2-  O169  1  0.24623066  -0.00558860  0.87489001  1
  O2-  O170  1  0.24463068  0.50503891  0.37946765  1
  O2-  O171  1  0.22692795  0.49522583  0.88757356  1
  O2-  O172  1  0.73292332  0.02121186  0.38510238  1
  O2-  O173  1  0.73120013  0.00497684  0.88415771  1
  O2-  O174  1  0.74749468  0.51345837  0.36983140  1
  O2-  O175  1  0.74387556  0.52495313  0.88899255  1
  O2-  O176  1  0.00011155  0.22488008  0.37786600  1
  O2-  O177  1  -0.00661742  0.24341992  0.87255480  1
  O2-  O178  1  0.01642932  0.72886973  0.38016327  1
  O2-  O179  1  0.01372700  0.71951746  0.88428432  1
  O2-  O180  1  0.50170222  0.27030106  0.38920970  1
  O2-  O181  1  0.47054474  0.25636699  0.86862586  1
  O2-  O182  1  0.50995495  0.78257361  0.38532474  1
  O2-  O183  1  0.49819845  0.77050484  0.87326266  1
  O2-  O184  1  0.27533627  -0.00610084  0.11169793  1
  O2-  O185  1  0.26122285  -0.01914909  0.63409451  1
  O2-  O186  1  0.26001281  0.47377103  0.11014820  1
  O2-  O187  1  0.25764602  0.50574995  0.62111171  1
  O2-  O188  1  0.74709631  -0.02924043  0.11300152  1
  O2-  O189  1  0.75979136  -0.03198617  0.61735960  1
  O2-  O190  1  0.75993559  0.49264276  0.12444806  1
  O2-  O191  1  0.77044241  0.48135868  0.62006309  1
  O2-  O192  1  0.13707985  0.27852997  0.24036983  1
  O2-  O193  1  0.12325373  0.26481122  0.76858003  1
  O2-  O194  1  0.13355220  0.77432198  0.23346553  1
  O2-  O195  1  0.13511470  0.78501421  0.75158618  1
  O2-  O196  1  0.63185648  0.28032752  0.25560222  1
  O2-  O197  1  0.61130840  0.26684979  0.75798014  1
  O2-  O198  1  0.63687139  0.75954780  0.20663437  1
  O2-  O199  1  0.61578608  0.77146236  0.75137696  1
  O2-  O200  1  0.36760683  0.22132447  0.24477223  1
  O2-  O201  1  0.36641258  0.21714857  0.74457909  1
  O2-  O202  1  0.36807848  0.71960835  0.25463364  1
  O2-  O203  1  0.37743596  0.73327548  0.75794450  1
  O2-  O204  1  0.86601768  0.23299512  0.24457604  1
  O2-  O205  1  0.87735419  0.22629065  0.74476372  1
  O2-  O206  1  0.85977172  0.71999174  0.25380518  1
  O2-  O207  1  0.86567313  0.71354258  0.75289327  1
  O2-  O208  1  0.28137359  0.36349742  0.26520211  1
  O2-  O209  1  0.27825477  0.36216818  0.76264652  1
  O2-  O210  1  0.28042153  0.86602336  0.25065405  1
  O2-  O211  1  0.27809664  0.87388439  0.76254956  1
  O2-  O212  1  0.76999679  0.38249496  0.26197074  1
  O2-  O213  1  0.75720023  0.36220293  0.78865832  1
  O2-  O214  1  0.77000590  0.86326938  0.26442311  1
  O2-  O215  1  0.75729193  0.86173461  0.77510003  1
  O2-  O216  1  0.22401912  0.13320930  0.22692090  1
  O2-  O217  1  0.23122625  0.11438154  0.74944838  1
  O2-  O218  1  0.22221374  0.63308508  0.23728239  1
  O2-  O219  1  0.22843077  0.63731352  0.76332635  1
  O2-  O220  1  0.72696019  0.13475657  0.21990278  1
  O2-  O221  1  0.72137504  0.13876839  0.72724597  1
  O2-  O222  1  0.72995925  0.62059542  0.23438014  1
  O2-  O223  1  0.71090445  0.63581190  0.74415513  1
  O2-  O224  1  0.11405375  0.46914392  0.24165914  1
  O2-  O225  1  0.11310136  0.45928347  0.74796201  1
  O2-  O226  1  0.11643032  0.97494117  0.25379507  1
  O2-  O227  1  0.13185593  0.97516333  0.74364729  1
  O2-  O228  1  0.63197677  0.48121407  0.24638493  1
  O2-  O229  1  0.61372742  0.47400204  0.73702896  1
  O2-  O230  1  0.61182510  0.96415061  0.24105673  1
  O2-  O231  1  0.61212105  0.98043280  0.74150483  1
  O2-  O232  1  0.38701263  0.03217651  0.25779439  1
  O2-  O233  1  0.37496805  0.01482828  0.75694482  1
  O2-  O234  1  0.38374014  0.52633918  0.25712339  1
  O2-  O235  1  0.38306043  0.51347567  0.77190224  1
  O2-  O236  1  0.87687568  0.02246825  0.25045697  1
  O2-  O237  1  0.88398540  0.02668575  0.77092126  1
  O2-  O238  1  0.87033200  0.52494838  0.24797143  1
  O2-  O239  1  0.88792661  0.51420328  0.77410030  1
  O2-  O240  1  0.48532696  0.38479598  0.22431760  1
  O2-  O241  1  0.47252981  0.36669829  0.73618976  1
  O2-  O242  1  0.46815431  0.88508144  0.23733238  1
  O2-  O243  1  0.47696197  0.87447013  0.73529196  1
  O2-  O244  1  0.96348751  0.39003732  0.26018475  1
  O2-  O245  1  0.97468741  0.36762726  0.75643020  1
  O2-  O246  1  0.97643699  0.88120300  0.26741467  1
  O2-  O247  1  0.97607441  0.88582064  0.76503327  1
  O2-  O248  1  0.01807970  0.11884190  0.22011788  1
  O2-  O249  1  0.01864462  0.13053336  0.74461319  1
  O2-  O250  1  0.00666692  0.61178677  0.20595830  1
  O2-  O251  1  0.03455052  0.61292441  0.73685143  1
  O2-  O252  1  0.53660583  0.11222016  0.26515234  1
  O2-  O253  1  0.51238882  0.11891810  0.77000525  1
  O2-  O254  1  0.52970561  0.61775962  0.26814075  1
  O2-  O255  1  0.51756907  0.62823336  0.77150756  1
  O2-  O256  1  0.12329797  0.48627411  0.01190417  1
  O2-  O257  1  0.13461202  0.47226364  0.50398063  1
  O2-  O258  1  0.13970260  0.96743266  0.00658466  1
  O2-  O259  1  0.13779129  0.96690431  0.50056231  1
  O2-  O260  1  0.63589502  0.46920284  0.00934604  1
  O2-  O261  1  0.63636145  0.46689181  0.50286960  1
  O2-  O262  1  0.61515553  0.97926579  0.00070119  1
  O2-  O263  1  0.61802186  0.97783046  0.51171601  1
  O2-  O264  1  0.37720852  0.01070873  -0.02076881  1
  O2-  O265  1  0.38201295  0.02295391  0.49607680  1
  O2-  O266  1  0.36529357  0.52693786  -0.01648004  1
  O2-  O267  1  0.37131176  0.52665941  0.49314075  1
  O2-  O268  1  0.86375990  0.02298494  -0.01039194  1
  O2-  O269  1  0.86770168  0.02633660  0.49536768  1
  O2-  O270  1  0.88156524  0.52215711  -0.00391895  1
  O2-  O271  1  0.86838151  0.52964923  0.49012135  1
  O2-  O272  1  0.46475732  0.36079373  0.01120622  1
  O2-  O273  1  0.47552158  0.36470901  0.52888408  1
  O2-  O274  1  0.48220328  0.87555275  0.00857370  1
  O2-  O275  1  0.47849914  0.88011586  0.52034511  1
  O2-  O276  1  0.99349586  0.37420713  -0.02242793  1
  O2-  O277  1  0.97074358  0.36240905  0.48937293  1
  O2-  O278  1  0.98684626  0.86673809  -0.03647601  1
  O2-  O279  1  0.97435003  0.86841188  0.48094414  1
  O2-  O280  1  0.02843725  0.13957570  0.00162142  1
  O2-  O281  1  0.03961986  0.13482486  0.51590846  1
  O2-  O282  1  0.01878075  0.62184177  0.01577333  1
  O2-  O283  1  0.02482035  0.63205370  0.52335724  1
  O2-  O284  1  0.51312174  0.11658030  -0.02640696  1
  O2-  O285  1  0.52117222  0.11682823  0.48737434  1
  O2-  O286  1  0.52412451  0.63728086  -0.01991189  1
  O2-  O287  1  0.52732925  0.63829947  0.48813786  1
  O2-  O288  1  0.13470934  0.26784212  -0.00802939  1
  O2-  O289  1  0.11861437  0.28599573  0.49432161  1
  O2-  O290  1  0.13294191  0.76968084  0.00417704  1
  O2-  O291  1  0.11711583  0.77931614  0.50847198  1
  O2-  O292  1  0.60671697  0.26607346  -0.02727056  1
  O2-  O293  1  0.61273367  0.25590270  0.52290959  1
  O2-  O294  1  0.62751871  0.76968831  0.00105378  1
  O2-  O295  1  0.61510235  0.77674619  0.52469516  1
  O2-  O296  1  0.36968121  0.21445824  -0.00215281  1
  O2-  O297  1  0.38480981  0.21467333  0.50428541  1
  O2-  O298  1  0.37774701  0.72973487  -0.01044818  1
  O2-  O299  1  0.38647898  0.73169172  0.50001633  1
  O2-  O300  1  0.88390031  0.22757931  0.00757546  1
  O2-  O301  1  0.88868813  0.21895849  0.50967494  1
  O2-  O302  1  0.87799930  0.73198116  -0.00905914  1
  O2-  O303  1  0.88126383  0.72278103  0.49456339  1
  O2-  O304  1  0.27570182  0.36783292  -0.01826716  1
  O2-  O305  1  0.28244802  0.38230270  0.49632636  1
  O2-  O306  1  0.27804255  0.87106412  -0.00491755  1
  O2-  O307  1  0.28999694  0.88889521  0.49371843  1
  O2-  O308  1  0.78250252  0.38768763  -0.01309322  1
  O2-  O309  1  0.77506849  0.38113413  0.48120602  1
  O2-  O310  1  0.76303799  0.86972750  -0.01798684  1
  O2-  O311  1  0.76339022  0.88379503  0.47544841  1
  O2-  O312  1  0.22839390  0.11781341  0.00139580  1
  O2-  O313  1  0.24032883  0.10989781  0.53708235  1
  O2-  O314  1  0.22933867  0.62613696  0.00474370  1
  O2-  O315  1  0.22785717  0.62090399  0.50042530  1
  O2-  O316  1  0.71824503  0.11585445  0.02086958  1
  O2-  O317  1  0.72239437  0.11469561  0.52641542  1
  O2-  O318  1  0.73407422  0.62901246  0.01940940  1
  O2-  O319  1  0.71878818  0.61242126  0.51110302  1
