# generated using pymatgen
data_Sr64Ca21Nb43O192
_symmetry_space_group_name_H-M   'P 1'
_cell_length_a   16.56341685
_cell_length_b   16.56096490
_cell_length_c   16.75322779
_cell_angle_alpha   89.98093583
_cell_angle_beta   90.05568809
_cell_angle_gamma   89.97477815
_symmetry_Int_Tables_number   1
_chemical_formula_structural   Sr64Ca21Nb43O192
_chemical_formula_sum   'Sr64 Ca21 Nb43 O192'
_cell_volume   4595.51079751
_cell_formula_units_Z   1
loop_
 _symmetry_equiv_pos_site_id
 _symmetry_equiv_pos_as_xyz
  1  'x, y, z'
loop_
 _atom_type_symbol
 _atom_type_oxidation_number
  Sr2+  2.0
  Ca2+  2.0
  Nb5+  5.0
  O2-  -2.0
loop_
 _atom_site_type_symbol
 _atom_site_label
 _atom_site_symmetry_multiplicity
 _atom_site_fract_x
 _atom_site_fract_y
 _atom_site_fract_z
 _atom_site_occupancy
  Sr2+  Sr0  1  0.11907410  0.12370863  0.12271759  1
  Sr2+  Sr1  1  0.11898791  0.11779369  0.62487147  1
  Sr2+  Sr2  1  0.12377132  0.62129660  0.14033086  1
  Sr2+  Sr3  1  0.12322038  0.62609280  0.62200301  1
  Sr2+  Sr4  1  0.61184119  0.11691475  0.12731597  1
  Sr2+  Sr5  1  0.62991055  0.11983849  0.62204280  1
  Sr2+  Sr6  1  0.62703079  0.62255813  0.12446746  1
  Sr2+  Sr7  1  0.61981315  0.62021484  0.62007844  1
  Sr2+  Sr8  1  0.36622435  0.37535682  0.13275007  1
  Sr2+  Sr9  1  0.36758509  0.39248688  0.62101252  1
  Sr2+  Sr10  1  0.37304333  0.87342142  0.12442931  1
  Sr2+  Sr11  1  0.36938419  0.87347942  0.62566312  1
  Sr2+  Sr12  1  0.86922795  0.37162543  0.12877318  1
  Sr2+  Sr13  1  0.86104405  0.35851132  0.62430126  1
  Sr2+  Sr14  1  0.86991936  0.86465249  0.13229710  1
  Sr2+  Sr15  1  0.88171270  0.87219130  0.62198532  1
  Sr2+  Sr16  1  0.11504468  0.38192035  0.37076175  1
  Sr2+  Sr17  1  0.12453554  0.38082097  0.87602840  1
  Sr2+  Sr18  1  0.12078551  0.88401565  0.36563385  1
  Sr2+  Sr19  1  0.13499873  0.88251082  0.87422530  1
  Sr2+  Sr20  1  0.64709849  0.37841785  0.37514235  1
  Sr2+  Sr21  1  0.64161345  0.38131746  0.87146348  1
  Sr2+  Sr22  1  0.64578563  0.87762124  0.37533415  1
  Sr2+  Sr23  1  0.63408896  0.88196872  0.87599755  1
  Sr2+  Sr24  1  0.39383215  0.13268918  0.37403087  1
  Sr2+  Sr25  1  0.37853117  0.13366444  0.87632167  1
  Sr2+  Sr26  1  0.38048430  0.62576090  0.39617910  1
  Sr2+  Sr27  1  0.38082090  0.62476568  0.87367656  1
  Sr2+  Sr28  1  0.87156759  0.12992187  0.38960712  1
  Sr2+  Sr29  1  0.88122863  0.13183218  0.86752783  1
  Sr2+  Sr30  1  0.87762246  0.61822530  0.36943849  1
  Sr2+  Sr31  1  0.88965410  0.63260595  0.87760303  1
  Sr2+  Sr32  1  0.11852169  0.13284892  0.38189889  1
  Sr2+  Sr33  1  0.12916033  0.14206910  0.87717992  1
  Sr2+  Sr34  1  0.12637537  0.61341559  0.37143568  1
  Sr2+  Sr35  1  0.12640944  0.62582662  0.87573379  1
  Sr2+  Sr36  1  0.63037924  0.13619874  0.36415882  1
  Sr2+  Sr37  1  0.63366288  0.14020226  0.87473056  1
  Sr2+  Sr38  1  0.63763984  0.63250257  0.38771076  1
  Sr2+  Sr39  1  0.63522664  0.63399972  0.87211177  1
  Sr2+  Sr40  1  0.37641212  0.36770566  0.38663703  1
  Sr2+  Sr41  1  0.37473044  0.38415900  0.87146014  1
  Sr2+  Sr42  1  0.37054956  0.88822604  0.36752334  1
  Sr2+  Sr43  1  0.37858607  0.88267553  0.87518551  1
  Sr2+  Sr44  1  0.88402838  0.38120049  0.37330303  1
  Sr2+  Sr45  1  0.87802520  0.35674077  0.87126084  1
  Sr2+  Sr46  1  0.88083045  0.89445645  0.37222392  1
  Sr2+  Sr47  1  0.88316357  0.87920571  0.87840698  1
  Sr2+  Sr48  1  0.11501207  0.37270164  0.13012772  1
  Sr2+  Sr49  1  0.12517805  0.37978066  0.61597894  1
  Sr2+  Sr50  1  0.13552646  0.86505035  0.13407302  1
  Sr2+  Sr51  1  0.12040105  0.87331130  0.61729668  1
  Sr2+  Sr52  1  0.61452196  0.37915176  0.12716162  1
  Sr2+  Sr53  1  0.62728708  0.37646447  0.61701301  1
  Sr2+  Sr54  1  0.62807482  0.87587187  0.12898709  1
  Sr2+  Sr55  1  0.61188434  0.86470622  0.62493091  1
  Sr2+  Sr56  1  0.37542229  0.12506631  0.13163812  1
  Sr2+  Sr57  1  0.36365954  0.12598303  0.61793077  1
  Sr2+  Sr58  1  0.37763129  0.61993782  0.12027924  1
  Sr2+  Sr59  1  0.38148507  0.62652311  0.62877210  1
  Sr2+  Sr60  1  0.85621022  0.11370712  0.12842383  1
  Sr2+  Sr61  1  0.86611706  0.11350275  0.62610973  1
  Sr2+  Sr62  1  0.86858280  0.61719998  0.12783366  1
  Sr2+  Sr63  1  0.86965208  0.61794717  0.62232483  1
  Ca2+  Ca64  1  0.00222402  -0.00210596  -0.00005314  1
  Ca2+  Ca65  1  -0.00005318  0.50385971  0.50231733  1
  Ca2+  Ca66  1  -0.00084867  0.49893942  -0.00156791  1
  Ca2+  Ca67  1  0.50073905  0.49826766  0.50100327  1
  Ca2+  Ca68  1  0.50043881  0.00081430  0.50105944  1
  Ca2+  Ca69  1  0.75618832  0.75273397  0.50583427  1
  Ca2+  Ca70  1  0.74728686  0.25038866  0.00472335  1
  Ca2+  Ca71  1  0.24667453  0.75229363  0.50089624  1
  Ca2+  Ca72  1  0.24765239  0.24871406  0.49767646  1
  Ca2+  Ca73  1  0.75128796  0.24988264  0.49812868  1
  Ca2+  Ca74  1  0.00406874  0.24897484  0.74511975  1
  Ca2+  Ca75  1  0.74698270  -0.00506750  0.75102942  1
  Ca2+  Ca76  1  0.50055279  0.74953448  0.24823580  1
  Ca2+  Ca77  1  0.25559155  0.49716149  0.25033620  1
  Ca2+  Ca78  1  -0.00194515  0.24669649  0.25017311  1
  Ca2+  Ca79  1  0.74597041  0.50007174  0.24936343  1
  Ca2+  Ca80  1  0.75031080  0.00398088  0.25141541  1
  Ca2+  Ca81  1  -0.00057844  0.75215688  0.25126330  1
  Ca2+  Ca82  1  0.75301267  0.50184453  0.75015924  1
  Ca2+  Ca83  1  0.49758285  0.25043589  0.75117684  1
  Ca2+  Ca84  1  0.24848227  0.00628834  0.24559163  1
  Nb5+  Nb85  1  0.00169020  0.00198906  0.50038050  1
  Nb5+  Nb86  1  0.50215682  0.50496527  -0.00287675  1
  Nb5+  Nb87  1  0.49903699  0.00355561  -0.00405468  1
  Nb5+  Nb88  1  0.25289514  0.25995280  0.00004751  1
  Nb5+  Nb89  1  0.75628017  0.74776618  -0.00133076  1
  Nb5+  Nb90  1  0.25480051  0.74918415  -0.00166579  1
  Nb5+  Nb91  1  0.24485157  0.50497172  0.74923138  1
  Nb5+  Nb92  1  0.00949613  0.75116585  0.75125584  1
  Nb5+  Nb93  1  0.49981257  0.25411474  0.24889006  1
  Nb5+  Nb94  1  0.50249412  0.74895848  0.75457701  1
  Nb5+  Nb95  1  0.24894114  0.00540855  0.75169512  1
  Nb5+  Nb96  1  -0.00144591  0.00581018  0.24242999  1
  Nb5+  Nb97  1  0.00129289  -0.00123113  0.75320546  1
  Nb5+  Nb98  1  -0.00084194  0.50164556  0.24685952  1
  Nb5+  Nb99  1  -0.00538302  0.49833299  0.74968222  1
  Nb5+  Nb100  1  0.50181192  -0.00539790  0.25482236  1
  Nb5+  Nb101  1  0.49705554  0.00164421  0.75267775  1
  Nb5+  Nb102  1  0.49949127  0.50274071  0.25800787  1
  Nb5+  Nb103  1  0.50057996  0.49702328  0.75048332  1
  Nb5+  Nb104  1  0.24917309  0.24759536  0.25432747  1
  Nb5+  Nb105  1  0.25192925  0.25841583  0.74870144  1
  Nb5+  Nb106  1  0.25723892  0.74879875  0.25759221  1
  Nb5+  Nb107  1  0.25133129  0.75200131  0.75349023  1
  Nb5+  Nb108  1  0.75427108  0.25167852  0.24357455  1
  Nb5+  Nb109  1  0.74760383  0.24770369  0.74996992  1
  Nb5+  Nb110  1  0.75214902  0.74875374  0.25488884  1
  Nb5+  Nb111  1  0.76090683  0.75136139  0.74971851  1
  Nb5+  Nb112  1  -0.00062581  0.25551864  0.50390842  1
  Nb5+  Nb113  1  -0.00677590  0.24401790  1.00495110  1
  Nb5+  Nb114  1  -0.00017570  0.75159023  0.49359467  1
  Nb5+  Nb115  1  0.01090758  0.75240049  1.00064518  1
  Nb5+  Nb116  1  0.50378181  0.24687507  0.50726271  1
  Nb5+  Nb117  1  0.49464864  0.26011217  0.99984022  1
  Nb5+  Nb118  1  0.49654780  0.75716605  0.49215597  1
  Nb5+  Nb119  1  0.50383764  0.75247884  0.99574474  1
  Nb5+  Nb120  1  0.25088906  0.00702009  0.00079474  1
  Nb5+  Nb121  1  0.24885050  0.00293972  0.49343751  1
  Nb5+  Nb122  1  0.24814910  0.50107259  0.00030213  1
  Nb5+  Nb123  1  0.25069062  0.50270881  0.49559673  1
  Nb5+  Nb124  1  0.75034086  0.00251485  -0.00312234  1
  Nb5+  Nb125  1  0.74518336  -0.00293853  0.50619551  1
  Nb5+  Nb126  1  0.75411773  0.49993734  -0.00578753  1
  Nb5+  Nb127  1  0.75406368  0.50172989  0.50090246  1
  O2-  O128  1  -0.02573446  0.01664300  0.13168725  1
  O2-  O129  1  -0.00726031  0.00473187  0.62942022  1
  O2-  O130  1  0.00125522  0.52236115  0.12932329  1
  O2-  O131  1  0.01198871  0.52369128  0.63712073  1
  O2-  O132  1  0.47775412  0.01172985  0.11070930  1
  O2-  O133  1  0.47079801  0.01737095  0.64155945  1
  O2-  O134  1  0.50784939  0.52156729  0.11215324  1
  O2-  O135  1  0.49612848  0.52491964  0.63831576  1
  O2-  O136  1  0.01879091  -0.00567994  0.38468803  1
  O2-  O137  1  0.01956187  -0.02363299  0.86563399  1
  O2-  O138  1  0.00132998  0.48965558  0.36761929  1
  O2-  O139  1  0.01985160  0.49635948  0.86367640  1
  O2-  O140  1  0.52138852  -0.02817003  0.36487249  1
  O2-  O141  1  0.50553413  -0.03051201  0.87774667  1
  O2-  O142  1  0.47554400  0.48160319  0.36673508  1
  O2-  O143  1  0.49305146  0.48284198  0.87470615  1
  O2-  O144  1  0.24161859  0.27712410  0.11640442  1
  O2-  O145  1  0.23245745  0.26257428  0.63666685  1
  O2-  O146  1  0.23052140  0.74583224  0.11040012  1
  O2-  O147  1  0.22960711  0.75396095  0.64136852  1
  O2-  O148  1  0.73384745  0.29276341  0.13266920  1
  O2-  O149  1  0.72903163  0.27003348  0.63416930  1
  O2-  O150  1  0.73346695  0.76785116  0.11198488  1
  O2-  O151  1  0.74004879  0.78379716  0.64174474  1
  O2-  O152  1  0.26272033  0.21249687  0.36234671  1
  O2-  O153  1  0.27337244  0.24458786  0.88033516  1
  O2-  O154  1  0.28422735  0.74974146  0.36798286  1
  O2-  O155  1  0.25650318  0.72945127  0.87626054  1
  O2-  O156  1  0.75470674  0.22275094  0.36118668  1
  O2-  O157  1  0.76954050  0.22859721  0.87099677  1
  O2-  O158  1  0.76321375  0.72586374  0.36699251  1
  O2-  O159  1  0.76300343  0.72321511  0.87711122  1
  O2-  O160  1  0.03397650  0.24606166  0.11489902  1
  O2-  O161  1  0.04271357  0.24881471  0.61538436  1
  O2-  O162  1  0.02756753  0.74211174  0.11315342  1
  O2-  O163  1  0.02812129  0.74691680  0.63481398  1
  O2-  O164  1  0.51025503  0.23315976  0.11880547  1
  O2-  O165  1  0.51895827  0.22372687  0.61788222  1
  O2-  O166  1  0.51264904  0.72596367  0.10697813  1
  O2-  O167  1  0.51238037  0.72977979  0.64064455  1
  O2-  O168  1  0.21911749  0.00527000  0.38318677  1
  O2-  O169  1  0.23186936  0.00210938  0.87661201  1
  O2-  O170  1  0.26744640  0.51211191  0.38290761  1
  O2-  O171  1  0.24452369  0.49968455  0.87214891  1
  O2-  O172  1  0.72696300  0.01752426  0.38711891  1
  O2-  O173  1  0.71480325  0.01048801  0.88548218  1
  O2-  O174  1  0.74108356  0.52449732  0.38307739  1
  O2-  O175  1  0.72865246  0.52014123  0.88224129  1
  O2-  O176  1  -0.03217469  0.24947732  0.38604790  1
  O2-  O177  1  -0.01547121  0.24952878  0.88392301  1
  O2-  O178  1  -0.03470160  0.76040853  0.38593190  1
  O2-  O179  1  -0.01652621  0.76371871  0.87018276  1
  O2-  O180  1  0.48555356  0.26372173  0.36345701  1
  O2-  O181  1  0.46728255  0.26165464  0.88777050  1
  O2-  O182  1  0.47386602  0.77606955  0.38257023  1
  O2-  O183  1  0.47175296  0.75477084  0.87665253  1
  O2-  O184  1  0.28149410  -0.00621460  0.10996497  1
  O2-  O185  1  0.27371434  -0.00591671  0.63931679  1
  O2-  O186  1  0.25719491  0.49330826  0.11305956  1
  O2-  O187  1  0.24628361  0.49572144  0.63175874  1
  O2-  O188  1  0.76289802  -0.02826447  0.11075847  1
  O2-  O189  1  0.78005984  -0.01835301  0.61953279  1
  O2-  O190  1  0.74069560  0.49150936  0.11055575  1
  O2-  O191  1  0.76252875  0.47755296  0.61880517  1
  O2-  O192  1  0.13704844  0.27432172  0.26248619  1
  O2-  O193  1  0.13932784  0.26213677  0.78243096  1
  O2-  O194  1  0.13829727  0.77537643  0.26114580  1
  O2-  O195  1  0.12570972  0.76620282  0.77507776  1
  O2-  O196  1  0.61884479  0.26421704  0.25748719  1
  O2-  O197  1  0.63017888  0.26505700  0.77857487  1
  O2-  O198  1  0.63521364  0.77871596  0.25689287  1
  O2-  O199  1  0.61490938  0.76605272  0.77327328  1
  O2-  O200  1  0.38088805  0.23139603  0.23448859  1
  O2-  O201  1  0.36206241  0.21678535  0.73963689  1
  O2-  O202  1  0.36673853  0.73235530  0.21473773  1
  O2-  O203  1  0.36652019  0.72805023  0.74433351  1
  O2-  O204  1  0.86589687  0.23498901  0.21784527  1
  O2-  O205  1  0.86767907  0.22585413  0.73220513  1
  O2-  O206  1  0.86540567  0.73533934  0.21740865  1
  O2-  O207  1  0.87705247  0.73446003  0.73842000  1
  O2-  O208  1  0.28374244  0.36111197  0.26434200  1
  O2-  O209  1  0.27315117  0.37429918  0.75622480  1
  O2-  O210  1  0.27340142  0.86887986  0.24192347  1
  O2-  O211  1  0.26526977  0.86724324  0.76720181  1
  O2-  O212  1  0.76810327  0.36652528  0.27904092  1
  O2-  O213  1  0.77002613  0.36617787  0.77004497  1
  O2-  O214  1  0.77373084  0.86889024  0.26540973  1
  O2-  O215  1  0.76093741  0.86225340  0.78794398  1
  O2-  O216  1  0.24078026  0.13862953  0.20843781  1
  O2-  O217  1  0.22863603  0.11907923  0.74848961  1
  O2-  O218  1  0.22794196  0.63368566  0.24847284  1
  O2-  O219  1  0.22345618  0.62151793  0.74980680  1
  O2-  O220  1  0.72885522  0.13676815  0.21582606  1
  O2-  O221  1  0.72449495  0.12876174  0.73550706  1
  O2-  O222  1  0.72823552  0.63559663  0.22768117  1
  O2-  O223  1  0.72252631  0.64034291  0.73346910  1
  O2-  O224  1  0.12047719  0.47714914  0.24573434  1
  O2-  O225  1  0.13038401  0.47081267  0.74634475  1
  O2-  O226  1  0.11576343  0.97470627  0.22916177  1
  O2-  O227  1  0.13412638  0.97228225  0.73687970  1
  O2-  O228  1  0.61109089  0.46765590  0.24711845  1
  O2-  O229  1  0.61337089  0.47788740  0.74815087  1
  O2-  O230  1  0.61518358  0.99408012  0.22114124  1
  O2-  O231  1  0.60715318  0.97104500  0.73500766  1
  O2-  O232  1  0.38521553  0.01780500  0.27030213  1
  O2-  O233  1  0.36854071  0.00514318  0.77801944  1
  O2-  O234  1  0.38936256  0.51021590  0.22092667  1
  O2-  O235  1  0.36562750  0.51992165  0.75396193  1
  O2-  O236  1  0.88547023  0.03290771  0.27583891  1
  O2-  O237  1  0.88700184  0.01287651  0.76849758  1
  O2-  O238  1  0.88046326  0.52536738  0.24957088  1
  O2-  O239  1  0.88625710  0.53672061  0.75782512  1
  O2-  O240  1  0.48471256  0.36850437  0.22350308  1
  O2-  O241  1  0.46810520  0.38624689  0.73643786  1
  O2-  O242  1  0.48358663  0.88464127  0.22184951  1
  O2-  O243  1  0.47217031  0.86417475  0.74250355  1
  O2-  O244  1  0.97767674  0.38299945  0.23489217  1
  O2-  O245  1  0.97016365  0.38595714  0.73922245  1
  O2-  O246  1  0.97528746  0.88802409  0.25134873  1
  O2-  O247  1  0.98749601  0.87164251  0.73710276  1
  O2-  O248  1  0.03842231  0.11678801  0.25939508  1
  O2-  O249  1  0.02957514  0.11131322  0.75839900  1
  O2-  O250  1  0.02546130  0.62038860  0.26424864  1
  O2-  O251  1  0.02232177  0.63416043  0.76389060  1
  O2-  O252  1  0.51394241  0.12499307  0.25603104  1
  O2-  O253  1  0.51190181  0.11093626  0.78206174  1
  O2-  O254  1  0.52533234  0.61456848  0.27072249  1
  O2-  O255  1  0.50506496  0.62526569  0.77558975  1
  O2-  O256  1  0.13685606  0.47092593  0.00100398  1
  O2-  O257  1  0.13502764  0.47202958  0.49557016  1
  O2-  O258  1  0.14102579  0.97308828  0.01860548  1
  O2-  O259  1  0.12375149  0.98898942  0.52277363  1
  O2-  O260  1  0.61567733  0.47615471  -0.00540198  1
  O2-  O261  1  0.63324167  0.47901024  0.50664781  1
  O2-  O262  1  0.61301395  0.97733238  0.01344304  1
  O2-  O263  1  0.63360236  0.98344553  0.53431349  1
  O2-  O264  1  0.37389489  0.00578956  -0.02749396  1
  O2-  O265  1  0.36462542  0.01665984  0.47374056  1
  O2-  O266  1  0.37632722  0.51495844  -0.00797258  1
  O2-  O267  1  0.36650166  0.52788648  0.51765184  1
  O2-  O268  1  0.86238740  0.01620911  -0.02720386  1
  O2-  O269  1  0.88353581  0.01604588  0.48925489  1
  O2-  O270  1  0.86395750  0.53243218  -0.00604340  1
  O2-  O271  1  0.86957612  0.53624299  0.49506709  1
  O2-  O272  1  0.47813414  0.37472692  0.01837766  1
  O2-  O273  1  0.47476680  0.36349849  0.51979087  1
  O2-  O274  1  0.47965977  0.86569156  0.00973093  1
  O2-  O275  1  0.48512695  0.86741191  0.53525720  1
  O2-  O276  1  0.97597703  0.36372619  0.00765520  1
  O2-  O277  1  0.97947437  0.36917136  0.51354399  1
  O2-  O278  1  0.97016819  0.86254270  0.00740261  1
  O2-  O279  1  0.98529630  0.88179588  0.51298492  1
  O2-  O280  1  0.03279791  0.13085000  -0.00898581  1
  O2-  O281  1  0.01868129  0.12107482  0.50063813  1
  O2-  O282  1  0.01043678  0.63773107  -0.02448014  1
  O2-  O283  1  0.02902845  0.63979752  0.49085172  1
  O2-  O284  1  0.51080562  0.11795746  -0.02058159  1
  O2-  O285  1  0.52528600  0.13276705  0.47090292  1
  O2-  O286  1  0.51157394  0.62088506  -0.02543551  1
  O2-  O287  1  0.51729194  0.63748404  0.48309809  1
  O2-  O288  1  0.13814909  0.26772876  -0.01988662  1
  O2-  O289  1  0.11478752  0.26318332  0.46390382  1
  O2-  O290  1  0.12583202  0.76763730  -0.02266124  1
  O2-  O291  1  0.11337253  0.78643573  0.48442479  1
  O2-  O292  1  0.60919990  0.26407686  -0.01957042  1
  O2-  O293  1  0.61608314  0.27776608  0.48222987  1
  O2-  O294  1  0.61737555  0.76209456  -0.02586790  1
  O2-  O295  1  0.61629014  0.77287473  0.49010586  1
  O2-  O296  1  0.37293011  0.22624609  0.01862607  1
  O2-  O297  1  0.38537332  0.22278113  0.49984320  1
  O2-  O298  1  0.37046264  0.72676309  0.00694869  1
  O2-  O299  1  0.38305920  0.73175070  0.52402630  1
  O2-  O300  1  0.88301286  0.21876132  0.02437459  1
  O2-  O301  1  0.88673815  0.22863443  0.53374299  1
  O2-  O302  1  0.86995782  0.73010525  0.01238582  1
  O2-  O303  1  0.89087776  0.74155527  0.54011724  1
  O2-  O304  1  0.27808926  0.37503034  -0.01277690  1
  O2-  O305  1  0.27643249  0.38339656  0.50068440  1
  O2-  O306  1  0.26974515  0.86503053  -0.01121897  1
  O2-  O307  1  0.26423731  0.88805485  0.51118811  1
  O2-  O308  1  0.77058020  0.38626033  -0.02425243  1
  O2-  O309  1  0.77788836  0.38460969  0.47891249  1
  O2-  O310  1  0.75777787  0.86654364  -0.02400472  1
  O2-  O311  1  0.77088995  0.88487648  0.47507604  1
  O2-  O312  1  0.23588622  0.12334564  0.00387605  1
  O2-  O313  1  0.23480699  0.11422440  0.52992080  1
  O2-  O314  1  0.23182065  0.61888268  -0.00149521  1
  O2-  O315  1  0.21952105  0.61847709  0.50508842  1
  O2-  O316  1  0.72567132  0.11275589  0.02307242  1
  O2-  O317  1  0.74621369  0.11591254  0.52341413  1
  O2-  O318  1  0.72178565  0.63130340  0.01028906  1
  O2-  O319  1  0.72912177  0.62069904  0.52587809  1
