# generated using pymatgen
data_Sr64Ca21Nb43O192
_symmetry_space_group_name_H-M   'P 1'
_cell_length_a   16.54062151
_cell_length_b   16.53502933
_cell_length_c   16.70043084
_cell_angle_alpha   90.01656130
_cell_angle_beta   90.00858524
_cell_angle_gamma   89.98750757
_symmetry_Int_Tables_number   1
_chemical_formula_structural   Sr64Ca21Nb43O192
_chemical_formula_sum   'Sr64 Ca21 Nb43 O192'
_cell_volume   4567.56183819
_cell_formula_units_Z   1
loop_
 _symmetry_equiv_pos_site_id
 _symmetry_equiv_pos_as_xyz
  1  'x, y, z'
loop_
 _atom_type_symbol
 _atom_type_oxidation_number
  Sr2+  2.0
  Ca2+  2.0
  Nb5+  5.0
  O2-  -2.0
loop_
 _atom_site_type_symbol
 _atom_site_label
 _atom_site_symmetry_multiplicity
 _atom_site_fract_x
 _atom_site_fract_y
 _atom_site_fract_z
 _atom_site_occupancy
  Sr2+  Sr0  1  0.12568360  0.11678041  0.12202161  1
  Sr2+  Sr1  1  0.12176680  0.12518437  0.62643629  1
  Sr2+  Sr2  1  0.14274711  0.62005545  0.12734325  1
  Sr2+  Sr3  1  0.13891677  0.61240719  0.63108475  1
  Sr2+  Sr4  1  0.63325786  0.13157119  0.12152545  1
  Sr2+  Sr5  1  0.62602136  0.11935848  0.62656462  1
  Sr2+  Sr6  1  0.62888454  0.61665701  0.12718175  1
  Sr2+  Sr7  1  0.62407421  0.62955686  0.62009100  1
  Sr2+  Sr8  1  0.37958229  0.37845124  0.12641572  1
  Sr2+  Sr9  1  0.37911109  0.37612022  0.61827863  1
  Sr2+  Sr10  1  0.38075387  0.87191673  0.12681956  1
  Sr2+  Sr11  1  0.37875963  0.85231883  0.62607373  1
  Sr2+  Sr12  1  0.87971891  0.36048657  0.12628170  1
  Sr2+  Sr13  1  0.88047368  0.37547822  0.62662723  1
  Sr2+  Sr14  1  0.87882076  0.87462878  0.12278750  1
  Sr2+  Sr15  1  0.87572404  0.88183929  0.62599486  1
  Sr2+  Sr16  1  0.12757247  0.36893250  0.38493842  1
  Sr2+  Sr17  1  0.13172867  0.37926281  0.86519138  1
  Sr2+  Sr18  1  0.12378931  0.87727309  0.37726603  1
  Sr2+  Sr19  1  0.13283321  0.87508732  0.87268408  1
  Sr2+  Sr20  1  0.62997268  0.39063646  0.37572906  1
  Sr2+  Sr21  1  0.61586883  0.37767570  0.87776108  1
  Sr2+  Sr22  1  0.61531022  0.87207317  0.37368491  1
  Sr2+  Sr23  1  0.62372123  0.86618276  0.87334317  1
  Sr2+  Sr24  1  0.36115319  0.12735060  0.37982821  1
  Sr2+  Sr25  1  0.39319025  0.12346458  0.86122494  1
  Sr2+  Sr26  1  0.39608789  0.62560896  0.38294200  1
  Sr2+  Sr27  1  0.34259611  0.62630418  0.87496324  1
  Sr2+  Sr28  1  0.86951060  0.12079658  0.38220602  1
  Sr2+  Sr29  1  0.86828112  0.12451127  0.87011608  1
  Sr2+  Sr30  1  0.88132472  0.62344945  0.37091524  1
  Sr2+  Sr31  1  0.85914748  0.62931450  0.87550542  1
  Sr2+  Sr32  1  0.11769549  0.11825601  0.38158295  1
  Sr2+  Sr33  1  0.11500210  0.11680982  0.86943654  1
  Sr2+  Sr34  1  0.11742411  0.63113423  0.37056756  1
  Sr2+  Sr35  1  0.11662961  0.62526871  0.87485193  1
  Sr2+  Sr36  1  0.61831894  0.11528585  0.38642650  1
  Sr2+  Sr37  1  0.62542847  0.10406520  0.86894845  1
  Sr2+  Sr38  1  0.62800308  0.62744924  0.37075666  1
  Sr2+  Sr39  1  0.62066275  0.61916278  0.87716893  1
  Sr2+  Sr40  1  0.36449825  0.37350300  0.38332744  1
  Sr2+  Sr41  1  0.37924840  0.38683748  0.88230979  1
  Sr2+  Sr42  1  0.37381959  0.88349376  0.36751413  1
  Sr2+  Sr43  1  0.36597681  0.87565220  0.86042291  1
  Sr2+  Sr44  1  0.87182099  0.38585714  0.37583981  1
  Sr2+  Sr45  1  0.87863644  0.38358269  0.86721352  1
  Sr2+  Sr46  1  0.87015364  0.87376015  0.38160490  1
  Sr2+  Sr47  1  0.87075241  0.86368477  0.87426962  1
  Sr2+  Sr48  1  0.13406061  0.35880334  0.13032865  1
  Sr2+  Sr49  1  0.13638764  0.36610441  0.62457622  1
  Sr2+  Sr50  1  0.14831675  0.88574966  0.12347385  1
  Sr2+  Sr51  1  0.13980748  0.87997362  0.62640546  1
  Sr2+  Sr52  1  0.62945699  0.37085008  0.12438685  1
  Sr2+  Sr53  1  0.62459629  0.36745165  0.62631266  1
  Sr2+  Sr54  1  0.61468152  0.87370388  0.12167871  1
  Sr2+  Sr55  1  0.62933289  0.88211155  0.62935452  1
  Sr2+  Sr56  1  0.37419516  0.11217415  0.13100732  1
  Sr2+  Sr57  1  0.40637047  0.12512701  0.62294092  1
  Sr2+  Sr58  1  0.38080829  0.62392372  0.12320143  1
  Sr2+  Sr59  1  0.37418978  0.62579247  0.62638227  1
  Sr2+  Sr60  1  0.88143593  0.12257291  0.12176445  1
  Sr2+  Sr61  1  0.86349428  0.12442514  0.62590867  1
  Sr2+  Sr62  1  0.87869093  0.62242657  0.12549519  1
  Sr2+  Sr63  1  0.87876926  0.62031223  0.64003064  1
  Ca2+  Ca64  1  0.49779774  -0.00640039  0.50114675  1
  Ca2+  Ca65  1  0.49811393  -0.00071819  -0.00004520  1
  Ca2+  Ca66  1  -0.00017849  0.49699842  0.00219990  1
  Ca2+  Ca67  1  0.00084641  0.50220570  0.50171644  1
  Ca2+  Ca68  1  0.50437556  0.49825538  0.49756803  1
  Ca2+  Ca69  1  0.75138279  0.25356126  0.49597159  1
  Ca2+  Ca70  1  0.25316887  0.24610686  -0.00283000  1
  Ca2+  Ca71  1  0.24715249  0.74890806  0.49615090  1
  Ca2+  Ca72  1  0.24948821  0.75292465  0.00093588  1
  Ca2+  Ca73  1  0.75085143  0.74954563  0.49668096  1
  Ca2+  Ca74  1  0.50238515  0.24977390  0.25368046  1
  Ca2+  Ca75  1  0.74869933  0.00096366  0.24813441  1
  Ca2+  Ca76  1  -0.00045130  0.75146279  0.74841600  1
  Ca2+  Ca77  1  0.25189796  0.00509103  0.74514987  1
  Ca2+  Ca78  1  0.25453961  0.49584382  0.74806156  1
  Ca2+  Ca79  1  0.25184461  0.50018671  0.25311316  1
  Ca2+  Ca80  1  0.24869472  0.00166113  0.25255895  1
  Ca2+  Ca81  1  0.50161524  0.74294105  0.75354610  1
  Ca2+  Ca82  1  0.74535003  0.49753484  0.75517585  1
  Ca2+  Ca83  1  0.75321335  -0.00259489  0.75296477  1
  Ca2+  Ca84  1  0.50206877  0.25530779  0.75216620  1
  Nb5+  Nb85  1  -0.00313938  -0.00294533  -0.00034832  1
  Nb5+  Nb86  1  -0.00143610  -0.00069135  0.50394259  1
  Nb5+  Nb87  1  0.50104793  0.50220659  0.00134575  1
  Nb5+  Nb88  1  0.75125158  0.24685694  -0.00390465  1
  Nb5+  Nb89  1  0.74724152  0.74503057  0.00276033  1
  Nb5+  Nb90  1  0.25101349  0.24431054  0.50484926  1
  Nb5+  Nb91  1  -0.00003264  0.24917813  0.74903019  1
  Nb5+  Nb92  1  0.00118917  0.24271284  0.25168841  1
  Nb5+  Nb93  1  0.50582080  0.74983448  0.24832195  1
  Nb5+  Nb94  1  0.00680130  0.74963652  0.24380487  1
  Nb5+  Nb95  1  0.75236853  0.50166133  0.24787343  1
  Nb5+  Nb96  1  -0.00578428  -0.00654779  0.25173608  1
  Nb5+  Nb97  1  -0.00352858  -0.00239527  0.75165213  1
  Nb5+  Nb98  1  0.00109781  0.49192210  0.24466942  1
  Nb5+  Nb99  1  0.00381510  0.50227691  0.75057393  1
  Nb5+  Nb100  1  0.50438957  0.00511272  0.25023157  1
  Nb5+  Nb101  1  0.50063383  -0.00543794  0.75004681  1
  Nb5+  Nb102  1  0.49848629  0.49971881  0.25057978  1
  Nb5+  Nb103  1  0.49900726  0.50039705  0.74397752  1
  Nb5+  Nb104  1  0.25239207  0.24419486  0.24834169  1
  Nb5+  Nb105  1  0.25667398  0.24775630  0.75121619  1
  Nb5+  Nb106  1  0.25905918  0.74613745  0.25030372  1
  Nb5+  Nb107  1  0.24585548  0.74925917  0.74745565  1
  Nb5+  Nb108  1  0.74876113  0.25079630  0.25261387  1
  Nb5+  Nb109  1  0.74816574  0.25404574  0.74940504  1
  Nb5+  Nb110  1  0.75650743  0.75190894  0.24841638  1
  Nb5+  Nb111  1  0.75061550  0.74751257  0.74420051  1
  Nb5+  Nb112  1  -0.00265455  0.24870490  0.50142772  1
  Nb5+  Nb113  1  0.00142409  0.25103227  0.99635886  1
  Nb5+  Nb114  1  -0.00212548  0.75012382  0.50421445  1
  Nb5+  Nb115  1  0.00321213  0.74981303  1.00355099  1
  Nb5+  Nb116  1  0.50621691  0.25143588  0.49319745  1
  Nb5+  Nb117  1  0.50090059  0.24550321  1.00531651  1
  Nb5+  Nb118  1  0.50143320  0.74999941  0.50336508  1
  Nb5+  Nb119  1  0.49637717  0.74606500  0.99796725  1
  Nb5+  Nb120  1  0.25675453  0.00791885  -0.00458570  1
  Nb5+  Nb121  1  0.25313703  -0.00132800  0.50430394  1
  Nb5+  Nb122  1  0.24435775  0.49379262  0.00460345  1
  Nb5+  Nb123  1  0.24707861  0.50444394  0.49501582  1
  Nb5+  Nb124  1  0.75141631  -0.00737380  0.00278871  1
  Nb5+  Nb125  1  0.74708949  -0.00297617  0.49869349  1
  Nb5+  Nb126  1  0.75176189  0.49360549  0.00313462  1
  Nb5+  Nb127  1  0.75321117  0.50412611  0.50903383  1
  O2-  O128  1  -0.00346392  -0.00405716  0.12463214  1
  O2-  O129  1  0.00549460  -0.00657197  0.62498740  1
  O2-  O130  1  -0.03436495  0.49577951  0.13398194  1
  O2-  O131  1  -0.02832171  0.49538389  0.63536980  1
  O2-  O132  1  0.48081293  -0.00740206  0.13341858  1
  O2-  O133  1  0.52460575  -0.00215307  0.63253434  1
  O2-  O134  1  0.49010781  0.50569048  0.12719333  1
  O2-  O135  1  0.48182749  0.50467294  0.63054900  1
  O2-  O136  1  -0.00762318  0.00577894  0.37262917  1
  O2-  O137  1  -0.00880124  0.01009095  0.87737995  1
  O2-  O138  1  0.00664681  0.51871513  0.35986579  1
  O2-  O139  1  0.02820302  0.49265291  0.86924247  1
  O2-  O140  1  0.51128937  -0.00785212  0.36728455  1
  O2-  O141  1  0.48541570  -0.00059449  0.86920935  1
  O2-  O142  1  0.52840410  0.50698784  0.36240979  1
  O2-  O143  1  0.52160529  0.49785307  0.88622160  1
  O2-  O144  1  0.22456832  0.23284951  0.13502881  1
  O2-  O145  1  0.22615494  0.23223441  0.61920917  1
  O2-  O146  1  0.25792490  0.72635730  0.13268021  1
  O2-  O147  1  0.24529911  0.72398694  0.63009274  1
  O2-  O148  1  0.74217875  0.24659778  0.12513208  1
  O2-  O149  1  0.73361903  0.24281176  0.63427102  1
  O2-  O150  1  0.75348531  0.73901389  0.12457895  1
  O2-  O151  1  0.75580354  0.72723149  0.63138249  1
  O2-  O152  1  0.25721407  0.26089050  0.37811227  1
  O2-  O153  1  0.26837625  0.27454954  0.86267129  1
  O2-  O154  1  0.23174415  0.77084005  0.36212111  1
  O2-  O155  1  0.24835414  0.77093169  0.86824673  1
  O2-  O156  1  0.78339135  0.26278122  0.36135064  1
  O2-  O157  1  0.77204436  0.26717328  0.88291977  1
  O2-  O158  1  0.73119256  0.75991910  0.36017164  1
  O2-  O159  1  0.74663120  0.76620731  0.88657270  1
  O2-  O160  1  0.01139573  0.25405382  0.12487361  1
  O2-  O161  1  0.00894426  0.25549868  0.62343156  1
  O2-  O162  1  -0.02333315  0.76221974  0.12595992  1
  O2-  O163  1  -0.03286505  0.75674927  0.61355134  1
  O2-  O164  1  0.52910850  0.25717955  0.11972589  1
  O2-  O165  1  0.51365474  0.25734163  0.61435828  1
  O2-  O166  1  0.48985415  0.74882624  0.12728663  1
  O2-  O167  1  0.49792636  0.74123147  0.61825378  1
  O2-  O168  1  0.24698683  -0.01931209  0.38688706  1
  O2-  O169  1  0.25024860  -0.02222007  0.88150727  1
  O2-  O170  1  0.23808459  0.46628307  0.38200457  1
  O2-  O171  1  0.24746243  0.47709022  0.88518811  1
  O2-  O172  1  0.77013079  -0.00698832  0.38164932  1
  O2-  O173  1  0.76628007  -0.00227691  0.88793702  1
  O2-  O174  1  0.74006770  0.49487563  0.36516346  1
  O2-  O175  1  0.72634539  0.48832330  0.89104066  1
  O2-  O176  1  -0.01081973  0.23621082  0.37159870  1
  O2-  O177  1  -0.01265425  0.23730113  0.87557626  1
  O2-  O178  1  0.01624338  0.75014946  0.36058213  1
  O2-  O179  1  0.00040903  0.74853940  0.88826358  1
  O2-  O180  1  0.46783235  0.23417867  0.38324334  1
  O2-  O181  1  0.48592181  0.26325111  0.88975955  1
  O2-  O182  1  0.51060441  0.74764220  0.36694641  1
  O2-  O183  1  0.52307183  0.74583729  0.88704646  1
  O2-  O184  1  0.24438172  0.02176434  0.11695868  1
  O2-  O185  1  0.21739286  0.01415499  0.61443341  1
  O2-  O186  1  0.27348031  0.51883311  0.11717078  1
  O2-  O187  1  0.26547891  0.51918950  0.61340601  1
  O2-  O188  1  0.75136877  0.02929855  0.11424567  1
  O2-  O189  1  0.74334432  0.01054444  0.61886073  1
  O2-  O190  1  0.76053659  0.51955398  0.12492632  1
  O2-  O191  1  0.76460539  0.51614669  0.62219174  1
  O2-  O192  1  0.11402619  0.27763800  0.26129255  1
  O2-  O193  1  0.11718646  0.27142831  0.76063280  1
  O2-  O194  1  0.11713076  0.77466076  0.22677052  1
  O2-  O195  1  0.12964089  0.78395169  0.74478302  1
  O2-  O196  1  0.63982790  0.28755401  0.26316525  1
  O2-  O197  1  0.63764360  0.27955191  0.76751942  1
  O2-  O198  1  0.62203584  0.76846251  0.23492001  1
  O2-  O199  1  0.63646649  0.78201663  0.74552636  1
  O2-  O200  1  0.36428122  0.21819547  0.23823652  1
  O2-  O201  1  0.36643993  0.21925142  0.73346331  1
  O2-  O202  1  0.37497165  0.72512503  0.26094250  1
  O2-  O203  1  0.36559392  0.72452401  0.75144676  1
  O2-  O204  1  0.88119728  0.23914850  0.22919515  1
  O2-  O205  1  0.88043630  0.22704513  0.74059405  1
  O2-  O206  1  0.87206178  0.72770326  0.25526879  1
  O2-  O207  1  0.86761837  0.72117534  0.76275423  1
  O2-  O208  1  0.26620345  0.36249201  0.23497166  1
  O2-  O209  1  0.26047541  0.36105872  0.71548634  1
  O2-  O210  1  0.26923251  0.86470058  0.22889204  1
  O2-  O211  1  0.27358423  0.86772426  0.72853064  1
  O2-  O212  1  0.77318750  0.38416105  0.23530595  1
  O2-  O213  1  0.78746686  0.36576577  0.74510541  1
  O2-  O214  1  0.77569962  0.86529805  0.23452841  1
  O2-  O215  1  0.78329413  0.86408694  0.74597273  1
  O2-  O216  1  0.21624044  0.13421876  0.27206459  1
  O2-  O217  1  0.21617734  0.13789060  0.76215956  1
  O2-  O218  1  0.21638889  0.63470093  0.26178504  1
  O2-  O219  1  0.21922592  0.63132425  0.77028737  1
  O2-  O220  1  0.72350036  0.13923942  0.26090555  1
  O2-  O221  1  0.73847554  0.13768353  0.77262015  1
  O2-  O222  1  0.73205397  0.62648317  0.25141635  1
  O2-  O223  1  0.72842185  0.63398224  0.77538645  1
  O2-  O224  1  0.11338434  0.48408585  0.22257530  1
  O2-  O225  1  0.11735178  0.47138917  0.72937597  1
  O2-  O226  1  0.11111329  0.97952098  0.24915097  1
  O2-  O227  1  0.11254172  0.98388870  0.76289456  1
  O2-  O228  1  0.63003801  0.48661625  0.23068831  1
  O2-  O229  1  0.61331140  0.45864951  0.74248141  1
  O2-  O230  1  0.61639289  0.96223973  0.24088171  1
  O2-  O231  1  0.61997736  0.97503304  0.77091398  1
  O2-  O232  1  0.38447590  0.02252512  0.26579396  1
  O2-  O233  1  0.38514311  0.03057448  0.73877950  1
  O2-  O234  1  0.38770814  0.53028808  0.26344631  1
  O2-  O235  1  0.38767079  0.53212863  0.77298857  1
  O2-  O236  1  0.88452538  0.03437688  0.24582039  1
  O2-  O237  1  0.88528793  0.03573971  0.74462759  1
  O2-  O238  1  0.87005207  0.52243499  0.26005226  1
  O2-  O239  1  0.88564781  0.51659217  0.77916739  1
  O2-  O240  1  0.47601337  0.38592688  0.25174530  1
  O2-  O241  1  0.46199396  0.38527472  0.75474958  1
  O2-  O242  1  0.47464262  0.86556495  0.25045306  1
  O2-  O243  1  0.47111297  0.87929352  0.74766881  1
  O2-  O244  1  0.97836298  0.37700540  0.25851446  1
  O2-  O245  1  0.97796956  0.36713356  0.75342856  1
  O2-  O246  1  0.96966938  0.87728363  0.25394085  1
  O2-  O247  1  0.96770537  0.88667462  0.75588219  1
  O2-  O248  1  0.02169973  0.12831908  0.24411537  1
  O2-  O249  1  0.02222597  0.12914542  0.74350187  1
  O2-  O250  1  0.01596399  0.63267365  0.23286684  1
  O2-  O251  1  0.02785831  0.61611830  0.74326597  1
  O2-  O252  1  0.53777920  0.11561811  0.24487939  1
  O2-  O253  1  0.52760217  0.11954601  0.75350343  1
  O2-  O254  1  0.52275380  0.62909721  0.24430121  1
  O2-  O255  1  0.54214376  0.61188892  0.74963335  1
  O2-  O256  1  0.13389970  0.47110464  0.02661431  1
  O2-  O257  1  0.13294723  0.46951192  0.51537113  1
  O2-  O258  1  0.11318087  0.97870530  -0.00235694  1
  O2-  O259  1  0.11561518  0.98414188  0.48819309  1
  O2-  O260  1  0.62800047  0.48882749  0.02541030  1
  O2-  O261  1  0.63797260  0.46382581  0.51166968  1
  O2-  O262  1  0.63541374  0.97688725  -0.00314637  1
  O2-  O263  1  0.63503297  0.97274112  0.48851392  1
  O2-  O264  1  0.36549646  0.04374313  -0.00633480  1
  O2-  O265  1  0.36406872  0.03089493  0.50668098  1
  O2-  O266  1  0.38645492  0.52215872  -0.01157425  1
  O2-  O267  1  0.36615640  0.51118890  0.47818079  1
  O2-  O268  1  0.87643975  0.02169282  0.00626901  1
  O2-  O269  1  0.88114810  0.02748216  0.50768045  1
  O2-  O270  1  0.86274907  0.52560045  -0.01252962  1
  O2-  O271  1  0.86669293  0.53331706  0.48475942  1
  O2-  O272  1  0.48915569  0.38241204  0.00893768  1
  O2-  O273  1  0.46976826  0.36479196  0.49287781  1
  O2-  O274  1  0.48082727  0.86135620  0.00534226  1
  O2-  O275  1  0.46157935  0.86249313  0.48898382  1
  O2-  O276  1  0.96517191  0.36116106  -0.00321249  1
  O2-  O277  1  0.98003828  0.36284149  0.48694251  1
  O2-  O278  1  0.96928273  0.88098425  -0.00425541  1
  O2-  O279  1  0.97303055  0.88452106  0.49312530  1
  O2-  O280  1  0.01207772  0.12520377  0.00774355  1
  O2-  O281  1  0.02118120  0.12250442  0.50330343  1
  O2-  O282  1  0.02441756  0.63674936  0.01627804  1
  O2-  O283  1  0.02904428  0.63905733  0.50527847  1
  O2-  O284  1  0.53634053  0.13565785  -0.00407977  1
  O2-  O285  1  0.52337504  0.13136825  0.50755409  1
  O2-  O286  1  0.52854897  0.62369315  0.01086484  1
  O2-  O287  1  0.52854515  0.63382899  0.48818799  1
  O2-  O288  1  0.11292266  0.27670866  -0.01317096  1
  O2-  O289  1  0.12043707  0.26014676  0.48893679  1
  O2-  O290  1  0.11244344  0.78479533  0.01320787  1
  O2-  O291  1  0.10831685  0.79079906  0.50280751  1
  O2-  O292  1  0.63604493  0.27859059  -0.00733801  1
  O2-  O293  1  0.61694114  0.27187433  0.46779389  1
  O2-  O294  1  0.62983237  0.76910870  0.01351679  1
  O2-  O295  1  0.61552583  0.78633787  0.50583748  1
  O2-  O296  1  0.38941031  0.22767451  0.02858406  1
  O2-  O297  1  0.36565295  0.22502465  0.51592849  1
  O2-  O298  1  0.38556623  0.71726347  -0.00689719  1
  O2-  O299  1  0.38172181  0.71758433  0.49920740  1
  O2-  O300  1  0.87073528  0.22958747  0.01506939  1
  O2-  O301  1  0.88523967  0.22062090  0.51026315  1
  O2-  O302  1  0.87010651  0.73472187  -0.00001442  1
  O2-  O303  1  0.88727749  0.74216436  0.46153596  1
  O2-  O304  1  0.28310661  0.38082181  0.01664085  1
  O2-  O305  1  0.26523019  0.36298783  0.51512657  1
  O2-  O306  1  0.27029267  0.88937486  0.02165653  1
  O2-  O307  1  0.26832648  0.88465296  0.52432608  1
  O2-  O308  1  0.77042502  0.37922656  0.01805131  1
  O2-  O309  1  0.78623885  0.38689077  0.50133283  1
  O2-  O310  1  0.77069605  0.87712044  0.01632340  1
  O2-  O311  1  0.78251681  0.88342702  0.51145175  1
  O2-  O312  1  0.20919066  0.11626252  -0.01708571  1
  O2-  O313  1  0.22741969  0.12577631  0.48229905  1
  O2-  O314  1  0.22645981  0.61304129  -0.01829903  1
  O2-  O315  1  0.21879911  0.61429501  0.47631872  1
  O2-  O316  1  0.72988370  0.13307664  -0.01344470  1
  O2-  O317  1  0.72989049  0.11761985  0.48971787  1
  O2-  O318  1  0.73036129  0.62971135  -0.00667076  1
  O2-  O319  1  0.71594834  0.61561797  0.48926711  1
