# generated using pymatgen
data_Sr64Ca21Nb43O192
_symmetry_space_group_name_H-M   'P 1'
_cell_length_a   16.56582606
_cell_length_b   16.59019699
_cell_length_c   16.77498963
_cell_angle_alpha   89.90259153
_cell_angle_beta   90.01193566
_cell_angle_gamma   89.95446482
_symmetry_Int_Tables_number   1
_chemical_formula_structural   Sr64Ca21Nb43O192
_chemical_formula_sum   'Sr64 Ca21 Nb43 O192'
_cell_volume   4610.26750924
_cell_formula_units_Z   1
loop_
 _symmetry_equiv_pos_site_id
 _symmetry_equiv_pos_as_xyz
  1  'x, y, z'
loop_
 _atom_type_symbol
 _atom_type_oxidation_number
  Sr2+  2.0
  Ca2+  2.0
  Nb5+  5.0
  O2-  -2.0
loop_
 _atom_site_type_symbol
 _atom_site_label
 _atom_site_symmetry_multiplicity
 _atom_site_fract_x
 _atom_site_fract_y
 _atom_site_fract_z
 _atom_site_occupancy
  Sr2+  Sr0  1  0.11824228  0.11005826  0.12793275  1
  Sr2+  Sr1  1  0.12285287  0.12143014  0.62444269  1
  Sr2+  Sr2  1  0.11804645  0.60896645  0.13133653  1
  Sr2+  Sr3  1  0.11138164  0.61632416  0.61871602  1
  Sr2+  Sr4  1  0.61905464  0.11613571  0.12632036  1
  Sr2+  Sr5  1  0.62144402  0.12435931  0.62739297  1
  Sr2+  Sr6  1  0.62496417  0.61994573  0.12398808  1
  Sr2+  Sr7  1  0.61727779  0.62508921  0.62816199  1
  Sr2+  Sr8  1  0.37376026  0.38160531  0.12794643  1
  Sr2+  Sr9  1  0.37902788  0.37392452  0.62381206  1
  Sr2+  Sr10  1  0.36990733  0.86410412  0.14350627  1
  Sr2+  Sr11  1  0.37217973  0.86963894  0.62431263  1
  Sr2+  Sr12  1  0.86963803  0.37485913  0.11506775  1
  Sr2+  Sr13  1  0.86985561  0.36592363  0.62678998  1
  Sr2+  Sr14  1  0.87033300  0.86127684  0.12895241  1
  Sr2+  Sr15  1  0.86464918  0.85831020  0.62088296  1
  Sr2+  Sr16  1  0.14629887  0.38022247  0.38062331  1
  Sr2+  Sr17  1  0.13950204  0.38501530  0.87380945  1
  Sr2+  Sr18  1  0.14440911  0.87483116  0.37476462  1
  Sr2+  Sr19  1  0.13399840  0.88760351  0.87597142  1
  Sr2+  Sr20  1  0.63307066  0.38751710  0.37336272  1
  Sr2+  Sr21  1  0.63308688  0.38396757  0.86718477  1
  Sr2+  Sr22  1  0.62074304  0.88728371  0.36655119  1
  Sr2+  Sr23  1  0.62816763  0.87976263  0.87943387  1
  Sr2+  Sr24  1  0.37501028  0.12848046  0.37407646  1
  Sr2+  Sr25  1  0.37667131  0.12913507  0.87687953  1
  Sr2+  Sr26  1  0.37355548  0.62932960  0.36751326  1
  Sr2+  Sr27  1  0.37487513  0.63049922  0.87623609  1
  Sr2+  Sr28  1  0.88826271  0.13523854  0.36733743  1
  Sr2+  Sr29  1  0.88351360  0.12697547  0.87863652  1
  Sr2+  Sr30  1  0.88871159  0.62594432  0.37997661  1
  Sr2+  Sr31  1  0.86903680  0.62971857  0.87946815  1
  Sr2+  Sr32  1  0.13109783  0.13760986  0.36673225  1
  Sr2+  Sr33  1  0.12954859  0.13258772  0.87773438  1
  Sr2+  Sr34  1  0.12936499  0.64317736  0.37548378  1
  Sr2+  Sr35  1  0.13538304  0.63504210  0.88071885  1
  Sr2+  Sr36  1  0.62745409  0.13660440  0.36202810  1
  Sr2+  Sr37  1  0.62852951  0.13228454  0.87728316  1
  Sr2+  Sr38  1  0.62717308  0.61732126  0.36211886  1
  Sr2+  Sr39  1  0.62598441  0.63789146  0.87769559  1
  Sr2+  Sr40  1  0.38506465  0.39116782  0.37659672  1
  Sr2+  Sr41  1  0.38530924  0.38787241  0.87591320  1
  Sr2+  Sr42  1  0.38135833  0.88578806  0.37512044  1
  Sr2+  Sr43  1  0.37312311  0.86863018  0.87565236  1
  Sr2+  Sr44  1  0.87339023  0.38486887  0.38614519  1
  Sr2+  Sr45  1  0.88640554  0.38515956  0.87060278  1
  Sr2+  Sr46  1  0.87897537  0.87246467  0.37025276  1
  Sr2+  Sr47  1  0.87130835  0.87877030  0.87561745  1
  Sr2+  Sr48  1  0.11544804  0.37877759  0.11898692  1
  Sr2+  Sr49  1  0.11563105  0.36731088  0.62583160  1
  Sr2+  Sr50  1  0.11003588  0.86650220  0.12999112  1
  Sr2+  Sr51  1  0.11031438  0.86494463  0.62229817  1
  Sr2+  Sr52  1  0.60836398  0.37628383  0.12697075  1
  Sr2+  Sr53  1  0.62631687  0.36759103  0.62455426  1
  Sr2+  Sr54  1  0.63239881  0.87067764  0.13761121  1
  Sr2+  Sr55  1  0.61564708  0.87626356  0.62170355  1
  Sr2+  Sr56  1  0.36866754  0.12079967  0.13182095  1
  Sr2+  Sr57  1  0.37454557  0.11656750  0.62307966  1
  Sr2+  Sr58  1  0.36292751  0.61534538  0.13183494  1
  Sr2+  Sr59  1  0.36515349  0.62102007  0.63033407  1
  Sr2+  Sr60  1  0.87500631  0.12006805  0.13164753  1
  Sr2+  Sr61  1  0.86938114  0.11749350  0.62439780  1
  Sr2+  Sr62  1  0.87159231  0.61859655  0.12574140  1
  Sr2+  Sr63  1  0.86910388  0.61648319  0.62263594  1
  Ca2+  Ca64  1  0.49977423  0.50262514  0.50175795  1
  Ca2+  Ca65  1  0.00177598  0.49537755  0.50097010  1
  Ca2+  Ca66  1  0.00049898  -0.00036250  0.50114149  1
  Ca2+  Ca67  1  0.50288379  -0.00247793  -0.00339571  1
  Ca2+  Ca68  1  0.50184964  0.50141658  -0.00185382  1
  Ca2+  Ca69  1  0.74690149  0.24984279  -0.00282276  1
  Ca2+  Ca70  1  0.24655943  0.75285733  0.00384052  1
  Ca2+  Ca71  1  0.74382897  0.75200489  0.49967350  1
  Ca2+  Ca72  1  0.25132591  0.25009701  -0.00247255  1
  Ca2+  Ca73  1  0.25289319  0.75427681  0.50230228  1
  Ca2+  Ca74  1  0.24954080  0.49984650  0.74723790  1
  Ca2+  Ca75  1  0.75340990  0.00281987  0.25157527  1
  Ca2+  Ca76  1  0.49852088  0.25180196  0.25288554  1
  Ca2+  Ca77  1  0.75453294  0.49682247  0.24845165  1
  Ca2+  Ca78  1  0.00121318  0.25681877  0.24784742  1
  Ca2+  Ca79  1  0.24694804  0.49990805  0.25327441  1
  Ca2+  Ca80  1  -0.00245052  0.74857774  0.75146542  1
  Ca2+  Ca81  1  0.50105115  0.74947017  0.25118062  1
  Ca2+  Ca82  1  -0.00111268  0.74447663  0.24853858  1
  Ca2+  Ca83  1  0.74967658  0.50033229  0.74900032  1
  Ca2+  Ca84  1  0.24848113  0.00131905  0.25094142  1
  Nb5+  Nb85  1  -0.00049908  0.00125164  -0.00084825  1
  Nb5+  Nb86  1  0.50111212  0.00312355  0.50168121  1
  Nb5+  Nb87  1  0.00070846  0.50687519  -0.00682077  1
  Nb5+  Nb88  1  0.74816158  0.74911012  0.00136150  1
  Nb5+  Nb89  1  0.75518054  0.24372653  0.50070737  1
  Nb5+  Nb90  1  0.25705430  0.24994173  0.50361661  1
  Nb5+  Nb91  1  0.74487819  -0.00219286  0.74814858  1
  Nb5+  Nb92  1  0.49890004  0.75536925  0.75107178  1
  Nb5+  Nb93  1  0.00478022  0.24841377  0.75173956  1
  Nb5+  Nb94  1  0.24489873  0.00002413  0.74796655  1
  Nb5+  Nb95  1  0.50118152  0.25404717  0.75102925  1
  Nb5+  Nb96  1  0.00472165  -0.00400536  0.25935502  1
  Nb5+  Nb97  1  -0.00820318  0.00041335  0.74924715  1
  Nb5+  Nb98  1  0.00247135  0.49207727  0.25825324  1
  Nb5+  Nb99  1  0.00375352  0.50498458  0.75291010  1
  Nb5+  Nb100  1  0.49767212  0.00224405  0.24322959  1
  Nb5+  Nb101  1  0.49552091  0.00457445  0.75204569  1
  Nb5+  Nb102  1  0.50092839  0.50083193  0.24850752  1
  Nb5+  Nb103  1  0.50089465  0.50817461  0.74962479  1
  Nb5+  Nb104  1  0.24756065  0.25533154  0.24308913  1
  Nb5+  Nb105  1  0.25791772  0.24861876  0.74707591  1
  Nb5+  Nb106  1  0.24818930  0.75136562  0.24822172  1
  Nb5+  Nb107  1  0.24355368  0.75225151  0.74790740  1
  Nb5+  Nb108  1  0.74860864  0.25563307  0.24144813  1
  Nb5+  Nb109  1  0.75698498  0.24489881  0.75123512  1
  Nb5+  Nb110  1  0.75260439  0.74559706  0.25817961  1
  Nb5+  Nb111  1  0.74602094  0.74844679  0.74807531  1
  Nb5+  Nb112  1  0.00435885  0.25124811  0.49823467  1
  Nb5+  Nb113  1  0.00081990  0.25351484  1.00024115  1
  Nb5+  Nb114  1  -0.00322048  0.74997735  0.50005907  1
  Nb5+  Nb115  1  -0.00185343  0.75492151  0.99357963  1
  Nb5+  Nb116  1  0.50442299  0.24933534  0.50223134  1
  Nb5+  Nb117  1  0.50152733  0.24711962  1.00414986  1
  Nb5+  Nb118  1  0.50071136  0.74853515  0.49764552  1
  Nb5+  Nb119  1  0.49941825  0.75232696  1.00365563  1
  Nb5+  Nb120  1  0.25699794  0.00018498  0.00122440  1
  Nb5+  Nb121  1  0.24957410  0.00256182  0.50297317  1
  Nb5+  Nb122  1  0.25316125  0.50353748  -0.00281171  1
  Nb5+  Nb123  1  0.24923938  0.50906370  0.50387744  1
  Nb5+  Nb124  1  0.75228704  -0.00196612  0.00435108  1
  Nb5+  Nb125  1  0.75133765  0.00412654  0.49592458  1
  Nb5+  Nb126  1  0.74888949  0.49432320  -0.00407011  1
  Nb5+  Nb127  1  0.74575258  0.50520871  0.50415431  1
  O2-  O128  1  -0.01792127  0.01421028  0.11179351  1
  O2-  O129  1  -0.00478121  0.02954387  0.63775124  1
  O2-  O130  1  -0.01207381  0.51935504  0.10730258  1
  O2-  O131  1  -0.01419464  0.51859449  0.63845812  1
  O2-  O132  1  0.47501337  0.00015811  0.13137807  1
  O2-  O133  1  0.49044963  -0.00338837  0.63238962  1
  O2-  O134  1  0.48500510  0.50032933  0.13012495  1
  O2-  O135  1  0.47085934  0.50578955  0.63543289  1
  O2-  O136  1  0.03172555  -0.02029804  0.36814194  1
  O2-  O137  1  0.01190048  -0.01714142  0.86982524  1
  O2-  O138  1  0.01212320  0.45773098  0.36615091  1
  O2-  O139  1  0.01420597  0.47115935  0.87451259  1
  O2-  O140  1  0.51901627  0.00846417  0.38837372  1
  O2-  O141  1  0.53135679  0.00396233  0.86046869  1
  O2-  O142  1  0.51904085  0.49526412  0.36802400  1
  O2-  O143  1  0.52172899  0.48582273  0.86467985  1
  O2-  O144  1  0.23794649  0.28236248  0.13307858  1
  O2-  O145  1  0.22958705  0.26243104  0.62702084  1
  O2-  O146  1  0.23652257  0.78773194  0.13287416  1
  O2-  O147  1  0.24150352  0.78772736  0.63687496  1
  O2-  O148  1  0.73412217  0.28504549  0.13213156  1
  O2-  O149  1  0.73283298  0.25680376  0.63126197  1
  O2-  O150  1  0.72899332  0.75913033  0.11504124  1
  O2-  O151  1  0.72567118  0.77481016  0.63668034  1
  O2-  O152  1  0.25768183  0.22371384  0.39207905  1
  O2-  O153  1  0.25891370  0.22116602  0.85871522  1
  O2-  O154  1  0.26133503  0.72771987  0.36760868  1
  O2-  O155  1  0.27354935  0.74051314  0.86263553  1
  O2-  O156  1  0.76303802  0.22086978  0.38970484  1
  O2-  O157  1  0.75965734  0.21771906  0.86292813  1
  O2-  O158  1  0.77491520  0.73104541  0.36868001  1
  O2-  O159  1  0.76160267  0.74235259  0.87129676  1
  O2-  O160  1  0.03084232  0.23648298  0.10953604  1
  O2-  O161  1  0.01247017  0.22878532  0.63378217  1
  O2-  O162  1  0.01557757  0.72900380  0.10682189  1
  O2-  O163  1  0.02399029  0.73685820  0.61887683  1
  O2-  O164  1  0.52846733  0.24585678  0.11585659  1
  O2-  O165  1  0.51529492  0.25113692  0.62980696  1
  O2-  O166  1  0.52101511  0.77260091  0.11379349  1
  O2-  O167  1  0.52530645  0.75220796  0.63414136  1
  O2-  O168  1  0.23452362  0.02355674  0.39063243  1
  O2-  O169  1  0.23460130  0.02076478  0.86360132  1
  O2-  O170  1  0.21869739  0.51625956  0.38760895  1
  O2-  O171  1  0.22885681  0.52031632  0.88046199  1
  O2-  O172  1  0.71882613  0.01575688  0.38762237  1
  O2-  O173  1  0.73688553  0.00720156  0.86946898  1
  O2-  O174  1  0.72677341  0.50575669  0.38605950  1
  O2-  O175  1  0.72806018  0.51948178  0.88257511  1
  O2-  O176  1  -0.02590746  0.26679414  0.38920439  1
  O2-  O177  1  -0.02731934  0.25482829  0.86838591  1
  O2-  O178  1  -0.02846725  0.75726206  0.38269286  1
  O2-  O179  1  -0.04044725  0.75541470  0.88248900  1
  O2-  O180  1  0.48255456  0.23647375  0.39122278  1
  O2-  O181  1  0.47257451  0.24707160  0.86373621  1
  O2-  O182  1  0.46997731  0.75219394  0.38805693  1
  O2-  O183  1  0.48224046  0.73808415  0.86640478  1
  O2-  O184  1  0.27722611  -0.01193591  0.11292864  1
  O2-  O185  1  0.27769179  -0.00795101  0.63098909  1
  O2-  O186  1  0.26128723  0.48230298  0.11399254  1
  O2-  O187  1  0.28313009  0.48525942  0.61574294  1
  O2-  O188  1  0.78375447  -0.01091727  0.11388181  1
  O2-  O189  1  0.77045072  -0.01159844  0.63092089  1
  O2-  O190  1  0.78027619  0.49695507  0.11024991  1
  O2-  O191  1  0.77865276  0.48514255  0.61763643  1
  O2-  O192  1  0.13421626  0.26849430  0.28179935  1
  O2-  O193  1  0.12113228  0.26086617  0.76283455  1
  O2-  O194  1  0.13102354  0.77411492  0.26626648  1
  O2-  O195  1  0.13352668  0.77613564  0.77167000  1
  O2-  O196  1  0.63583324  0.26910045  0.28060125  1
  O2-  O197  1  0.61877265  0.25829568  0.76558929  1
  O2-  O198  1  0.63563994  0.77317964  0.26881301  1
  O2-  O199  1  0.62070773  0.76925197  0.77347069  1
  O2-  O200  1  0.36294775  0.22248795  0.24265021  1
  O2-  O201  1  0.37306029  0.23256377  0.72577232  1
  O2-  O202  1  0.36806943  0.73382250  0.22558105  1
  O2-  O203  1  0.38126760  0.73937830  0.73118831  1
  O2-  O204  1  0.86521025  0.22451233  0.23821435  1
  O2-  O205  1  0.87094951  0.22867657  0.73136343  1
  O2-  O206  1  0.86475592  0.73256408  0.21977160  1
  O2-  O207  1  0.86049606  0.73418169  0.72876749  1
  O2-  O208  1  0.27264116  0.36448845  0.28295374  1
  O2-  O209  1  0.26950180  0.36136811  0.76493505  1
  O2-  O210  1  0.27382668  0.87028173  0.27573962  1
  O2-  O211  1  0.27049861  0.88525902  0.76634924  1
  O2-  O212  1  0.77640811  0.36316996  0.28064629  1
  O2-  O213  1  0.76148322  0.35976636  0.76782416  1
  O2-  O214  1  0.77101697  0.86617582  0.25409484  1
  O2-  O215  1  0.76440523  0.88013042  0.76390555  1
  O2-  O216  1  0.22342654  0.13625025  0.23376031  1
  O2-  O217  1  0.23936139  0.12163027  0.72650040  1
  O2-  O218  1  0.23092831  0.63557374  0.22523104  1
  O2-  O219  1  0.23268196  0.63930328  0.72488084  1
  O2-  O220  1  0.72556094  0.13641884  0.23148892  1
  O2-  O221  1  0.73432678  0.11916287  0.73407793  1
  O2-  O222  1  0.72484451  0.63239893  0.23486808  1
  O2-  O223  1  0.72280522  0.63590592  0.73761372  1
  O2-  O224  1  0.11614436  0.47812952  0.22351176  1
  O2-  O225  1  0.11526886  0.46568162  0.73767579  1
  O2-  O226  1  0.11640457  0.98408075  0.21723946  1
  O2-  O227  1  0.12924913  0.98432259  0.73479562  1
  O2-  O228  1  0.61930155  0.47107735  0.23565761  1
  O2-  O229  1  0.61416732  0.47877551  0.72446488  1
  O2-  O230  1  0.61758939  0.98235129  0.23405462  1
  O2-  O231  1  0.62939746  0.98656657  0.73053834  1
  O2-  O232  1  0.38381592  0.02073600  0.27446888  1
  O2-  O233  1  0.38066586  0.01566069  0.76770158  1
  O2-  O234  1  0.38241525  0.52879726  0.26219057  1
  O2-  O235  1  0.38436874  0.51643122  0.77808978  1
  O2-  O236  1  0.88682397  0.01652750  0.27600298  1
  O2-  O237  1  0.87606865  0.01944547  0.76380221  1
  O2-  O238  1  0.88772376  0.52548259  0.26313668  1
  O2-  O239  1  0.88605068  0.51228370  0.77540369  1
  O2-  O240  1  0.46999684  0.38221996  0.24728715  1
  O2-  O241  1  0.48084315  0.36897102  0.74510984  1
  O2-  O242  1  0.48618725  0.88620295  0.26703652  1
  O2-  O243  1  0.48548900  0.87543123  0.75358921  1
  O2-  O244  1  0.97866708  0.38545756  0.21020448  1
  O2-  O245  1  0.97811553  0.36283751  0.73709818  1
  O2-  O246  1  0.97969831  0.88352724  0.22867339  1
  O2-  O247  1  0.98085299  0.88713563  0.72996808  1
  O2-  O248  1  0.01755840  0.11651314  0.25635023  1
  O2-  O249  1  0.01311126  0.12542957  0.77304453  1
  O2-  O250  1  0.02820753  0.61031133  0.26595744  1
  O2-  O251  1  0.03147827  0.61432906  0.77110320  1
  O2-  O252  1  0.52376395  0.11741444  0.25136207  1
  O2-  O253  1  0.50974699  0.12417523  0.74468108  1
  O2-  O254  1  0.53109344  0.61810492  0.24673573  1
  O2-  O255  1  0.52013080  0.62568635  0.75067623  1
  O2-  O256  1  0.11701484  0.47974064  0.00665170  1
  O2-  O257  1  0.13648362  0.47522341  0.52727734  1
  O2-  O258  1  0.11567665  0.97772658  0.00912905  1
  O2-  O259  1  0.13877839  0.98373775  0.52943049  1
  O2-  O260  1  0.63732066  0.47899373  0.02176874  1
  O2-  O261  1  0.63371833  0.46995757  0.52148680  1
  O2-  O262  1  0.64018769  0.97150602  0.02019749  1
  O2-  O263  1  0.62169020  0.99392239  0.52559448  1
  O2-  O264  1  0.36685043  0.01561511  -0.02801713  1
  O2-  O265  1  0.38048113  0.02707563  0.49409455  1
  O2-  O266  1  0.36626097  0.52854707  -0.01383724  1
  O2-  O267  1  0.36464536  0.51520214  0.46929971  1
  O2-  O268  1  0.87785120  0.00518142  -0.02762303  1
  O2-  O269  1  0.86272097  0.03358283  0.48481643  1
  O2-  O270  1  0.88064171  0.51065474  -0.02631488  1
  O2-  O271  1  0.86483337  0.50910191  0.47757428  1
  O2-  O272  1  0.46801827  0.36270436  0.00445577  1
  O2-  O273  1  0.48055671  0.36255889  0.50738965  1
  O2-  O274  1  0.49496996  0.86427645  -0.03216170  1
  O2-  O275  1  0.47753182  0.88749121  0.50675489  1
  O2-  O276  1  0.98132329  0.36927323  0.00859479  1
  O2-  O277  1  0.98357927  0.36155309  0.53401339  1
  O2-  O278  1  0.98118875  0.87143659  0.01066378  1
  O2-  O279  1  0.97261193  0.86813320  0.51762124  1
  O2-  O280  1  0.01305718  0.11699206  -0.01971604  1
  O2-  O281  1  0.01823929  0.13516886  0.48543201  1
  O2-  O282  1  0.01105910  0.62092272  -0.02899692  1
  O2-  O283  1  0.01983452  0.63006915  0.48372701  1
  O2-  O284  1  0.53269162  0.13031017  -0.00792844  1
  O2-  O285  1  0.50904094  0.12588814  0.52166561  1
  O2-  O286  1  0.52948328  0.63761760  -0.00361420  1
  O2-  O287  1  0.53309825  0.63824655  0.49913425  1
  O2-  O288  1  0.11256118  0.26132188  -0.03699781  1
  O2-  O289  1  0.12257510  0.26703404  0.49224422  1
  O2-  O290  1  0.10991790  0.76529918  -0.03366801  1
  O2-  O291  1  0.11592688  0.77588234  0.48149082  1
  O2-  O292  1  0.61199434  0.27366786  -0.03605290  1
  O2-  O293  1  0.62244278  0.25748437  0.49227282  1
  O2-  O294  1  0.63180783  0.76386835  -0.02434009  1
  O2-  O295  1  0.61026091  0.79315139  0.48753588  1
  O2-  O296  1  0.38563564  0.21153344  0.01169688  1
  O2-  O297  1  0.37190901  0.23452598  0.52506072  1
  O2-  O298  1  0.38545738  0.73504735  0.01609473  1
  O2-  O299  1  0.38943132  0.73946092  0.53662265  1
  O2-  O300  1  0.88576192  0.22405414  0.01553742  1
  O2-  O301  1  0.87136316  0.23220024  0.52364207  1
  O2-  O302  1  0.86902196  0.73393426  0.01651346  1
  O2-  O303  1  0.87923632  0.72679750  0.52594402  1
  O2-  O304  1  0.26444226  0.38520261  -0.02785651  1
  O2-  O305  1  0.26809084  0.36563238  0.48717410  1
  O2-  O306  1  0.25311333  0.88760440  -0.03136691  1
  O2-  O307  1  0.27809737  0.89085213  0.48719448  1
  O2-  O308  1  0.77368458  0.38288313  -0.02490225  1
  O2-  O309  1  0.76242720  0.36082778  0.49385181  1
  O2-  O310  1  0.76873274  0.87050449  -0.01445554  1
  O2-  O311  1  0.77101570  0.89000234  0.48995458  1
  O2-  O312  1  0.21981016  0.11223839  0.00957350  1
  O2-  O313  1  0.23985996  0.12648430  0.52770729  1
  O2-  O314  1  0.22016957  0.61825816  0.01693273  1
  O2-  O315  1  0.23377810  0.62058993  0.52816606  1
  O2-  O316  1  0.73344018  0.11203944  0.01034067  1
  O2-  O317  1  0.73219878  0.12585692  0.52862516  1
  O2-  O318  1  0.73874864  0.62877320  0.00412130  1
  O2-  O319  1  0.72611795  0.61702254  0.52180173  1
