# generated using pymatgen
data_Sr64Ca21Nb43O192
_symmetry_space_group_name_H-M   'P 1'
_cell_length_a   16.56914072
_cell_length_b   16.55972029
_cell_length_c   16.72073827
_cell_angle_alpha   90.02940002
_cell_angle_beta   90.01240579
_cell_angle_gamma   89.96018383
_symmetry_Int_Tables_number   1
_chemical_formula_structural   Sr64Ca21Nb43O192
_chemical_formula_sum   'Sr64 Ca21 Nb43 O192'
_cell_volume   4587.83996005
_cell_formula_units_Z   1
loop_
 _symmetry_equiv_pos_site_id
 _symmetry_equiv_pos_as_xyz
  1  'x, y, z'
loop_
 _atom_type_symbol
 _atom_type_oxidation_number
  Sr2+  2.0
  Ca2+  2.0
  Nb5+  5.0
  O2-  -2.0
loop_
 _atom_site_type_symbol
 _atom_site_label
 _atom_site_symmetry_multiplicity
 _atom_site_fract_x
 _atom_site_fract_y
 _atom_site_fract_z
 _atom_site_occupancy
  Sr2+  Sr0  1  0.11289094  0.12793745  0.13472822  1
  Sr2+  Sr1  1  0.11761304  0.11078992  0.62435651  1
  Sr2+  Sr2  1  0.12169900  0.62328358  0.11690866  1
  Sr2+  Sr3  1  0.12098130  0.60818074  0.62816161  1
  Sr2+  Sr4  1  0.63387869  0.11216966  0.12203130  1
  Sr2+  Sr5  1  0.61982221  0.11834527  0.63331035  1
  Sr2+  Sr6  1  0.62742506  0.61561630  0.12549670  1
  Sr2+  Sr7  1  0.62595483  0.62137085  0.62611666  1
  Sr2+  Sr8  1  0.37401793  0.36558195  0.13246303  1
  Sr2+  Sr9  1  0.37712638  0.36539268  0.61800357  1
  Sr2+  Sr10  1  0.37284994  0.86685135  0.12945670  1
  Sr2+  Sr11  1  0.37712992  0.87185012  0.62537308  1
  Sr2+  Sr12  1  0.87502676  0.35701868  0.12343873  1
  Sr2+  Sr13  1  0.87792722  0.37186060  0.62722685  1
  Sr2+  Sr14  1  0.87610063  0.85747575  0.12530725  1
  Sr2+  Sr15  1  0.87417576  0.85467564  0.62453958  1
  Sr2+  Sr16  1  0.14222960  0.38235866  0.37532242  1
  Sr2+  Sr17  1  0.14342692  0.38370258  0.86981358  1
  Sr2+  Sr18  1  0.13159403  0.88856614  0.37899589  1
  Sr2+  Sr19  1  0.14245119  0.87938563  0.87940694  1
  Sr2+  Sr20  1  0.62102750  0.38075093  0.37858949  1
  Sr2+  Sr21  1  0.62019922  0.37900436  0.87071950  1
  Sr2+  Sr22  1  0.62076688  0.87955403  0.36875282  1
  Sr2+  Sr23  1  0.61769991  0.88180173  0.88170247  1
  Sr2+  Sr24  1  0.36617722  0.12913537  0.36940310  1
  Sr2+  Sr25  1  0.38568515  0.13168149  0.87661511  1
  Sr2+  Sr26  1  0.38193799  0.63163439  0.37576918  1
  Sr2+  Sr27  1  0.37007914  0.62525729  0.87352564  1
  Sr2+  Sr28  1  0.87497479  0.12201774  0.37301177  1
  Sr2+  Sr29  1  0.87570094  0.13422464  0.87485652  1
  Sr2+  Sr30  1  0.87687975  0.62684507  0.37807361  1
  Sr2+  Sr31  1  0.87845548  0.63742138  0.86948678  1
  Sr2+  Sr32  1  0.13038664  0.13483912  0.37952683  1
  Sr2+  Sr33  1  0.13111857  0.12750146  0.86832620  1
  Sr2+  Sr34  1  0.12810650  0.63051460  0.38364435  1
  Sr2+  Sr35  1  0.13477089  0.63701497  0.87007746  1
  Sr2+  Sr36  1  0.61978390  0.11834424  0.37473298  1
  Sr2+  Sr37  1  0.61905226  0.12897220  0.87524637  1
  Sr2+  Sr38  1  0.62037144  0.63580509  0.37528220  1
  Sr2+  Sr39  1  0.61972745  0.62445046  0.87795638  1
  Sr2+  Sr40  1  0.37392573  0.35962766  0.37916989  1
  Sr2+  Sr41  1  0.38478701  0.38637906  0.87571670  1
  Sr2+  Sr42  1  0.38250045  0.87182260  0.37358445  1
  Sr2+  Sr43  1  0.37246050  0.90008052  0.87854388  1
  Sr2+  Sr44  1  0.87455783  0.38677050  0.37763218  1
  Sr2+  Sr45  1  0.87691018  0.37876714  0.86965960  1
  Sr2+  Sr46  1  0.87649192  0.88148855  0.37955195  1
  Sr2+  Sr47  1  0.87185344  0.87691688  0.87095205  1
  Sr2+  Sr48  1  0.12375504  0.36542360  0.12971438  1
  Sr2+  Sr49  1  0.11759918  0.36920668  0.62018081  1
  Sr2+  Sr50  1  0.11985086  0.86634816  0.12250034  1
  Sr2+  Sr51  1  0.12045837  0.87274850  0.62138312  1
  Sr2+  Sr52  1  0.63199453  0.37274077  0.12448443  1
  Sr2+  Sr53  1  0.63191441  0.36311047  0.62045507  1
  Sr2+  Sr54  1  0.62312887  0.87038977  0.12841245  1
  Sr2+  Sr55  1  0.62987890  0.87139087  0.62496540  1
  Sr2+  Sr56  1  0.35311664  0.12141589  0.12967622  1
  Sr2+  Sr57  1  0.36608661  0.11448675  0.62705835  1
  Sr2+  Sr58  1  0.37403068  0.61549616  0.12457559  1
  Sr2+  Sr59  1  0.35736223  0.61985509  0.62327387  1
  Sr2+  Sr60  1  0.87308559  0.11977430  0.11979701  1
  Sr2+  Sr61  1  0.88175666  0.12175492  0.63253031  1
  Sr2+  Sr62  1  0.87481637  0.61854197  0.12169826  1
  Sr2+  Sr63  1  0.88353824  0.61914702  0.63041278  1
  Ca2+  Ca64  1  -0.00085525  0.49880285  -0.00141155  1
  Ca2+  Ca65  1  0.50116075  0.50036599  0.49888104  1
  Ca2+  Ca66  1  0.00060751  0.00027578  -0.00124907  1
  Ca2+  Ca67  1  0.50010408  -0.00049739  0.50042263  1
  Ca2+  Ca68  1  0.49782367  0.00276899  0.00337940  1
  Ca2+  Ca69  1  0.25005693  0.75073982  0.49744995  1
  Ca2+  Ca70  1  0.75134835  0.75019076  0.49578027  1
  Ca2+  Ca71  1  0.24724281  0.24877612  0.50747132  1
  Ca2+  Ca72  1  0.75314597  0.24754535  0.49795003  1
  Ca2+  Ca73  1  0.24979626  0.25079275  -0.00340072  1
  Ca2+  Ca74  1  -0.00408092  0.74888108  0.25480043  1
  Ca2+  Ca75  1  0.74992779  0.00091151  0.75052759  1
  Ca2+  Ca76  1  0.24755431  -0.00386762  0.24940262  1
  Ca2+  Ca77  1  0.25348197  0.49625643  0.74896239  1
  Ca2+  Ca78  1  0.74681867  0.50154482  0.75131378  1
  Ca2+  Ca79  1  0.24949284  0.00011104  0.74820722  1
  Ca2+  Ca80  1  0.25318582  0.50356490  0.25003716  1
  Ca2+  Ca81  1  -0.00595022  0.25269791  0.25538053  1
  Ca2+  Ca82  1  0.49988980  0.74799842  0.75462187  1
  Ca2+  Ca83  1  0.50296535  0.24786737  0.24747415  1
  Ca2+  Ca84  1  0.00374194  0.75025783  0.75098194  1
  Nb5+  Nb85  1  -0.00289781  -0.00665534  0.50136601  1
  Nb5+  Nb86  1  0.00101038  0.49227743  0.50038954  1
  Nb5+  Nb87  1  0.50076918  0.50073055  0.00190602  1
  Nb5+  Nb88  1  0.75083376  0.74396854  0.00081410  1
  Nb5+  Nb89  1  0.25913337  0.74992234  0.00152705  1
  Nb5+  Nb90  1  0.74673744  0.24530165  -0.00220228  1
  Nb5+  Nb91  1  0.75073892  0.49483411  0.24832379  1
  Nb5+  Nb92  1  0.50572059  0.25254758  0.74999648  1
  Nb5+  Nb93  1  0.49885620  0.74782333  0.24742307  1
  Nb5+  Nb94  1  0.00817663  0.24943960  0.75222524  1
  Nb5+  Nb95  1  0.75194208  -0.00806257  0.24702040  1
  Nb5+  Nb96  1  0.00053204  -0.00108636  0.24873686  1
  Nb5+  Nb97  1  -0.00086206  -0.00640568  0.75244542  1
  Nb5+  Nb98  1  0.00356216  0.49964757  0.24833682  1
  Nb5+  Nb99  1  0.00427888  0.49683066  0.75592766  1
  Nb5+  Nb100  1  0.49825731  0.00342617  0.24665465  1
  Nb5+  Nb101  1  0.49625954  -0.00357605  0.75004533  1
  Nb5+  Nb102  1  0.50054812  0.49969175  0.25207049  1
  Nb5+  Nb103  1  0.49960064  0.50151288  0.74218448  1
  Nb5+  Nb104  1  0.24822259  0.25186503  0.24985567  1
  Nb5+  Nb105  1  0.26053612  0.24825185  0.75052443  1
  Nb5+  Nb106  1  0.24397374  0.74907483  0.25053276  1
  Nb5+  Nb107  1  0.25082209  0.75249083  0.74482027  1
  Nb5+  Nb108  1  0.74890677  0.24469982  0.25192242  1
  Nb5+  Nb109  1  0.75383739  0.24752601  0.74781766  1
  Nb5+  Nb110  1  0.74837554  0.74334484  0.24777990  1
  Nb5+  Nb111  1  0.74491458  0.75067000  0.74721299  1
  Nb5+  Nb112  1  -0.00520843  0.24472089  0.49811347  1
  Nb5+  Nb113  1  0.00330542  0.25555075  0.99488933  1
  Nb5+  Nb114  1  0.00078183  0.74157543  0.50027353  1
  Nb5+  Nb115  1  0.00689311  0.75131074  0.99692130  1
  Nb5+  Nb116  1  0.50215778  0.24490880  0.49733095  1
  Nb5+  Nb117  1  0.50229933  0.25100181  1.00449091  1
  Nb5+  Nb118  1  0.50445784  0.74974209  0.50725303  1
  Nb5+  Nb119  1  0.50282073  0.74968500  0.99981473  1
  Nb5+  Nb120  1  0.24413457  0.00676023  0.00456548  1
  Nb5+  Nb121  1  0.25498439  0.00172433  0.49623009  1
  Nb5+  Nb122  1  0.24866916  0.49740832  0.00431921  1
  Nb5+  Nb123  1  0.25691460  0.50205120  0.49680414  1
  Nb5+  Nb124  1  0.75047612  -0.00920784  -0.00041987  1
  Nb5+  Nb125  1  0.75053094  0.00239840  0.50312836  1
  Nb5+  Nb126  1  0.74967781  0.49548777  0.00000529  1
  Nb5+  Nb127  1  0.75078011  0.50209608  0.50344107  1
  O2-  O128  1  -0.00890071  0.02543752  0.13595146  1
  O2-  O129  1  -0.01327665  0.01719060  0.61783607  1
  O2-  O130  1  -0.01148963  0.52236085  0.13634525  1
  O2-  O131  1  -0.01457268  0.50735148  0.62230223  1
  O2-  O132  1  0.48888265  -0.02599539  0.13437639  1
  O2-  O133  1  0.46992976  0.00302327  0.63378583  1
  O2-  O134  1  0.48903847  0.49211855  0.12497210  1
  O2-  O135  1  0.46908066  0.50084868  0.63289848  1
  O2-  O136  1  0.00480775  -0.01556582  0.37993753  1
  O2-  O137  1  0.01619592  -0.02374818  0.86390352  1
  O2-  O138  1  0.01163276  0.47777742  0.38273531  1
  O2-  O139  1  0.02006325  0.47274620  0.86649079  1
  O2-  O140  1  0.52356229  -0.00175783  0.36313691  1
  O2-  O141  1  0.52514899  0.00574359  0.86733740  1
  O2-  O142  1  0.53024698  0.51236223  0.36314067  1
  O2-  O143  1  0.52461705  0.50328762  0.88459467  1
  O2-  O144  1  0.24072485  0.27497991  0.13084264  1
  O2-  O145  1  0.23971166  0.28538732  0.64038546  1
  O2-  O146  1  0.23764866  0.77082441  0.11943905  1
  O2-  O147  1  0.24272011  0.77830006  0.63296896  1
  O2-  O148  1  0.72583539  0.24411980  0.11717336  1
  O2-  O149  1  0.72613479  0.23128834  0.63733147  1
  O2-  O150  1  0.72564289  0.74665459  0.12058536  1
  O2-  O151  1  0.72171313  0.74356468  0.63349559  1
  O2-  O152  1  0.25968931  0.23198213  0.36940093  1
  O2-  O153  1  0.25832370  0.21238644  0.86572507  1
  O2-  O154  1  0.26288421  0.72096303  0.36089720  1
  O2-  O155  1  0.26104094  0.72817478  0.88601158  1
  O2-  O156  1  0.77667561  0.26429078  0.36046778  1
  O2-  O157  1  0.76579429  0.26935132  0.88163012  1
  O2-  O158  1  0.76850483  0.76491901  0.35812730  1
  O2-  O159  1  0.76682524  0.76148300  0.88613594  1
  O2-  O160  1  0.01527813  0.24817005  0.11215860  1
  O2-  O161  1  0.02255075  0.23890860  0.63340416  1
  O2-  O162  1  0.01443941  0.73372430  0.11628736  1
  O2-  O163  1  0.03117117  0.74117491  0.61587440  1
  O2-  O164  1  0.51831793  0.27328615  0.11502837  1
  O2-  O165  1  0.52020959  0.25847419  0.63333408  1
  O2-  O166  1  0.51382069  0.75999707  0.12374262  1
  O2-  O167  1  0.52399282  0.76076798  0.61968234  1
  O2-  O168  1  0.22387672  0.02024389  0.38084450  1
  O2-  O169  1  0.22588653  0.00770887  0.88515241  1
  O2-  O170  1  0.22141875  0.51770109  0.38270292  1
  O2-  O171  1  0.23349467  0.52266270  0.88871702  1
  O2-  O172  1  0.74208963  -0.02075899  0.36367601  1
  O2-  O173  1  0.73289825  -0.01930033  0.88657700  1
  O2-  O174  1  0.73825066  0.47857347  0.36408778  1
  O2-  O175  1  0.72589419  0.48852634  0.88775099  1
  O2-  O176  1  -0.03926571  0.25614255  0.38980050  1
  O2-  O177  1  -0.02761782  0.25915254  0.86860030  1
  O2-  O178  1  -0.03736988  0.75599640  0.38812880  1
  O2-  O179  1  -0.02945573  0.76423901  0.88492628  1
  O2-  O180  1  0.48420882  0.23030427  0.38364163  1
  O2-  O181  1  0.48986066  0.25210685  0.87506163  1
  O2-  O182  1  0.48922371  0.73911641  0.36545758  1
  O2-  O183  1  0.49097184  0.71998381  0.88943803  1
  O2-  O184  1  0.27417933  -0.01913149  0.11600934  1
  O2-  O185  1  0.26605241  -0.02484039  0.61203447  1
  O2-  O186  1  0.28704993  0.48875885  0.11551838  1
  O2-  O187  1  0.27604372  0.48357852  0.61437531  1
  O2-  O188  1  0.76260833  0.01739405  0.12594290  1
  O2-  O189  1  0.75906774  0.03227351  0.61322948  1
  O2-  O190  1  0.75840216  0.51906538  0.12446176  1
  O2-  O191  1  0.76191737  0.52967108  0.61459268  1
  O2-  O192  1  0.12910340  0.27354668  0.26301981  1
  O2-  O193  1  0.12068155  0.26415571  0.77475250  1
  O2-  O194  1  0.13266656  0.77586104  0.26293593  1
  O2-  O195  1  0.13603646  0.76678358  0.77859974  1
  O2-  O196  1  0.63705238  0.28064499  0.26147825  1
  O2-  O197  1  0.62353230  0.26583320  0.76827687  1
  O2-  O198  1  0.62701446  0.76977934  0.25689741  1
  O2-  O199  1  0.63391760  0.78400558  0.77453386  1
  O2-  O200  1  0.36817893  0.22792273  0.23494290  1
  O2-  O201  1  0.37766098  0.23396238  0.73581713  1
  O2-  O202  1  0.38385654  0.72996241  0.23016827  1
  O2-  O203  1  0.36639347  0.72011027  0.74069682  1
  O2-  O204  1  0.86141748  0.23525991  0.21568178  1
  O2-  O205  1  0.87179512  0.23346093  0.73704897  1
  O2-  O206  1  0.86067613  0.73228370  0.21894096  1
  O2-  O207  1  0.86459902  0.72352377  0.73815478  1
  O2-  O208  1  0.27470617  0.36924162  0.26812918  1
  O2-  O209  1  0.26605577  0.36228411  0.78660296  1
  O2-  O210  1  0.28399063  0.86108416  0.25815644  1
  O2-  O211  1  0.27336163  0.86527020  0.77627584  1
  O2-  O212  1  0.76634975  0.38138929  0.22753780  1
  O2-  O213  1  0.76448543  0.36522554  0.73915555  1
  O2-  O214  1  0.76352061  0.87721332  0.22816243  1
  O2-  O215  1  0.77988241  0.86687511  0.74430951  1
  O2-  O216  1  0.22785250  0.13264089  0.22842638  1
  O2-  O217  1  0.23215178  0.13624466  0.71992134  1
  O2-  O218  1  0.23399193  0.63657281  0.21602801  1
  O2-  O219  1  0.22746503  0.63235641  0.73417025  1
  O2-  O220  1  0.72795362  0.12880209  0.25787186  1
  O2-  O221  1  0.73665908  0.13613256  0.78298297  1
  O2-  O222  1  0.72687107  0.62833239  0.25648039  1
  O2-  O223  1  0.72398379  0.63586058  0.77172053  1
  O2-  O224  1  0.11487336  0.47344354  0.23634146  1
  O2-  O225  1  0.11769180  0.47419823  0.72675448  1
  O2-  O226  1  0.11198327  0.96906524  0.23908347  1
  O2-  O227  1  0.11435219  0.99138771  0.72329965  1
  O2-  O228  1  0.62854650  0.48894705  0.22816597  1
  O2-  O229  1  0.61293359  0.46688280  0.73143748  1
  O2-  O230  1  0.63278077  0.98482582  0.23228459  1
  O2-  O231  1  0.61389128  0.98954617  0.72052680  1
  O2-  O232  1  0.38539807  0.02272895  0.26316743  1
  O2-  O233  1  0.38254053  0.02782219  0.77378112  1
  O2-  O234  1  0.39065518  0.53405391  0.26064682  1
  O2-  O235  1  0.38851468  0.51023198  0.78247068  1
  O2-  O236  1  0.86699425  0.02455912  0.25903232  1
  O2-  O237  1  0.88553589  0.02720290  0.76188067  1
  O2-  O238  1  0.86422589  0.52661223  0.26160097  1
  O2-  O239  1  0.88470287  0.50892480  0.76513334  1
  O2-  O240  1  0.48020681  0.38639163  0.26248830  1
  O2-  O241  1  0.48028813  0.37104440  0.75550600  1
  O2-  O242  1  0.48999405  0.86873339  0.25856739  1
  O2-  O243  1  0.47346406  0.88327490  0.75815681  1
  O2-  O244  1  0.96240057  0.38864355  0.24711844  1
  O2-  O245  1  0.98288271  0.36754769  0.73613849  1
  O2-  O246  1  0.96263125  0.88624373  0.24567104  1
  O2-  O247  1  0.97963811  0.88345631  0.72575089  1
  O2-  O248  1  0.01504453  0.11576495  0.27565343  1
  O2-  O249  1  0.01549347  0.12922544  0.76164010  1
  O2-  O250  1  0.01259218  0.61253842  0.28308220  1
  O2-  O251  1  0.02001881  0.61226168  0.76244590  1
  O2-  O252  1  0.52898005  0.11408423  0.23258211  1
  O2-  O253  1  0.51671011  0.13325298  0.75126402  1
  O2-  O254  1  0.52712506  0.63054394  0.23809803  1
  O2-  O255  1  0.53151487  0.61290917  0.74651233  1
  O2-  O256  1  0.13649401  0.48549700  0.03196927  1
  O2-  O257  1  0.11841390  0.48470966  0.51821192  1
  O2-  O258  1  0.13308068  0.96709235  0.01719122  1
  O2-  O259  1  0.11597482  0.98151314  0.51190666  1
  O2-  O260  1  0.62499574  0.49102584  0.02251875  1
  O2-  O261  1  0.63798176  0.47699953  0.51368151  1
  O2-  O262  1  0.63477944  0.98765707  0.02471512  1
  O2-  O263  1  0.63768225  0.97518281  0.50843943  1
  O2-  O264  1  0.36347452  0.02334424  -0.01934366  1
  O2-  O265  1  0.36624379  0.02822819  0.48026750  1
  O2-  O266  1  0.38461485  0.51967873  -0.01623256  1
  O2-  O267  1  0.36784187  0.52243319  0.47335653  1
  O2-  O268  1  0.86287714  0.02477870  -0.01208079  1
  O2-  O269  1  0.87929366  0.01924730  0.48346786  1
  O2-  O270  1  0.86048278  0.52627113  -0.01469664  1
  O2-  O271  1  0.88118407  0.51727012  0.48386101  1
  O2-  O272  1  0.48798562  0.38058894  -0.00688938  1
  O2-  O273  1  0.47622901  0.36508466  0.49512637  1
  O2-  O274  1  0.48282784  0.86280831  -0.01547275  1
  O2-  O275  1  0.46944217  0.86507104  0.49582004  1
  O2-  O276  1  0.96054520  0.36658984  0.00013750  1
  O2-  O277  1  0.98227813  0.37609211  0.51622969  1
  O2-  O278  1  0.97949809  0.86525427  0.01894498  1
  O2-  O279  1  0.98112662  0.87731124  0.51394352  1
  O2-  O280  1  0.01279197  0.13850181  -0.02310232  1
  O2-  O281  1  0.01410194  0.12733850  0.49040870  1
  O2-  O282  1  0.01328270  0.63327794  -0.02224063  1
  O2-  O283  1  0.01580818  0.62262023  0.49012201  1
  O2-  O284  1  0.53093216  0.13883643  0.00399604  1
  O2-  O285  1  0.53792927  0.13224888  0.51114204  1
  O2-  O286  1  0.51642591  0.62249737  0.01919648  1
  O2-  O287  1  0.53633461  0.63329145  0.50432666  1
  O2-  O288  1  0.11317427  0.28342865  -0.02232509  1
  O2-  O289  1  0.10898085  0.27200255  0.48561211  1
  O2-  O290  1  0.12499801  0.76461594  -0.01415611  1
  O2-  O291  1  0.11266731  0.76879486  0.46999232  1
  O2-  O292  1  0.62837237  0.27572626  -0.01897792  1
  O2-  O293  1  0.61882252  0.27927249  0.48921240  1
  O2-  O294  1  0.62258151  0.76698113  -0.01126664  1
  O2-  O295  1  0.61707466  0.77617300  0.47331485  1
  O2-  O296  1  0.38772238  0.23202324  0.01447861  1
  O2-  O297  1  0.38668599  0.22755133  0.52729357  1
  O2-  O298  1  0.37609577  0.73339047  0.02019937  1
  O2-  O299  1  0.38788523  0.71847482  0.50839525  1
  O2-  O300  1  0.86456790  0.23172806  0.01453361  1
  O2-  O301  1  0.88514184  0.24012206  0.54200335  1
  O2-  O302  1  0.86596563  0.73187552  0.02012216  1
  O2-  O303  1  0.88426259  0.73182706  0.53313098  1
  O2-  O304  1  0.27025062  0.38612391  -0.02147956  1
  O2-  O305  1  0.26114659  0.38371709  0.47794794  1
  O2-  O306  1  0.26929567  0.86682059  -0.01611150  1
  O2-  O307  1  0.26192843  0.88443052  0.46734218  1
  O2-  O308  1  0.76272456  0.38038907  0.01750047  1
  O2-  O309  1  0.78013373  0.38676764  0.50662925  1
  O2-  O310  1  0.76663556  0.87510435  0.01520589  1
  O2-  O311  1  0.78145905  0.88725271  0.50803573  1
  O2-  O312  1  0.21935347  0.11783568  0.02699244  1
  O2-  O313  1  0.22294029  0.11529030  0.52017464  1
  O2-  O314  1  0.24013274  0.62837663  0.02076918  1
  O2-  O315  1  0.22749843  0.61673400  0.52355647  1
  O2-  O316  1  0.72792741  0.13056528  -0.01210669  1
  O2-  O317  1  0.74221518  0.11387316  0.46083607  1
  O2-  O318  1  0.72637163  0.62971928  -0.00617602  1
  O2-  O319  1  0.74225797  0.61401937  0.46414959  1
