# generated using pymatgen
data_Sr64Ca21Nb43O192
_symmetry_space_group_name_H-M   'P 1'
_cell_length_a   16.56592908
_cell_length_b   16.56860905
_cell_length_c   16.74876491
_cell_angle_alpha   89.92925971
_cell_angle_beta   90.01190242
_cell_angle_gamma   89.98574150
_symmetry_Int_Tables_number   1
_chemical_formula_structural   Sr64Ca21Nb43O192
_chemical_formula_sum   'Sr64 Ca21 Nb43 O192'
_cell_volume   4597.10349403
_cell_formula_units_Z   1
loop_
 _symmetry_equiv_pos_site_id
 _symmetry_equiv_pos_as_xyz
  1  'x, y, z'
loop_
 _atom_type_symbol
 _atom_type_oxidation_number
  Sr2+  2.0
  Ca2+  2.0
  Nb5+  5.0
  O2-  -2.0
loop_
 _atom_site_type_symbol
 _atom_site_label
 _atom_site_symmetry_multiplicity
 _atom_site_fract_x
 _atom_site_fract_y
 _atom_site_fract_z
 _atom_site_occupancy
  Sr2+  Sr0  1  0.11873434  0.11592746  0.11454882  1
  Sr2+  Sr1  1  0.11524019  0.10785318  0.62721280  1
  Sr2+  Sr2  1  0.11859120  0.62786616  0.12635237  1
  Sr2+  Sr3  1  0.11684834  0.61949818  0.63044159  1
  Sr2+  Sr4  1  0.61837917  0.11969234  0.12713362  1
  Sr2+  Sr5  1  0.62300763  0.11125565  0.63909458  1
  Sr2+  Sr6  1  0.62131451  0.61576153  0.12374637  1
  Sr2+  Sr7  1  0.62696472  0.62118969  0.61963380  1
  Sr2+  Sr8  1  0.37412050  0.36779319  0.12236264  1
  Sr2+  Sr9  1  0.36761275  0.36355388  0.61630123  1
  Sr2+  Sr10  1  0.36486499  0.86086066  0.12644705  1
  Sr2+  Sr11  1  0.36930250  0.86024117  0.61973231  1
  Sr2+  Sr12  1  0.86508925  0.36863816  0.12498859  1
  Sr2+  Sr13  1  0.86999014  0.37384045  0.63005744  1
  Sr2+  Sr14  1  0.86881445  0.86137101  0.12464141  1
  Sr2+  Sr15  1  0.86987423  0.86674299  0.61856166  1
  Sr2+  Sr16  1  0.13446260  0.37812080  0.37593366  1
  Sr2+  Sr17  1  0.13274633  0.38032029  0.87091622  1
  Sr2+  Sr18  1  0.12972827  0.88184667  0.37650859  1
  Sr2+  Sr19  1  0.14067404  0.88499652  0.86826847  1
  Sr2+  Sr20  1  0.63207772  0.37663158  0.37661542  1
  Sr2+  Sr21  1  0.62575098  0.38167099  0.87454326  1
  Sr2+  Sr22  1  0.62421076  0.88124543  0.37129590  1
  Sr2+  Sr23  1  0.63366523  0.87132586  0.87917518  1
  Sr2+  Sr24  1  0.38412554  0.13190335  0.38176832  1
  Sr2+  Sr25  1  0.36897610  0.12923182  0.86892777  1
  Sr2+  Sr26  1  0.38781691  0.62948464  0.36963880  1
  Sr2+  Sr27  1  0.38645864  0.62788078  0.87161989  1
  Sr2+  Sr28  1  0.88189945  0.13162740  0.38465774  1
  Sr2+  Sr29  1  0.88425303  0.13536498  0.86938982  1
  Sr2+  Sr30  1  0.89043613  0.63241233  0.37176241  1
  Sr2+  Sr31  1  0.88153434  0.63922577  0.87658681  1
  Sr2+  Sr32  1  0.12405047  0.13298201  0.37956430  1
  Sr2+  Sr33  1  0.12723483  0.13653423  0.87176590  1
  Sr2+  Sr34  1  0.13327397  0.63788659  0.37070390  1
  Sr2+  Sr35  1  0.13250505  0.62917592  0.86550015  1
  Sr2+  Sr36  1  0.62754166  0.12348007  0.37486836  1
  Sr2+  Sr37  1  0.63134503  0.13828778  0.87134212  1
  Sr2+  Sr38  1  0.63862037  0.63453302  0.37189535  1
  Sr2+  Sr39  1  0.62642191  0.64033696  0.87476471  1
  Sr2+  Sr40  1  0.38075477  0.37837388  0.37228049  1
  Sr2+  Sr41  1  0.37779254  0.38140926  0.86663252  1
  Sr2+  Sr42  1  0.38242701  0.88851112  0.38155612  1
  Sr2+  Sr43  1  0.38981567  0.87636404  0.87195097  1
  Sr2+  Sr44  1  0.87717814  0.38656820  0.37675541  1
  Sr2+  Sr45  1  0.87855673  0.37779746  0.87149804  1
  Sr2+  Sr46  1  0.87744985  0.88659186  0.37393019  1
  Sr2+  Sr47  1  0.87837001  0.88157941  0.87846065  1
  Sr2+  Sr48  1  0.10976644  0.36288070  0.12438290  1
  Sr2+  Sr49  1  0.10759202  0.37504629  0.62645924  1
  Sr2+  Sr50  1  0.11754930  0.86977357  0.12362627  1
  Sr2+  Sr51  1  0.11084825  0.86255519  0.62413671  1
  Sr2+  Sr52  1  0.61765095  0.36879806  0.12498953  1
  Sr2+  Sr53  1  0.61640192  0.36910540  0.62486590  1
  Sr2+  Sr54  1  0.61975770  0.86815533  0.12913570  1
  Sr2+  Sr55  1  0.61032125  0.86730646  0.62080435  1
  Sr2+  Sr56  1  0.36143782  0.11939875  0.12121087  1
  Sr2+  Sr57  1  0.36217577  0.11256168  0.62579017  1
  Sr2+  Sr58  1  0.36724483  0.61502022  0.12234826  1
  Sr2+  Sr59  1  0.35651537  0.62428929  0.61783185  1
  Sr2+  Sr60  1  0.86678269  0.11674142  0.12490147  1
  Sr2+  Sr61  1  0.87687136  0.11860571  0.63839869  1
  Sr2+  Sr62  1  0.87248347  0.61737464  0.12455746  1
  Sr2+  Sr63  1  0.88311329  0.62608856  0.62415232  1
  Ca2+  Ca64  1  0.50050612  0.00389026  0.00235477  1
  Ca2+  Ca65  1  0.00239471  0.50230465  0.00023830  1
  Ca2+  Ca66  1  -0.00114760  0.00066538  0.00024705  1
  Ca2+  Ca67  1  0.50108181  0.49945397  0.49715211  1
  Ca2+  Ca68  1  0.00202555  0.49939157  0.49705399  1
  Ca2+  Ca69  1  0.24932189  0.74893669  0.49796769  1
  Ca2+  Ca70  1  0.75325654  0.24885021  0.49930203  1
  Ca2+  Ca71  1  0.75136117  0.75113104  0.49613583  1
  Ca2+  Ca72  1  0.24752318  0.24853562  0.49826289  1
  Ca2+  Ca73  1  0.24954351  0.74627925  -0.00210531  1
  Ca2+  Ca74  1  0.74906602  -0.00320910  0.75396562  1
  Ca2+  Ca75  1  0.25095172  0.00229917  0.25103283  1
  Ca2+  Ca76  1  0.49965319  0.24978763  0.75142284  1
  Ca2+  Ca77  1  0.49882103  0.74891549  0.24951678  1
  Ca2+  Ca78  1  -0.00239277  0.75105659  0.75231610  1
  Ca2+  Ca79  1  0.50099455  0.74692310  0.74577101  1
  Ca2+  Ca80  1  -0.00159027  0.75313472  0.25084735  1
  Ca2+  Ca81  1  0.74666770  0.50482682  0.75339466  1
  Ca2+  Ca82  1  -0.00572275  0.24989677  0.25266648  1
  Ca2+  Ca83  1  0.25136234  -0.00214407  0.74730593  1
  Ca2+  Ca84  1  0.00284530  0.24936938  0.74836999  1
  Nb5+  Nb85  1  0.50012003  0.49861935  -0.00121788  1
  Nb5+  Nb86  1  0.49657948  0.00409852  0.50181448  1
  Nb5+  Nb87  1  -0.00624013  -0.00114229  0.50065209  1
  Nb5+  Nb88  1  0.74337897  0.24700432  0.00093867  1
  Nb5+  Nb89  1  0.74877840  0.74318723  0.00354709  1
  Nb5+  Nb90  1  0.24523879  0.25365048  0.00026082  1
  Nb5+  Nb91  1  0.25152670  0.49683939  0.74060654  1
  Nb5+  Nb92  1  0.25478665  0.49766730  0.24378288  1
  Nb5+  Nb93  1  0.49841212  0.24987808  0.24884133  1
  Nb5+  Nb94  1  0.74995697  0.00247148  0.24999861  1
  Nb5+  Nb95  1  0.75268867  0.50203666  0.25033195  1
  Nb5+  Nb96  1  0.00155604  0.00145232  0.25009114  1
  Nb5+  Nb97  1  0.00022311  -0.00682861  0.75598109  1
  Nb5+  Nb98  1  0.01050592  0.49654858  0.24933641  1
  Nb5+  Nb99  1  -0.00540363  0.50154360  0.75470151  1
  Nb5+  Nb100  1  0.49647570  0.00244088  0.24795705  1
  Nb5+  Nb101  1  0.50268517  -0.00360903  0.75627679  1
  Nb5+  Nb102  1  0.50632536  0.49753448  0.24879741  1
  Nb5+  Nb103  1  0.49687615  0.50265081  0.73935733  1
  Nb5+  Nb104  1  0.24608812  0.24927390  0.24709269  1
  Nb5+  Nb105  1  0.24566791  0.25135401  0.74147928  1
  Nb5+  Nb106  1  0.25356790  0.75462485  0.25324130  1
  Nb5+  Nb107  1  0.25268982  0.75250304  0.75426059  1
  Nb5+  Nb108  1  0.74919705  0.25088493  0.24906916  1
  Nb5+  Nb109  1  0.74761338  0.25274901  0.74581599  1
  Nb5+  Nb110  1  0.75258422  0.75304825  0.25021984  1
  Nb5+  Nb111  1  0.74607209  0.75077601  0.74441585  1
  Nb5+  Nb112  1  -0.00206593  0.25302801  0.50330266  1
  Nb5+  Nb113  1  -0.01151364  0.24966137  1.00373022  1
  Nb5+  Nb114  1  0.00144018  0.74740342  0.49662151  1
  Nb5+  Nb115  1  0.00757328  0.75685301  0.99634848  1
  Nb5+  Nb116  1  0.50485545  0.24691289  0.50613096  1
  Nb5+  Nb117  1  0.49533852  0.25011357  1.00075053  1
  Nb5+  Nb118  1  0.50405660  0.74437433  0.49414613  1
  Nb5+  Nb119  1  0.49719675  0.75234473  1.00629279  1
  Nb5+  Nb120  1  0.25556148  -0.00548052  -0.00232527  1
  Nb5+  Nb121  1  0.24087890  -0.00213457  0.50154328  1
  Nb5+  Nb122  1  0.24771411  0.49611278  -0.00298593  1
  Nb5+  Nb123  1  0.24971958  0.50044130  0.48807045  1
  Nb5+  Nb124  1  0.74629146  -0.00502505  0.00038456  1
  Nb5+  Nb125  1  0.74635461  0.00142401  0.50239664  1
  Nb5+  Nb126  1  0.74878399  0.49777683  -0.00043750  1
  Nb5+  Nb127  1  0.75398336  0.50120646  0.50591438  1
  O2-  O128  1  -0.01125933  0.02859042  0.13808094  1
  O2-  O129  1  -0.01333932  0.01760282  0.61810370  1
  O2-  O130  1  -0.00369006  0.53212778  0.13548326  1
  O2-  O131  1  -0.00771047  0.52167718  0.63383907  1
  O2-  O132  1  0.48860000  0.03360327  0.13737504  1
  O2-  O133  1  0.49137574  0.02724776  0.61420860  1
  O2-  O134  1  0.48393899  0.51245175  0.12864959  1
  O2-  O135  1  0.48436572  0.53539230  0.63175245  1
  O2-  O136  1  0.00928413  -0.02323184  0.38060542  1
  O2-  O137  1  0.01390678  -0.03169920  0.86734468  1
  O2-  O138  1  0.00940683  0.46422851  0.36314806  1
  O2-  O139  1  0.02051857  0.47618850  0.86749916  1
  O2-  O140  1  0.51970231  -0.00803499  0.37253681  1
  O2-  O141  1  0.51563556  -0.03028703  0.86755328  1
  O2-  O142  1  0.50860131  0.46771682  0.36113646  1
  O2-  O143  1  0.50601931  0.47493344  0.88602606  1
  O2-  O144  1  0.24494989  0.27970076  0.12382523  1
  O2-  O145  1  0.23416997  0.28383140  0.63343011  1
  O2-  O146  1  0.23080567  0.76901027  0.13437568  1
  O2-  O147  1  0.23372152  0.76539361  0.63723993  1
  O2-  O148  1  0.73038743  0.26426708  0.11997655  1
  O2-  O149  1  0.72582541  0.26132768  0.63363591  1
  O2-  O150  1  0.73001969  0.76273696  0.12297772  1
  O2-  O151  1  0.73202368  0.76585887  0.63219389  1
  O2-  O152  1  0.27225660  0.23173232  0.35823063  1
  O2-  O153  1  0.26565815  0.23820598  0.88613302  1
  O2-  O154  1  0.26667292  0.71464144  0.36399431  1
  O2-  O155  1  0.26375895  0.71242347  0.86771421  1
  O2-  O156  1  0.76894145  0.24807397  0.35973741  1
  O2-  O157  1  0.77088586  0.24358053  0.88767854  1
  O2-  O158  1  0.77460147  0.73599058  0.36103562  1
  O2-  O159  1  0.75922868  0.73776683  0.88721645  1
  O2-  O160  1  0.02348408  0.23148282  0.11618718  1
  O2-  O161  1  0.03611657  0.23320666  0.61499158  1
  O2-  O162  1  0.02095684  0.74309248  0.11534050  1
  O2-  O163  1  0.02176666  0.73580131  0.61605833  1
  O2-  O164  1  0.52232760  0.24193583  0.12412944  1
  O2-  O165  1  0.53235655  0.23365350  0.61593234  1
  O2-  O166  1  0.52923215  0.73248702  0.11748587  1
  O2-  O167  1  0.53166846  0.73801021  0.61166486  1
  O2-  O168  1  0.23219550  0.02404422  0.38541775  1
  O2-  O169  1  0.22973657  0.02490554  0.88469150  1
  O2-  O170  1  0.23097319  0.51093494  0.37230965  1
  O2-  O171  1  0.23641645  0.50808692  0.88280510  1
  O2-  O172  1  0.73003347  -0.00568147  0.36567101  1
  O2-  O173  1  0.71611765  0.00416092  0.89043417  1
  O2-  O174  1  0.72435008  0.50196983  0.36316889  1
  O2-  O175  1  0.71726868  0.50727139  0.89000092  1
  O2-  O176  1  -0.03602504  0.26106735  0.38662302  1
  O2-  O177  1  -0.02115270  0.26656893  0.88685442  1
  O2-  O178  1  -0.02960025  0.76941107  0.38387102  1
  O2-  O179  1  -0.03424531  0.76371578  0.88581650  1
  O2-  O180  1  0.48012506  0.26270727  0.36376142  1
  O2-  O181  1  0.48401674  0.27211640  0.88859170  1
  O2-  O182  1  0.47326953  0.77035488  0.38130809  1
  O2-  O183  1  0.48703106  0.75830591  0.88810093  1
  O2-  O184  1  0.27852477  -0.01420430  0.11627782  1
  O2-  O185  1  0.27723290  -0.02012893  0.61346953  1
  O2-  O186  1  0.27080380  0.48095481  0.13038384  1
  O2-  O187  1  0.27416382  0.48306283  0.62955887  1
  O2-  O188  1  0.77174291  -0.00608993  0.13125010  1
  O2-  O189  1  0.76704153  0.01021368  0.61426845  1
  O2-  O190  1  0.76100414  0.49456710  0.12588994  1
  O2-  O191  1  0.78013788  0.50444882  0.61762886  1
  O2-  O192  1  0.13405565  0.26988072  0.26356851  1
  O2-  O193  1  0.13571217  0.26421169  0.78226051  1
  O2-  O194  1  0.13444220  0.76234959  0.27213113  1
  O2-  O195  1  0.13394655  0.76353216  0.77524159  1
  O2-  O196  1  0.62474277  0.26813515  0.25876573  1
  O2-  O197  1  0.63396301  0.27127874  0.78045049  1
  O2-  O198  1  0.63540325  0.76265059  0.26803598  1
  O2-  O199  1  0.63178730  0.77617959  0.77346634  1
  O2-  O200  1  0.38192929  0.23885235  0.22460231  1
  O2-  O201  1  0.36333680  0.23509725  0.74246258  1
  O2-  O202  1  0.36594627  0.72409760  0.22380743  1
  O2-  O203  1  0.36692411  0.72310455  0.73212092  1
  O2-  O204  1  0.85983623  0.23825089  0.21653443  1
  O2-  O205  1  0.86588724  0.22995286  0.73980385  1
  O2-  O206  1  0.86425121  0.73075246  0.21887155  1
  O2-  O207  1  0.86066726  0.71374254  0.74235476  1
  O2-  O208  1  0.26648543  0.37710674  0.26752338  1
  O2-  O209  1  0.26340060  0.37792046  0.77191718  1
  O2-  O210  1  0.27767948  0.86576716  0.27247235  1
  O2-  O211  1  0.27452590  0.86406337  0.77911395  1
  O2-  O212  1  0.75837480  0.37651635  0.25063555  1
  O2-  O213  1  0.77359160  0.36906952  0.76257502  1
  O2-  O214  1  0.76401666  0.87419913  0.25213943  1
  O2-  O215  1  0.77787808  0.86361646  0.76829046  1
  O2-  O216  1  0.23490640  0.13778592  0.21768379  1
  O2-  O217  1  0.23062098  0.13603070  0.72854853  1
  O2-  O218  1  0.23055743  0.61223578  0.23134687  1
  O2-  O219  1  0.23164206  0.61375803  0.73372073  1
  O2-  O220  1  0.72936065  0.12592978  0.24058493  1
  O2-  O221  1  0.72772672  0.13431298  0.75342642  1
  O2-  O222  1  0.73153392  0.62097872  0.23707233  1
  O2-  O223  1  0.71015006  0.63482455  0.74658027  1
  O2-  O224  1  0.12735789  0.47707349  0.23664411  1
  O2-  O225  1  0.13381893  0.47901802  0.73729344  1
  O2-  O226  1  0.11450359  0.97559797  0.23976158  1
  O2-  O227  1  0.11684823  0.97409424  0.72862829  1
  O2-  O228  1  0.62193315  0.48429869  0.22854640  1
  O2-  O229  1  0.61032869  0.47532528  0.73330871  1
  O2-  O230  1  0.62669468  0.98953767  0.23430876  1
  O2-  O231  1  0.61580410  0.97876174  0.72054570  1
  O2-  O232  1  0.38637589  0.02395454  0.27451578  1
  O2-  O233  1  0.38651943  0.02673968  0.76065937  1
  O2-  O234  1  0.37216192  0.51100321  0.26401811  1
  O2-  O235  1  0.37001217  0.51344852  0.77225783  1
  O2-  O236  1  0.86521747  0.02317331  0.26988553  1
  O2-  O237  1  0.88315966  0.02223020  0.76960693  1
  O2-  O238  1  0.86759781  0.51365496  0.26283784  1
  O2-  O239  1  0.88261559  0.51731450  0.77891186  1
  O2-  O240  1  0.48869843  0.37189427  0.22820703  1
  O2-  O241  1  0.47068341  0.38588896  0.72979657  1
  O2-  O242  1  0.48538252  0.88841052  0.22942474  1
  O2-  O243  1  0.47388353  0.88443360  0.72382555  1
  O2-  O244  1  0.97898097  0.38558965  0.21957822  1
  O2-  O245  1  0.98582340  0.38384926  0.72706870  1
  O2-  O246  1  0.96431303  0.88939739  0.23930968  1
  O2-  O247  1  0.97301628  0.88262332  0.72243240  1
  O2-  O248  1  0.00798268  0.11507648  0.28341967  1
  O2-  O249  1  0.02190805  0.11251286  0.76222407  1
  O2-  O250  1  0.01272126  0.61307448  0.27900048  1
  O2-  O251  1  0.02553002  0.61577444  0.76559486  1
  O2-  O252  1  0.52149698  0.13340752  0.26336858  1
  O2-  O253  1  0.52859653  0.11494758  0.76476665  1
  O2-  O254  1  0.51578890  0.61102012  0.26947795  1
  O2-  O255  1  0.51167009  0.61047042  0.78363160  1
  O2-  O256  1  0.13902043  0.46761056  0.01815563  1
  O2-  O257  1  0.13749134  0.46750599  0.51199446  1
  O2-  O258  1  0.13789991  0.98715226  0.02431572  1
  O2-  O259  1  0.12477988  0.97994234  0.51625307  1
  O2-  O260  1  0.62094929  0.48580428  0.02438676  1
  O2-  O261  1  0.63590461  0.47272169  0.51797881  1
  O2-  O262  1  0.63461361  0.98825796  0.03813955  1
  O2-  O263  1  0.62782684  0.99024957  0.51209534  1
  O2-  O264  1  0.36803477  0.03418393  -0.01658172  1
  O2-  O265  1  0.38197118  0.01701752  0.48101645  1
  O2-  O266  1  0.37929970  0.51200989  -0.00667347  1
  O2-  O267  1  0.36676570  0.52828152  0.48186848  1
  O2-  O268  1  0.85917510  0.02828649  -0.01240606  1
  O2-  O269  1  0.87794350  0.01263835  0.48234424  1
  O2-  O270  1  0.86106720  0.52265792  -0.01287935  1
  O2-  O271  1  0.86533957  0.52260786  0.46813893  1
  O2-  O272  1  0.49292534  0.37579251  0.02402435  1
  O2-  O273  1  0.48420915  0.36236242  0.51626734  1
  O2-  O274  1  0.48152556  0.86653473  0.02326884  1
  O2-  O275  1  0.48809687  0.88643826  0.51252414  1
  O2-  O276  1  0.98159968  0.36666699  0.02400666  1
  O2-  O277  1  0.98001615  0.36517633  0.52558365  1
  O2-  O278  1  0.96875954  0.86905630  0.01818217  1
  O2-  O279  1  0.98493577  0.87982395  0.51934956  1
  O2-  O280  1  0.02000714  0.13600120  -0.02144557  1
  O2-  O281  1  0.01845683  0.11532233  0.48339577  1
  O2-  O282  1  0.02370776  0.63820853  -0.01862143  1
  O2-  O283  1  0.01882714  0.63389465  0.47489069  1
  O2-  O284  1  0.52716665  0.13999318  -0.01321482  1
  O2-  O285  1  0.51672235  0.12349066  0.47567915  1
  O2-  O286  1  0.51780509  0.61611299  -0.01055678  1
  O2-  O287  1  0.52233320  0.63328412  0.46998844  1
  O2-  O288  1  0.13188584  0.27407611  -0.01106688  1
  O2-  O289  1  0.11391915  0.25978336  0.46469367  1
  O2-  O290  1  0.11723806  0.78685678  -0.02132175  1
  O2-  O291  1  0.11597729  0.77602344  0.47861555  1
  O2-  O292  1  0.62998173  0.27322690  -0.01579875  1
  O2-  O293  1  0.61610752  0.25966791  0.46689438  1
  O2-  O294  1  0.62664090  0.76492708  -0.01311530  1
  O2-  O295  1  0.61721516  0.77822178  0.47392403  1
  O2-  O296  1  0.38101579  0.23662872  0.02074504  1
  O2-  O297  1  0.38757442  0.22334546  0.51436335  1
  O2-  O298  1  0.38497037  0.72599588  0.02223443  1
  O2-  O299  1  0.38710984  0.74012279  0.52372619  1
  O2-  O300  1  0.87208264  0.23349698  0.02281541  1
  O2-  O301  1  0.88630356  0.21871610  0.52923073  1
  O2-  O302  1  0.86466343  0.72935259  0.02159058  1
  O2-  O303  1  0.88367321  0.73813158  0.52592809  1
  O2-  O304  1  0.28102365  0.37450641  -0.01074953  1
  O2-  O305  1  0.28098855  0.38357364  0.48333544  1
  O2-  O306  1  0.27764863  0.88340448  -0.02462534  1
  O2-  O307  1  0.26691157  0.88453545  0.47388890  1
  O2-  O308  1  0.76606653  0.37910895  -0.00435412  1
  O2-  O309  1  0.77530322  0.38361747  0.48930325  1
  O2-  O310  1  0.76421521  0.87658299  -0.00487353  1
  O2-  O311  1  0.77107498  0.88777076  0.48781013  1
  O2-  O312  1  0.23676999  0.13861797  0.02231997  1
  O2-  O313  1  0.23585058  0.11513962  0.52726194  1
  O2-  O314  1  0.23691353  0.60828303  0.02609844  1
  O2-  O315  1  0.22654419  0.61167594  0.52318406  1
  O2-  O316  1  0.72799439  0.13146224  0.01331886  1
  O2-  O317  1  0.74374366  0.11464691  0.47490235  1
  O2-  O318  1  0.72750185  0.62578503  0.01560324  1
  O2-  O319  1  0.72081387  0.61631116  0.49832251  1
