# generated using pymatgen
data_Sr64Ca21Nb43O192
_symmetry_space_group_name_H-M   'P 1'
_cell_length_a   16.58794465
_cell_length_b   16.57263331
_cell_length_c   16.72249543
_cell_angle_alpha   90.02910722
_cell_angle_beta   90.00552094
_cell_angle_gamma   90.08117086
_symmetry_Int_Tables_number   1
_chemical_formula_structural   Sr64Ca21Nb43O192
_chemical_formula_sum   'Sr64 Ca21 Nb43 O192'
_cell_volume   4597.10782795
_cell_formula_units_Z   1
loop_
 _symmetry_equiv_pos_site_id
 _symmetry_equiv_pos_as_xyz
  1  'x, y, z'
loop_
 _atom_type_symbol
 _atom_type_oxidation_number
  Sr2+  2.0
  Ca2+  2.0
  Nb5+  5.0
  O2-  -2.0
loop_
 _atom_site_type_symbol
 _atom_site_label
 _atom_site_symmetry_multiplicity
 _atom_site_fract_x
 _atom_site_fract_y
 _atom_site_fract_z
 _atom_site_occupancy
  Sr2+  Sr0  1  0.11895498  0.12400188  0.12298550  1
  Sr2+  Sr1  1  0.12287468  0.12887631  0.62977682  1
  Sr2+  Sr2  1  0.14024447  0.61356559  0.13641981  1
  Sr2+  Sr3  1  0.12882774  0.62769128  0.62999806  1
  Sr2+  Sr4  1  0.63046183  0.13867835  0.12291369  1
  Sr2+  Sr5  1  0.63622399  0.12167303  0.62553270  1
  Sr2+  Sr6  1  0.63413848  0.60375631  0.12606992  1
  Sr2+  Sr7  1  0.63070204  0.61158736  0.62369341  1
  Sr2+  Sr8  1  0.37238230  0.36600139  0.12931557  1
  Sr2+  Sr9  1  0.37384644  0.38084819  0.61896314  1
  Sr2+  Sr10  1  0.38164421  0.88965253  0.13156620  1
  Sr2+  Sr11  1  0.38759350  0.87999560  0.63030778  1
  Sr2+  Sr12  1  0.87488541  0.38447238  0.13033946  1
  Sr2+  Sr13  1  0.87114275  0.38902916  0.63060624  1
  Sr2+  Sr14  1  0.86630905  0.87814723  0.12119134  1
  Sr2+  Sr15  1  0.86929908  0.88577006  0.62248245  1
  Sr2+  Sr16  1  0.13114762  0.36875506  0.37363137  1
  Sr2+  Sr17  1  0.12615713  0.37706997  0.89017885  1
  Sr2+  Sr18  1  0.13071366  0.87619886  0.37308609  1
  Sr2+  Sr19  1  0.13898428  0.86931616  0.86936143  1
  Sr2+  Sr20  1  0.60963185  0.38705094  0.37256754  1
  Sr2+  Sr21  1  0.61424612  0.38754486  0.88126952  1
  Sr2+  Sr22  1  0.61568186  0.86612365  0.36901731  1
  Sr2+  Sr23  1  0.62143823  0.87175789  0.87476664  1
  Sr2+  Sr24  1  0.36362603  0.13206840  0.37801124  1
  Sr2+  Sr25  1  0.37884089  0.11794084  0.88672582  1
  Sr2+  Sr26  1  0.35985027  0.62565271  0.37576547  1
  Sr2+  Sr27  1  0.38674069  0.62945259  0.87094898  1
  Sr2+  Sr28  1  0.87763313  0.12449047  0.36851162  1
  Sr2+  Sr29  1  0.87733466  0.12540729  0.87488450  1
  Sr2+  Sr30  1  0.88080463  0.63534049  0.36821665  1
  Sr2+  Sr31  1  0.88482167  0.63425457  0.87518218  1
  Sr2+  Sr32  1  0.12032468  0.11542665  0.37766130  1
  Sr2+  Sr33  1  0.12457787  0.14395291  0.87944451  1
  Sr2+  Sr34  1  0.12481264  0.65256683  0.37616250  1
  Sr2+  Sr35  1  0.12740287  0.61263547  0.87668585  1
  Sr2+  Sr36  1  0.62758644  0.13387324  0.36038376  1
  Sr2+  Sr37  1  0.62408468  0.12276936  0.88204099  1
  Sr2+  Sr38  1  0.62751489  0.62418289  0.37110812  1
  Sr2+  Sr39  1  0.62904000  0.63048034  0.87820593  1
  Sr2+  Sr40  1  0.36907537  0.37968263  0.38045692  1
  Sr2+  Sr41  1  0.35581465  0.38891322  0.87469654  1
  Sr2+  Sr42  1  0.36337267  0.86501722  0.36736280  1
  Sr2+  Sr43  1  0.37764984  0.86785992  0.88101715  1
  Sr2+  Sr44  1  0.88327707  0.38417708  0.36994959  1
  Sr2+  Sr45  1  0.88876900  0.39375144  0.87766376  1
  Sr2+  Sr46  1  0.87674979  0.87660275  0.37684479  1
  Sr2+  Sr47  1  0.87303381  0.87429256  0.87559608  1
  Sr2+  Sr48  1  0.12298515  0.36591663  0.12902346  1
  Sr2+  Sr49  1  0.13446318  0.36686106  0.62932416  1
  Sr2+  Sr50  1  0.14711065  0.88019059  0.12674098  1
  Sr2+  Sr51  1  0.13502032  0.88603138  0.62424517  1
  Sr2+  Sr52  1  0.62830629  0.36770979  0.12569805  1
  Sr2+  Sr53  1  0.61017458  0.37718611  0.62172421  1
  Sr2+  Sr54  1  0.62525319  0.87493974  0.12709156  1
  Sr2+  Sr55  1  0.63286543  0.87455519  0.62242974  1
  Sr2+  Sr56  1  0.39704207  0.12316001  0.12239293  1
  Sr2+  Sr57  1  0.37864337  0.13514618  0.62495376  1
  Sr2+  Sr58  1  0.37610566  0.61755835  0.13201312  1
  Sr2+  Sr59  1  0.38483811  0.62058967  0.62493103  1
  Sr2+  Sr60  1  0.86283880  0.13430344  0.12774322  1
  Sr2+  Sr61  1  0.87626519  0.12513001  0.62847738  1
  Sr2+  Sr62  1  0.87274665  0.62368734  0.11557039  1
  Sr2+  Sr63  1  0.87129264  0.62996756  0.61420494  1
  Ca2+  Ca64  1  0.00280610  0.50378611  0.00394246  1
  Ca2+  Ca65  1  -0.00052525  0.50072693  0.49944575  1
  Ca2+  Ca66  1  0.50383032  0.00035334  0.50029324  1
  Ca2+  Ca67  1  0.49644341  0.50314806  0.00052763  1
  Ca2+  Ca68  1  0.00050309  -0.00397539  -0.00282917  1
  Ca2+  Ca69  1  0.25211090  0.74608681  0.00075787  1
  Ca2+  Ca70  1  0.25393854  0.24763916  0.00107823  1
  Ca2+  Ca71  1  0.75352354  0.25108967  -0.00573572  1
  Ca2+  Ca72  1  0.75315316  0.24951183  0.49988464  1
  Ca2+  Ca73  1  0.25168005  0.75202089  0.50491173  1
  Ca2+  Ca74  1  0.75173108  -0.00137576  0.25050727  1
  Ca2+  Ca75  1  0.50037305  0.25031183  0.75365889  1
  Ca2+  Ca76  1  0.24918176  0.49675073  0.25624282  1
  Ca2+  Ca77  1  0.25083456  0.00105195  0.75062510  1
  Ca2+  Ca78  1  0.49757085  0.25186611  0.25182903  1
  Ca2+  Ca79  1  0.50113813  0.74807156  0.24878044  1
  Ca2+  Ca80  1  -0.00141955  0.75256894  0.24395000  1
  Ca2+  Ca81  1  0.75107948  0.50066675  0.25395856  1
  Ca2+  Ca82  1  0.74944157  0.50145124  0.75346990  1
  Ca2+  Ca83  1  0.24672223  0.50216785  0.74703258  1
  Ca2+  Ca84  1  0.25149541  0.00516669  0.24934047  1
  Nb5+  Nb85  1  0.49930453  0.50402761  0.49818377  1
  Nb5+  Nb86  1  0.50604733  -0.00220217  0.00177445  1
  Nb5+  Nb87  1  -0.00122960  -0.00023745  0.50087209  1
  Nb5+  Nb88  1  0.74931195  0.74995447  -0.00450431  1
  Nb5+  Nb89  1  0.24901897  0.24831004  0.50100414  1
  Nb5+  Nb90  1  0.74851567  0.75102429  0.49424632  1
  Nb5+  Nb91  1  -0.00328587  0.25736380  0.75304025  1
  Nb5+  Nb92  1  -0.00006124  0.24868063  0.25563758  1
  Nb5+  Nb93  1  0.50852673  0.75208785  0.74706435  1
  Nb5+  Nb94  1  0.74852406  0.00038678  0.75139636  1
  Nb5+  Nb95  1  0.00158565  0.76033843  0.74607195  1
  Nb5+  Nb96  1  -0.00044269  -0.00252241  0.24345464  1
  Nb5+  Nb97  1  -0.00010634  0.00211009  0.75095483  1
  Nb5+  Nb98  1  0.00278827  0.50426478  0.25542141  1
  Nb5+  Nb99  1  -0.00050929  0.51211031  0.74683500  1
  Nb5+  Nb100  1  0.50125243  0.00492486  0.26142735  1
  Nb5+  Nb101  1  0.50302549  0.00323507  0.74789161  1
  Nb5+  Nb102  1  0.49609516  0.49759031  0.24363377  1
  Nb5+  Nb103  1  0.49849353  0.49888080  0.75189294  1
  Nb5+  Nb104  1  0.25038990  0.24401436  0.24672250  1
  Nb5+  Nb105  1  0.25231822  0.24679200  0.75258185  1
  Nb5+  Nb106  1  0.25053423  0.74963332  0.24766228  1
  Nb5+  Nb107  1  0.26013215  0.74686756  0.74590016  1
  Nb5+  Nb108  1  0.74972142  0.25446527  0.25363335  1
  Nb5+  Nb109  1  0.74908487  0.25646262  0.75313557  1
  Nb5+  Nb110  1  0.75033188  0.75102983  0.24150554  1
  Nb5+  Nb111  1  0.75399518  0.74959074  0.74558484  1
  Nb5+  Nb112  1  -0.00437345  0.24950816  0.50564607  1
  Nb5+  Nb113  1  -0.00152343  0.24796757  1.00764928  1
  Nb5+  Nb114  1  0.00058859  0.75476171  0.50221878  1
  Nb5+  Nb115  1  0.00560244  0.75216958  1.00217143  1
  Nb5+  Nb116  1  0.50407039  0.24842970  0.50248567  1
  Nb5+  Nb117  1  0.49872577  0.25851573  0.99293084  1
  Nb5+  Nb118  1  0.49777669  0.74956682  0.49768132  1
  Nb5+  Nb119  1  0.50246860  0.75188340  1.00448149  1
  Nb5+  Nb120  1  0.24577702  -0.00421204  -0.00453358  1
  Nb5+  Nb121  1  0.25829766  -0.00033267  0.50547280  1
  Nb5+  Nb122  1  0.25038368  0.50123709  0.00526251  1
  Nb5+  Nb123  1  0.24129503  0.50205949  0.50258736  1
  Nb5+  Nb124  1  0.74985791  0.00018660  0.00195054  1
  Nb5+  Nb125  1  0.74841331  0.00005916  0.49534249  1
  Nb5+  Nb126  1  0.75131284  0.49551528  -0.00303892  1
  Nb5+  Nb127  1  0.75338890  0.49842981  0.49711581  1
  O2-  O128  1  0.02632165  -0.00212780  0.13284017  1
  O2-  O129  1  0.00494770  0.00535598  0.62608101  1
  O2-  O130  1  -0.02863973  0.50946579  0.13856637  1
  O2-  O131  1  -0.03859464  0.50961253  0.63397268  1
  O2-  O132  1  0.51451400  -0.02309504  0.11572077  1
  O2-  O133  1  0.51851122  -0.02716640  0.63526883  1
  O2-  O134  1  0.47159375  0.47810370  0.13281335  1
  O2-  O135  1  0.48169943  0.49012222  0.62386519  1
  O2-  O136  1  -0.02156822  -0.00146479  0.38469822  1
  O2-  O137  1  -0.02831375  -0.00783138  0.86183820  1
  O2-  O138  1  0.01883876  0.46702470  0.36833884  1
  O2-  O139  1  0.02685737  0.48756646  0.86096464  1
  O2-  O140  1  0.48994266  0.03804975  0.36984053  1
  O2-  O141  1  0.49732872  0.01221890  0.87020650  1
  O2-  O142  1  0.52063079  0.51769574  0.38386656  1
  O2-  O143  1  0.51982932  0.52571599  0.86380136  1
  O2-  O144  1  0.22787016  0.23213190  0.13507668  1
  O2-  O145  1  0.23844945  0.22950815  0.62179589  1
  O2-  O146  1  0.25914658  0.71917003  0.13418187  1
  O2-  O147  1  0.25286653  0.71573731  0.63203590  1
  O2-  O148  1  0.75020930  0.25646390  0.13197427  1
  O2-  O149  1  0.74998825  0.23469120  0.63719787  1
  O2-  O150  1  0.74970247  0.75861089  0.12037682  1
  O2-  O151  1  0.75474782  0.75266467  0.62672721  1
  O2-  O152  1  0.25768226  0.26656336  0.38394544  1
  O2-  O153  1  0.24677281  0.27224484  0.86439373  1
  O2-  O154  1  0.23913850  0.77035564  0.37147285  1
  O2-  O155  1  0.25121635  0.76954477  0.86270528  1
  O2-  O156  1  0.76735076  0.23348758  0.36765479  1
  O2-  O157  1  0.75656570  0.21938868  0.86204458  1
  O2-  O158  1  0.74727124  0.75143047  0.37728969  1
  O2-  O159  1  0.74766536  0.75103878  0.87275529  1
  O2-  O160  1  0.00654416  0.24140973  0.12554249  1
  O2-  O161  1  0.00546263  0.23841364  0.62442762  1
  O2-  O162  1  0.00125760  0.72279607  0.11141388  1
  O2-  O163  1  -0.01723012  0.74424628  0.62636456  1
  O2-  O164  1  0.50520933  0.27050992  0.11403949  1
  O2-  O165  1  0.49050641  0.27769367  0.61831565  1
  O2-  O166  1  0.49360403  0.78056500  0.11399567  1
  O2-  O167  1  0.49856747  0.76931492  0.62592761  1
  O2-  O168  1  0.25803998  -0.01874219  0.38902595  1
  O2-  O169  1  0.27064104  -0.03143834  0.88033303  1
  O2-  O170  1  0.24590947  0.46807633  0.39061193  1
  O2-  O171  1  0.23375691  0.48342390  0.88244380  1
  O2-  O172  1  0.77724315  0.00015974  0.38516277  1
  O2-  O173  1  0.76455657  -0.00012124  0.87054699  1
  O2-  O174  1  0.71513166  0.49988469  0.38703062  1
  O2-  O175  1  0.71465015  0.50443805  0.88450337  1
  O2-  O176  1  -0.00584979  0.25286862  0.37592162  1
  O2-  O177  1  -0.00454441  0.25597304  0.86976861  1
  O2-  O178  1  -0.00351487  0.76415826  0.38565780  1
  O2-  O179  1  -0.00528486  0.76859476  0.86244937  1
  O2-  O180  1  0.48360424  0.23111342  0.38875563  1
  O2-  O181  1  0.50199502  0.21455742  0.88340255  1
  O2-  O182  1  0.51992868  0.73178910  0.38667320  1
  O2-  O183  1  0.51245170  0.73638735  0.86595204  1
  O2-  O184  1  0.23041501  0.02127869  0.11290064  1
  O2-  O185  1  0.22117574  0.01821209  0.61538646  1
  O2-  O186  1  0.26818052  0.51449503  0.12212777  1
  O2-  O187  1  0.27749576  0.51225661  0.61291034  1
  O2-  O188  1  0.73644569  -0.02000510  0.11454518  1
  O2-  O189  1  0.73753802  -0.00756719  0.62720550  1
  O2-  O190  1  0.76900016  0.50920462  0.11572479  1
  O2-  O191  1  0.76533336  0.51194133  0.61613405  1
  O2-  O192  1  0.12203778  0.26796094  0.26010159  1
  O2-  O193  1  0.11585002  0.26466979  0.75007047  1
  O2-  O194  1  0.13151660  0.77677649  0.24144002  1
  O2-  O195  1  0.11574338  0.77241399  0.73673138  1
  O2-  O196  1  0.63501627  0.27490993  0.26599888  1
  O2-  O197  1  0.63684694  0.28559475  0.75657038  1
  O2-  O198  1  0.63528260  0.78253559  0.24582578  1
  O2-  O199  1  0.62503241  0.77384376  0.74366691  1
  O2-  O200  1  0.36497007  0.22268434  0.23690321  1
  O2-  O201  1  0.36438957  0.22018801  0.74987132  1
  O2-  O202  1  0.36783002  0.73307456  0.26918623  1
  O2-  O203  1  0.37769205  0.73405164  0.75040217  1
  O2-  O204  1  0.88357089  0.22582851  0.24593250  1
  O2-  O205  1  0.88240459  0.22252370  0.74579639  1
  O2-  O206  1  0.86510360  0.71528034  0.24091827  1
  O2-  O207  1  0.87025469  0.73157391  0.75075607  1
  O2-  O208  1  0.26971438  0.36106232  0.24511091  1
  O2-  O209  1  0.26067794  0.36299220  0.72319021  1
  O2-  O210  1  0.26976151  0.86907378  0.22954512  1
  O2-  O211  1  0.26005013  0.86304108  0.71846241  1
  O2-  O212  1  0.78491438  0.36701805  0.25469914  1
  O2-  O213  1  0.78743414  0.36451293  0.75872215  1
  O2-  O214  1  0.78514934  0.86405876  0.25417654  1
  O2-  O215  1  0.76616714  0.87224481  0.75106625  1
  O2-  O216  1  0.23344499  0.13457568  0.28658214  1
  O2-  O217  1  0.21667480  0.13388199  0.76053336  1
  O2-  O218  1  0.22530264  0.63206686  0.27237068  1
  O2-  O219  1  0.21981280  0.63640428  0.76535886  1
  O2-  O220  1  0.73077272  0.13317149  0.23954434  1
  O2-  O221  1  0.72714174  0.11404257  0.74650735  1
  O2-  O222  1  0.71939675  0.63585341  0.25131979  1
  O2-  O223  1  0.72406077  0.63809899  0.75083095  1
  O2-  O224  1  0.11544514  0.47892877  0.22587319  1
  O2-  O225  1  0.11137867  0.49348465  0.71128681  1
  O2-  O226  1  0.11282224  0.98815507  0.27826239  1
  O2-  O227  1  0.11031071  0.97158509  0.75808423  1
  O2-  O228  1  0.61493337  0.47348073  0.23491523  1
  O2-  O229  1  0.61365992  0.48787781  0.72382496  1
  O2-  O230  1  0.61762287  0.97789695  0.26573354  1
  O2-  O231  1  0.63050393  0.97409497  0.76170386  1
  O2-  O232  1  0.38730014  0.01722901  0.22648894  1
  O2-  O233  1  0.38836056  0.01748533  0.73222104  1
  O2-  O234  1  0.38418406  0.52500364  0.27269440  1
  O2-  O235  1  0.38318600  0.52795615  0.75932513  1
  O2-  O236  1  0.88774984  0.03514075  0.23852148  1
  O2-  O237  1  0.86869075  0.01218793  0.73259695  1
  O2-  O238  1  0.88457880  0.51096142  0.28309002  1
  O2-  O239  1  0.88409789  0.51380803  0.78120501  1
  O2-  O240  1  0.47965458  0.38423020  0.28081855  1
  O2-  O241  1  0.47956384  0.38681048  0.77228630  1
  O2-  O242  1  0.48009896  0.88655220  0.27501087  1
  O2-  O243  1  0.48180036  0.87036807  0.76522013  1
  O2-  O244  1  0.98266969  0.36480652  0.23816797  1
  O2-  O245  1  0.97998278  0.37094843  0.73951746  1
  O2-  O246  1  0.96819338  0.88646530  0.24693771  1
  O2-  O247  1  0.97276052  0.87448748  0.73515225  1
  O2-  O248  1  0.02482188  0.12917099  0.25443299  1
  O2-  O249  1  0.01479181  0.11966628  0.75553105  1
  O2-  O250  1  0.02170527  0.61661333  0.27421163  1
  O2-  O251  1  0.01317913  0.63052567  0.75416742  1
  O2-  O252  1  0.52737337  0.11754222  0.22520674  1
  O2-  O253  1  0.53163747  0.11408477  0.73356398  1
  O2-  O254  1  0.52197161  0.61414114  0.22863961  1
  O2-  O255  1  0.51453293  0.63465945  0.72875134  1
  O2-  O256  1  0.13323653  0.46696076  0.02092756  1
  O2-  O257  1  0.13148398  0.47993784  0.52584031  1
  O2-  O258  1  0.13422472  0.97354608  -0.02130803  1
  O2-  O259  1  0.11471323  0.97682488  0.49077236  1
  O2-  O260  1  0.63197095  0.47867053  0.02489671  1
  O2-  O261  1  0.62122313  0.48742492  0.52215529  1
  O2-  O262  1  0.62700709  0.97967597  -0.02107219  1
  O2-  O263  1  0.63748068  0.96463249  0.48690213  1
  O2-  O264  1  0.38764156  0.01185955  0.00654015  1
  O2-  O265  1  0.36843940  0.02775853  0.51944656  1
  O2-  O266  1  0.36477671  0.53748626  -0.01652068  1
  O2-  O267  1  0.38104425  0.51488250  0.48514884  1
  O2-  O268  1  0.86398982  0.01772250  0.01259082  1
  O2-  O269  1  0.87251382  0.01325659  0.52218913  1
  O2-  O270  1  0.86469044  0.52629757  -0.02431510  1
  O2-  O271  1  0.86322793  0.52799741  0.47414481  1
  O2-  O272  1  0.47707708  0.36819236  -0.03500106  1
  O2-  O273  1  0.48625941  0.38246265  0.48727373  1
  O2-  O274  1  0.49571857  0.87605062  -0.02586478  1
  O2-  O275  1  0.47584743  0.86326333  0.48369910  1
  O2-  O276  1  0.97347635  0.36468813  0.00430563  1
  O2-  O277  1  0.97110040  0.36112689  0.51211096  1
  O2-  O278  1  0.96129976  0.86155753  0.00396264  1
  O2-  O279  1  0.97335298  0.87820447  0.51139819  1
  O2-  O280  1  0.02827621  0.13052668  -0.00711818  1
  O2-  O281  1  0.02112308  0.11776016  0.49978842  1
  O2-  O282  1  0.00766298  0.63977691  -0.03449363  1
  O2-  O283  1  0.01887186  0.63866992  0.49812049  1
  O2-  O284  1  0.52609513  0.11399401  0.01423546  1
  O2-  O285  1  0.51661790  0.13700709  0.53129719  1
  O2-  O286  1  0.52650910  0.63923491  0.01746717  1
  O2-  O287  1  0.51781141  0.62374594  0.52313459  1
  O2-  O288  1  0.11656035  0.26828555  -0.00727729  1
  O2-  O289  1  0.12054779  0.26058197  0.49451227  1
  O2-  O290  1  0.11561134  0.78434312  -0.00222065  1
  O2-  O291  1  0.11335854  0.77911296  0.51198784  1
  O2-  O292  1  0.61813506  0.27198617  -0.00771225  1
  O2-  O293  1  0.61590312  0.27472163  0.49219045  1
  O2-  O294  1  0.62748854  0.77403047  -0.00502398  1
  O2-  O295  1  0.62960994  0.76968186  0.50796640  1
  O2-  O296  1  0.38713446  0.21861885  0.00702484  1
  O2-  O297  1  0.36764057  0.23595935  0.50910124  1
  O2-  O298  1  0.39017418  0.73833643  -0.01969382  1
  O2-  O299  1  0.38622047  0.72064108  0.49738767  1
  O2-  O300  1  0.88576267  0.21426286  -0.00141697  1
  O2-  O301  1  0.88726465  0.21082836  0.50242127  1
  O2-  O302  1  0.86556889  0.72957017  -0.00291114  1
  O2-  O303  1  0.87001486  0.73268292  0.49750840  1
  O2-  O304  1  0.28512031  0.38273610  0.01104499  1
  O2-  O305  1  0.25754100  0.36658342  0.52227661  1
  O2-  O306  1  0.27384879  0.88264095  0.02811110  1
  O2-  O307  1  0.27285645  0.88585467  0.52679008  1
  O2-  O308  1  0.77852078  0.38408350  -0.00965984  1
  O2-  O309  1  0.77647523  0.38506393  0.50278941  1
  O2-  O310  1  0.76659443  0.87252903  -0.01024982  1
  O2-  O311  1  0.77238662  0.87007076  0.50331088  1
  O2-  O312  1  0.24544491  0.11204378  -0.03317485  1
  O2-  O313  1  0.23380895  0.12710255  0.48300691  1
  O2-  O314  1  0.20889620  0.61503317  -0.00290018  1
  O2-  O315  1  0.22808718  0.61447670  0.47917092  1
  O2-  O316  1  0.72414131  0.11296837  0.00412381  1
  O2-  O317  1  0.71911607  0.11172295  0.49901222  1
  O2-  O318  1  0.72584079  0.63347670  0.00066411  1
  O2-  O319  1  0.72996020  0.63294535  0.50178548  1
