# generated using pymatgen
data_Sr64Ca21Nb43O192
_symmetry_space_group_name_H-M   'P 1'
_cell_length_a   16.57173218
_cell_length_b   16.58411810
_cell_length_c   16.73214437
_cell_angle_alpha   90.01332824
_cell_angle_beta   90.00231609
_cell_angle_gamma   89.92347301
_symmetry_Int_Tables_number   1
_chemical_formula_structural   Sr64Ca21Nb43O192
_chemical_formula_sum   'Sr64 Ca21 Nb43 O192'
_cell_volume   4598.45024172
_cell_formula_units_Z   1
loop_
 _symmetry_equiv_pos_site_id
 _symmetry_equiv_pos_as_xyz
  1  'x, y, z'
loop_
 _atom_type_symbol
 _atom_type_oxidation_number
  Sr2+  2.0
  Ca2+  2.0
  Nb5+  5.0
  O2-  -2.0
loop_
 _atom_site_type_symbol
 _atom_site_label
 _atom_site_symmetry_multiplicity
 _atom_site_fract_x
 _atom_site_fract_y
 _atom_site_fract_z
 _atom_site_occupancy
  Sr2+  Sr0  1  0.12143892  0.11221456  0.12721735  1
  Sr2+  Sr1  1  0.12949223  0.09879307  0.62570481  1
  Sr2+  Sr2  1  0.12277311  0.61734524  0.12511804  1
  Sr2+  Sr3  1  0.12635692  0.63235771  0.62142602  1
  Sr2+  Sr4  1  0.62465775  0.11558170  0.11904818  1
  Sr2+  Sr5  1  0.62798042  0.12055969  0.63921637  1
  Sr2+  Sr6  1  0.63452813  0.64122165  0.12048309  1
  Sr2+  Sr7  1  0.63336764  0.63700189  0.63116977  1
  Sr2+  Sr8  1  0.37610744  0.38187822  0.12487435  1
  Sr2+  Sr9  1  0.38068741  0.37932212  0.63268372  1
  Sr2+  Sr10  1  0.37362162  0.87471463  0.12192159  1
  Sr2+  Sr11  1  0.37245117  0.86740392  0.63257196  1
  Sr2+  Sr12  1  0.88494720  0.38750349  0.11783154  1
  Sr2+  Sr13  1  0.88662909  0.38569515  0.62700614  1
  Sr2+  Sr14  1  0.87699145  0.86575968  0.12990583  1
  Sr2+  Sr15  1  0.88243488  0.87351834  0.62699445  1
  Sr2+  Sr16  1  0.12276187  0.36727652  0.37562126  1
  Sr2+  Sr17  1  0.10497726  0.36809350  0.87809181  1
  Sr2+  Sr18  1  0.12083696  0.87046285  0.37311912  1
  Sr2+  Sr19  1  0.11254980  0.86950766  0.85996085  1
  Sr2+  Sr20  1  0.63876991  0.37180386  0.37915992  1
  Sr2+  Sr21  1  0.63856653  0.37078161  0.87012090  1
  Sr2+  Sr22  1  0.61871685  0.88132764  0.37107978  1
  Sr2+  Sr23  1  0.62006798  0.86860355  0.86813055  1
  Sr2+  Sr24  1  0.37029774  0.13229449  0.37531330  1
  Sr2+  Sr25  1  0.37816565  0.12539514  0.88167254  1
  Sr2+  Sr26  1  0.37767536  0.61983086  0.37692776  1
  Sr2+  Sr27  1  0.37601319  0.62315833  0.87555195  1
  Sr2+  Sr28  1  0.84606314  0.12887759  0.37803929  1
  Sr2+  Sr29  1  0.88522671  0.12860465  0.87014449  1
  Sr2+  Sr30  1  0.86045371  0.61675417  0.36976946  1
  Sr2+  Sr31  1  0.85400978  0.61811214  0.87810760  1
  Sr2+  Sr32  1  0.12373115  0.12109962  0.37812533  1
  Sr2+  Sr33  1  0.11809238  0.13014712  0.87506714  1
  Sr2+  Sr34  1  0.12609087  0.61563874  0.37315137  1
  Sr2+  Sr35  1  0.11469172  0.62425543  0.87675222  1
  Sr2+  Sr36  1  0.61706147  0.13376016  0.37166198  1
  Sr2+  Sr37  1  0.61411024  0.11891722  0.87718902  1
  Sr2+  Sr38  1  0.61443254  0.61382176  0.37949351  1
  Sr2+  Sr39  1  0.62042046  0.62059915  0.87920285  1
  Sr2+  Sr40  1  0.37882981  0.37098342  0.37683541  1
  Sr2+  Sr41  1  0.37453284  0.37558985  0.87361130  1
  Sr2+  Sr42  1  0.37278147  0.85393583  0.37502122  1
  Sr2+  Sr43  1  0.37832155  0.85207767  0.87509144  1
  Sr2+  Sr44  1  0.87410414  0.37007856  0.37897879  1
  Sr2+  Sr45  1  0.87550891  0.37269667  0.87775986  1
  Sr2+  Sr46  1  0.85802456  0.87379605  0.37574083  1
  Sr2+  Sr47  1  0.87397426  0.85616108  0.86958850  1
  Sr2+  Sr48  1  0.12523658  0.37338752  0.11627012  1
  Sr2+  Sr49  1  0.12467802  0.37483976  0.63467349  1
  Sr2+  Sr50  1  0.09676344  0.87577221  0.13184451  1
  Sr2+  Sr51  1  0.10551979  0.87409774  0.61852135  1
  Sr2+  Sr52  1  0.64054838  0.37501756  0.12021491  1
  Sr2+  Sr53  1  0.63907184  0.38051108  0.62794641  1
  Sr2+  Sr54  1  0.63536314  0.88007246  0.12319073  1
  Sr2+  Sr55  1  0.64974194  0.87750917  0.62875966  1
  Sr2+  Sr56  1  0.37530470  0.12483384  0.12316316  1
  Sr2+  Sr57  1  0.37175149  0.12271943  0.63829190  1
  Sr2+  Sr58  1  0.37647158  0.62977307  0.13077004  1
  Sr2+  Sr59  1  0.36991500  0.62970179  0.62846344  1
  Sr2+  Sr60  1  0.87531126  0.11929744  0.12632789  1
  Sr2+  Sr61  1  0.87519377  0.11303606  0.62690007  1
  Sr2+  Sr62  1  0.87679706  0.63760048  0.11422575  1
  Sr2+  Sr63  1  0.88924439  0.63086921  0.62606480  1
  Ca2+  Ca64  1  -0.00332869  0.00235861  0.49400748  1
  Ca2+  Ca65  1  0.49967094  0.00079284  0.49863370  1
  Ca2+  Ca66  1  -0.00001672  0.50325132  0.00093595  1
  Ca2+  Ca67  1  0.50095858  0.49472771  0.00314188  1
  Ca2+  Ca68  1  0.00062197  -0.00212664  -0.00086061  1
  Ca2+  Ca69  1  0.74714281  0.24780869  0.50546189  1
  Ca2+  Ca70  1  0.74972240  0.74819117  0.49873826  1
  Ca2+  Ca71  1  0.75013816  0.75578531  -0.00097426  1
  Ca2+  Ca72  1  0.74876568  0.24601960  -0.00165490  1
  Ca2+  Ca73  1  0.24386529  0.75359242  0.00172072  1
  Ca2+  Ca74  1  0.50016482  0.75015930  0.24994100  1
  Ca2+  Ca75  1  0.00357792  0.24868270  0.74370119  1
  Ca2+  Ca76  1  0.75127527  0.49836405  0.74722758  1
  Ca2+  Ca77  1  0.75242741  -0.00060676  0.75680436  1
  Ca2+  Ca78  1  -0.00073791  0.74701620  0.25554403  1
  Ca2+  Ca79  1  0.25129967  -0.00310728  0.75519034  1
  Ca2+  Ca80  1  0.00066794  0.74550217  0.74796086  1
  Ca2+  Ca81  1  0.00295010  0.25169413  0.25108845  1
  Ca2+  Ca82  1  0.24850298  0.49771365  0.74859943  1
  Ca2+  Ca83  1  0.74698502  0.50053687  0.24694277  1
  Ca2+  Ca84  1  0.50081408  0.74671513  0.74740987  1
  Nb5+  Nb85  1  0.00658901  0.49997902  0.49701566  1
  Nb5+  Nb86  1  0.50381779  0.49622537  0.50174436  1
  Nb5+  Nb87  1  0.49673390  -0.00266649  0.00003483  1
  Nb5+  Nb88  1  0.25338529  0.25073983  0.00677975  1
  Nb5+  Nb89  1  0.24905332  0.74405779  0.49914339  1
  Nb5+  Nb90  1  0.25011893  0.24952839  0.50583531  1
  Nb5+  Nb91  1  0.74225044  0.00201229  0.24974579  1
  Nb5+  Nb92  1  0.24907014  0.49285706  0.25174149  1
  Nb5+  Nb93  1  0.50074968  0.25395317  0.25210332  1
  Nb5+  Nb94  1  0.24979460  -0.00498809  0.24935208  1
  Nb5+  Nb95  1  0.50077628  0.24953328  0.75620558  1
  Nb5+  Nb96  1  -0.01060122  0.00556285  0.25638415  1
  Nb5+  Nb97  1  0.00172047  -0.00022682  0.75004233  1
  Nb5+  Nb98  1  -0.00462694  0.50393525  0.25008797  1
  Nb5+  Nb99  1  -0.00158496  0.50147131  0.75515170  1
  Nb5+  Nb100  1  0.49204907  0.00422632  0.25098788  1
  Nb5+  Nb101  1  0.49393579  -0.00395541  0.74772612  1
  Nb5+  Nb102  1  0.50220293  0.49657179  0.24834995  1
  Nb5+  Nb103  1  0.50094126  0.49949603  0.75107590  1
  Nb5+  Nb104  1  0.24998834  0.24752795  0.25096611  1
  Nb5+  Nb105  1  0.25277633  0.24953388  0.75885198  1
  Nb5+  Nb106  1  0.24862691  0.74271525  0.24921880  1
  Nb5+  Nb107  1  0.24634857  0.74712572  0.75398739  1
  Nb5+  Nb108  1  0.75501271  0.25049616  0.24382302  1
  Nb5+  Nb109  1  0.75802380  0.24358895  0.74686443  1
  Nb5+  Nb110  1  0.74444959  0.74777270  0.25615619  1
  Nb5+  Nb111  1  0.75185944  0.74688903  0.75009355  1
  Nb5+  Nb112  1  0.00112617  0.24721969  0.50109799  1
  Nb5+  Nb113  1  -0.00406355  0.24496798  1.00244742  1
  Nb5+  Nb114  1  -0.00444172  0.74870142  0.49081630  1
  Nb5+  Nb115  1  0.00215180  0.75168125  0.99826581  1
  Nb5+  Nb116  1  0.49872582  0.25228489  0.50782483  1
  Nb5+  Nb117  1  0.49919586  0.25312796  1.00587866  1
  Nb5+  Nb118  1  0.50020315  0.75233707  0.50339531  1
  Nb5+  Nb119  1  0.49901362  0.74398153  1.00321408  1
  Nb5+  Nb120  1  0.25050925  0.00075084  0.00235199  1
  Nb5+  Nb121  1  0.25728369  -0.00802932  0.49968857  1
  Nb5+  Nb122  1  0.25228592  0.50187995  -0.00323991  1
  Nb5+  Nb123  1  0.25312180  0.49552052  0.49759648  1
  Nb5+  Nb124  1  0.75489897  0.00125602  -0.00370369  1
  Nb5+  Nb125  1  0.74618913  0.00077722  0.50283273  1
  Nb5+  Nb126  1  0.74640218  0.49853228  0.00181368  1
  Nb5+  Nb127  1  0.75927660  0.50169880  0.50131209  1
  O2-  O128  1  -0.01278606  0.00053226  0.13685694  1
  O2-  O129  1  -0.01405690  -0.01169301  0.62837445  1
  O2-  O130  1  0.02149282  0.48586089  0.13773577  1
  O2-  O131  1  0.01695783  0.48392301  0.61307077  1
  O2-  O132  1  0.49043879  0.00255074  0.12737435  1
  O2-  O133  1  0.48305883  0.00032608  0.63393028  1
  O2-  O134  1  0.51309013  0.46805064  0.13826765  1
  O2-  O135  1  0.51222538  0.47891336  0.61721998  1
  O2-  O136  1  0.03284766  0.00252277  0.36478595  1
  O2-  O137  1  0.02371317  0.00967608  0.86735432  1
  O2-  O138  1  -0.01763599  0.51941231  0.37801139  1
  O2-  O139  1  -0.01840828  0.52235587  0.86662817  1
  O2-  O140  1  0.51917568  0.01922652  0.36168591  1
  O2-  O141  1  0.50420469  0.00817493  0.88270329  1
  O2-  O142  1  0.47726789  0.50393824  0.37795556  1
  O2-  O143  1  0.47825859  0.50653565  0.86444900  1
  O2-  O144  1  0.26107006  0.26556260  0.12582410  1
  O2-  O145  1  0.26520996  0.26683995  0.61769059  1
  O2-  O146  1  0.27423837  0.75193851  0.13715859  1
  O2-  O147  1  0.27236972  0.75488975  0.61413235  1
  O2-  O148  1  0.73108743  0.22152152  0.13439671  1
  O2-  O149  1  0.74424448  0.21122368  0.63292175  1
  O2-  O150  1  0.76393405  0.73572199  0.13742623  1
  O2-  O151  1  0.76727494  0.71989478  0.63202597  1
  O2-  O152  1  0.24799419  0.24292184  0.37006941  1
  O2-  O153  1  0.25693559  0.23531111  0.87565570  1
  O2-  O154  1  0.23273114  0.74912012  0.37777159  1
  O2-  O155  1  0.21996450  0.73982168  0.86544015  1
  O2-  O156  1  0.74914613  0.26557185  0.36362837  1
  O2-  O157  1  0.75791088  0.27607615  0.86382122  1
  O2-  O158  1  0.73119090  0.78606720  0.36770491  1
  O2-  O159  1  0.73808022  0.77820535  0.86662027  1
  O2-  O160  1  0.01039942  0.26658317  0.11671287  1
  O2-  O161  1  0.00535558  0.28314645  0.61177326  1
  O2-  O162  1  -0.01724582  0.75309735  0.12028262  1
  O2-  O163  1  -0.01362527  0.75737480  0.61033623  1
  O2-  O164  1  0.49343978  0.25945136  0.12458650  1
  O2-  O165  1  0.48416591  0.25644761  0.62319856  1
  O2-  O166  1  0.46840944  0.75688743  0.11718499  1
  O2-  O167  1  0.46477390  0.74535331  0.61495429  1
  O2-  O168  1  0.24075001  0.01535176  0.36725135  1
  O2-  O169  1  0.23577948  0.02609512  0.89161302  1
  O2-  O170  1  0.26290639  0.51563319  0.37399213  1
  O2-  O171  1  0.27887602  0.50455691  0.88523091  1
  O2-  O172  1  0.74151512  -0.01873835  0.36744354  1
  O2-  O173  1  0.74385000  -0.03251711  0.88855688  1
  O2-  O174  1  0.76539143  0.47373782  0.38246630  1
  O2-  O175  1  0.77306474  0.48035263  0.88327425  1
  O2-  O176  1  0.02350522  0.25101757  0.38608685  1
  O2-  O177  1  0.00382258  0.23868974  0.88156740  1
  O2-  O178  1  0.03997860  0.73839666  0.38452863  1
  O2-  O179  1  0.02603967  0.74719926  0.88086232  1
  O2-  O180  1  0.49839323  0.24437672  0.37115157  1
  O2-  O181  1  0.50067954  0.24090163  0.87387934  1
  O2-  O182  1  0.51598151  0.73263462  0.38674336  1
  O2-  O183  1  0.51952607  0.74954575  0.88419898  1
  O2-  O184  1  0.27799870  0.00279914  0.13341235  1
  O2-  O185  1  0.27459242  -0.00433602  0.61284931  1
  O2-  O186  1  0.23043372  0.49082109  0.13597512  1
  O2-  O187  1  0.22641741  0.48874693  0.60826880  1
  O2-  O188  1  0.75598831  0.02760496  0.13340871  1
  O2-  O189  1  0.74683756  0.02124367  0.61721050  1
  O2-  O190  1  0.71307911  0.51556227  0.11767832  1
  O2-  O191  1  0.72340826  0.51879643  0.61076240  1
  O2-  O192  1  0.14057168  0.28095595  0.24292328  1
  O2-  O193  1  0.13995040  0.27597331  0.75625984  1
  O2-  O194  1  0.13945789  0.78280590  0.24197864  1
  O2-  O195  1  0.13556633  0.77325965  0.72206978  1
  O2-  O196  1  0.61692450  0.27392809  0.25120070  1
  O2-  O197  1  0.61607904  0.26871298  0.74201278  1
  O2-  O198  1  0.63077525  0.77882865  0.23187892  1
  O2-  O199  1  0.63292729  0.76932703  0.72846760  1
  O2-  O200  1  0.37437839  0.23608206  0.25085730  1
  O2-  O201  1  0.37950801  0.22493481  0.75323596  1
  O2-  O202  1  0.36463532  0.73560588  0.27790109  1
  O2-  O203  1  0.36630645  0.72200602  0.76802497  1
  O2-  O204  1  0.86684921  0.22347300  0.24444558  1
  O2-  O205  1  0.87004867  0.21755307  0.74503174  1
  O2-  O206  1  0.86333415  0.74106906  0.27486028  1
  O2-  O207  1  0.86850930  0.72495175  0.77044627  1
  O2-  O208  1  0.27439702  0.37870351  0.26086107  1
  O2-  O209  1  0.28347622  0.36284475  0.75096451  1
  O2-  O210  1  0.27711146  0.88306956  0.25876779  1
  O2-  O211  1  0.28065381  0.86304398  0.75645805  1
  O2-  O212  1  0.76692121  0.36425698  0.22175241  1
  O2-  O213  1  0.76396855  0.35973782  0.71663896  1
  O2-  O214  1  0.76776069  0.88773064  0.23247932  1
  O2-  O215  1  0.77283744  0.86606414  0.72453128  1
  O2-  O216  1  0.23534980  0.13216633  0.23980330  1
  O2-  O217  1  0.23821059  0.13785717  0.72437493  1
  O2-  O218  1  0.23096226  0.62638159  0.24568302  1
  O2-  O219  1  0.23378273  0.63119554  0.72761996  1
  O2-  O220  1  0.73004220  0.12346555  0.27231246  1
  O2-  O221  1  0.72061633  0.13379227  0.77791855  1
  O2-  O222  1  0.72250740  0.63579089  0.27515180  1
  O2-  O223  1  0.72455990  0.63083480  0.77520404  1
  O2-  O224  1  0.13311699  0.48122530  0.27441649  1
  O2-  O225  1  0.11521861  0.47082342  0.76450537  1
  O2-  O226  1  0.13765817  0.98476164  0.23143921  1
  O2-  O227  1  0.12090044  0.97206682  0.73064263  1
  O2-  O228  1  0.61141584  0.47974879  0.27935354  1
  O2-  O229  1  0.61370961  0.46418976  0.75538355  1
  O2-  O230  1  0.62473845  0.99027677  0.23625237  1
  O2-  O231  1  0.61277516  0.98326516  0.74997540  1
  O2-  O232  1  0.37865266  0.03207426  0.25992975  1
  O2-  O233  1  0.38317642  0.03281420  0.76554266  1
  O2-  O234  1  0.37022114  0.51684625  0.23959264  1
  O2-  O235  1  0.38598145  0.50930601  0.71958454  1
  O2-  O236  1  0.87415804  0.02593074  0.26716528  1
  O2-  O237  1  0.88504689  0.03030102  0.75810883  1
  O2-  O238  1  0.88395573  0.53199011  0.23293970  1
  O2-  O239  1  0.88500402  0.51618521  0.71876004  1
  O2-  O240  1  0.47169988  0.37064071  0.25918267  1
  O2-  O241  1  0.47508272  0.36662199  0.75617072  1
  O2-  O242  1  0.47757381  0.89031135  0.25986925  1
  O2-  O243  1  0.47256254  0.88329222  0.75991117  1
  O2-  O244  1  0.97878589  0.38830444  0.27028610  1
  O2-  O245  1  0.97463707  0.38274260  0.76154321  1
  O2-  O246  1  0.98416514  0.88632562  0.25696548  1
  O2-  O247  1  0.97887119  0.88134473  0.76241620  1
  O2-  O248  1  0.03031452  0.11781705  0.24814462  1
  O2-  O249  1  0.03277620  0.11679591  0.73697037  1
  O2-  O250  1  0.03691159  0.61486510  0.24855363  1
  O2-  O251  1  0.02808580  0.61341039  0.72904358  1
  O2-  O252  1  0.51501502  0.13436081  0.23707926  1
  O2-  O253  1  0.51960914  0.12941986  0.74523423  1
  O2-  O254  1  0.51201672  0.61135811  0.23327624  1
  O2-  O255  1  0.52734517  0.61093454  0.73973813  1
  O2-  O256  1  0.13893885  0.46852335  -0.00991888  1
  O2-  O257  1  0.12355001  0.48955318  0.47365484  1
  O2-  O258  1  0.14096447  0.98696552  0.03353778  1
  O2-  O259  1  0.13935303  0.99053827  0.50872422  1
  O2-  O260  1  0.63104917  0.47525085  -0.02605939  1
  O2-  O261  1  0.61652206  0.48369521  0.47999810  1
  O2-  O262  1  0.61402633  0.98481707  0.01231969  1
  O2-  O263  1  0.63228686  0.96491710  0.50000473  1
  O2-  O264  1  0.37786682  0.02939596  0.00137553  1
  O2-  O265  1  0.36633248  0.02674876  0.47666600  1
  O2-  O266  1  0.36418813  0.51314815  0.03583492  1
  O2-  O267  1  0.36756052  0.51415250  0.51323121  1
  O2-  O268  1  0.86501327  0.03360171  -0.00692493  1
  O2-  O269  1  0.86343854  0.02706965  0.48450119  1
  O2-  O270  1  0.86577460  0.51671917  0.02726041  1
  O2-  O271  1  0.87558784  0.51799544  0.51523990  1
  O2-  O272  1  0.46564694  0.36257008  -0.00818596  1
  O2-  O273  1  0.47174436  0.37772892  0.49312797  1
  O2-  O274  1  0.47396152  0.88321682  -0.00208895  1
  O2-  O275  1  0.47542427  0.86398044  0.48856788  1
  O2-  O276  1  0.98394884  0.36584113  -0.01399587  1
  O2-  O277  1  0.98308297  0.38383130  0.48135525  1
  O2-  O278  1  0.96485741  0.86789122  -0.00627584  1
  O2-  O279  1  0.98682023  0.86488816  0.48227049  1
  O2-  O280  1  0.03504570  0.13361198  0.00669897  1
  O2-  O281  1  0.03248807  0.13776648  0.51473001  1
  O2-  O282  1  0.03488707  0.63402591  0.00800860  1
  O2-  O283  1  0.01734667  0.62109697  0.51128204  1
  O2-  O284  1  0.51372221  0.12880394  0.00649987  1
  O2-  O285  1  0.51929133  0.13936494  0.50588616  1
  O2-  O286  1  0.51965718  0.63052556  0.01306964  1
  O2-  O287  1  0.50630372  0.61488252  0.50877579  1
  O2-  O288  1  0.13797524  0.27009285  -0.00534009  1
  O2-  O289  1  0.13717284  0.27957104  0.50385535  1
  O2-  O290  1  0.11524169  0.78961504  0.01616052  1
  O2-  O291  1  0.13300353  0.76351405  0.51775674  1
  O2-  O292  1  0.61198131  0.27446433  -0.00201144  1
  O2-  O293  1  0.60973942  0.28306197  0.50200572  1
  O2-  O294  1  0.61262845  0.77396764  0.02176705  1
  O2-  O295  1  0.61255244  0.75900127  0.53010368  1
  O2-  O296  1  0.37410781  0.22548402  -0.00216043  1
  O2-  O297  1  0.37286176  0.24361469  0.48546902  1
  O2-  O298  1  0.38076603  0.73449974  -0.02579817  1
  O2-  O299  1  0.36853925  0.73219576  0.47718570  1
  O2-  O300  1  0.88371250  0.21900387  0.00694497  1
  O2-  O301  1  0.88697138  0.23045288  0.49362925  1
  O2-  O302  1  0.88391518  0.72183700  -0.01803394  1
  O2-  O303  1  0.88548660  0.72559886  0.46961333  1
  O2-  O304  1  0.27753359  0.36895998  -0.00246591  1
  O2-  O305  1  0.26414009  0.38000607  0.47907878  1
  O2-  O306  1  0.28200099  0.89048867  -0.00670098  1
  O2-  O307  1  0.26834505  0.87613730  0.48601158  1
  O2-  O308  1  0.76642131  0.38007896  0.02717673  1
  O2-  O309  1  0.76395915  0.38329734  0.52074298  1
  O2-  O310  1  0.76087126  0.89136300  0.03773738  1
  O2-  O311  1  0.77914896  0.88390828  0.51611501  1
  O2-  O312  1  0.23949821  0.13186297  0.02416637  1
  O2-  O313  1  0.23532260  0.13449112  0.50625431  1
  O2-  O314  1  0.22640060  0.61402759  0.00752099  1
  O2-  O315  1  0.23516154  0.62505490  0.50190265  1
  O2-  O316  1  0.71314163  0.11198836  -0.01127812  1
  O2-  O317  1  0.72125968  0.11490082  0.47310479  1
  O2-  O318  1  0.72886391  0.61820321  -0.01684154  1
  O2-  O319  1  0.73467143  0.61350155  0.46742605  1
