# generated using pymatgen
data_Sr64Ca21Nb43O192
_symmetry_space_group_name_H-M   'P 1'
_cell_length_a   16.58896950
_cell_length_b   16.58171557
_cell_length_c   16.74200588
_cell_angle_alpha   90.01032713
_cell_angle_beta   89.97412614
_cell_angle_gamma   90.13731482
_symmetry_Int_Tables_number   1
_chemical_formula_structural   Sr64Ca21Nb43O192
_chemical_formula_sum   'Sr64 Ca21 Nb43 O192'
_cell_volume   4605.26962304
_cell_formula_units_Z   1
loop_
 _symmetry_equiv_pos_site_id
 _symmetry_equiv_pos_as_xyz
  1  'x, y, z'
loop_
 _atom_type_symbol
 _atom_type_oxidation_number
  Sr2+  2.0
  Ca2+  2.0
  Nb5+  5.0
  O2-  -2.0
loop_
 _atom_site_type_symbol
 _atom_site_label
 _atom_site_symmetry_multiplicity
 _atom_site_fract_x
 _atom_site_fract_y
 _atom_site_fract_z
 _atom_site_occupancy
  Sr2+  Sr0  1  0.12780017  0.12259971  0.12337746  1
  Sr2+  Sr1  1  0.13063068  0.14252089  0.62745306  1
  Sr2+  Sr2  1  0.13233379  0.63900052  0.12738209  1
  Sr2+  Sr3  1  0.13406239  0.63174357  0.61758019  1
  Sr2+  Sr4  1  0.62119927  0.14470858  0.13134709  1
  Sr2+  Sr5  1  0.63855112  0.12976567  0.62550839  1
  Sr2+  Sr6  1  0.62251824  0.62931171  0.12684259  1
  Sr2+  Sr7  1  0.62694611  0.63235507  0.62006599  1
  Sr2+  Sr8  1  0.37919403  0.36212195  0.12390095  1
  Sr2+  Sr9  1  0.37208746  0.37244101  0.62213655  1
  Sr2+  Sr10  1  0.37678456  0.89155979  0.12598432  1
  Sr2+  Sr11  1  0.38879582  0.88091631  0.62749104  1
  Sr2+  Sr12  1  0.87031849  0.37265154  0.11372613  1
  Sr2+  Sr13  1  0.88544733  0.38383344  0.62474364  1
  Sr2+  Sr14  1  0.86905411  0.88514989  0.12353490  1
  Sr2+  Sr15  1  0.87422277  0.88533827  0.62767220  1
  Sr2+  Sr16  1  0.11606351  0.36721284  0.37479578  1
  Sr2+  Sr17  1  0.10708426  0.37493705  0.87878501  1
  Sr2+  Sr18  1  0.11187135  0.87495588  0.37080372  1
  Sr2+  Sr19  1  0.11032243  0.85879206  0.87938173  1
  Sr2+  Sr20  1  0.63399140  0.36830289  0.37519301  1
  Sr2+  Sr21  1  0.63215699  0.36732688  0.88140513  1
  Sr2+  Sr22  1  0.62586759  0.86436733  0.37776949  1
  Sr2+  Sr23  1  0.62691133  0.86389887  0.86896436  1
  Sr2+  Sr24  1  0.37029831  0.11516592  0.37524338  1
  Sr2+  Sr25  1  0.37540289  0.11898400  0.87004219  1
  Sr2+  Sr26  1  0.37363865  0.62001010  0.37372865  1
  Sr2+  Sr27  1  0.36905284  0.61951498  0.87266092  1
  Sr2+  Sr28  1  0.86896628  0.12270538  0.37771518  1
  Sr2+  Sr29  1  0.87002384  0.11796250  0.87440157  1
  Sr2+  Sr30  1  0.88058371  0.62320167  0.37233439  1
  Sr2+  Sr31  1  0.87060096  0.62208491  0.88077510  1
  Sr2+  Sr32  1  0.11588158  0.11090918  0.37264108  1
  Sr2+  Sr33  1  0.10971717  0.11665534  0.87916497  1
  Sr2+  Sr34  1  0.11924656  0.61444172  0.37113091  1
  Sr2+  Sr35  1  0.12535277  0.61987177  0.87722899  1
  Sr2+  Sr36  1  0.62768067  0.13676427  0.36767628  1
  Sr2+  Sr37  1  0.62906914  0.11632083  0.87064502  1
  Sr2+  Sr38  1  0.62965035  0.62051537  0.37473206  1
  Sr2+  Sr39  1  0.62556961  0.62035305  0.87793639  1
  Sr2+  Sr40  1  0.37417781  0.35920823  0.37353333  1
  Sr2+  Sr41  1  0.37828479  0.36386458  0.87418047  1
  Sr2+  Sr42  1  0.37428201  0.88138189  0.36983365  1
  Sr2+  Sr43  1  0.37551724  0.86847821  0.87338213  1
  Sr2+  Sr44  1  0.86786311  0.36544846  0.37671616  1
  Sr2+  Sr45  1  0.87761738  0.34765209  0.87241902  1
  Sr2+  Sr46  1  0.87409114  0.87688301  0.37253430  1
  Sr2+  Sr47  1  0.87020213  0.88948113  0.87645917  1
  Sr2+  Sr48  1  0.13901337  0.38114421  0.12577160  1
  Sr2+  Sr49  1  0.12807625  0.37936488  0.62263214  1
  Sr2+  Sr50  1  0.12529297  0.87810832  0.12030084  1
  Sr2+  Sr51  1  0.11927777  0.87356050  0.62434092  1
  Sr2+  Sr52  1  0.61679783  0.38251077  0.12641770  1
  Sr2+  Sr53  1  0.63544546  0.38719763  0.62452084  1
  Sr2+  Sr54  1  0.61569674  0.87813564  0.11797372  1
  Sr2+  Sr55  1  0.63079781  0.87522540  0.62521941  1
  Sr2+  Sr56  1  0.38082062  0.12663363  0.12988265  1
  Sr2+  Sr57  1  0.37592643  0.13475355  0.61957442  1
  Sr2+  Sr58  1  0.37868003  0.62868919  0.13003982  1
  Sr2+  Sr59  1  0.38603744  0.62707453  0.62557690  1
  Sr2+  Sr60  1  0.88428456  0.13732149  0.11929970  1
  Sr2+  Sr61  1  0.88870877  0.12672517  0.63812270  1
  Sr2+  Sr62  1  0.86168310  0.63509687  0.12951924  1
  Sr2+  Sr63  1  0.89614651  0.63584477  0.62042552  1
  Ca2+  Ca64  1  0.00016918  -0.00273684  0.00104735  1
  Ca2+  Ca65  1  0.50021851  -0.00165745  -0.00269647  1
  Ca2+  Ca66  1  -0.00021178  0.50264919  0.00519382  1
  Ca2+  Ca67  1  -0.00332961  0.00310850  0.50153487  1
  Ca2+  Ca68  1  0.50453814  -0.00069556  0.49930354  1
  Ca2+  Ca69  1  0.75077451  0.24689152  0.50354024  1
  Ca2+  Ca70  1  0.74734719  0.24702132  -0.00291759  1
  Ca2+  Ca71  1  0.25230258  0.74959767  0.50157065  1
  Ca2+  Ca72  1  0.24797930  0.25109451  -0.00041811  1
  Ca2+  Ca73  1  0.75400941  0.74945962  0.50129812  1
  Ca2+  Ca74  1  0.74949113  0.49784050  0.24859754  1
  Ca2+  Ca75  1  0.74786324  0.00084060  0.24712578  1
  Ca2+  Ca76  1  0.49997942  0.25377732  0.25042737  1
  Ca2+  Ca77  1  0.00070242  0.25276069  0.25001366  1
  Ca2+  Ca78  1  0.50244044  0.25390894  0.74459571  1
  Ca2+  Ca79  1  0.00035871  0.75027581  0.24765980  1
  Ca2+  Ca80  1  0.00398783  0.24997109  0.74890272  1
  Ca2+  Ca81  1  -0.00070576  0.74749625  0.75218839  1
  Ca2+  Ca82  1  0.25168694  -0.00053298  0.74883370  1
  Ca2+  Ca83  1  0.50092739  0.75273048  0.24866941  1
  Ca2+  Ca84  1  0.74924865  0.50403725  0.74953660  1
  Nb5+  Nb85  1  0.49848006  0.50059093  0.00394042  1
  Nb5+  Nb86  1  0.00821116  0.49925611  0.50011668  1
  Nb5+  Nb87  1  0.50439808  0.49631068  0.50440281  1
  Nb5+  Nb88  1  0.24869793  0.24831475  0.49674017  1
  Nb5+  Nb89  1  0.25043860  0.75190583  0.00186290  1
  Nb5+  Nb90  1  0.74324813  0.75171403  0.00149380  1
  Nb5+  Nb91  1  0.49989038  0.74888213  0.74980659  1
  Nb5+  Nb92  1  0.24899975  -0.00585374  0.25012310  1
  Nb5+  Nb93  1  0.74639576  -0.00169819  0.75081378  1
  Nb5+  Nb94  1  0.25059348  0.50084827  0.74469578  1
  Nb5+  Nb95  1  0.25239109  0.49856864  0.24552993  1
  Nb5+  Nb96  1  -0.00519271  0.00449368  0.24637850  1
  Nb5+  Nb97  1  0.00738499  -0.00702927  0.75188375  1
  Nb5+  Nb98  1  -0.00248607  0.49811227  0.24603424  1
  Nb5+  Nb99  1  -0.00283964  0.50682740  0.75242779  1
  Nb5+  Nb100  1  0.50611219  -0.00149603  0.25423000  1
  Nb5+  Nb101  1  0.50028490  0.00406448  0.74712854  1
  Nb5+  Nb102  1  0.49892656  0.50035868  0.26036507  1
  Nb5+  Nb103  1  0.49709674  0.49749384  0.75652188  1
  Nb5+  Nb104  1  0.24780566  0.24236488  0.25159684  1
  Nb5+  Nb105  1  0.24648361  0.25061079  0.75997231  1
  Nb5+  Nb106  1  0.24932348  0.74856770  0.25711548  1
  Nb5+  Nb107  1  0.25363542  0.75019983  0.74944558  1
  Nb5+  Nb108  1  0.75480275  0.25089911  0.24580850  1
  Nb5+  Nb109  1  0.75149632  0.25214878  0.74547167  1
  Nb5+  Nb110  1  0.74853643  0.75291219  0.25291941  1
  Nb5+  Nb111  1  0.75224698  0.74461503  0.75052585  1
  Nb5+  Nb112  1  -0.00022601  0.24759581  0.49939260  1
  Nb5+  Nb113  1  0.00266045  0.25193323  1.00142759  1
  Nb5+  Nb114  1  0.00070635  0.75442984  0.49780209  1
  Nb5+  Nb115  1  -0.01209176  0.74710264  1.00189981  1
  Nb5+  Nb116  1  0.50418620  0.25166067  0.50203014  1
  Nb5+  Nb117  1  0.50104156  0.24553423  0.99314564  1
  Nb5+  Nb118  1  0.49846174  0.74940081  0.49548469  1
  Nb5+  Nb119  1  0.49357933  0.74606016  0.99709183  1
  Nb5+  Nb120  1  0.25167825  0.00203694  -0.00584958  1
  Nb5+  Nb121  1  0.24814788  -0.00250457  0.50506232  1
  Nb5+  Nb122  1  0.25457193  0.50099619  -0.00659893  1
  Nb5+  Nb123  1  0.25622712  0.49972337  0.49271510  1
  Nb5+  Nb124  1  0.74152523  0.00096591  0.00340504  1
  Nb5+  Nb125  1  0.75125448  -0.00191404  0.49463814  1
  Nb5+  Nb126  1  0.75185756  0.50086358  -0.00057876  1
  Nb5+  Nb127  1  0.76089602  0.50211818  0.50390821  1
  O2-  O128  1  0.02325561  -0.01822455  0.13353601  1
  O2-  O129  1  0.00386526  -0.03106047  0.63499628  1
  O2-  O130  1  0.01430094  0.46553190  0.13806566  1
  O2-  O131  1  0.01135714  0.47823782  0.62088962  1
  O2-  O132  1  0.51495220  -0.00361986  0.13403484  1
  O2-  O133  1  0.51594902  -0.02802034  0.63445726  1
  O2-  O134  1  0.51059022  0.50300793  0.11967679  1
  O2-  O135  1  0.50900956  0.49586515  0.62237690  1
  O2-  O136  1  -0.01716714  0.02788168  0.36599613  1
  O2-  O137  1  -0.01522737  0.02272111  0.86592607  1
  O2-  O138  1  -0.00576054  0.52367308  0.38445196  1
  O2-  O139  1  -0.00536324  0.53129148  0.86540805  1
  O2-  O140  1  0.47111132  0.00211470  0.36773430  1
  O2-  O141  1  0.47419932  -0.00125787  0.86198802  1
  O2-  O142  1  0.48076550  0.50580241  0.37622589  1
  O2-  O143  1  0.47818216  0.50627905  0.87196783  1
  O2-  O144  1  0.26921483  0.23545740  0.13693574  1
  O2-  O145  1  0.26754696  0.24081361  0.61544652  1
  O2-  O146  1  0.27029925  0.73615361  0.11877823  1
  O2-  O147  1  0.26668752  0.72158879  0.63894367  1
  O2-  O148  1  0.77460253  0.24560803  0.12820790  1
  O2-  O149  1  0.77082596  0.21945268  0.63409433  1
  O2-  O150  1  0.76416276  0.75532989  0.11790109  1
  O2-  O151  1  0.76191086  0.75644038  0.63751650  1
  O2-  O152  1  0.23726539  0.27359401  0.37626073  1
  O2-  O153  1  0.23223402  0.28527225  0.86672234  1
  O2-  O154  1  0.23382060  0.77388144  0.36677538  1
  O2-  O155  1  0.24573892  0.75884934  0.87904374  1
  O2-  O156  1  0.73156942  0.25638747  0.36773040  1
  O2-  O157  1  0.72310243  0.24304816  0.86141288  1
  O2-  O158  1  0.72805254  0.75139226  0.36663820  1
  O2-  O159  1  0.73521000  0.74249552  0.87991978  1
  O2-  O160  1  -0.02898032  0.26477161  0.11605463  1
  O2-  O161  1  -0.01042491  0.27717669  0.61399453  1
  O2-  O162  1  -0.01391670  0.78167727  0.11413636  1
  O2-  O163  1  -0.02264273  0.76747406  0.61710744  1
  O2-  O164  1  0.47722209  0.24515622  0.11216735  1
  O2-  O165  1  0.46578027  0.25718264  0.61288109  1
  O2-  O166  1  0.49151384  0.73851841  0.11174662  1
  O2-  O167  1  0.48124811  0.74911285  0.63184387  1
  O2-  O168  1  0.27029939  -0.00719353  0.37063671  1
  O2-  O169  1  0.28257865  -0.00842555  0.88445765  1
  O2-  O170  1  0.27107281  0.49076367  0.37798838  1
  O2-  O171  1  0.27518794  0.49008782  0.87977069  1
  O2-  O172  1  0.77600074  0.00014391  0.38237963  1
  O2-  O173  1  0.76141010  0.00297264  0.87456703  1
  O2-  O174  1  0.76111227  0.48567360  0.38676914  1
  O2-  O175  1  0.75206595  0.52627065  0.88398097  1
  O2-  O176  1  0.03271352  0.23966768  0.38699511  1
  O2-  O177  1  0.02952262  0.24092094  0.88153113  1
  O2-  O178  1  0.02430667  0.72854160  0.38403446  1
  O2-  O179  1  0.01913157  0.72373160  0.88783610  1
  O2-  O180  1  0.51722745  0.26519165  0.38482251  1
  O2-  O181  1  0.51810450  0.27093722  0.87864259  1
  O2-  O182  1  0.52504902  0.74145955  0.38396478  1
  O2-  O183  1  0.51734096  0.74074872  0.87363589  1
  O2-  O184  1  0.22905982  0.00425047  0.13102348  1
  O2-  O185  1  0.22175068  0.02096298  0.61484939  1
  O2-  O186  1  0.23812198  0.52077799  0.13174225  1
  O2-  O187  1  0.23635291  0.51095272  0.62887522  1
  O2-  O188  1  0.72773849  -0.02234235  0.11469661  1
  O2-  O189  1  0.72884349  -0.00850192  0.63465030  1
  O2-  O190  1  0.71920466  0.49382450  0.11217351  1
  O2-  O191  1  0.72238125  0.51064468  0.61643656  1
  O2-  O192  1  0.13865870  0.28196706  0.23755322  1
  O2-  O193  1  0.13830848  0.26910319  0.71880693  1
  O2-  O194  1  0.13873951  0.76565055  0.22032503  1
  O2-  O195  1  0.13944325  0.77139038  0.74255097  1
  O2-  O196  1  0.63401551  0.27785887  0.22816682  1
  O2-  O197  1  0.63581018  0.26871487  0.71799089  1
  O2-  O198  1  0.63474490  0.78044274  0.22786434  1
  O2-  O199  1  0.61718500  0.76868476  0.73980721  1
  O2-  O200  1  0.36414851  0.23972612  0.27457277  1
  O2-  O201  1  0.36348749  0.23126321  0.76259834  1
  O2-  O202  1  0.36554055  0.73133852  0.26266193  1
  O2-  O203  1  0.38010944  0.72700164  0.76992752  1
  O2-  O204  1  0.86799004  0.21900281  0.26966525  1
  O2-  O205  1  0.86823804  0.22577738  0.77079916  1
  O2-  O206  1  0.86617246  0.71861425  0.25748185  1
  O2-  O207  1  0.86316622  0.71810827  0.76618385  1
  O2-  O208  1  0.27336492  0.38554361  0.23497371  1
  O2-  O209  1  0.27070314  0.38384483  0.73750587  1
  O2-  O210  1  0.26911720  0.87789492  0.23906438  1
  O2-  O211  1  0.28463552  0.86204064  0.74034871  1
  O2-  O212  1  0.78579464  0.36717048  0.24441306  1
  O2-  O213  1  0.77632577  0.36622243  0.74262998  1
  O2-  O214  1  0.78589400  0.86567288  0.25026985  1
  O2-  O215  1  0.75725193  0.87021129  0.76393077  1
  O2-  O216  1  0.22866747  0.12833450  0.26496322  1
  O2-  O217  1  0.22557543  0.13675753  0.77399345  1
  O2-  O218  1  0.23308855  0.62952130  0.26694376  1
  O2-  O219  1  0.23790134  0.62182393  0.77299136  1
  O2-  O220  1  0.71726435  0.13307980  0.24677626  1
  O2-  O221  1  0.72654937  0.11405390  0.75378106  1
  O2-  O222  1  0.72284425  0.63341567  0.23970263  1
  O2-  O223  1  0.71134819  0.63670030  0.74938281  1
  O2-  O224  1  0.13790663  0.48378398  0.27111704  1
  O2-  O225  1  0.13518375  0.48589222  0.76909379  1
  O2-  O226  1  0.13280838  0.98744790  0.27133910  1
  O2-  O227  1  0.11909739  0.97158669  0.76944833  1
  O2-  O228  1  0.61139638  0.47551921  0.26834423  1
  O2-  O229  1  0.60953568  0.47286176  0.76568421  1
  O2-  O230  1  0.61514776  0.97275571  0.27724049  1
  O2-  O231  1  0.62343817  0.97730759  0.77040249  1
  O2-  O232  1  0.36451980  0.02502017  0.23459432  1
  O2-  O233  1  0.38564961  0.02264488  0.72254125  1
  O2-  O234  1  0.37000524  0.52987800  0.24589937  1
  O2-  O235  1  0.37061321  0.52665622  0.73870519  1
  O2-  O236  1  0.88364961  0.01929471  0.21995180  1
  O2-  O237  1  0.86474909  0.00805532  0.73882997  1
  O2-  O238  1  0.88646753  0.52607762  0.23783152  1
  O2-  O239  1  0.88542397  0.52404392  0.73051352  1
  O2-  O240  1  0.46723949  0.38916975  0.24050138  1
  O2-  O241  1  0.46242991  0.38833699  0.74701007  1
  O2-  O242  1  0.46543642  0.88440248  0.24864363  1
  O2-  O243  1  0.47943520  0.86510264  0.75920387  1
  O2-  O244  1  0.98889078  0.38863544  0.28815054  1
  O2-  O245  1  0.99069473  0.38876544  0.76787745  1
  O2-  O246  1  0.99236544  0.88701431  0.27559538  1
  O2-  O247  1  0.97628783  0.87953788  0.77418524  1
  O2-  O248  1  0.02996960  0.11847995  0.23297443  1
  O2-  O249  1  0.01709658  0.11179954  0.72642939  1
  O2-  O250  1  0.03450826  0.61082673  0.24078756  1
  O2-  O251  1  0.03029733  0.61557582  0.72052219  1
  O2-  O252  1  0.51758350  0.11796165  0.25007454  1
  O2-  O253  1  0.52935612  0.11574377  0.74334815  1
  O2-  O254  1  0.51654776  0.61503850  0.24321535  1
  O2-  O255  1  0.51508310  0.62194583  0.74237330  1
  O2-  O256  1  0.13892473  0.49033846  -0.01581631  1
  O2-  O257  1  0.12579982  0.48028510  0.48955777  1
  O2-  O258  1  0.13993828  0.96525364  -0.01448475  1
  O2-  O259  1  0.13506612  0.98710232  0.47136594  1
  O2-  O260  1  0.61408989  0.48445749  -0.02070976  1
  O2-  O261  1  0.61511177  0.47465865  0.48503652  1
  O2-  O262  1  0.63197556  0.96413027  -0.02361764  1
  O2-  O263  1  0.63718878  0.95749365  0.49131653  1
  O2-  O264  1  0.36442867  0.01484313  0.03100502  1
  O2-  O265  1  0.36230505  0.03152961  0.51034215  1
  O2-  O266  1  0.37741371  0.52927221  0.01225978  1
  O2-  O267  1  0.37002634  0.51919105  0.51453987  1
  O2-  O268  1  0.86118162  0.01316839  0.01246799  1
  O2-  O269  1  0.86124599  0.03098112  0.52918429  1
  O2-  O270  1  0.86280434  0.52388423  0.02068409  1
  O2-  O271  1  0.87659571  0.51838504  0.51763031  1
  O2-  O272  1  0.47255418  0.38583882  0.00005535  1
  O2-  O273  1  0.46852487  0.38301465  0.49722420  1
  O2-  O274  1  0.47953900  0.86097508  -0.00498901  1
  O2-  O275  1  0.46893934  0.86108235  0.49359351  1
  O2-  O276  1  0.97855269  0.37051636  -0.02267470  1
  O2-  O277  1  0.98391859  0.38188617  0.48258212  1
  O2-  O278  1  0.98699577  0.86278370  -0.02905879  1
  O2-  O279  1  0.98908372  0.86682722  0.47432519  1
  O2-  O280  1  0.02386500  0.13318800  0.01575291  1
  O2-  O281  1  0.02052319  0.13708983  0.52590712  1
  O2-  O282  1  0.01690328  0.63629376  0.03374264  1
  O2-  O283  1  0.01831185  0.61645523  0.52233270  1
  O2-  O284  1  0.52256260  0.13322222  -0.01475428  1
  O2-  O285  1  0.51868464  0.13719659  0.50399142  1
  O2-  O286  1  0.52061417  0.62270110  -0.00599618  1
  O2-  O287  1  0.51753017  0.61575225  0.50372620  1
  O2-  O288  1  0.11741774  0.27937541  0.02393984  1
  O2-  O289  1  0.13203776  0.27394076  0.51544007  1
  O2-  O290  1  0.13558669  0.76450929  0.01276647  1
  O2-  O291  1  0.11770331  0.75947401  0.52801520  1
  O2-  O292  1  0.61294146  0.28042680  0.01824733  1
  O2-  O293  1  0.61344859  0.27966331  0.52320281  1
  O2-  O294  1  0.62580571  0.76675934  0.00892906  1
  O2-  O295  1  0.61256781  0.75954858  0.52720091  1
  O2-  O296  1  0.38206181  0.23720482  -0.02951103  1
  O2-  O297  1  0.36853924  0.23932102  0.47643823  1
  O2-  O298  1  0.37903683  0.72592505  -0.01795263  1
  O2-  O299  1  0.38540228  0.71340239  0.49168845  1
  O2-  O300  1  0.88288752  0.22823937  -0.02556923  1
  O2-  O301  1  0.88677927  0.23806348  0.47626910  1
  O2-  O302  1  0.87281380  0.72530133  -0.00946672  1
  O2-  O303  1  0.88717892  0.71794104  0.48561181  1
  O2-  O304  1  0.27090438  0.39122091  0.02508500  1
  O2-  O305  1  0.26334462  0.38055716  0.51195848  1
  O2-  O306  1  0.27785065  0.86701374  0.00906357  1
  O2-  O307  1  0.27063535  0.88585248  0.52230884  1
  O2-  O308  1  0.76653280  0.38643745  -0.01889101  1
  O2-  O309  1  0.76702920  0.38329688  0.52201243  1
  O2-  O310  1  0.77244638  0.86629236  -0.00793792  1
  O2-  O311  1  0.78717305  0.88208637  0.50271038  1
  O2-  O312  1  0.22436161  0.11434570  -0.01164889  1
  O2-  O313  1  0.22898877  0.13466812  0.48176351  1
  O2-  O314  1  0.23939634  0.62639452  -0.00979173  1
  O2-  O315  1  0.22665925  0.61201134  0.48663619  1
  O2-  O316  1  0.71432995  0.11286761  0.00451190  1
  O2-  O317  1  0.71126172  0.11190424  0.49404595  1
  O2-  O318  1  0.72851192  0.63010218  0.01041676  1
  O2-  O319  1  0.72433811  0.61395991  0.48956532  1
