# generated using pymatgen
data_Sr64Ca21Nb43O192
_symmetry_space_group_name_H-M   'P 1'
_cell_length_a   16.55182958
_cell_length_b   16.60831691
_cell_length_c   16.73969050
_cell_angle_alpha   90.02038473
_cell_angle_beta   89.95551696
_cell_angle_gamma   89.99785529
_symmetry_Int_Tables_number   1
_chemical_formula_structural   Sr64Ca21Nb43O192
_chemical_formula_sum   'Sr64 Ca21 Nb43 O192'
_cell_volume   4601.70627597
_cell_formula_units_Z   1
loop_
 _symmetry_equiv_pos_site_id
 _symmetry_equiv_pos_as_xyz
  1  'x, y, z'
loop_
 _atom_type_symbol
 _atom_type_oxidation_number
  Sr2+  2.0
  Ca2+  2.0
  Nb5+  5.0
  O2-  -2.0
loop_
 _atom_site_type_symbol
 _atom_site_label
 _atom_site_symmetry_multiplicity
 _atom_site_fract_x
 _atom_site_fract_y
 _atom_site_fract_z
 _atom_site_occupancy
  Sr2+  Sr0  1  0.13135107  0.13820132  0.12244287  1
  Sr2+  Sr1  1  0.13303658  0.12777040  0.62731416  1
  Sr2+  Sr2  1  0.12710415  0.64139004  0.13015783  1
  Sr2+  Sr3  1  0.12581787  0.64960320  0.62262973  1
  Sr2+  Sr4  1  0.63670918  0.12023925  0.12510366  1
  Sr2+  Sr5  1  0.63125589  0.13631719  0.63111959  1
  Sr2+  Sr6  1  0.62466516  0.64065727  0.12201904  1
  Sr2+  Sr7  1  0.63349620  0.64152566  0.62535740  1
  Sr2+  Sr8  1  0.37595387  0.38862518  0.13454826  1
  Sr2+  Sr9  1  0.37064597  0.38868481  0.62110518  1
  Sr2+  Sr10  1  0.37873859  0.87028942  0.13203081  1
  Sr2+  Sr11  1  0.37822443  0.87576786  0.62502674  1
  Sr2+  Sr12  1  0.88382275  0.39019091  0.12525676  1
  Sr2+  Sr13  1  0.88018485  0.38359398  0.62624890  1
  Sr2+  Sr14  1  0.88213001  0.88484419  0.12725947  1
  Sr2+  Sr15  1  0.88532871  0.87771292  0.61804123  1
  Sr2+  Sr16  1  0.13068086  0.37029974  0.37029179  1
  Sr2+  Sr17  1  0.12335723  0.36326517  0.88072295  1
  Sr2+  Sr18  1  0.11458285  0.86875325  0.37787214  1
  Sr2+  Sr19  1  0.12539577  0.87434311  0.86450641  1
  Sr2+  Sr20  1  0.61326753  0.36384468  0.37468811  1
  Sr2+  Sr21  1  0.61513200  0.37106813  0.87477800  1
  Sr2+  Sr22  1  0.60976478  0.87119328  0.37170755  1
  Sr2+  Sr23  1  0.61289046  0.86407245  0.87363981  1
  Sr2+  Sr24  1  0.37343996  0.11899199  0.38221451  1
  Sr2+  Sr25  1  0.37425214  0.11876692  0.87555704  1
  Sr2+  Sr26  1  0.36972500  0.61622916  0.37931509  1
  Sr2+  Sr27  1  0.37935736  0.61509143  0.87408551  1
  Sr2+  Sr28  1  0.85969336  0.11875017  0.37783961  1
  Sr2+  Sr29  1  0.87326833  0.11635761  0.87355981  1
  Sr2+  Sr30  1  0.87083751  0.62692455  0.36730763  1
  Sr2+  Sr31  1  0.86125691  0.61423768  0.87573522  1
  Sr2+  Sr32  1  0.13093421  0.11030372  0.37840662  1
  Sr2+  Sr33  1  0.12437029  0.11350210  0.87091304  1
  Sr2+  Sr34  1  0.11883730  0.63013733  0.37176187  1
  Sr2+  Sr35  1  0.12539451  0.62871695  0.87354052  1
  Sr2+  Sr36  1  0.62238262  0.11039086  0.36529170  1
  Sr2+  Sr37  1  0.61549303  0.11574227  0.87221437  1
  Sr2+  Sr38  1  0.61350886  0.61483358  0.38054862  1
  Sr2+  Sr39  1  0.61824848  0.61660315  0.87499619  1
  Sr2+  Sr40  1  0.37075195  0.38117528  0.37867727  1
  Sr2+  Sr41  1  0.37094156  0.37221201  0.87774313  1
  Sr2+  Sr42  1  0.37002976  0.86963048  0.37464569  1
  Sr2+  Sr43  1  0.36070681  0.84977249  0.87327584  1
  Sr2+  Sr44  1  0.87084937  0.35970081  0.37834436  1
  Sr2+  Sr45  1  0.87207875  0.37520275  0.87899526  1
  Sr2+  Sr46  1  0.87072063  0.86361106  0.37219990  1
  Sr2+  Sr47  1  0.86601020  0.86401460  0.88160858  1
  Sr2+  Sr48  1  0.12980633  0.37950973  0.12343208  1
  Sr2+  Sr49  1  0.12366856  0.37952189  0.61870495  1
  Sr2+  Sr50  1  0.13126702  0.88410988  0.12950047  1
  Sr2+  Sr51  1  0.13524887  0.88432926  0.61994549  1
  Sr2+  Sr52  1  0.62962006  0.38092967  0.13774214  1
  Sr2+  Sr53  1  0.64008168  0.38112828  0.62285824  1
  Sr2+  Sr54  1  0.64302252  0.87847625  0.12185896  1
  Sr2+  Sr55  1  0.63166562  0.88088462  0.62996945  1
  Sr2+  Sr56  1  0.38835294  0.13814865  0.12556249  1
  Sr2+  Sr57  1  0.38854064  0.13096658  0.62974989  1
  Sr2+  Sr58  1  0.37746005  0.63041925  0.11665087  1
  Sr2+  Sr59  1  0.38014617  0.63736454  0.61740312  1
  Sr2+  Sr60  1  0.88009817  0.12112065  0.12588209  1
  Sr2+  Sr61  1  0.88434880  0.13618793  0.62198806  1
  Sr2+  Sr62  1  0.88186324  0.63716451  0.12220901  1
  Sr2+  Sr63  1  0.87556433  0.62405895  0.63850156  1
  Ca2+  Ca64  1  -0.00047713  0.00307822  0.49814516  1
  Ca2+  Ca65  1  0.50322769  0.49900039  0.50706180  1
  Ca2+  Ca66  1  0.49969882  -0.00124874  0.00188935  1
  Ca2+  Ca67  1  0.50211146  0.00118175  0.50166673  1
  Ca2+  Ca68  1  -0.00072968  0.50110149  0.50076172  1
  Ca2+  Ca69  1  0.74795663  0.75148261  0.49799045  1
  Ca2+  Ca70  1  0.75262511  0.25045127  -0.00129594  1
  Ca2+  Ca71  1  0.75070132  0.74842171  -0.00070304  1
  Ca2+  Ca72  1  0.24987160  0.75124208  0.49629022  1
  Ca2+  Ca73  1  0.24743375  0.74980842  0.00192558  1
  Ca2+  Ca74  1  0.25003560  0.50156347  0.24892953  1
  Ca2+  Ca75  1  -0.00245733  0.75105763  0.75296260  1
  Ca2+  Ca76  1  0.25230268  0.00200325  0.74825009  1
  Ca2+  Ca77  1  0.49791818  0.24693088  0.24964256  1
  Ca2+  Ca78  1  0.75087093  0.50092821  0.25105944  1
  Ca2+  Ca79  1  0.49998651  0.74634267  0.25240934  1
  Ca2+  Ca80  1  0.24960450  0.00365988  0.24599385  1
  Ca2+  Ca81  1  0.75119974  0.00329268  0.75003137  1
  Ca2+  Ca82  1  0.00157733  0.24870448  0.24965586  1
  Ca2+  Ca83  1  0.49815510  0.74509124  0.74934756  1
  Ca2+  Ca84  1  0.24689234  0.50241804  0.74916701  1
  Nb5+  Nb85  1  -0.00155200  0.50707026  0.00050915  1
  Nb5+  Nb86  1  0.00318482  0.00556369  -0.00041478  1
  Nb5+  Nb87  1  0.49648458  0.49730900  0.00248622  1
  Nb5+  Nb88  1  0.74423561  0.25115148  0.49972486  1
  Nb5+  Nb89  1  0.24845452  0.24910068  0.50698232  1
  Nb5+  Nb90  1  0.25350773  0.24845979  0.00285100  1
  Nb5+  Nb91  1  0.50560364  0.25433834  0.74910362  1
  Nb5+  Nb92  1  -0.00097502  0.75371138  0.24703864  1
  Nb5+  Nb93  1  0.75257713  -0.00429844  0.25065080  1
  Nb5+  Nb94  1  0.00915440  0.25308183  0.74898931  1
  Nb5+  Nb95  1  0.74590051  0.50028947  0.75127751  1
  Nb5+  Nb96  1  0.00101697  0.00462087  0.25102249  1
  Nb5+  Nb97  1  -0.00572625  -0.00437942  0.74868288  1
  Nb5+  Nb98  1  -0.00448181  0.49907089  0.25464069  1
  Nb5+  Nb99  1  0.00356298  0.49661033  0.75472235  1
  Nb5+  Nb100  1  0.49467628  -0.00008980  0.24260680  1
  Nb5+  Nb101  1  0.49711137  -0.00808061  0.75648358  1
  Nb5+  Nb102  1  0.50009937  0.50026175  0.25583073  1
  Nb5+  Nb103  1  0.50087334  0.49753709  0.74734157  1
  Nb5+  Nb104  1  0.24979080  0.24777310  0.25925816  1
  Nb5+  Nb105  1  0.25801120  0.25049433  0.75531241  1
  Nb5+  Nb106  1  0.25369472  0.74833914  0.25258167  1
  Nb5+  Nb107  1  0.24685036  0.74863786  0.74710816  1
  Nb5+  Nb108  1  0.75522665  0.24970220  0.24397483  1
  Nb5+  Nb109  1  0.75728230  0.25315016  0.75311370  1
  Nb5+  Nb110  1  0.74445702  0.74782861  0.25226889  1
  Nb5+  Nb111  1  0.75360294  0.75905405  0.74756680  1
  Nb5+  Nb112  1  -0.00003397  0.24725887  0.49531462  1
  Nb5+  Nb113  1  -0.00103379  0.25359681  0.99841771  1
  Nb5+  Nb114  1  -0.00583696  0.75015769  0.50226970  1
  Nb5+  Nb115  1  0.00173127  0.76060290  0.99810450  1
  Nb5+  Nb116  1  0.49562072  0.24649681  0.49852765  1
  Nb5+  Nb117  1  0.50643514  0.25414708  1.00294197  1
  Nb5+  Nb118  1  0.50095488  0.75111099  0.50061864  1
  Nb5+  Nb119  1  0.49563117  0.75315003  0.99893012  1
  Nb5+  Nb120  1  0.25539776  0.00047167  0.00233173  1
  Nb5+  Nb121  1  0.25581693  -0.00168348  0.49938842  1
  Nb5+  Nb122  1  0.24140610  0.49964686  -0.00368672  1
  Nb5+  Nb123  1  0.24352975  0.50412331  0.50101861  1
  Nb5+  Nb124  1  0.75136941  -0.00285679  -0.00516481  1
  Nb5+  Nb125  1  0.74948042  -0.00070050  0.50436711  1
  Nb5+  Nb126  1  0.74047066  0.49725138  0.00234354  1
  Nb5+  Nb127  1  0.75439644  0.50126949  0.49492480  1
  O2-  O128  1  0.00997318  -0.01915056  0.11658430  1
  O2-  O129  1  0.00778042  -0.02263227  0.63504422  1
  O2-  O130  1  0.01687098  0.48230213  0.11426980  1
  O2-  O131  1  0.00979731  0.47722320  0.64122263  1
  O2-  O132  1  0.52687279  -0.02907537  0.13202789  1
  O2-  O133  1  0.51414220  -0.02157587  0.63946738  1
  O2-  O134  1  0.51432387  0.47542457  0.11686739  1
  O2-  O135  1  0.51534269  0.46473953  0.63914325  1
  O2-  O136  1  -0.01332098  0.02960120  0.36178225  1
  O2-  O137  1  -0.01347098  0.01637754  0.87971655  1
  O2-  O138  1  -0.02022782  0.52113671  0.36447108  1
  O2-  O139  1  -0.02267600  0.50614047  0.88086839  1
  O2-  O140  1  0.49204460  0.02670143  0.36056251  1
  O2-  O141  1  0.49225526  0.03116772  0.87023141  1
  O2-  O142  1  0.48399246  0.51623391  0.36926029  1
  O2-  O143  1  0.49474928  0.51139799  0.87807292  1
  O2-  O144  1  0.26471823  0.24483671  0.11755240  1
  O2-  O145  1  0.26438219  0.24289102  0.62359599  1
  O2-  O146  1  0.26998489  0.73751138  0.13468992  1
  O2-  O147  1  0.26653926  0.73918539  0.63033841  1
  O2-  O148  1  0.76555167  0.22143259  0.13366599  1
  O2-  O149  1  0.75938030  0.23393889  0.62298329  1
  O2-  O150  1  0.76302204  0.72819544  0.13540622  1
  O2-  O151  1  0.76556583  0.72189637  0.63437178  1
  O2-  O152  1  0.23910744  0.25283125  0.37628713  1
  O2-  O153  1  0.23708337  0.25582218  0.87009642  1
  O2-  O154  1  0.21676900  0.76004109  0.36510612  1
  O2-  O155  1  0.22400453  0.76039880  0.86795408  1
  O2-  O156  1  0.73835417  0.27131381  0.38341788  1
  O2-  O157  1  0.74041409  0.27926812  0.86313830  1
  O2-  O158  1  0.73943292  0.78657789  0.36355892  1
  O2-  O159  1  0.73600284  0.77725962  0.86555114  1
  O2-  O160  1  -0.02227371  0.25924278  0.11133549  1
  O2-  O161  1  -0.01385059  0.26856416  0.63343672  1
  O2-  O162  1  -0.02483069  0.75913773  0.12523738  1
  O2-  O163  1  -0.03075401  0.74975328  0.61558775  1
  O2-  O164  1  0.47299998  0.27128230  0.11232632  1
  O2-  O165  1  0.47719484  0.27075613  0.63621826  1
  O2-  O166  1  0.47231116  0.74853771  0.11660489  1
  O2-  O167  1  0.47064461  0.76065710  0.61894592  1
  O2-  O168  1  0.27664028  0.00449040  0.38039937  1
  O2-  O169  1  0.25507014  0.00535233  0.88517727  1
  O2-  O170  1  0.27228510  0.49578559  0.38406819  1
  O2-  O171  1  0.27770165  0.49802717  0.88498764  1
  O2-  O172  1  0.77665665  -0.01081694  0.36679184  1
  O2-  O173  1  0.78092608  -0.01185933  0.88341810  1
  O2-  O174  1  0.78695687  0.48547738  0.38594596  1
  O2-  O175  1  0.76317165  0.47943090  0.87215300  1
  O2-  O176  1  0.02974190  0.23283305  0.38632967  1
  O2-  O177  1  0.02533106  0.24010850  0.87169752  1
  O2-  O178  1  0.01686070  0.74662965  0.36403708  1
  O2-  O179  1  0.03152690  0.74889825  0.88716921  1
  O2-  O180  1  0.51587492  0.22557817  0.38830860  1
  O2-  O181  1  0.51398143  0.23992164  0.87641357  1
  O2-  O182  1  0.53054757  0.73587593  0.38495184  1
  O2-  O183  1  0.52176921  0.73093190  0.88464257  1
  O2-  O184  1  0.21444163  0.01378925  0.11089719  1
  O2-  O185  1  0.22540135  0.00879292  0.61440843  1
  O2-  O186  1  0.24301558  0.48109388  0.11151975  1
  O2-  O187  1  0.22796710  0.48506531  0.61657394  1
  O2-  O188  1  0.74340421  0.01405227  0.12627159  1
  O2-  O189  1  0.72286120  0.01816386  0.61429719  1
  O2-  O190  1  0.72273136  0.51604011  0.11421463  1
  O2-  O191  1  0.72725778  0.51121009  0.63386782  1
  O2-  O192  1  0.13538093  0.28051074  0.23131799  1
  O2-  O193  1  0.12336616  0.27701451  0.73609493  1
  O2-  O194  1  0.11487307  0.77021217  0.22600249  1
  O2-  O195  1  0.12800630  0.77976766  0.72433855  1
  O2-  O196  1  0.63692894  0.26436757  0.24592264  1
  O2-  O197  1  0.62063455  0.27504813  0.73601723  1
  O2-  O198  1  0.63377253  0.77248531  0.22875454  1
  O2-  O199  1  0.63447965  0.76627770  0.73226522  1
  O2-  O200  1  0.36251716  0.20989512  0.25823450  1
  O2-  O201  1  0.37380163  0.23031001  0.76739536  1
  O2-  O202  1  0.36453205  0.73012723  0.28079200  1
  O2-  O203  1  0.36225290  0.72111204  0.77255195  1
  O2-  O204  1  0.86674792  0.23358850  0.28180518  1
  O2-  O205  1  0.87280722  0.23479218  0.76162955  1
  O2-  O206  1  0.87584457  0.73871738  0.26320485  1
  O2-  O207  1  0.86469954  0.72308369  0.77383707  1
  O2-  O208  1  0.28018786  0.36306394  0.25238232  1
  O2-  O209  1  0.27282104  0.36546753  0.74264046  1
  O2-  O210  1  0.26499633  0.86695294  0.23728960  1
  O2-  O211  1  0.27489623  0.86788766  0.74373591  1
  O2-  O212  1  0.77253409  0.36389561  0.22677474  1
  O2-  O213  1  0.76325853  0.37246384  0.72553634  1
  O2-  O214  1  0.76943380  0.87994562  0.22842556  1
  O2-  O215  1  0.77566488  0.86928040  0.72252493  1
  O2-  O216  1  0.20989954  0.13537913  0.25251286  1
  O2-  O217  1  0.22269246  0.13878709  0.74978503  1
  O2-  O218  1  0.21725170  0.63368517  0.25341140  1
  O2-  O219  1  0.21032697  0.63316441  0.75155203  1
  O2-  O220  1  0.73989464  0.12021620  0.26504665  1
  O2-  O221  1  0.72389259  0.14182515  0.76380845  1
  O2-  O222  1  0.73414868  0.63601706  0.28185629  1
  O2-  O223  1  0.73276036  0.61494885  0.76983832  1
  O2-  O224  1  0.11244126  0.48131442  0.25803757  1
  O2-  O225  1  0.11269033  0.47513197  0.78133349  1
  O2-  O226  1  0.11260145  0.97556075  0.26383240  1
  O2-  O227  1  0.11097450  0.99133764  0.76851243  1
  O2-  O228  1  0.61744504  0.46764651  0.26575251  1
  O2-  O229  1  0.62922364  0.47403747  0.76912095  1
  O2-  O230  1  0.63582767  0.98342252  0.26358274  1
  O2-  O231  1  0.61731009  0.98327280  0.77393113  1
  O2-  O232  1  0.38378456  0.01484326  0.21438437  1
  O2-  O233  1  0.38589784  0.03191639  0.74001881  1
  O2-  O234  1  0.38692464  0.52310925  0.22414256  1
  O2-  O235  1  0.38745028  0.51827460  0.73594143  1
  O2-  O236  1  0.87726871  0.01140212  0.22965076  1
  O2-  O237  1  0.88494550  0.04052076  0.73906259  1
  O2-  O238  1  0.88433874  0.52193487  0.21617784  1
  O2-  O239  1  0.86936477  0.50795677  0.74253128  1
  O2-  O240  1  0.47490323  0.38099238  0.26368717  1
  O2-  O241  1  0.48496218  0.37275750  0.77805274  1
  O2-  O242  1  0.48125005  0.88340689  0.27081791  1
  O2-  O243  1  0.47438644  0.88175797  0.77858970  1
  O2-  O244  1  0.97252421  0.38505090  0.26038115  1
  O2-  O245  1  0.97715907  0.36982037  0.77101121  1
  O2-  O246  1  0.97879509  0.87599193  0.25593268  1
  O2-  O247  1  0.96542428  0.88641939  0.76893580  1
  O2-  O248  1  0.01310378  0.11436409  0.21649252  1
  O2-  O249  1  0.01975975  0.13607436  0.73837244  1
  O2-  O250  1  0.01307453  0.63146475  0.23524698  1
  O2-  O251  1  0.01332543  0.61176823  0.74546289  1
  O2-  O252  1  0.52496055  0.11530011  0.22159327  1
  O2-  O253  1  0.52117793  0.13827919  0.73785860  1
  O2-  O254  1  0.53430864  0.61176153  0.23522894  1
  O2-  O255  1  0.53186924  0.60869945  0.73917195  1
  O2-  O256  1  0.12469023  0.48125825  -0.02189453  1
  O2-  O257  1  0.13221007  0.46568969  0.48050604  1
  O2-  O258  1  0.11762005  0.97912187  -0.02003940  1
  O2-  O259  1  0.13580304  0.98788721  0.47365354  1
  O2-  O260  1  0.62627242  0.47787003  -0.01716258  1
  O2-  O261  1  0.64082535  0.46663083  0.48604907  1
  O2-  O262  1  0.63805555  0.97201355  -0.01614467  1
  O2-  O263  1  0.63813101  0.99077813  0.46565651  1
  O2-  O264  1  0.36403716  0.03551559  0.01704425  1
  O2-  O265  1  0.36775632  0.03349720  0.51868690  1
  O2-  O266  1  0.37923021  0.51003506  0.01418467  1
  O2-  O267  1  0.36409898  0.51365956  0.52375760  1
  O2-  O268  1  0.88185417  0.02193941  0.01380356  1
  O2-  O269  1  0.86327694  0.03281954  0.50956178  1
  O2-  O270  1  0.88162517  0.51623451  0.01671933  1
  O2-  O271  1  0.86431412  0.51166875  0.53804198  1
  O2-  O272  1  0.48303697  0.37673398  -0.02209562  1
  O2-  O273  1  0.48442942  0.36259489  0.48667711  1
  O2-  O274  1  0.47226080  0.86448783  -0.01766573  1
  O2-  O275  1  0.47578879  0.86783628  0.48075661  1
  O2-  O276  1  0.99052279  0.37171008  -0.01545516  1
  O2-  O277  1  0.98245593  0.36312068  0.49147624  1
  O2-  O278  1  0.97863151  0.87517460  -0.01123525  1
  O2-  O279  1  0.97582609  0.86916697  0.48260099  1
  O2-  O280  1  0.02123485  0.12334444  0.00974916  1
  O2-  O281  1  0.01523207  0.13714605  0.53371433  1
  O2-  O282  1  0.02294762  0.61947462  0.00850285  1
  O2-  O283  1  0.02436705  0.63533599  0.49876118  1
  O2-  O284  1  0.52019748  0.13935438  0.01790730  1
  O2-  O285  1  0.51600609  0.13811990  0.53825207  1
  O2-  O286  1  0.51897981  0.61273160  0.01298741  1
  O2-  O287  1  0.52646811  0.63086520  0.52024731  1
  O2-  O288  1  0.12384674  0.26542343  0.01349578  1
  O2-  O289  1  0.12952332  0.26625816  0.51848312  1
  O2-  O290  1  0.11342342  0.76463958  0.03465190  1
  O2-  O291  1  0.11213624  0.77760646  0.51640661  1
  O2-  O292  1  0.61724659  0.28101812  0.01611486  1
  O2-  O293  1  0.62698173  0.26714778  0.51767976  1
  O2-  O294  1  0.61383807  0.76279120  0.02273234  1
  O2-  O295  1  0.61651983  0.77660742  0.52830676  1
  O2-  O296  1  0.36953713  0.23619720  -0.02051383  1
  O2-  O297  1  0.37650552  0.22945419  0.49220455  1
  O2-  O298  1  0.38115029  0.71833041  -0.02087990  1
  O2-  O299  1  0.38334705  0.71994573  0.47981799  1
  O2-  O300  1  0.88849700  0.23242250  -0.03059253  1
  O2-  O301  1  0.87934779  0.23125621  0.48618476  1
  O2-  O302  1  0.88989642  0.72400795  -0.01670332  1
  O2-  O303  1  0.88144724  0.73238958  0.46759886  1
  O2-  O304  1  0.25559512  0.36802022  -0.00971245  1
  O2-  O305  1  0.27210679  0.36426293  0.49810506  1
  O2-  O306  1  0.27610213  0.88696230  0.01104236  1
  O2-  O307  1  0.27816754  0.88514810  0.50765455  1
  O2-  O308  1  0.77870508  0.38641320  0.01531619  1
  O2-  O309  1  0.77355583  0.36705392  0.51760213  1
  O2-  O310  1  0.77813976  0.88317402  0.01979516  1
  O2-  O311  1  0.77181265  0.88775306  0.52009342  1
  O2-  O312  1  0.22523904  0.13451458  -0.01114183  1
  O2-  O313  1  0.23104518  0.13281859  0.49110399  1
  O2-  O314  1  0.22535255  0.61296149  0.00196139  1
  O2-  O315  1  0.21772759  0.61580579  0.49826111  1
  O2-  O316  1  0.73074656  0.11514371  -0.01432871  1
  O2-  O317  1  0.73313669  0.13388106  0.48173799  1
  O2-  O318  1  0.74097404  0.61132383  -0.02716961  1
  O2-  O319  1  0.72921280  0.61301692  0.48326409  1
