# generated using pymatgen
data_Sr64Ca21Nb43O192
_symmetry_space_group_name_H-M   'P 1'
_cell_length_a   16.56975842
_cell_length_b   16.56187496
_cell_length_c   16.72583381
_cell_angle_alpha   90.00278791
_cell_angle_beta   90.04191368
_cell_angle_gamma   89.92893749
_symmetry_Int_Tables_number   1
_chemical_formula_structural   Sr64Ca21Nb43O192
_chemical_formula_sum   'Sr64 Ca21 Nb43 O192'
_cell_volume   4590.00337087
_cell_formula_units_Z   1
loop_
 _symmetry_equiv_pos_site_id
 _symmetry_equiv_pos_as_xyz
  1  'x, y, z'
loop_
 _atom_type_symbol
 _atom_type_oxidation_number
  Sr2+  2.0
  Ca2+  2.0
  Nb5+  5.0
  O2-  -2.0
loop_
 _atom_site_type_symbol
 _atom_site_label
 _atom_site_symmetry_multiplicity
 _atom_site_fract_x
 _atom_site_fract_y
 _atom_site_fract_z
 _atom_site_occupancy
  Sr2+  Sr0  1  0.12594442  0.10553471  0.12362460  1
  Sr2+  Sr1  1  0.13173347  0.14252900  0.62903708  1
  Sr2+  Sr2  1  0.12800804  0.62460482  0.12476853  1
  Sr2+  Sr3  1  0.12277435  0.64138498  0.62226571  1
  Sr2+  Sr4  1  0.61962109  0.11641232  0.11656888  1
  Sr2+  Sr5  1  0.61585051  0.11093580  0.63240465  1
  Sr2+  Sr6  1  0.62468502  0.62384903  0.12331856  1
  Sr2+  Sr7  1  0.62391802  0.62061769  0.62777911  1
  Sr2+  Sr8  1  0.36827389  0.36052975  0.12619407  1
  Sr2+  Sr9  1  0.36997582  0.36185540  0.62005202  1
  Sr2+  Sr10  1  0.36825183  0.85696286  0.12690831  1
  Sr2+  Sr11  1  0.36626016  0.86997816  0.62033249  1
  Sr2+  Sr12  1  0.86359279  0.35894105  0.13017900  1
  Sr2+  Sr13  1  0.87385281  0.36513474  0.62514176  1
  Sr2+  Sr14  1  0.87064804  0.87738443  0.12335169  1
  Sr2+  Sr15  1  0.87381378  0.86663149  0.62460970  1
  Sr2+  Sr16  1  0.12080601  0.38176308  0.37395761  1
  Sr2+  Sr17  1  0.12281522  0.37526252  0.87028094  1
  Sr2+  Sr18  1  0.12086795  0.89126723  0.36533902  1
  Sr2+  Sr19  1  0.11878681  0.88198235  0.86917136  1
  Sr2+  Sr20  1  0.63398423  0.38340470  0.37533443  1
  Sr2+  Sr21  1  0.63622928  0.38490553  0.87884659  1
  Sr2+  Sr22  1  0.62350364  0.87739523  0.37592291  1
  Sr2+  Sr23  1  0.63430622  0.88350632  0.87482928  1
  Sr2+  Sr24  1  0.38796056  0.12587977  0.37825570  1
  Sr2+  Sr25  1  0.38914608  0.13489564  0.87073184  1
  Sr2+  Sr26  1  0.38617706  0.62751290  0.37644644  1
  Sr2+  Sr27  1  0.38533717  0.63588216  0.87952321  1
  Sr2+  Sr28  1  0.88129481  0.13069546  0.36722572  1
  Sr2+  Sr29  1  0.87377640  0.13334011  0.87603017  1
  Sr2+  Sr30  1  0.87275109  0.62630472  0.37473731  1
  Sr2+  Sr31  1  0.87537715  0.62426196  0.87358137  1
  Sr2+  Sr32  1  0.12704411  0.12518240  0.36387858  1
  Sr2+  Sr33  1  0.12613097  0.13185843  0.87686779  1
  Sr2+  Sr34  1  0.12414089  0.62962738  0.36489291  1
  Sr2+  Sr35  1  0.12236260  0.63839477  0.87388417  1
  Sr2+  Sr36  1  0.62749317  0.11276528  0.37576651  1
  Sr2+  Sr37  1  0.63015749  0.12378459  0.87726278  1
  Sr2+  Sr38  1  0.63234311  0.63572039  0.37567509  1
  Sr2+  Sr39  1  0.63256268  0.63098687  0.87796473  1
  Sr2+  Sr40  1  0.38119887  0.38140067  0.37114831  1
  Sr2+  Sr41  1  0.37493039  0.37713790  0.88941924  1
  Sr2+  Sr42  1  0.38349650  0.89212621  0.37288467  1
  Sr2+  Sr43  1  0.37907585  0.88383190  0.87497057  1
  Sr2+  Sr44  1  0.87149536  0.36240849  0.37874488  1
  Sr2+  Sr45  1  0.87313170  0.37998633  0.87442722  1
  Sr2+  Sr46  1  0.87006491  0.89676419  0.37424122  1
  Sr2+  Sr47  1  0.87612099  0.90434136  0.87532809  1
  Sr2+  Sr48  1  0.13624179  0.37090198  0.12996099  1
  Sr2+  Sr49  1  0.11898378  0.37424283  0.62018885  1
  Sr2+  Sr50  1  0.12406773  0.86751392  0.12970932  1
  Sr2+  Sr51  1  0.11643247  0.87138069  0.62757672  1
  Sr2+  Sr52  1  0.61317583  0.36595521  0.12848304  1
  Sr2+  Sr53  1  0.61739160  0.36843849  0.62301218  1
  Sr2+  Sr54  1  0.60629640  0.86875261  0.12676806  1
  Sr2+  Sr55  1  0.62343200  0.86871282  0.62421009  1
  Sr2+  Sr56  1  0.37006887  0.12482744  0.11731480  1
  Sr2+  Sr57  1  0.36503872  0.11142140  0.62514959  1
  Sr2+  Sr58  1  0.37085070  0.61957916  0.11728349  1
  Sr2+  Sr59  1  0.36195970  0.61172080  0.62387366  1
  Sr2+  Sr60  1  0.88248783  0.11295510  0.12165508  1
  Sr2+  Sr61  1  0.88166965  0.12232864  0.62363613  1
  Sr2+  Sr62  1  0.88372502  0.61447989  0.12397500  1
  Sr2+  Sr63  1  0.87541060  0.61993330  0.62562931  1
  Ca2+  Ca64  1  0.00304550  0.49809316  -0.00073133  1
  Ca2+  Ca65  1  0.49669873  -0.00143096  -0.00060984  1
  Ca2+  Ca66  1  0.50079896  0.49960527  0.00029920  1
  Ca2+  Ca67  1  0.00038631  0.00069108  0.50091761  1
  Ca2+  Ca68  1  0.00483066  -0.00016037  -0.00217768  1
  Ca2+  Ca69  1  0.74595753  0.25012463  0.49967943  1
  Ca2+  Ca70  1  0.75098191  0.25120556  -0.00017657  1
  Ca2+  Ca71  1  0.25108074  0.75233556  0.49722090  1
  Ca2+  Ca72  1  0.75165852  0.75084572  -0.00094209  1
  Ca2+  Ca73  1  0.25407370  0.24955271  0.49803683  1
  Ca2+  Ca74  1  -0.00602773  0.74946126  0.25106320  1
  Ca2+  Ca75  1  0.75057944  -0.00017490  0.74741985  1
  Ca2+  Ca76  1  0.25512732  -0.00177173  0.24767583  1
  Ca2+  Ca77  1  0.00112796  0.25208863  0.24606007  1
  Ca2+  Ca78  1  0.50007207  0.75137854  0.74815660  1
  Ca2+  Ca79  1  0.50033325  0.24900099  0.25326229  1
  Ca2+  Ca80  1  0.74745445  -0.00166467  0.24792436  1
  Ca2+  Ca81  1  0.24578323  0.49950643  0.75312828  1
  Ca2+  Ca82  1  0.49795138  0.74845264  0.25204706  1
  Ca2+  Ca83  1  0.24698963  -0.00032263  0.75451926  1
  Ca2+  Ca84  1  0.50331700  0.25368225  0.74870454  1
  Nb5+  Nb85  1  -0.00717941  0.50148576  0.49818158  1
  Nb5+  Nb86  1  0.49578924  0.49752766  0.50192188  1
  Nb5+  Nb87  1  0.49947818  -0.00606394  0.50471768  1
  Nb5+  Nb88  1  0.24838772  0.74405755  -0.00043494  1
  Nb5+  Nb89  1  0.24853001  0.24219344  0.00070735  1
  Nb5+  Nb90  1  0.75229697  0.75154617  0.49807664  1
  Nb5+  Nb91  1  0.75027056  0.49992736  0.75109905  1
  Nb5+  Nb92  1  0.25776576  0.50038969  0.25251151  1
  Nb5+  Nb93  1  0.75607904  0.50325618  0.25618986  1
  Nb5+  Nb94  1  -0.00483844  0.75435753  0.75132382  1
  Nb5+  Nb95  1  -0.00235310  0.25680638  0.75019279  1
  Nb5+  Nb96  1  -0.00122813  -0.00082870  0.24887664  1
  Nb5+  Nb97  1  0.00125536  0.01189162  0.74557022  1
  Nb5+  Nb98  1  0.00353948  0.49507338  0.24528021  1
  Nb5+  Nb99  1  0.00118201  0.50556393  0.74642621  1
  Nb5+  Nb100  1  0.49811282  0.00297063  0.24479214  1
  Nb5+  Nb101  1  0.49963833  -0.00258013  0.75360972  1
  Nb5+  Nb102  1  0.50756780  0.50258634  0.24970371  1
  Nb5+  Nb103  1  0.49707399  0.50117293  0.75174006  1
  Nb5+  Nb104  1  0.25038992  0.24373122  0.25246954  1
  Nb5+  Nb105  1  0.25389315  0.25264624  0.75058538  1
  Nb5+  Nb106  1  0.25223456  0.74687872  0.25637873  1
  Nb5+  Nb107  1  0.25183799  0.74791960  0.74881253  1
  Nb5+  Nb108  1  0.74250364  0.24386627  0.24791168  1
  Nb5+  Nb109  1  0.74629880  0.25185350  0.74855642  1
  Nb5+  Nb110  1  0.74912096  0.75115767  0.24557829  1
  Nb5+  Nb111  1  0.75162860  0.75052838  0.75087019  1
  Nb5+  Nb112  1  0.00323123  0.24609514  0.49944984  1
  Nb5+  Nb113  1  0.00216386  0.25412489  1.00311954  1
  Nb5+  Nb114  1  -0.00350570  0.74935668  0.49574803  1
  Nb5+  Nb115  1  -0.00305495  0.74967051  1.00136667  1
  Nb5+  Nb116  1  0.50395182  0.24083350  0.50115320  1
  Nb5+  Nb117  1  0.50559439  0.25364525  0.99623741  1
  Nb5+  Nb118  1  0.49866769  0.74372907  0.50369070  1
  Nb5+  Nb119  1  0.50393634  0.75265646  0.99613867  1
  Nb5+  Nb120  1  0.25199736  -0.01115802  -0.00139261  1
  Nb5+  Nb121  1  0.24302549  -0.00455341  0.50158575  1
  Nb5+  Nb122  1  0.24408632  0.49730897  -0.00219556  1
  Nb5+  Nb123  1  0.24175342  0.49713252  0.50149302  1
  Nb5+  Nb124  1  0.75084873  0.00064077  0.00242367  1
  Nb5+  Nb125  1  0.75016511  0.00589701  0.50282163  1
  Nb5+  Nb126  1  0.75278292  0.50026991  0.01198113  1
  Nb5+  Nb127  1  0.74744576  0.50127678  0.50469822  1
  O2-  O128  1  -0.02449169  -0.01603407  0.13207052  1
  O2-  O129  1  -0.02981337  -0.01575440  0.63379176  1
  O2-  O130  1  -0.02731757  0.47755442  0.13693984  1
  O2-  O131  1  -0.01975364  0.48428289  0.62036783  1
  O2-  O132  1  0.48829490  0.03076743  0.13409763  1
  O2-  O133  1  0.48922077  0.02507140  0.61986159  1
  O2-  O134  1  0.49495143  0.52931275  0.13859025  1
  O2-  O135  1  0.49451089  0.53180157  0.61593339  1
  O2-  O136  1  0.02431767  0.01762603  0.36832381  1
  O2-  O137  1  0.02264646  0.00884302  0.86182706  1
  O2-  O138  1  0.01404755  0.51992119  0.38238634  1
  O2-  O139  1  0.01111665  0.51613324  0.86021415  1
  O2-  O140  1  0.51708145  -0.01579848  0.38702672  1
  O2-  O141  1  0.51508681  -0.02752743  0.86555136  1
  O2-  O142  1  0.51257748  0.48084016  0.38361645  1
  O2-  O143  1  0.51174562  0.47175491  0.86160541  1
  O2-  O144  1  0.23683925  0.26292869  0.11973148  1
  O2-  O145  1  0.23237763  0.27290912  0.63778477  1
  O2-  O146  1  0.23295599  0.75754717  0.12122512  1
  O2-  O147  1  0.23234517  0.77064097  0.63638663  1
  O2-  O148  1  0.73144299  0.27488345  0.13307932  1
  O2-  O149  1  0.74441398  0.27635944  0.63383703  1
  O2-  O150  1  0.72240690  0.75784838  0.13429251  1
  O2-  O151  1  0.74161413  0.75438850  0.62167589  1
  O2-  O152  1  0.26974217  0.22855697  0.36439788  1
  O2-  O153  1  0.26335274  0.23510124  0.88165697  1
  O2-  O154  1  0.26479013  0.71813996  0.36656115  1
  O2-  O155  1  0.25884989  0.72489597  0.88098146  1
  O2-  O156  1  0.77294442  0.24082668  0.36418614  1
  O2-  O157  1  0.77884356  0.25456149  0.86251856  1
  O2-  O158  1  0.76713621  0.73467479  0.38094446  1
  O2-  O159  1  0.76120554  0.72337398  0.86243300  1
  O2-  O160  1  0.01300442  0.28553347  0.11252392  1
  O2-  O161  1  0.01289064  0.26818130  0.62836306  1
  O2-  O162  1  0.00632714  0.77351512  0.11366704  1
  O2-  O163  1  0.00732451  0.75976657  0.62722700  1
  O2-  O164  1  0.52217169  0.23476489  0.11472630  1
  O2-  O165  1  0.53642082  0.24005166  0.61596708  1
  O2-  O166  1  0.51847040  0.72996098  0.11457430  1
  O2-  O167  1  0.53594408  0.74337358  0.61437017  1
  O2-  O168  1  0.22973128  0.01248978  0.38411996  1
  O2-  O169  1  0.21042321  0.00437515  0.88928948  1
  O2-  O170  1  0.22954995  0.51150664  0.37355960  1
  O2-  O171  1  0.20937166  0.50729341  0.88984785  1
  O2-  O172  1  0.72673544  -0.00730857  0.38658731  1
  O2-  O173  1  0.72766478  0.00061756  0.88153013  1
  O2-  O174  1  0.73693781  0.51403960  0.37360788  1
  O2-  O175  1  0.73851845  0.50813232  0.86699703  1
  O2-  O176  1  -0.00849046  0.23240957  0.38486155  1
  O2-  O177  1  -0.00884392  0.22944966  0.86471615  1
  O2-  O178  1  -0.01173984  0.71872485  0.38613480  1
  O2-  O179  1  -0.00990011  0.72330102  0.86527231  1
  O2-  O180  1  0.46699930  0.26134222  0.38926549  1
  O2-  O181  1  0.47192371  0.26865302  0.88192425  1
  O2-  O182  1  0.48492115  0.77443507  0.39102138  1
  O2-  O183  1  0.46984676  0.76626058  0.88188921  1
  O2-  O184  1  0.28855590  -0.00634764  0.11354734  1
  O2-  O185  1  0.27131968  -0.01512677  0.61864187  1
  O2-  O186  1  0.27438012  0.49140944  0.13469832  1
  O2-  O187  1  0.26535134  0.47962123  0.61509952  1
  O2-  O188  1  0.77958734  0.00046838  0.11811006  1
  O2-  O189  1  0.77051698  -0.01964719  0.61413879  1
  O2-  O190  1  0.76739353  0.49804209  0.12900494  1
  O2-  O191  1  0.76876591  0.49452035  0.61881922  1
  O2-  O192  1  0.13642621  0.27782026  0.26272025  1
  O2-  O193  1  0.11718910  0.26894437  0.76152479  1
  O2-  O194  1  0.13319717  0.76012329  0.26255775  1
  O2-  O195  1  0.11477976  0.76387236  0.76140381  1
  O2-  O196  1  0.63279749  0.28425939  0.26841551  1
  O2-  O197  1  0.63740027  0.28347210  0.76882795  1
  O2-  O198  1  0.63512720  0.76070125  0.27942433  1
  O2-  O199  1  0.63820025  0.77262846  0.76085932  1
  O2-  O200  1  0.36475857  0.23897399  0.22135651  1
  O2-  O201  1  0.36578719  0.23289844  0.73193808  1
  O2-  O202  1  0.36379163  0.72005490  0.22574067  1
  O2-  O203  1  0.36331114  0.72194981  0.73356992  1
  O2-  O204  1  0.86343608  0.23606528  0.22536554  1
  O2-  O205  1  0.88044465  0.23284691  0.72930710  1
  O2-  O206  1  0.86054491  0.71158171  0.23606703  1
  O2-  O207  1  0.87829253  0.72504847  0.73314247  1
  O2-  O208  1  0.26661801  0.38058182  0.26173843  1
  O2-  O209  1  0.26229298  0.36636919  0.78375084  1
  O2-  O210  1  0.27209243  0.86040206  0.26437624  1
  O2-  O211  1  0.25991756  0.86072015  0.78149886  1
  O2-  O212  1  0.76866252  0.38653420  0.26177403  1
  O2-  O213  1  0.77851633  0.38508929  0.75311276  1
  O2-  O214  1  0.78004115  0.86173270  0.25678800  1
  O2-  O215  1  0.78275650  0.86135771  0.75637422  1
  O2-  O216  1  0.22507199  0.13296704  0.23334727  1
  O2-  O217  1  0.22181230  0.13786421  0.74952383  1
  O2-  O218  1  0.22561219  0.61546257  0.23897123  1
  O2-  O219  1  0.21623296  0.63351127  0.74256670  1
  O2-  O220  1  0.71339657  0.13329962  0.24023980  1
  O2-  O221  1  0.72761529  0.13795489  0.74130525  1
  O2-  O222  1  0.72186706  0.61826950  0.24262162  1
  O2-  O223  1  0.73953016  0.62059591  0.73083382  1
  O2-  O224  1  0.12108576  0.47830354  0.23992056  1
  O2-  O225  1  0.11109078  0.47406531  0.73071371  1
  O2-  O226  1  0.11860176  0.97617122  0.23254351  1
  O2-  O227  1  0.11266895  0.97688884  0.72673510  1
  O2-  O228  1  0.62350450  0.48192707  0.24097927  1
  O2-  O229  1  0.63565492  0.48109789  0.72979312  1
  O2-  O230  1  0.61375087  0.97169735  0.24126546  1
  O2-  O231  1  0.61622947  0.97802470  0.72581843  1
  O2-  O232  1  0.38519948  0.01546400  0.28109457  1
  O2-  O233  1  0.38326837  0.02718052  0.76222829  1
  O2-  O234  1  0.37106671  0.51885855  0.27308409  1
  O2-  O235  1  0.38462312  0.52775348  0.76017736  1
  O2-  O236  1  0.88138965  0.02025545  0.27292242  1
  O2-  O237  1  0.88384578  0.02350191  0.77137586  1
  O2-  O238  1  0.87125332  0.52220508  0.26397484  1
  O2-  O239  1  0.87543789  0.51896054  0.75583474  1
  O2-  O240  1  0.47465129  0.38997348  0.24089337  1
  O2-  O241  1  0.48868015  0.39154954  0.71003448  1
  O2-  O242  1  0.47540641  0.88301580  0.23319367  1
  O2-  O243  1  0.47093396  0.88462182  0.72531511  1
  O2-  O244  1  0.98250560  0.38640267  0.28451462  1
  O2-  O245  1  0.97694448  0.37322043  0.75947653  1
  O2-  O246  1  0.98260164  0.88160076  0.27488567  1
  O2-  O247  1  0.97805833  0.86785787  0.76160162  1
  O2-  O248  1  0.01785441  0.11845374  0.22985356  1
  O2-  O249  1  0.01629634  0.12740224  0.72785589  1
  O2-  O250  1  0.01628017  0.61226832  0.23511005  1
  O2-  O251  1  0.01344645  0.62041198  0.72635364  1
  O2-  O252  1  0.51918484  0.11598454  0.27867805  1
  O2-  O253  1  0.52581266  0.11705421  0.76715496  1
  O2-  O254  1  0.51070811  0.61442883  0.28649502  1
  O2-  O255  1  0.53548030  0.61373041  0.75995701  1
  O2-  O256  1  0.13519990  0.49077241  0.04280570  1
  O2-  O257  1  0.12414786  0.48372601  0.51003209  1
  O2-  O258  1  0.13782187  0.98219420  0.03664112  1
  O2-  O259  1  0.13254796  0.96351531  0.51305975  1
  O2-  O260  1  0.63658725  0.46992586  0.01218629  1
  O2-  O261  1  0.62796657  0.49175189  0.51342406  1
  O2-  O262  1  0.63391146  0.97456766  0.02453894  1
  O2-  O263  1  0.62293615  0.98220447  0.52017296  1
  O2-  O264  1  0.36220604  0.01700803  -0.03682577  1
  O2-  O265  1  0.38418699  0.01948031  0.48697484  1
  O2-  O266  1  0.36060761  0.51899442  -0.01837201  1
  O2-  O267  1  0.38083929  0.52052468  0.48652309  1
  O2-  O268  1  0.86970813  0.02826137  -0.02144982  1
  O2-  O269  1  0.86366385  0.02587665  0.47783717  1
  O2-  O270  1  0.86699076  0.52952158  -0.01172176  1
  O2-  O271  1  0.87465489  0.51740222  0.48513507  1
  O2-  O272  1  0.47566237  0.36778168  0.02280054  1
  O2-  O273  1  0.48510271  0.38484551  0.52116139  1
  O2-  O274  1  0.47646725  0.86546693  0.02504702  1
  O2-  O275  1  0.48723279  0.87824190  0.52230542  1
  O2-  O276  1  0.99622495  0.36544352  -0.03936999  1
  O2-  O277  1  0.98422304  0.38264275  0.48693741  1
  O2-  O278  1  0.99105342  0.86203664  -0.03447612  1
  O2-  O279  1  0.97276425  0.86196612  0.48689889  1
  O2-  O280  1  0.03153110  0.13889023  0.00744360  1
  O2-  O281  1  0.02039992  0.13499683  0.52498469  1
  O2-  O282  1  0.03113597  0.63526239  0.00718309  1
  O2-  O283  1  0.00818827  0.61922289  0.52372315  1
  O2-  O284  1  0.51132602  0.13460080  -0.02225865  1
  O2-  O285  1  0.52133748  0.12555503  0.48505615  1
  O2-  O286  1  0.51166837  0.63319352  -0.02616303  1
  O2-  O287  1  0.51787000  0.62944758  0.48007152  1
  O2-  O288  1  0.13231190  0.26946086  -0.01858797  1
  O2-  O289  1  0.11726527  0.27900907  0.49246114  1
  O2-  O290  1  0.13067158  0.76666947  -0.01701939  1
  O2-  O291  1  0.11274456  0.75745705  0.49275092  1
  O2-  O292  1  0.61707649  0.27384789  -0.02589361  1
  O2-  O293  1  0.61335631  0.27862031  0.47583190  1
  O2-  O294  1  0.61596755  0.77273583  -0.02536502  1
  O2-  O295  1  0.63367927  0.76245617  0.48319310  1
  O2-  O296  1  0.36783059  0.23836363  0.01522374  1
  O2-  O297  1  0.38817966  0.23656019  0.53535548  1
  O2-  O298  1  0.36752874  0.73197274  0.01543410  1
  O2-  O299  1  0.38751842  0.73063602  0.52982660  1
  O2-  O300  1  0.88875140  0.23153145  0.01367403  1
  O2-  O301  1  0.88534522  0.24458857  0.51854549  1
  O2-  O302  1  0.88551940  0.72128717  0.00957716  1
  O2-  O303  1  0.87302787  0.72692665  0.51683392  1
  O2-  O304  1  0.26290335  0.37908092  -0.00395531  1
  O2-  O305  1  0.27446047  0.38620801  0.47789902  1
  O2-  O306  1  0.26905665  0.87061584  -0.00955938  1
  O2-  O307  1  0.28400863  0.88311799  0.48367403  1
  O2-  O308  1  0.78129842  0.38676790  -0.00750108  1
  O2-  O309  1  0.76277025  0.38863735  0.48256076  1
  O2-  O310  1  0.78236164  0.88257417  -0.00621892  1
  O2-  O311  1  0.77061518  0.86725625  0.49282300  1
  O2-  O312  1  0.23432812  0.12743477  0.01367255  1
  O2-  O313  1  0.23529638  0.11443023  0.52139307  1
  O2-  O314  1  0.23482657  0.62528475  0.01641214  1
  O2-  O315  1  0.24105901  0.61421113  0.51886380  1
  O2-  O316  1  0.72217093  0.11908840  0.00440644  1
  O2-  O317  1  0.72271192  0.11674094  0.51655234  1
  O2-  O318  1  0.71932055  0.61492521  0.00589381  1
  O2-  O319  1  0.73738846  0.62330791  0.50607747  1
