# generated using pymatgen
data_Sr64Ca21Nb43O192
_symmetry_space_group_name_H-M   'P 1'
_cell_length_a   16.58117609
_cell_length_b   16.57349748
_cell_length_c   16.72521542
_cell_angle_alpha   90.05362465
_cell_angle_beta   90.00868809
_cell_angle_gamma   89.91844576
_symmetry_Int_Tables_number   1
_chemical_formula_structural   Sr64Ca21Nb43O192
_chemical_formula_sum   'Sr64 Ca21 Nb43 O192'
_cell_volume   4596.21761752
_cell_formula_units_Z   1
loop_
 _symmetry_equiv_pos_site_id
 _symmetry_equiv_pos_as_xyz
  1  'x, y, z'
loop_
 _atom_type_symbol
 _atom_type_oxidation_number
  Sr2+  2.0
  Ca2+  2.0
  Nb5+  5.0
  O2-  -2.0
loop_
 _atom_site_type_symbol
 _atom_site_label
 _atom_site_symmetry_multiplicity
 _atom_site_fract_x
 _atom_site_fract_y
 _atom_site_fract_z
 _atom_site_occupancy
  Sr2+  Sr0  1  0.12463135  0.14638683  0.11962683  1
  Sr2+  Sr1  1  0.12082690  0.13068275  0.62743636  1
  Sr2+  Sr2  1  0.12034734  0.63294811  0.13093564  1
  Sr2+  Sr3  1  0.12988530  0.62798144  0.63332173  1
  Sr2+  Sr4  1  0.62670258  0.13510509  0.12426944  1
  Sr2+  Sr5  1  0.63491243  0.14046898  0.62565883  1
  Sr2+  Sr6  1  0.63920923  0.63925741  0.12041279  1
  Sr2+  Sr7  1  0.62802602  0.63170800  0.62064411  1
  Sr2+  Sr8  1  0.38320220  0.36669386  0.12144604  1
  Sr2+  Sr9  1  0.37913372  0.37974401  0.63311211  1
  Sr2+  Sr10  1  0.37802168  0.88998932  0.12187926  1
  Sr2+  Sr11  1  0.37754074  0.87502115  0.61646099  1
  Sr2+  Sr12  1  0.87914912  0.39276108  0.12357466  1
  Sr2+  Sr13  1  0.87483260  0.36582404  0.62456005  1
  Sr2+  Sr14  1  0.88126955  0.87008590  0.12892149  1
  Sr2+  Sr15  1  0.87948112  0.87428161  0.62077105  1
  Sr2+  Sr16  1  0.11913780  0.37142586  0.37649820  1
  Sr2+  Sr17  1  0.11604392  0.37629843  0.86951308  1
  Sr2+  Sr18  1  0.12177792  0.87300749  0.37790842  1
  Sr2+  Sr19  1  0.13578825  0.87487375  0.88814912  1
  Sr2+  Sr20  1  0.61721239  0.36746444  0.37642780  1
  Sr2+  Sr21  1  0.62408699  0.37521674  0.88408753  1
  Sr2+  Sr22  1  0.61578746  0.87526729  0.36975035  1
  Sr2+  Sr23  1  0.61053790  0.87138467  0.87142278  1
  Sr2+  Sr24  1  0.36312027  0.11974461  0.36894869  1
  Sr2+  Sr25  1  0.37397947  0.11834640  0.87606177  1
  Sr2+  Sr26  1  0.37207656  0.61464302  0.37889917  1
  Sr2+  Sr27  1  0.36583237  0.62189120  0.87908777  1
  Sr2+  Sr28  1  0.86961087  0.11572022  0.37784444  1
  Sr2+  Sr29  1  0.88439247  0.11798086  0.87006964  1
  Sr2+  Sr30  1  0.87430669  0.61676721  0.36674198  1
  Sr2+  Sr31  1  0.86245624  0.61177147  0.87442205  1
  Sr2+  Sr32  1  0.11795648  0.12048154  0.37784177  1
  Sr2+  Sr33  1  0.12107993  0.14659390  0.87452296  1
  Sr2+  Sr34  1  0.11891102  0.61572383  0.37439705  1
  Sr2+  Sr35  1  0.12285328  0.61494586  0.87387543  1
  Sr2+  Sr36  1  0.62126571  0.12444899  0.37688962  1
  Sr2+  Sr37  1  0.62231039  0.11152987  0.86795031  1
  Sr2+  Sr38  1  0.61301811  0.60496776  0.37607923  1
  Sr2+  Sr39  1  0.61516572  0.62089439  0.88157039  1
  Sr2+  Sr40  1  0.37067556  0.36975081  0.37024434  1
  Sr2+  Sr41  1  0.36154601  0.36474810  0.86818502  1
  Sr2+  Sr42  1  0.36536644  0.86236716  0.37384843  1
  Sr2+  Sr43  1  0.37422876  0.86538890  0.88440303  1
  Sr2+  Sr44  1  0.86700599  0.36157236  0.37622320  1
  Sr2+  Sr45  1  0.87452475  0.37468311  0.89098619  1
  Sr2+  Sr46  1  0.87538251  0.87033546  0.37221188  1
  Sr2+  Sr47  1  0.86594606  0.86472526  0.85620371  1
  Sr2+  Sr48  1  0.12218201  0.38759548  0.12303316  1
  Sr2+  Sr49  1  0.12905150  0.38868366  0.63647010  1
  Sr2+  Sr50  1  0.13295701  0.88147565  0.12281783  1
  Sr2+  Sr51  1  0.12704904  0.87778824  0.61933741  1
  Sr2+  Sr52  1  0.63905951  0.38203469  0.12658514  1
  Sr2+  Sr53  1  0.62330029  0.37858960  0.61756040  1
  Sr2+  Sr54  1  0.63756901  0.88929533  0.12499502  1
  Sr2+  Sr55  1  0.64200668  0.87899949  0.62530811  1
  Sr2+  Sr56  1  0.38362385  0.12862819  0.12116145  1
  Sr2+  Sr57  1  0.38927409  0.13585428  0.63186586  1
  Sr2+  Sr58  1  0.38542345  0.63154955  0.12954360  1
  Sr2+  Sr59  1  0.38359660  0.62398918  0.62881170  1
  Sr2+  Sr60  1  0.88006654  0.12261501  0.12572256  1
  Sr2+  Sr61  1  0.87462983  0.12388044  0.62552044  1
  Sr2+  Sr62  1  0.88226790  0.62677552  0.12366554  1
  Sr2+  Sr63  1  0.88620516  0.63800469  0.62863390  1
  Ca2+  Ca64  1  0.49591762  0.49921032  0.00220512  1
  Ca2+  Ca65  1  0.49863168  0.00025210  0.49989897  1
  Ca2+  Ca66  1  0.00248325  0.50470752  -0.00110711  1
  Ca2+  Ca67  1  -0.00111418  0.50087842  0.50344216  1
  Ca2+  Ca68  1  0.00053776  0.00047682  0.00084239  1
  Ca2+  Ca69  1  0.75088097  0.24619256  0.00321026  1
  Ca2+  Ca70  1  0.25035943  0.25356895  0.00065628  1
  Ca2+  Ca71  1  0.75069834  0.74953000  0.49546053  1
  Ca2+  Ca72  1  0.25052083  0.25215019  0.50144451  1
  Ca2+  Ca73  1  0.75156355  0.75609812  -0.00196286  1
  Ca2+  Ca74  1  0.25028363  -0.00422487  0.74940813  1
  Ca2+  Ca75  1  -0.00248935  0.24882409  0.25115025  1
  Ca2+  Ca76  1  0.74898547  0.50066224  0.25364121  1
  Ca2+  Ca77  1  0.25050831  0.49846568  0.24852722  1
  Ca2+  Ca78  1  0.50087102  0.74855916  0.24868090  1
  Ca2+  Ca79  1  0.50408606  0.25170908  0.75110682  1
  Ca2+  Ca80  1  0.74709817  0.49489419  0.74853821  1
  Ca2+  Ca81  1  0.24824386  0.00228418  0.24952365  1
  Ca2+  Ca82  1  0.00474143  0.75241222  0.75022801  1
  Ca2+  Ca83  1  0.49851064  0.74837498  0.74723228  1
  Ca2+  Ca84  1  -0.00308182  0.25039914  0.74679242  1
  Nb5+  Nb85  1  0.49807608  0.49686521  0.50010642  1
  Nb5+  Nb86  1  -0.00018890  0.00014244  0.50014995  1
  Nb5+  Nb87  1  0.50352701  0.00089728  -0.00018943  1
  Nb5+  Nb88  1  0.24988673  0.74669354  0.50402367  1
  Nb5+  Nb89  1  0.25274048  0.74702603  0.00902809  1
  Nb5+  Nb90  1  0.75150748  0.25055275  0.49883950  1
  Nb5+  Nb91  1  0.00030623  0.75112667  0.24983943  1
  Nb5+  Nb92  1  0.74982937  0.00152361  0.74282252  1
  Nb5+  Nb93  1  0.25233824  0.50176402  0.75224261  1
  Nb5+  Nb94  1  0.75081602  0.00416136  0.24577328  1
  Nb5+  Nb95  1  0.50046500  0.24920092  0.25052330  1
  Nb5+  Nb96  1  0.00319308  0.00008432  0.25067164  1
  Nb5+  Nb97  1  0.00447406  -0.00895632  0.75467418  1
  Nb5+  Nb98  1  -0.00227181  0.49539312  0.25383532  1
  Nb5+  Nb99  1  -0.00717923  0.50417201  0.74572482  1
  Nb5+  Nb100  1  0.49850380  0.00261333  0.25265822  1
  Nb5+  Nb101  1  0.49973875  -0.00390404  0.74271840  1
  Nb5+  Nb102  1  0.50158122  0.49896439  0.24409022  1
  Nb5+  Nb103  1  0.50082413  0.49852225  0.75506359  1
  Nb5+  Nb104  1  0.24548931  0.25376464  0.24914489  1
  Nb5+  Nb105  1  0.24873168  0.24395212  0.74818320  1
  Nb5+  Nb106  1  0.24833234  0.74829674  0.25565600  1
  Nb5+  Nb107  1  0.25326366  0.75219316  0.75436671  1
  Nb5+  Nb108  1  0.75214542  0.24721776  0.25037522  1
  Nb5+  Nb109  1  0.75119837  0.25193536  0.75678411  1
  Nb5+  Nb110  1  0.74864892  0.75072858  0.25493063  1
  Nb5+  Nb111  1  0.74525590  0.74247860  0.75102188  1
  Nb5+  Nb112  1  0.00192963  0.25432524  0.50197490  1
  Nb5+  Nb113  1  -0.00294363  0.25152455  1.00167332  1
  Nb5+  Nb114  1  0.00132360  0.74727700  0.49498893  1
  Nb5+  Nb115  1  0.00058372  0.75272308  0.99184976  1
  Nb5+  Nb116  1  0.49687751  0.24670267  0.49842564  1
  Nb5+  Nb117  1  0.50313038  0.25014712  0.99380082  1
  Nb5+  Nb118  1  0.50195014  0.75149118  0.49644840  1
  Nb5+  Nb119  1  0.50346571  0.75123419  1.00768787  1
  Nb5+  Nb120  1  0.24920952  0.00588473  -0.00260483  1
  Nb5+  Nb121  1  0.25081623  0.00406699  0.50400099  1
  Nb5+  Nb122  1  0.25072053  0.50141008  0.00389761  1
  Nb5+  Nb123  1  0.25135051  0.49522519  0.50101841  1
  Nb5+  Nb124  1  0.75341007  0.00355284  -0.00916349  1
  Nb5+  Nb125  1  0.74935934  -0.00231263  0.49380147  1
  Nb5+  Nb126  1  0.74761368  0.50266204  0.00185856  1
  Nb5+  Nb127  1  0.75214737  0.50538799  0.50125941  1
  O2-  O128  1  -0.01093662  -0.00272007  0.13724078  1
  O2-  O129  1  0.00817132  -0.00596204  0.61895162  1
  O2-  O130  1  0.01896135  0.50466527  0.13649131  1
  O2-  O131  1  0.02899901  0.51318552  0.63224073  1
  O2-  O132  1  0.51568534  -0.01267933  0.12700522  1
  O2-  O133  1  0.51205097  -0.03537098  0.63347657  1
  O2-  O134  1  0.50603147  0.46208486  0.13533230  1
  O2-  O135  1  0.50438652  0.47599748  0.61781892  1
  O2-  O136  1  -0.01740222  0.00481270  0.37542511  1
  O2-  O137  1  -0.02101081  -0.00970251  0.86632653  1
  O2-  O138  1  -0.01162144  0.51663043  0.36963010  1
  O2-  O139  1  -0.01934773  0.49207805  0.86389801  1
  O2-  O140  1  0.49201787  0.02868825  0.36590053  1
  O2-  O141  1  0.49610832  0.01913011  0.88281167  1
  O2-  O142  1  0.48355275  0.51018867  0.37887249  1
  O2-  O143  1  0.48975557  0.52787559  0.86577746  1
  O2-  O144  1  0.26650078  0.22168961  0.13594173  1
  O2-  O145  1  0.28157642  0.23968844  0.63444299  1
  O2-  O146  1  0.26190097  0.72401384  0.12117526  1
  O2-  O147  1  0.26767240  0.72990322  0.61543026  1
  O2-  O148  1  0.76083229  0.21715449  0.13963667  1
  O2-  O149  1  0.76770479  0.23427872  0.61526621  1
  O2-  O150  1  0.77732864  0.73789446  0.13917695  1
  O2-  O151  1  0.77096047  0.73492015  0.63306951  1
  O2-  O152  1  0.24020129  0.28318489  0.36715171  1
  O2-  O153  1  0.22930276  0.27466311  0.86381555  1
  O2-  O154  1  0.23122140  0.76843387  0.36910489  1
  O2-  O155  1  0.23945194  0.76682375  0.86884895  1
  O2-  O156  1  0.72948347  0.25974262  0.37752436  1
  O2-  O157  1  0.72587414  0.26096863  0.86733461  1
  O2-  O158  1  0.74073624  0.79197913  0.36526521  1
  O2-  O159  1  0.73194237  0.78209588  0.86327618  1
  O2-  O160  1  -0.02556630  0.23780933  0.11868662  1
  O2-  O161  1  -0.03302422  0.23872817  0.61259389  1
  O2-  O162  1  -0.02072548  0.74569693  0.13399102  1
  O2-  O163  1  -0.01499067  0.75693970  0.61047454  1
  O2-  O164  1  0.48471082  0.25540224  0.13334587  1
  O2-  O165  1  0.48298758  0.26612159  0.61278495  1
  O2-  O166  1  0.46131158  0.76463320  0.11779643  1
  O2-  O167  1  0.46512452  0.75322835  0.60813645  1
  O2-  O168  1  0.26714970  -0.01970057  0.38769323  1
  O2-  O169  1  0.26991059  -0.02734740  0.88441775  1
  O2-  O170  1  0.27252364  0.49365116  0.38640174  1
  O2-  O171  1  0.27485745  0.49469573  0.86823721  1
  O2-  O172  1  0.76760992  -0.01070179  0.37913244  1
  O2-  O173  1  0.76150037  -0.00974828  0.87480116  1
  O2-  O174  1  0.76871369  0.47863438  0.38796070  1
  O2-  O175  1  0.76616067  0.48336992  0.88369993  1
  O2-  O176  1  0.02548202  0.24442792  0.38609290  1
  O2-  O177  1  0.02009756  0.26078372  0.88063188  1
  O2-  O178  1  0.02487208  0.75617064  0.37295249  1
  O2-  O179  1  0.03131286  0.76615301  0.88323861  1
  O2-  O180  1  0.52393943  0.24027364  0.37510307  1
  O2-  O181  1  0.52774036  0.22788063  0.88478316  1
  O2-  O182  1  0.51361622  0.72078887  0.38282443  1
  O2-  O183  1  0.51823310  0.74322686  0.88885616  1
  O2-  O184  1  0.24454411  0.01835155  0.11422377  1
  O2-  O185  1  0.21213489  0.00356037  0.61537514  1
  O2-  O186  1  0.21926363  0.51357182  0.11297984  1
  O2-  O187  1  0.23948472  0.51845250  0.62475225  1
  O2-  O188  1  0.73752447  0.02142832  0.13249623  1
  O2-  O189  1  0.73478953  0.01591683  0.62595749  1
  O2-  O190  1  0.72929955  0.51869004  0.12077477  1
  O2-  O191  1  0.71998936  0.49564069  0.61379332  1
  O2-  O192  1  0.13365264  0.27535004  0.22773990  1
  O2-  O193  1  0.13354945  0.26342463  0.72076493  1
  O2-  O194  1  0.11818449  0.77247688  0.22971575  1
  O2-  O195  1  0.14074707  0.76137472  0.71847795  1
  O2-  O196  1  0.62486304  0.26331351  0.23877412  1
  O2-  O197  1  0.63928871  0.26467357  0.71791728  1
  O2-  O198  1  0.63699299  0.77158025  0.22804631  1
  O2-  O199  1  0.63186826  0.77006670  0.72217828  1
  O2-  O200  1  0.38538567  0.22833506  0.26954783  1
  O2-  O201  1  0.36793162  0.23135441  0.77631263  1
  O2-  O202  1  0.36156020  0.72747018  0.26894434  1
  O2-  O203  1  0.36566904  0.71676415  0.75990853  1
  O2-  O204  1  0.86323833  0.22931438  0.27946840  1
  O2-  O205  1  0.86284680  0.21388996  0.75856306  1
  O2-  O206  1  0.87953762  0.74090084  0.27561094  1
  O2-  O207  1  0.86476840  0.73044121  0.77168006  1
  O2-  O208  1  0.28559535  0.36507558  0.22966705  1
  O2-  O209  1  0.26478646  0.38258318  0.73443273  1
  O2-  O210  1  0.26300957  0.86227711  0.22371225  1
  O2-  O211  1  0.28149649  0.86156679  0.72933244  1
  O2-  O212  1  0.76552888  0.36191601  0.23367484  1
  O2-  O213  1  0.78438238  0.36163743  0.74280105  1
  O2-  O214  1  0.76911520  0.88692132  0.23388147  1
  O2-  O215  1  0.76801076  0.88358893  0.73066242  1
  O2-  O216  1  0.23607144  0.13744633  0.28227819  1
  O2-  O217  1  0.22656638  0.13074519  0.76263686  1
  O2-  O218  1  0.21545331  0.63536107  0.25686110  1
  O2-  O219  1  0.23068757  0.62261775  0.76099981  1
  O2-  O220  1  0.73031999  0.12133322  0.27504934  1
  O2-  O221  1  0.72599139  0.12014192  0.75865263  1
  O2-  O222  1  0.73593272  0.63963822  0.28314952  1
  O2-  O223  1  0.72065408  0.63136642  0.77041812  1
  O2-  O224  1  0.11594002  0.47432761  0.26928790  1
  O2-  O225  1  0.13378898  0.48454967  0.76497425  1
  O2-  O226  1  0.11415453  0.96978749  0.25921930  1
  O2-  O227  1  0.11392266  0.95755886  0.76129192  1
  O2-  O228  1  0.61460632  0.47920319  0.27634733  1
  O2-  O229  1  0.61239765  0.46571105  0.76207819  1
  O2-  O230  1  0.63007445  0.98529100  0.26442021  1
  O2-  O231  1  0.62926266  0.97949145  0.76440587  1
  O2-  O232  1  0.38588028  0.01915235  0.23257620  1
  O2-  O233  1  0.38682675  0.02542712  0.73883914  1
  O2-  O234  1  0.38585001  0.52632329  0.24331021  1
  O2-  O235  1  0.37278916  0.51778537  0.73365333  1
  O2-  O236  1  0.86911207  0.02516524  0.24848313  1
  O2-  O237  1  0.86675151  0.02209383  0.74037533  1
  O2-  O238  1  0.88246753  0.52839130  0.23515970  1
  O2-  O239  1  0.88083868  0.52841432  0.72825692  1
  O2-  O240  1  0.48462989  0.36729226  0.26817950  1
  O2-  O241  1  0.46746945  0.38412767  0.76267097  1
  O2-  O242  1  0.48857238  0.88666584  0.27218598  1
  O2-  O243  1  0.48376059  0.88473773  0.78022835  1
  O2-  O244  1  0.96814858  0.38332881  0.25685008  1
  O2-  O245  1  0.99044562  0.38570118  0.72919821  1
  O2-  O246  1  0.97545953  0.87494869  0.25651972  1
  O2-  O247  1  0.96172229  0.88235451  0.73991833  1
  O2-  O248  1  0.02787847  0.11397341  0.25089379  1
  O2-  O249  1  0.02215858  0.10899077  0.74784306  1
  O2-  O250  1  0.01789617  0.63391449  0.25422898  1
  O2-  O251  1  0.02535795  0.61941770  0.75738686  1
  O2-  O252  1  0.52326147  0.12665982  0.23759401  1
  O2-  O253  1  0.52719915  0.11264119  0.73313775  1
  O2-  O254  1  0.52808351  0.61142709  0.22398837  1
  O2-  O255  1  0.51973452  0.61107435  0.72083217  1
  O2-  O256  1  0.13809751  0.48839994  -0.03264700  1
  O2-  O257  1  0.13720356  0.47778764  0.48711711  1
  O2-  O258  1  0.13683820  0.97694664  -0.00529777  1
  O2-  O259  1  0.11666183  0.98397779  0.48032693  1
  O2-  O260  1  0.62952564  0.47835634  -0.01229175  1
  O2-  O261  1  0.61659185  0.47902232  0.48276889  1
  O2-  O262  1  0.62084012  0.97470709  -0.01049081  1
  O2-  O263  1  0.63485231  0.98161905  0.48295866  1
  O2-  O264  1  0.38060885  0.01359906  0.01283750  1
  O2-  O265  1  0.36279523  0.01703986  0.53194599  1
  O2-  O266  1  0.36351867  0.53709509  0.01450374  1
  O2-  O267  1  0.37763281  0.52143145  0.51368582  1
  O2-  O268  1  0.86309321  0.03347182  0.00521932  1
  O2-  O269  1  0.87576541  0.01717654  0.51044352  1
  O2-  O270  1  0.86684843  0.52621151  0.01443549  1
  O2-  O271  1  0.86266941  0.53095113  0.52204304  1
  O2-  O272  1  0.47864763  0.36266047  -0.02482238  1
  O2-  O273  1  0.48416472  0.37342960  0.48193726  1
  O2-  O274  1  0.48086843  0.87994186  -0.00803963  1
  O2-  O275  1  0.48019576  0.86381525  0.47238796  1
  O2-  O276  1  0.97598597  0.37030595  0.00901653  1
  O2-  O277  1  0.96913579  0.36588582  0.49483387  1
  O2-  O278  1  0.99529204  0.86490577  0.02373258  1
  O2-  O279  1  0.98431433  0.87899685  0.49122976  1
  O2-  O280  1  0.02986961  0.13306461  -0.00477806  1
  O2-  O281  1  0.01481895  0.12078517  0.50148838  1
  O2-  O282  1  0.02883704  0.64001254  0.00839887  1
  O2-  O283  1  0.02902590  0.63668429  0.49934958  1
  O2-  O284  1  0.51738800  0.11892726  0.01931736  1
  O2-  O285  1  0.52241221  0.13413527  0.51933807  1
  O2-  O286  1  0.51886539  0.63623617  0.02257474  1
  O2-  O287  1  0.51636709  0.61712462  0.51360656  1
  O2-  O288  1  0.11746069  0.27250886  0.02657578  1
  O2-  O289  1  0.11291408  0.27180590  0.52902883  1
  O2-  O290  1  0.13586698  0.77066406  0.01571378  1
  O2-  O291  1  0.12959256  0.77225349  0.50777984  1
  O2-  O292  1  0.61396391  0.26874636  0.02977222  1
  O2-  O293  1  0.62925363  0.26442710  0.51202815  1
  O2-  O294  1  0.61482335  0.77404606  0.03130215  1
  O2-  O295  1  0.61335838  0.76704042  0.52077802  1
  O2-  O296  1  0.38719238  0.22351563  -0.00489778  1
  O2-  O297  1  0.38627578  0.22695682  0.47413913  1
  O2-  O298  1  0.37073768  0.73727522  -0.02094756  1
  O2-  O299  1  0.36429071  0.73888570  0.47075578  1
  O2-  O300  1  0.88233878  0.22784292  -0.02719243  1
  O2-  O301  1  0.86817145  0.23238215  0.47360030  1
  O2-  O302  1  0.88751250  0.73617644  -0.02784428  1
  O2-  O303  1  0.88773229  0.73311240  0.47242285  1
  O2-  O304  1  0.27957714  0.38897583  0.00934351  1
  O2-  O305  1  0.27636204  0.38566181  0.52106503  1
  O2-  O306  1  0.27024226  0.86798798  0.01652622  1
  O2-  O307  1  0.26287675  0.87077370  0.51469777  1
  O2-  O308  1  0.76943974  0.38276072  0.02242704  1
  O2-  O309  1  0.76794496  0.36800842  0.51028889  1
  O2-  O310  1  0.76491877  0.89200935  0.02710398  1
  O2-  O311  1  0.76756846  0.88623879  0.52143872  1
  O2-  O312  1  0.23877596  0.11700631  -0.03073651  1
  O2-  O313  1  0.22648694  0.11617760  0.48565979  1
  O2-  O314  1  0.23407324  0.63265433  -0.02360582  1
  O2-  O315  1  0.23164524  0.62982247  0.48371417  1
  O2-  O316  1  0.71100270  0.11241920  -0.00795766  1
  O2-  O317  1  0.73614199  0.12256170  0.48976728  1
  O2-  O318  1  0.72548217  0.62187866  -0.01824461  1
  O2-  O319  1  0.71821386  0.61497995  0.48529776  1
