# generated using pymatgen
data_Sr64Ca21Nb43O192
_symmetry_space_group_name_H-M   'P 1'
_cell_length_a   16.55920141
_cell_length_b   16.56970834
_cell_length_c   16.71197795
_cell_angle_alpha   90.00100635
_cell_angle_beta   89.99148854
_cell_angle_gamma   89.95367725
_symmetry_Int_Tables_number   1
_chemical_formula_structural   Sr64Ca21Nb43O192
_chemical_formula_sum   'Sr64 Ca21 Nb43 O192'
_cell_volume   4585.44997269
_cell_formula_units_Z   1
loop_
 _symmetry_equiv_pos_site_id
 _symmetry_equiv_pos_as_xyz
  1  'x, y, z'
loop_
 _atom_type_symbol
 _atom_type_oxidation_number
  Sr2+  2.0
  Ca2+  2.0
  Nb5+  5.0
  O2-  -2.0
loop_
 _atom_site_type_symbol
 _atom_site_label
 _atom_site_symmetry_multiplicity
 _atom_site_fract_x
 _atom_site_fract_y
 _atom_site_fract_z
 _atom_site_occupancy
  Sr2+  Sr0  1  0.12860683  0.13620991  0.12722116  1
  Sr2+  Sr1  1  0.13079927  0.14001062  0.62380439  1
  Sr2+  Sr2  1  0.13189976  0.63035544  0.12919427  1
  Sr2+  Sr3  1  0.13036506  0.63506496  0.62294933  1
  Sr2+  Sr4  1  0.63521477  0.13267311  0.12387549  1
  Sr2+  Sr5  1  0.62707582  0.13818304  0.63232580  1
  Sr2+  Sr6  1  0.63014495  0.64196051  0.12668718  1
  Sr2+  Sr7  1  0.63725045  0.63673490  0.61625873  1
  Sr2+  Sr8  1  0.38031284  0.39229635  0.12304939  1
  Sr2+  Sr9  1  0.38552715  0.38507488  0.62338071  1
  Sr2+  Sr10  1  0.37817563  0.86588004  0.13008330  1
  Sr2+  Sr11  1  0.37743468  0.88001698  0.62377257  1
  Sr2+  Sr12  1  0.88511482  0.38268007  0.12464483  1
  Sr2+  Sr13  1  0.87637158  0.39101455  0.62553356  1
  Sr2+  Sr14  1  0.88033765  0.88180178  0.12695061  1
  Sr2+  Sr15  1  0.88248918  0.88060418  0.62749229  1
  Sr2+  Sr16  1  0.12582256  0.37099936  0.38646603  1
  Sr2+  Sr17  1  0.13048064  0.36809846  0.87095772  1
  Sr2+  Sr18  1  0.12275503  0.87298037  0.37143163  1
  Sr2+  Sr19  1  0.11193712  0.87310829  0.87276019  1
  Sr2+  Sr20  1  0.60762765  0.36846998  0.37312443  1
  Sr2+  Sr21  1  0.61365084  0.37038544  0.87153392  1
  Sr2+  Sr22  1  0.60478114  0.86846093  0.37618147  1
  Sr2+  Sr23  1  0.61460326  0.86180719  0.87733809  1
  Sr2+  Sr24  1  0.36285302  0.12117551  0.37786062  1
  Sr2+  Sr25  1  0.37304125  0.12255240  0.87286914  1
  Sr2+  Sr26  1  0.36823933  0.61918903  0.37070036  1
  Sr2+  Sr27  1  0.36624025  0.60800568  0.87401327  1
  Sr2+  Sr28  1  0.86161585  0.11794610  0.37348657  1
  Sr2+  Sr29  1  0.87410686  0.11735872  0.88294794  1
  Sr2+  Sr30  1  0.86445555  0.61435877  0.37363101  1
  Sr2+  Sr31  1  0.86424036  0.62688530  0.87096402  1
  Sr2+  Sr32  1  0.11712800  0.12559861  0.37297672  1
  Sr2+  Sr33  1  0.12074195  0.12176557  0.87515531  1
  Sr2+  Sr34  1  0.11810857  0.60473804  0.37382209  1
  Sr2+  Sr35  1  0.10915087  0.61391013  0.87332641  1
  Sr2+  Sr36  1  0.62355993  0.11736771  0.36856566  1
  Sr2+  Sr37  1  0.61487662  0.12230992  0.87979330  1
  Sr2+  Sr38  1  0.61447906  0.60632021  0.37463524  1
  Sr2+  Sr39  1  0.62011608  0.60868708  0.87777490  1
  Sr2+  Sr40  1  0.37236680  0.38116408  0.37699086  1
  Sr2+  Sr41  1  0.37266858  0.36687233  0.87328917  1
  Sr2+  Sr42  1  0.36755070  0.85932312  0.37792605  1
  Sr2+  Sr43  1  0.36565505  0.87064796  0.87571608  1
  Sr2+  Sr44  1  0.87413791  0.37606911  0.38236057  1
  Sr2+  Sr45  1  0.86525067  0.36504864  0.87461685  1
  Sr2+  Sr46  1  0.86875597  0.87392648  0.37555369  1
  Sr2+  Sr47  1  0.87569460  0.86388722  0.87129480  1
  Sr2+  Sr48  1  0.13949745  0.37736054  0.12104790  1
  Sr2+  Sr49  1  0.13297074  0.38912555  0.62268221  1
  Sr2+  Sr50  1  0.13614400  0.88210958  0.12668445  1
  Sr2+  Sr51  1  0.13554746  0.87962907  0.63244335  1
  Sr2+  Sr52  1  0.63768328  0.38395137  0.12598213  1
  Sr2+  Sr53  1  0.63724124  0.38017151  0.63403057  1
  Sr2+  Sr54  1  0.62033983  0.87879218  0.11982892  1
  Sr2+  Sr55  1  0.60547017  0.87753160  0.62060225  1
  Sr2+  Sr56  1  0.38574273  0.13175095  0.12544607  1
  Sr2+  Sr57  1  0.39450935  0.12703203  0.62402810  1
  Sr2+  Sr58  1  0.38842435  0.62830785  0.12729610  1
  Sr2+  Sr59  1  0.38923128  0.63857154  0.62378425  1
  Sr2+  Sr60  1  0.87699253  0.12985078  0.12893579  1
  Sr2+  Sr61  1  0.87712643  0.12841947  0.61360407  1
  Sr2+  Sr62  1  0.88273722  0.63373169  0.13212440  1
  Sr2+  Sr63  1  0.88045981  0.63251005  0.61753170  1
  Ca2+  Ca64  1  0.49771371  0.00294681  0.49577391  1
  Ca2+  Ca65  1  0.49684294  -0.00273967  0.00029461  1
  Ca2+  Ca66  1  0.49999699  0.49856513  0.50306700  1
  Ca2+  Ca67  1  0.50280292  0.49754179  0.00041088  1
  Ca2+  Ca68  1  -0.00221981  0.49938041  -0.00091049  1
  Ca2+  Ca69  1  0.74852806  0.25058869  0.49897561  1
  Ca2+  Ca70  1  0.24733685  0.75154904  -0.00349225  1
  Ca2+  Ca71  1  0.25293069  0.24932242  0.50294875  1
  Ca2+  Ca72  1  0.75090489  0.75414237  0.49687497  1
  Ca2+  Ca73  1  0.24736781  0.74917826  0.50030352  1
  Ca2+  Ca74  1  0.75017523  0.50142459  0.24941278  1
  Ca2+  Ca75  1  0.49817619  0.24730434  0.24677896  1
  Ca2+  Ca76  1  -0.00144791  0.24929325  0.74796210  1
  Ca2+  Ca77  1  0.49986579  0.74949678  0.75227724  1
  Ca2+  Ca78  1  0.75102695  -0.00041147  0.75250957  1
  Ca2+  Ca79  1  -0.00064071  0.25130880  0.25155751  1
  Ca2+  Ca80  1  0.50318306  0.74870685  0.25010640  1
  Ca2+  Ca81  1  0.25009325  0.50063080  0.74897568  1
  Ca2+  Ca82  1  0.24773245  0.49728660  0.25005074  1
  Ca2+  Ca83  1  0.00269071  0.74892353  0.25196324  1
  Ca2+  Ca84  1  0.75150651  0.50378666  0.75311488  1
  Nb5+  Nb85  1  -0.00057747  0.50729129  0.50323557  1
  Nb5+  Nb86  1  0.00386769  0.00368674  0.50420252  1
  Nb5+  Nb87  1  0.00184687  -0.00048350  0.00655360  1
  Nb5+  Nb88  1  0.75367337  0.75817227  0.00137141  1
  Nb5+  Nb89  1  0.75424813  0.25497343  0.00105930  1
  Nb5+  Nb90  1  0.25672436  0.24667633  -0.00014984  1
  Nb5+  Nb91  1  0.74283053  -0.00373953  0.24900146  1
  Nb5+  Nb92  1  0.24502043  -0.00137251  0.25633713  1
  Nb5+  Nb93  1  0.00083330  0.74772595  0.74732600  1
  Nb5+  Nb94  1  0.49821314  0.25122730  0.75087640  1
  Nb5+  Nb95  1  0.25003641  0.00164439  0.75636108  1
  Nb5+  Nb96  1  -0.00409355  0.00178394  0.25568289  1
  Nb5+  Nb97  1  0.00056458  0.00335226  0.75226960  1
  Nb5+  Nb98  1  0.00144324  0.49557871  0.24527523  1
  Nb5+  Nb99  1  -0.00575305  0.49652313  0.75283561  1
  Nb5+  Nb100  1  0.48768993  0.00084484  0.24822272  1
  Nb5+  Nb101  1  0.50100463  -0.00282346  0.75365167  1
  Nb5+  Nb102  1  0.50005784  0.49658512  0.24867308  1
  Nb5+  Nb103  1  0.50357308  0.50718014  0.74542446  1
  Nb5+  Nb104  1  0.25204920  0.25105488  0.25023353  1
  Nb5+  Nb105  1  0.25345591  0.24976612  0.74498608  1
  Nb5+  Nb106  1  0.24640653  0.74507170  0.25034231  1
  Nb5+  Nb107  1  0.25053730  0.74584432  0.75723663  1
  Nb5+  Nb108  1  0.74991950  0.25456069  0.24947632  1
  Nb5+  Nb109  1  0.75361595  0.24338194  0.75255564  1
  Nb5+  Nb110  1  0.74810179  0.75311456  0.25672743  1
  Nb5+  Nb111  1  0.74873496  0.75567868  0.74760093  1
  Nb5+  Nb112  1  -0.00216344  0.25866336  0.50237522  1
  Nb5+  Nb113  1  0.00389390  0.25317293  0.99864801  1
  Nb5+  Nb114  1  0.00417385  0.75591915  0.49550843  1
  Nb5+  Nb115  1  0.00174324  0.75040016  1.00208472  1
  Nb5+  Nb116  1  0.50279591  0.24644454  0.49590874  1
  Nb5+  Nb117  1  0.50537677  0.25105756  1.00286922  1
  Nb5+  Nb118  1  0.50064300  0.74728405  0.49808431  1
  Nb5+  Nb119  1  0.49489216  0.74370781  0.99346877  1
  Nb5+  Nb120  1  0.25032591  0.00486430  0.00679276  1
  Nb5+  Nb121  1  0.24761634  0.00407076  0.50934386  1
  Nb5+  Nb122  1  0.24423992  0.50497311  -0.00288574  1
  Nb5+  Nb123  1  0.25393861  0.50554304  0.50546808  1
  Nb5+  Nb124  1  0.75123350  0.00106992  -0.00155521  1
  Nb5+  Nb125  1  0.74613027  -0.00181582  0.50245473  1
  Nb5+  Nb126  1  0.75245828  0.51167282  0.00215496  1
  Nb5+  Nb127  1  0.74472521  0.49686311  0.49744421  1
  O2-  O128  1  0.01438419  -0.01462591  0.12204968  1
  O2-  O129  1  0.01131017  -0.01861695  0.61964860  1
  O2-  O130  1  0.02135668  0.47533349  0.13401987  1
  O2-  O131  1  0.01388612  0.48687090  0.62489535  1
  O2-  O132  1  0.49606060  -0.03529083  0.13356645  1
  O2-  O133  1  0.49458811  -0.01613094  0.63479271  1
  O2-  O134  1  0.51375154  0.46458921  0.13342922  1
  O2-  O135  1  0.51494269  0.46364688  0.63603065  1
  O2-  O136  1  -0.00590351  0.01333086  0.37325159  1
  O2-  O137  1  -0.00697717  0.01192392  0.87002050  1
  O2-  O138  1  -0.01826656  0.51268710  0.38585036  1
  O2-  O139  1  -0.01839354  0.52738850  0.86435062  1
  O2-  O140  1  0.49450703  0.03579515  0.36204012  1
  O2-  O141  1  0.48724935  0.02749781  0.86648334  1
  O2-  O142  1  0.47853108  0.51969815  0.36810328  1
  O2-  O143  1  0.48411537  0.51912412  0.86365316  1
  O2-  O144  1  0.26063216  0.22247993  0.11587921  1
  O2-  O145  1  0.26797605  0.21725858  0.63680166  1
  O2-  O146  1  0.26586574  0.73276454  0.13086533  1
  O2-  O147  1  0.26338146  0.73652659  0.64049430  1
  O2-  O148  1  0.76089627  0.22558645  0.11569683  1
  O2-  O149  1  0.76035672  0.22285595  0.63875798  1
  O2-  O150  1  0.77164590  0.73633291  0.11804784  1
  O2-  O151  1  0.76679040  0.73175386  0.63620857  1
  O2-  O152  1  0.23877791  0.26478966  0.36389061  1
  O2-  O153  1  0.23913217  0.25931415  0.87853056  1
  O2-  O154  1  0.23746632  0.77954152  0.36420463  1
  O2-  O155  1  0.23488212  0.79200260  0.86504384  1
  O2-  O156  1  0.73032559  0.26885124  0.36138358  1
  O2-  O157  1  0.73038417  0.26596752  0.88439263  1
  O2-  O158  1  0.73555528  0.78955435  0.36377092  1
  O2-  O159  1  0.74595003  0.77652426  0.88202197  1
  O2-  O160  1  -0.02364707  0.24687795  0.11248200  1
  O2-  O161  1  -0.03479475  0.25097616  0.61685987  1
  O2-  O162  1  -0.02441075  0.76335454  0.11342063  1
  O2-  O163  1  -0.02402480  0.75994335  0.63085003  1
  O2-  O164  1  0.47142708  0.26654239  0.11080193  1
  O2-  O165  1  0.47573901  0.26059442  0.63637149  1
  O2-  O166  1  0.48898513  0.76681054  0.11117901  1
  O2-  O167  1  0.47903963  0.77139814  0.61874208  1
  O2-  O168  1  0.26038815  -0.01544797  0.36976686  1
  O2-  O169  1  0.25880044  -0.00867383  0.87338176  1
  O2-  O170  1  0.26803617  0.49034897  0.38608883  1
  O2-  O171  1  0.27161593  0.47705315  0.88386779  1
  O2-  O172  1  0.76745724  -0.01227190  0.36424739  1
  O2-  O173  1  0.78411033  -0.01044912  0.88862372  1
  O2-  O174  1  0.78021518  0.48838813  0.38325988  1
  O2-  O175  1  0.78833659  0.49186145  0.88939541  1
  O2-  O176  1  0.03138928  0.24817933  0.38705044  1
  O2-  O177  1  0.01651647  0.23402619  0.88323499  1
  O2-  O178  1  0.03738321  0.74226161  0.38738525  1
  O2-  O179  1  0.01548439  0.74584322  0.87194559  1
  O2-  O180  1  0.52792059  0.23227925  0.38404098  1
  O2-  O181  1  0.50959080  0.22879936  0.87440432  1
  O2-  O182  1  0.52903473  0.73127917  0.38314168  1
  O2-  O183  1  0.53546366  0.73025709  0.88249107  1
  O2-  O184  1  0.22958250  0.01702831  0.12138861  1
  O2-  O185  1  0.22875422  0.01770588  0.62400196  1
  O2-  O186  1  0.21923431  0.50592890  0.11453582  1
  O2-  O187  1  0.21819323  0.51464140  0.61880520  1
  O2-  O188  1  0.74329458  0.01165167  0.12393154  1
  O2-  O189  1  0.74001509  0.02072871  0.61435079  1
  O2-  O190  1  0.71756365  0.51650987  0.11597579  1
  O2-  O191  1  0.72886622  0.51241929  0.61602516  1
  O2-  O192  1  0.13649525  0.25888550  0.22142405  1
  O2-  O193  1  0.13736720  0.26994514  0.73703367  1
  O2-  O194  1  0.13396044  0.77776360  0.22693616  1
  O2-  O195  1  0.12086862  0.77181509  0.73731248  1
  O2-  O196  1  0.63469874  0.25610349  0.21950589  1
  O2-  O197  1  0.61794730  0.26409710  0.74062051  1
  O2-  O198  1  0.63760705  0.77466355  0.21993019  1
  O2-  O199  1  0.63714369  0.78385636  0.73756339  1
  O2-  O200  1  0.36357476  0.21155198  0.25533355  1
  O2-  O201  1  0.37484952  0.23082130  0.77196810  1
  O2-  O202  1  0.36633608  0.73816285  0.26418598  1
  O2-  O203  1  0.36460014  0.73137004  0.77708411  1
  O2-  O204  1  0.86266896  0.21831347  0.25813961  1
  O2-  O205  1  0.86386304  0.22712149  0.78082372  1
  O2-  O206  1  0.86602097  0.73548339  0.26490841  1
  O2-  O207  1  0.88367167  0.73559192  0.76874772  1
  O2-  O208  1  0.27486020  0.36131819  0.22695931  1
  O2-  O209  1  0.27643600  0.36265007  0.73469323  1
  O2-  O210  1  0.26610496  0.88539283  0.22688756  1
  O2-  O211  1  0.26582611  0.88566868  0.72975976  1
  O2-  O212  1  0.77019865  0.36434788  0.22100925  1
  O2-  O213  1  0.76279851  0.36236093  0.74133539  1
  O2-  O214  1  0.77390786  0.88225220  0.22898006  1
  O2-  O215  1  0.78844431  0.86778387  0.74359065  1
  O2-  O216  1  0.22618804  0.11679154  0.26121453  1
  O2-  O217  1  0.22942830  0.12171572  0.76801482  1
  O2-  O218  1  0.22299709  0.63346535  0.26693218  1
  O2-  O219  1  0.22410100  0.63636296  0.78001303  1
  O2-  O220  1  0.73157022  0.11656710  0.25748743  1
  O2-  O221  1  0.71978556  0.13210360  0.77648103  1
  O2-  O222  1  0.72704220  0.63999052  0.27149276  1
  O2-  O223  1  0.73614718  0.64212604  0.78053387  1
  O2-  O224  1  0.11344096  0.47404186  0.28219172  1
  O2-  O225  1  0.11221949  0.47940774  0.76610333  1
  O2-  O226  1  0.12631232  0.97850231  0.25947520  1
  O2-  O227  1  0.12728871  0.97940390  0.75944597  1
  O2-  O228  1  0.61728666  0.47877965  0.27429707  1
  O2-  O229  1  0.61828258  0.48048088  0.77241470  1
  O2-  O230  1  0.62881681  0.97828402  0.25694643  1
  O2-  O231  1  0.61467336  0.97693667  0.76147526  1
  O2-  O232  1  0.37002476  0.01940430  0.23907243  1
  O2-  O233  1  0.36527109  0.02295825  0.74014413  1
  O2-  O234  1  0.38044448  0.51651559  0.22685027  1
  O2-  O235  1  0.38420444  0.52133947  0.72814961  1
  O2-  O236  1  0.88039826  0.01966715  0.23745530  1
  O2-  O237  1  0.88890644  0.02422195  0.73074124  1
  O2-  O238  1  0.88581647  0.52934444  0.23837374  1
  O2-  O239  1  0.88420702  0.52890013  0.72300005  1
  O2-  O240  1  0.47908045  0.37788481  0.27639234  1
  O2-  O241  1  0.48270595  0.36659872  0.77147856  1
  O2-  O242  1  0.48305975  0.88594505  0.28042816  1
  O2-  O243  1  0.47105042  0.88567461  0.77074979  1
  O2-  O244  1  0.96570664  0.38269490  0.26395317  1
  O2-  O245  1  0.96751549  0.38462300  0.76311659  1
  O2-  O246  1  0.98211320  0.88539205  0.26148754  1
  O2-  O247  1  0.98826200  0.87856380  0.75761407  1
  O2-  O248  1  0.02567544  0.11375306  0.23754866  1
  O2-  O249  1  0.03208773  0.11356790  0.73487900  1
  O2-  O250  1  0.02820376  0.61498542  0.23708074  1
  O2-  O251  1  0.02353914  0.63270291  0.73670349  1
  O2-  O252  1  0.51967765  0.11031064  0.21493998  1
  O2-  O253  1  0.51198366  0.12579579  0.73334150  1
  O2-  O254  1  0.52029520  0.61423078  0.22646746  1
  O2-  O255  1  0.52698922  0.61766273  0.72108792  1
  O2-  O256  1  0.13059611  0.47032770  -0.02369926  1
  O2-  O257  1  0.11524933  0.47958234  0.48684481  1
  O2-  O258  1  0.12233744  0.98654417  -0.01492692  1
  O2-  O259  1  0.12052357  0.97734032  0.48431491  1
  O2-  O260  1  0.64096870  0.48073075  -0.02723192  1
  O2-  O261  1  0.63321458  0.47673345  0.47419670  1
  O2-  O262  1  0.63862553  0.97791147  -0.01388786  1
  O2-  O263  1  0.63563914  0.97204198  0.48507531  1
  O2-  O264  1  0.36110187  0.03429860  0.00673619  1
  O2-  O265  1  0.36080973  0.02531060  0.50850595  1
  O2-  O266  1  0.36252158  0.51431674  0.02174935  1
  O2-  O267  1  0.36521802  0.52488501  0.52708390  1
  O2-  O268  1  0.88149739  0.01666573  0.02017773  1
  O2-  O269  1  0.88556563  0.01969709  0.50407146  1
  O2-  O270  1  0.86640565  0.51256639  0.03958473  1
  O2-  O271  1  0.88102189  0.51513136  0.52198876  1
  O2-  O272  1  0.48746873  0.36272234  -0.03000139  1
  O2-  O273  1  0.47228315  0.36247710  0.48718107  1
  O2-  O274  1  0.48794177  0.86316481  -0.02917769  1
  O2-  O275  1  0.48065874  0.86782056  0.47840190  1
  O2-  O276  1  0.97396303  0.36344576  -0.01382261  1
  O2-  O277  1  0.98035059  0.37488843  0.49591570  1
  O2-  O278  1  0.98122417  0.88392463  -0.01739367  1
  O2-  O279  1  0.98452227  0.87382113  0.48551852  1
  O2-  O280  1  0.01261370  0.11898457  0.00405722  1
  O2-  O281  1  0.02283074  0.11814548  0.51144798  1
  O2-  O282  1  0.02352251  0.63707450  0.01179603  1
  O2-  O283  1  0.01752220  0.62359158  0.51633987  1
  O2-  O284  1  0.51983595  0.13315687  0.01547160  1
  O2-  O285  1  0.52402430  0.13246336  0.52890082  1
  O2-  O286  1  0.52616175  0.63132791  0.01970850  1
  O2-  O287  1  0.52094426  0.63187794  0.52583605  1
  O2-  O288  1  0.12047079  0.26387136  0.01510226  1
  O2-  O289  1  0.11415176  0.26519650  0.53276828  1
  O2-  O290  1  0.11279792  0.78387544  0.01088110  1
  O2-  O291  1  0.11298743  0.76503444  0.53849476  1
  O2-  O292  1  0.62419081  0.26466455  0.01619652  1
  O2-  O293  1  0.61519020  0.27327328  0.52980454  1
  O2-  O294  1  0.63786469  0.76906664  0.01448094  1
  O2-  O295  1  0.61916299  0.77245685  0.52201736  1
  O2-  O296  1  0.37084250  0.22970178  -0.01700353  1
  O2-  O297  1  0.38551743  0.21802605  0.48928628  1
  O2-  O298  1  0.38298890  0.72293338  -0.02412306  1
  O2-  O299  1  0.38249647  0.72572300  0.47965254  1
  O2-  O300  1  0.86863067  0.23210468  -0.01948024  1
  O2-  O301  1  0.88650141  0.22610939  0.47350734  1
  O2-  O302  1  0.87851190  0.74036377  -0.02243918  1
  O2-  O303  1  0.88988233  0.72858590  0.48258274  1
  O2-  O304  1  0.26218719  0.36243513  0.01764587  1
  O2-  O305  1  0.26064292  0.38473543  0.51859991  1
  O2-  O306  1  0.27126224  0.89070472  0.01635909  1
  O2-  O307  1  0.26246073  0.88685428  0.51602130  1
  O2-  O308  1  0.76740048  0.36861747  0.02002950  1
  O2-  O309  1  0.77675270  0.38209625  0.51717642  1
  O2-  O310  1  0.77328673  0.87625221  0.01830403  1
  O2-  O311  1  0.78817100  0.88849652  0.50822605  1
  O2-  O312  1  0.22199420  0.12664597  -0.01506280  1
  O2-  O313  1  0.21985730  0.11458842  0.47766938  1
  O2-  O314  1  0.22333162  0.61659931  -0.02302303  1
  O2-  O315  1  0.21840565  0.61735018  0.48435027  1
  O2-  O316  1  0.73639717  0.12008600  -0.01270290  1
  O2-  O317  1  0.74114690  0.11276667  0.47004879  1
  O2-  O318  1  0.74203451  0.62940580  -0.01622823  1
  O2-  O319  1  0.73700154  0.61697704  0.48173284  1
