# generated using pymatgen
data_Sr64Ca21Nb43O192
_symmetry_space_group_name_H-M   'P 1'
_cell_length_a   16.54431880
_cell_length_b   16.59538220
_cell_length_c   16.71541908
_cell_angle_alpha   89.94367601
_cell_angle_beta   90.01004202
_cell_angle_gamma   90.03734614
_symmetry_Int_Tables_number   1
_chemical_formula_structural   Sr64Ca21Nb43O192
_chemical_formula_sum   'Sr64 Ca21 Nb43 O192'
_cell_volume   4589.37039718
_cell_formula_units_Z   1
loop_
 _symmetry_equiv_pos_site_id
 _symmetry_equiv_pos_as_xyz
  1  'x, y, z'
loop_
 _atom_type_symbol
 _atom_type_oxidation_number
  Sr2+  2.0
  Ca2+  2.0
  Nb5+  5.0
  O2-  -2.0
loop_
 _atom_site_type_symbol
 _atom_site_label
 _atom_site_symmetry_multiplicity
 _atom_site_fract_x
 _atom_site_fract_y
 _atom_site_fract_z
 _atom_site_occupancy
  Sr2+  Sr0  1  0.13554195  0.11584518  0.12238165  1
  Sr2+  Sr1  1  0.12370795  0.10444447  0.62235967  1
  Sr2+  Sr2  1  0.12668192  0.62402543  0.12713628  1
  Sr2+  Sr3  1  0.12811470  0.62223427  0.61838106  1
  Sr2+  Sr4  1  0.62063306  0.10970263  0.12421378  1
  Sr2+  Sr5  1  0.61817075  0.10774550  0.62892656  1
  Sr2+  Sr6  1  0.62321007  0.64121731  0.12259310  1
  Sr2+  Sr7  1  0.63115250  0.63071754  0.61938829  1
  Sr2+  Sr8  1  0.38066870  0.36281044  0.12123652  1
  Sr2+  Sr9  1  0.38092918  0.36808097  0.62876750  1
  Sr2+  Sr10  1  0.38548706  0.85100791  0.12652529  1
  Sr2+  Sr11  1  0.37558901  0.88848118  0.61645895  1
  Sr2+  Sr12  1  0.87599793  0.36864041  0.12401053  1
  Sr2+  Sr13  1  0.88282407  0.36610847  0.62176004  1
  Sr2+  Sr14  1  0.87174157  0.87509781  0.13430401  1
  Sr2+  Sr15  1  0.86834429  0.85848751  0.62528012  1
  Sr2+  Sr16  1  0.11736042  0.38019314  0.37787039  1
  Sr2+  Sr17  1  0.12162948  0.38286762  0.87585163  1
  Sr2+  Sr18  1  0.11614132  0.88095395  0.37827998  1
  Sr2+  Sr19  1  0.12074193  0.87988649  0.87390381  1
  Sr2+  Sr20  1  0.62831750  0.38228509  0.36782562  1
  Sr2+  Sr21  1  0.63417786  0.38517578  0.87702578  1
  Sr2+  Sr22  1  0.62718597  0.88396906  0.38133169  1
  Sr2+  Sr23  1  0.61976596  0.88267020  0.87661019  1
  Sr2+  Sr24  1  0.36229169  0.13392103  0.38410476  1
  Sr2+  Sr25  1  0.36306440  0.13339824  0.87711485  1
  Sr2+  Sr26  1  0.36610927  0.63094223  0.37274301  1
  Sr2+  Sr27  1  0.36721477  0.63299053  0.86913480  1
  Sr2+  Sr28  1  0.88483683  0.12544492  0.36572258  1
  Sr2+  Sr29  1  0.88224584  0.13439071  0.87866764  1
  Sr2+  Sr30  1  0.86741820  0.63167833  0.37694281  1
  Sr2+  Sr31  1  0.87518988  0.62617943  0.88730559  1
  Sr2+  Sr32  1  0.12412903  0.11025927  0.37068046  1
  Sr2+  Sr33  1  0.12282898  0.11188499  0.87791461  1
  Sr2+  Sr34  1  0.11718816  0.64177911  0.37176236  1
  Sr2+  Sr35  1  0.11549823  0.64581742  0.87291715  1
  Sr2+  Sr36  1  0.62809884  0.12638186  0.37054733  1
  Sr2+  Sr37  1  0.62626127  0.12667013  0.87390908  1
  Sr2+  Sr38  1  0.62294767  0.62975263  0.37625911  1
  Sr2+  Sr39  1  0.61896872  0.64477929  0.87578588  1
  Sr2+  Sr40  1  0.38234222  0.38217982  0.37022606  1
  Sr2+  Sr41  1  0.37196651  0.38689344  0.87343324  1
  Sr2+  Sr42  1  0.35938237  0.89061006  0.37505402  1
  Sr2+  Sr43  1  0.37413273  0.87237802  0.88070337  1
  Sr2+  Sr44  1  0.87766574  0.38454954  0.37198294  1
  Sr2+  Sr45  1  0.87696935  0.38460391  0.87935629  1
  Sr2+  Sr46  1  0.87025457  0.88428861  0.37226290  1
  Sr2+  Sr47  1  0.87565036  0.87081670  0.87054547  1
  Sr2+  Sr48  1  0.13907939  0.37381479  0.12686372  1
  Sr2+  Sr49  1  0.13221237  0.36939288  0.62682880  1
  Sr2+  Sr50  1  0.14119323  0.86117594  0.12490381  1
  Sr2+  Sr51  1  0.12995293  0.86594919  0.62445806  1
  Sr2+  Sr52  1  0.62145882  0.36182673  0.13118394  1
  Sr2+  Sr53  1  0.62753903  0.37170667  0.62263970  1
  Sr2+  Sr54  1  0.62131882  0.87503728  0.12691476  1
  Sr2+  Sr55  1  0.63182563  0.86911369  0.63226016  1
  Sr2+  Sr56  1  0.37783370  0.12296210  0.12483080  1
  Sr2+  Sr57  1  0.38011272  0.12160948  0.63015852  1
  Sr2+  Sr58  1  0.37207162  0.62154141  0.12444543  1
  Sr2+  Sr59  1  0.38476427  0.61125264  0.62565861  1
  Sr2+  Sr60  1  0.86322144  0.11421653  0.12371524  1
  Sr2+  Sr61  1  0.87548334  0.12307582  0.63655759  1
  Sr2+  Sr62  1  0.88450963  0.61675266  0.13570594  1
  Sr2+  Sr63  1  0.87374867  0.61780922  0.61955708  1
  Ca2+  Ca64  1  -0.00608865  0.00077431  0.50026917  1
  Ca2+  Ca65  1  0.49870598  0.00175805  -0.00174264  1
  Ca2+  Ca66  1  -0.00194332  0.00042696  0.00301599  1
  Ca2+  Ca67  1  0.50209439  0.50167943  -0.00039405  1
  Ca2+  Ca68  1  0.50136482  0.00074972  0.49533593  1
  Ca2+  Ca69  1  0.25026668  0.74795849  0.50030787  1
  Ca2+  Ca70  1  0.24639464  0.25205983  0.50361295  1
  Ca2+  Ca71  1  0.75369544  0.75081751  0.00343827  1
  Ca2+  Ca72  1  0.24934572  0.74562983  -0.00131755  1
  Ca2+  Ca73  1  0.75089057  0.24859008  0.50031417  1
  Ca2+  Ca74  1  0.49719797  0.74854737  0.74403475  1
  Ca2+  Ca75  1  -0.00163884  0.74590468  0.74647917  1
  Ca2+  Ca76  1  0.00221473  0.25165680  0.24670988  1
  Ca2+  Ca77  1  0.50059149  0.74880918  0.25669698  1
  Ca2+  Ca78  1  0.25106240  0.00253712  0.75208187  1
  Ca2+  Ca79  1  0.75017777  0.50262743  0.75189590  1
  Ca2+  Ca80  1  0.25096738  0.49747700  0.25316667  1
  Ca2+  Ca81  1  0.74847092  0.50001288  0.24783124  1
  Ca2+  Ca82  1  -0.00040948  0.75211199  0.24912444  1
  Ca2+  Ca83  1  0.25196715  -0.00077332  0.24569813  1
  Ca2+  Ca84  1  0.75126580  0.00167148  0.75134281  1
  Nb5+  Nb85  1  0.50748354  0.49552862  0.50106173  1
  Nb5+  Nb86  1  0.00355357  0.49961944  0.00564302  1
  Nb5+  Nb87  1  0.00349968  0.49847203  0.50500981  1
  Nb5+  Nb88  1  0.74877104  0.75162381  0.49725626  1
  Nb5+  Nb89  1  0.24323958  0.25310545  -0.00331780  1
  Nb5+  Nb90  1  0.74421908  0.25005288  0.00083607  1
  Nb5+  Nb91  1  0.50505831  0.25265935  0.75630705  1
  Nb5+  Nb92  1  0.24707526  0.50296570  0.75036588  1
  Nb5+  Nb93  1  0.74637044  -0.00038067  0.25007187  1
  Nb5+  Nb94  1  0.00936464  0.25312157  0.75262880  1
  Nb5+  Nb95  1  0.49842208  0.24690760  0.25777822  1
  Nb5+  Nb96  1  0.00355442  -0.00190957  0.24326214  1
  Nb5+  Nb97  1  -0.00479584  -0.00490177  0.74840732  1
  Nb5+  Nb98  1  0.00122533  0.49886124  0.25753922  1
  Nb5+  Nb99  1  0.00131168  0.50249144  0.75383764  1
  Nb5+  Nb100  1  0.49472138  -0.00030686  0.25398228  1
  Nb5+  Nb101  1  0.49563766  -0.00392824  0.75065243  1
  Nb5+  Nb102  1  0.50003497  0.50123594  0.24378772  1
  Nb5+  Nb103  1  0.50540279  0.49737508  0.74817127  1
  Nb5+  Nb104  1  0.24939681  0.25491594  0.25588881  1
  Nb5+  Nb105  1  0.25257500  0.25053036  0.74930614  1
  Nb5+  Nb106  1  0.25240650  0.74888118  0.25307757  1
  Nb5+  Nb107  1  0.25361074  0.75646517  0.74680998  1
  Nb5+  Nb108  1  0.75379114  0.24593702  0.25104999  1
  Nb5+  Nb109  1  0.75694931  0.25327125  0.75054589  1
  Nb5+  Nb110  1  0.74516223  0.74950344  0.24946008  1
  Nb5+  Nb111  1  0.75153659  0.74773818  0.75526198  1
  Nb5+  Nb112  1  -0.00035599  0.24850959  0.49730340  1
  Nb5+  Nb113  1  -0.00114444  0.25253855  1.00222405  1
  Nb5+  Nb114  1  -0.00324806  0.75312880  0.49725551  1
  Nb5+  Nb115  1  -0.00359255  0.75580326  1.00202261  1
  Nb5+  Nb116  1  0.50357263  0.25074361  0.50652027  1
  Nb5+  Nb117  1  0.49580793  0.24923286  1.00139250  1
  Nb5+  Nb118  1  0.49387203  0.74937170  0.49948421  1
  Nb5+  Nb119  1  0.50134505  0.74846799  0.99741113  1
  Nb5+  Nb120  1  0.25419024  -0.00659845  0.00315730  1
  Nb5+  Nb121  1  0.24670846  0.00109047  0.49979091  1
  Nb5+  Nb122  1  0.24953193  0.50276508  -0.00267848  1
  Nb5+  Nb123  1  0.25633631  0.49560285  0.49869726  1
  Nb5+  Nb124  1  0.75174839  -0.00341956  -0.00210937  1
  Nb5+  Nb125  1  0.75079188  0.00378899  0.50487062  1
  Nb5+  Nb126  1  0.74736327  0.50015206  0.00686360  1
  Nb5+  Nb127  1  0.75662277  0.49799201  0.49654787  1
  O2-  O128  1  -0.03678018  0.00062643  0.13313642  1
  O2-  O129  1  -0.01974703  0.02028492  0.63348592  1
  O2-  O130  1  -0.01019445  0.49324435  0.12041765  1
  O2-  O131  1  -0.01656843  0.49287507  0.62284107  1
  O2-  O132  1  0.48537902  0.01160969  0.13600692  1
  O2-  O133  1  0.47787620  0.00530364  0.62978006  1
  O2-  O134  1  0.46802599  0.49233601  0.13395558  1
  O2-  O135  1  0.48302147  0.47976483  0.62319123  1
  O2-  O136  1  0.01564645  0.00288362  0.36430945  1
  O2-  O137  1  0.01941185  -0.00123449  0.86614721  1
  O2-  O138  1  0.01560745  0.50013867  0.37747507  1
  O2-  O139  1  0.01821147  0.50186201  0.87023739  1
  O2-  O140  1  0.53490626  0.00839877  0.36400642  1
  O2-  O141  1  0.52831766  0.00833124  0.86302067  1
  O2-  O142  1  0.52087047  0.49832858  0.38374794  1
  O2-  O143  1  0.51467384  0.50547458  0.86257740  1
  O2-  O144  1  0.23677552  0.23915659  0.11547335  1
  O2-  O145  1  0.22514054  0.22966934  0.64033467  1
  O2-  O146  1  0.22848819  0.73131888  0.13352843  1
  O2-  O147  1  0.22034664  0.73607612  0.63451917  1
  O2-  O148  1  0.73644758  0.26140719  0.12277663  1
  O2-  O149  1  0.74376323  0.27613993  0.63863324  1
  O2-  O150  1  0.72290954  0.76299504  0.13566319  1
  O2-  O151  1  0.73123199  0.75461092  0.61582856  1
  O2-  O152  1  0.27755247  0.26804225  0.36653713  1
  O2-  O153  1  0.26993049  0.27330969  0.87873536  1
  O2-  O154  1  0.28368812  0.76204590  0.36827666  1
  O2-  O155  1  0.27611935  0.75770464  0.86560515  1
  O2-  O156  1  0.76304489  0.22376118  0.36445230  1
  O2-  O157  1  0.76145187  0.23259609  0.88285815  1
  O2-  O158  1  0.77275578  0.75153391  0.37674539  1
  O2-  O159  1  0.77824756  0.74237941  0.86722284  1
  O2-  O160  1  0.02275226  0.26832986  0.11236285  1
  O2-  O161  1  0.01163477  0.26363615  0.63473755  1
  O2-  O162  1  0.02803101  0.75149396  0.11514422  1
  O2-  O163  1  0.01852394  0.75208372  0.61286899  1
  O2-  O164  1  0.50868605  0.25578972  0.12003625  1
  O2-  O165  1  0.51449651  0.26505462  0.62534503  1
  O2-  O166  1  0.52195114  0.76080167  0.11800512  1
  O2-  O167  1  0.53333202  0.75575430  0.61031525  1
  O2-  O168  1  0.22493544  -0.01704308  0.37966387  1
  O2-  O169  1  0.22921774  -0.01550838  0.88612860  1
  O2-  O170  1  0.24402415  0.46050731  0.39027421  1
  O2-  O171  1  0.24118048  0.47420333  0.87018367  1
  O2-  O172  1  0.72464819  0.00426334  0.36818710  1
  O2-  O173  1  0.72451881  0.00710659  0.88544242  1
  O2-  O174  1  0.72280348  0.50617644  0.38429618  1
  O2-  O175  1  0.74503362  0.50041087  0.88940554  1
  O2-  O176  1  -0.02432583  0.25397202  0.38479685  1
  O2-  O177  1  -0.01516817  0.25607548  0.87233977  1
  O2-  O178  1  -0.02036903  0.72701368  0.38283733  1
  O2-  O179  1  -0.02235736  0.73665153  0.88202820  1
  O2-  O180  1  0.48448991  0.24569641  0.37392020  1
  O2-  O181  1  0.48511612  0.24047798  0.87103014  1
  O2-  O182  1  0.49279416  0.71151134  0.38897277  1
  O2-  O183  1  0.48163823  0.73349487  0.87885761  1
  O2-  O184  1  0.26384314  0.03343752  0.11460676  1
  O2-  O185  1  0.26763110  0.02256288  0.61673520  1
  O2-  O186  1  0.25242065  0.51836766  0.11259875  1
  O2-  O187  1  0.25520794  0.52335440  0.63180833  1
  O2-  O188  1  0.76603206  -0.00531855  0.12778460  1
  O2-  O189  1  0.78241312  -0.00396053  0.61461466  1
  O2-  O190  1  0.78944398  0.49113380  0.11704487  1
  O2-  O191  1  0.76238258  0.50070037  0.61450081  1
  O2-  O192  1  0.13689966  0.28053181  0.26568335  1
  O2-  O193  1  0.12365271  0.27554818  0.76815672  1
  O2-  O194  1  0.13509957  0.77232537  0.27614561  1
  O2-  O195  1  0.13505433  0.77023031  0.77288486  1
  O2-  O196  1  0.62128822  0.26553050  0.26072713  1
  O2-  O197  1  0.61916140  0.27313252  0.76844135  1
  O2-  O198  1  0.63341334  0.77748530  0.27865936  1
  O2-  O199  1  0.63371802  0.77680838  0.76813341  1
  O2-  O200  1  0.38121199  0.22839787  0.23436930  1
  O2-  O201  1  0.37116000  0.23814626  0.73517099  1
  O2-  O202  1  0.37021233  0.72195694  0.22904855  1
  O2-  O203  1  0.36296714  0.71197459  0.73066475  1
  O2-  O204  1  0.86495223  0.22753567  0.22597892  1
  O2-  O205  1  0.87393650  0.23611913  0.74341633  1
  O2-  O206  1  0.86250108  0.73732498  0.22935231  1
  O2-  O207  1  0.86351288  0.72625064  0.71809095  1
  O2-  O208  1  0.27685077  0.36491232  0.22098378  1
  O2-  O209  1  0.26363058  0.37217969  0.73499469  1
  O2-  O210  1  0.27427979  0.86602986  0.22781164  1
  O2-  O211  1  0.27851286  0.86772574  0.73109700  1
  O2-  O212  1  0.76421199  0.36163692  0.26365431  1
  O2-  O213  1  0.76091457  0.36612297  0.78082255  1
  O2-  O214  1  0.76619071  0.88172991  0.25495358  1
  O2-  O215  1  0.77374481  0.86694076  0.74612447  1
  O2-  O216  1  0.22999124  0.13837388  0.25803071  1
  O2-  O217  1  0.23497347  0.14043798  0.78261037  1
  O2-  O218  1  0.23123380  0.62952178  0.27400951  1
  O2-  O219  1  0.22802328  0.61424014  0.77218100  1
  O2-  O220  1  0.72572634  0.12400775  0.23532743  1
  O2-  O221  1  0.72336192  0.14042089  0.74243194  1
  O2-  O222  1  0.72364698  0.63543575  0.25164598  1
  O2-  O223  1  0.71621293  0.63412038  0.74546519  1
  O2-  O224  1  0.11571488  0.46936614  0.24311598  1
  O2-  O225  1  0.12789408  0.47322851  0.73758963  1
  O2-  O226  1  0.11482859  0.97802715  0.21992833  1
  O2-  O227  1  0.11449910  0.98571434  0.72784878  1
  O2-  O228  1  0.61297639  0.46534190  0.23795512  1
  O2-  O229  1  0.61553565  0.46610612  0.73611653  1
  O2-  O230  1  0.62640628  0.98662774  0.22786452  1
  O2-  O231  1  0.61486623  0.98877076  0.72276673  1
  O2-  O232  1  0.38509903  0.02900550  0.27805557  1
  O2-  O233  1  0.38486653  0.03412756  0.76743786  1
  O2-  O234  1  0.38829557  0.51065984  0.28335693  1
  O2-  O235  1  0.37015682  0.50897015  0.75935331  1
  O2-  O236  1  0.86293736  0.02331021  0.26502120  1
  O2-  O237  1  0.88397206  0.03504212  0.77040156  1
  O2-  O238  1  0.88301673  0.52514861  0.27225365  1
  O2-  O239  1  0.88785884  0.52496790  0.76352454  1
  O2-  O240  1  0.48163497  0.36647132  0.25167873  1
  O2-  O241  1  0.47356207  0.37046495  0.75538716  1
  O2-  O242  1  0.47580544  0.88580675  0.25631556  1
  O2-  O243  1  0.47042692  0.88376780  0.75528071  1
  O2-  O244  1  0.96700102  0.38490065  0.24971584  1
  O2-  O245  1  0.98114811  0.37818442  0.75266107  1
  O2-  O246  1  0.96879107  0.88459813  0.25660908  1
  O2-  O247  1  0.96992961  0.88297306  0.74575370  1
  O2-  O248  1  0.01789422  0.11813747  0.24734409  1
  O2-  O249  1  0.02243261  0.13791678  0.75274517  1
  O2-  O250  1  0.02134045  0.61334962  0.23544369  1
  O2-  O251  1  0.03359351  0.61200701  0.73778211  1
  O2-  O252  1  0.52343733  0.13203889  0.24663665  1
  O2-  O253  1  0.51543466  0.13798301  0.73711637  1
  O2-  O254  1  0.52916011  0.61197409  0.24129923  1
  O2-  O255  1  0.51673712  0.60983561  0.72679054  1
  O2-  O256  1  0.12353707  0.47012862  0.00578627  1
  O2-  O257  1  0.11790420  0.47988062  0.51455168  1
  O2-  O258  1  0.13415504  0.98795776  0.02360208  1
  O2-  O259  1  0.12912294  0.97929822  0.52306118  1
  O2-  O260  1  0.63848969  0.46745431  0.02406606  1
  O2-  O261  1  0.62259265  0.48093355  0.51873236  1
  O2-  O262  1  0.63555710  0.98495249  0.02457718  1
  O2-  O263  1  0.63694241  0.96835364  0.51693296  1
  O2-  O264  1  0.36578545  0.02749094  -0.02122201  1
  O2-  O265  1  0.36643006  0.01567286  0.47479302  1
  O2-  O266  1  0.36341689  0.51666355  -0.02108235  1
  O2-  O267  1  0.37221198  0.51552005  0.49076135  1
  O2-  O268  1  0.86302342  0.03690443  -0.01185250  1
  O2-  O269  1  0.86057547  0.01492231  0.46307325  1
  O2-  O270  1  0.88684579  0.51025019  -0.01779719  1
  O2-  O271  1  0.87303755  0.51936592  0.48168315  1
  O2-  O272  1  0.48701773  0.36498805  -0.01492296  1
  O2-  O273  1  0.47352739  0.37741482  0.49313836  1
  O2-  O274  1  0.47756302  0.86734281  -0.01033546  1
  O2-  O275  1  0.47836977  0.86160699  0.47903025  1
  O2-  O276  1  0.98657816  0.37579031  -0.01307822  1
  O2-  O277  1  0.97102187  0.38275318  0.49605842  1
  O2-  O278  1  0.96576608  0.86599765  -0.00287952  1
  O2-  O279  1  0.97228773  0.86541092  0.49092873  1
  O2-  O280  1  0.02553787  0.14011082  -0.00464248  1
  O2-  O281  1  0.02863838  0.13766224  0.49927697  1
  O2-  O282  1  0.02693783  0.61381797  0.00209689  1
  O2-  O283  1  0.00921517  0.61651780  0.50887627  1
  O2-  O284  1  0.53028192  0.13810423  -0.00356420  1
  O2-  O285  1  0.52963972  0.13857201  0.50307783  1
  O2-  O286  1  0.53240467  0.63117523  0.00681978  1
  O2-  O287  1  0.51368624  0.61105313  0.51940599  1
  O2-  O288  1  0.12900513  0.27399421  -0.01838927  1
  O2-  O289  1  0.11106936  0.28810098  0.49534290  1
  O2-  O290  1  0.11411838  0.76997816  -0.02514137  1
  O2-  O291  1  0.11283191  0.76245268  0.47544759  1
  O2-  O292  1  0.62971275  0.27312658  -0.01349199  1
  O2-  O293  1  0.61514684  0.28621875  0.48590630  1
  O2-  O294  1  0.62050231  0.77057012  -0.02663075  1
  O2-  O295  1  0.63142293  0.75782227  0.47579365  1
  O2-  O296  1  0.37879536  0.23297446  0.01121682  1
  O2-  O297  1  0.38543831  0.23299690  0.51874884  1
  O2-  O298  1  0.38425018  0.72358270  0.01967052  1
  O2-  O299  1  0.38506491  0.72446527  0.52577540  1
  O2-  O300  1  0.88149121  0.23542711  0.01475815  1
  O2-  O301  1  0.88625551  0.23494167  0.53252159  1
  O2-  O302  1  0.88677908  0.71190687  0.02196874  1
  O2-  O303  1  0.87121598  0.72964130  0.51781864  1
  O2-  O304  1  0.26816101  0.37414426  0.01476074  1
  O2-  O305  1  0.25927166  0.38580602  0.54166804  1
  O2-  O306  1  0.27617463  0.88199550  0.02130356  1
  O2-  O307  1  0.26927025  0.88242602  0.51430327  1
  O2-  O308  1  0.77610261  0.36675032  -0.00518894  1
  O2-  O309  1  0.77286498  0.38389757  0.48796492  1
  O2-  O310  1  0.78125955  0.88538561  -0.00608189  1
  O2-  O311  1  0.76909244  0.87004672  0.49520582  1
  O2-  O312  1  0.23376587  0.13758762  -0.02062921  1
  O2-  O313  1  0.22762008  0.11965345  0.47895009  1
  O2-  O314  1  0.22057128  0.61146411  -0.02499098  1
  O2-  O315  1  0.22385599  0.60801213  0.48425961  1
  O2-  O316  1  0.73185981  0.13269824  0.01594556  1
  O2-  O317  1  0.72146961  0.11535351  0.51115517  1
  O2-  O318  1  0.73015515  0.61382354  0.01101788  1
  O2-  O319  1  0.73747109  0.62701467  0.49795157  1
