# generated using pymatgen
data_Sr64Ca21Nb43O192
_symmetry_space_group_name_H-M   'P 1'
_cell_length_a   16.58887699
_cell_length_b   16.57986290
_cell_length_c   16.72460117
_cell_angle_alpha   89.95256653
_cell_angle_beta   90.00325123
_cell_angle_gamma   90.01592310
_symmetry_Int_Tables_number   1
_chemical_formula_structural   Sr64Ca21Nb43O192
_chemical_formula_sum   'Sr64 Ca21 Nb43 O192'
_cell_volume   4599.95439277
_cell_formula_units_Z   1
loop_
 _symmetry_equiv_pos_site_id
 _symmetry_equiv_pos_as_xyz
  1  'x, y, z'
loop_
 _atom_type_symbol
 _atom_type_oxidation_number
  Sr2+  2.0
  Ca2+  2.0
  Nb5+  5.0
  O2-  -2.0
loop_
 _atom_site_type_symbol
 _atom_site_label
 _atom_site_symmetry_multiplicity
 _atom_site_fract_x
 _atom_site_fract_y
 _atom_site_fract_z
 _atom_site_occupancy
  Sr2+  Sr0  1  0.12428489  0.14549103  0.12408156  1
  Sr2+  Sr1  1  0.12007298  0.11819883  0.62421167  1
  Sr2+  Sr2  1  0.12397024  0.60069107  0.12603310  1
  Sr2+  Sr3  1  0.11539521  0.61620261  0.62441050  1
  Sr2+  Sr4  1  0.62598424  0.11296176  0.12813893  1
  Sr2+  Sr5  1  0.61986811  0.12258049  0.62593253  1
  Sr2+  Sr6  1  0.62307599  0.62232598  0.12451071  1
  Sr2+  Sr7  1  0.62777918  0.60935750  0.62593079  1
  Sr2+  Sr8  1  0.35997365  0.35933201  0.12308625  1
  Sr2+  Sr9  1  0.36706084  0.36363530  0.62488760  1
  Sr2+  Sr10  1  0.37190523  0.86233870  0.13010042  1
  Sr2+  Sr11  1  0.36097360  0.86612646  0.62048989  1
  Sr2+  Sr12  1  0.88995607  0.36962036  0.13097602  1
  Sr2+  Sr13  1  0.87345912  0.36049627  0.62648275  1
  Sr2+  Sr14  1  0.87520343  0.86807604  0.12439347  1
  Sr2+  Sr15  1  0.87841298  0.86930503  0.62524211  1
  Sr2+  Sr16  1  0.13528597  0.38706569  0.36700300  1
  Sr2+  Sr17  1  0.14090977  0.38425045  0.88389065  1
  Sr2+  Sr18  1  0.13925791  0.88642372  0.38125143  1
  Sr2+  Sr19  1  0.14334350  0.88223296  0.86961325  1
  Sr2+  Sr20  1  0.62211685  0.37763307  0.37921311  1
  Sr2+  Sr21  1  0.62934576  0.37592915  0.87031322  1
  Sr2+  Sr22  1  0.62440761  0.87609953  0.37324892  1
  Sr2+  Sr23  1  0.62476387  0.87676955  0.87584125  1
  Sr2+  Sr24  1  0.38460499  0.13233039  0.36127314  1
  Sr2+  Sr25  1  0.38975854  0.13251259  0.87709858  1
  Sr2+  Sr26  1  0.39011739  0.62871777  0.37420433  1
  Sr2+  Sr27  1  0.36246361  0.62547577  0.87638254  1
  Sr2+  Sr28  1  0.86944568  0.12763315  0.37272755  1
  Sr2+  Sr29  1  0.87143830  0.12746088  0.88686825  1
  Sr2+  Sr30  1  0.87589961  0.63315490  0.37617033  1
  Sr2+  Sr31  1  0.87957760  0.63075288  0.86500114  1
  Sr2+  Sr32  1  0.13487822  0.13534671  0.37541040  1
  Sr2+  Sr33  1  0.12388473  0.13438453  0.88267234  1
  Sr2+  Sr34  1  0.12854692  0.62333395  0.36719348  1
  Sr2+  Sr35  1  0.12616129  0.62838878  0.86721047  1
  Sr2+  Sr36  1  0.63180536  0.13463623  0.37355707  1
  Sr2+  Sr37  1  0.62255640  0.13441394  0.87553148  1
  Sr2+  Sr38  1  0.62549980  0.60366166  0.37307868  1
  Sr2+  Sr39  1  0.63281187  0.60753484  0.87548158  1
  Sr2+  Sr40  1  0.38051357  0.39046430  0.37470937  1
  Sr2+  Sr41  1  0.38443939  0.38649153  0.88030575  1
  Sr2+  Sr42  1  0.38314080  0.87756729  0.37861390  1
  Sr2+  Sr43  1  0.38213703  0.88872071  0.87140600  1
  Sr2+  Sr44  1  0.87453092  0.37040917  0.37318871  1
  Sr2+  Sr45  1  0.86939285  0.38050866  0.87238816  1
  Sr2+  Sr46  1  0.87153920  0.88175850  0.37518631  1
  Sr2+  Sr47  1  0.87316520  0.87648732  0.87256798  1
  Sr2+  Sr48  1  0.12839745  0.37090001  0.12477583  1
  Sr2+  Sr49  1  0.12287267  0.36756218  0.62436605  1
  Sr2+  Sr50  1  0.13334227  0.87162433  0.12035097  1
  Sr2+  Sr51  1  0.12728047  0.87052869  0.62378407  1
  Sr2+  Sr52  1  0.61481359  0.37585561  0.12167813  1
  Sr2+  Sr53  1  0.61554275  0.36770548  0.62591023  1
  Sr2+  Sr54  1  0.62314428  0.86893462  0.12565191  1
  Sr2+  Sr55  1  0.61865882  0.86700032  0.62485396  1
  Sr2+  Sr56  1  0.35931056  0.11682881  0.12591598  1
  Sr2+  Sr57  1  0.35749074  0.12205207  0.62975983  1
  Sr2+  Sr58  1  0.36113454  0.61656115  0.12867208  1
  Sr2+  Sr59  1  0.35381313  0.61124728  0.62019680  1
  Sr2+  Sr60  1  0.88520628  0.11290103  0.13168067  1
  Sr2+  Sr61  1  0.88218129  0.11984294  0.62390982  1
  Sr2+  Sr62  1  0.88432769  0.62170395  0.12622325  1
  Sr2+  Sr63  1  0.87918704  0.62142810  0.62537555  1
  Ca2+  Ca64  1  -0.00223352  0.50319883  -0.00208576  1
  Ca2+  Ca65  1  0.50155937  0.00389235  0.49969521  1
  Ca2+  Ca66  1  0.00039569  0.49968104  0.49859270  1
  Ca2+  Ca67  1  0.49731836  0.50279143  0.50340790  1
  Ca2+  Ca68  1  0.50082462  0.50338252  -0.00071768  1
  Ca2+  Ca69  1  0.25252743  0.24519497  -0.00499721  1
  Ca2+  Ca70  1  0.24803600  0.74500320  0.49661693  1
  Ca2+  Ca71  1  0.25050235  0.25074049  0.49840582  1
  Ca2+  Ca72  1  0.24967421  0.75004161  0.00067848  1
  Ca2+  Ca73  1  0.75036763  0.25015134  0.00268358  1
  Ca2+  Ca74  1  0.00055215  0.75397632  0.25049009  1
  Ca2+  Ca75  1  0.75419288  0.49958531  0.25062674  1
  Ca2+  Ca76  1  -0.00258125  0.24729919  0.75211410  1
  Ca2+  Ca77  1  0.24761137  0.49410267  0.74936574  1
  Ca2+  Ca78  1  0.24855814  0.00281404  0.75123373  1
  Ca2+  Ca79  1  0.25290860  0.49928321  0.25010146  1
  Ca2+  Ca80  1  0.24826900  -0.00454309  0.24725866  1
  Ca2+  Ca81  1  -0.00097891  0.24850721  0.25364405  1
  Ca2+  Ca82  1  0.50269880  0.24893553  0.24837811  1
  Ca2+  Ca83  1  0.75115092  -0.00115273  0.74973980  1
  Ca2+  Ca84  1  0.50051078  0.74833882  0.75236594  1
  Nb5+  Nb85  1  0.50638135  -0.00062041  0.00139920  1
  Nb5+  Nb86  1  -0.00079824  -0.00008633  0.50366416  1
  Nb5+  Nb87  1  0.00494487  -0.00528788  0.00595813  1
  Nb5+  Nb88  1  0.74950848  0.24442326  0.50203718  1
  Nb5+  Nb89  1  0.74963246  0.74961814  -0.00456553  1
  Nb5+  Nb90  1  0.74786634  0.74606073  0.49499433  1
  Nb5+  Nb91  1  0.49713914  0.25216825  0.74826137  1
  Nb5+  Nb92  1  -0.00071782  0.75466858  0.75054078  1
  Nb5+  Nb93  1  0.50374796  0.74927088  0.24939414  1
  Nb5+  Nb94  1  0.74928174  -0.00021297  0.25127081  1
  Nb5+  Nb95  1  0.75182682  0.49765897  0.74757027  1
  Nb5+  Nb96  1  0.00413040  -0.00734694  0.25603161  1
  Nb5+  Nb97  1  0.00170975  0.00157180  0.75997860  1
  Nb5+  Nb98  1  -0.00080681  0.50126306  0.25279845  1
  Nb5+  Nb99  1  -0.00133790  0.49335652  0.74928838  1
  Nb5+  Nb100  1  0.50054783  -0.00098539  0.24990743  1
  Nb5+  Nb101  1  0.49639347  0.00067080  0.74224333  1
  Nb5+  Nb102  1  0.49947176  0.49452138  0.24311223  1
  Nb5+  Nb103  1  0.49644621  0.50648653  0.75302257  1
  Nb5+  Nb104  1  0.25197939  0.24676334  0.25230824  1
  Nb5+  Nb105  1  0.24217308  0.25046301  0.75414862  1
  Nb5+  Nb106  1  0.24527618  0.75053991  0.25368534  1
  Nb5+  Nb107  1  0.25445134  0.74506543  0.74816680  1
  Nb5+  Nb108  1  0.74792917  0.25272024  0.24364101  1
  Nb5+  Nb109  1  0.74791003  0.24499787  0.74854133  1
  Nb5+  Nb110  1  0.74690944  0.74804020  0.24459367  1
  Nb5+  Nb111  1  0.74885143  0.75042102  0.74270298  1
  Nb5+  Nb112  1  0.00052634  0.25399181  0.49717237  1
  Nb5+  Nb113  1  -0.00714278  0.25575314  0.99754871  1
  Nb5+  Nb114  1  -0.00120548  0.75509305  0.49744683  1
  Nb5+  Nb115  1  0.00372286  0.75637414  0.99910702  1
  Nb5+  Nb116  1  0.49620743  0.24884805  0.50174712  1
  Nb5+  Nb117  1  0.50390245  0.25049558  1.00576873  1
  Nb5+  Nb118  1  0.50088814  0.74790584  0.50851046  1
  Nb5+  Nb119  1  0.50201000  0.74977067  1.00020471  1
  Nb5+  Nb120  1  0.25842849  -0.00149013  -0.00370117  1
  Nb5+  Nb121  1  0.25772419  0.00535026  0.49452682  1
  Nb5+  Nb122  1  0.25124728  0.49967232  -0.00017961  1
  Nb5+  Nb123  1  0.24782415  0.49696678  0.49912381  1
  Nb5+  Nb124  1  0.75325953  -0.00190281  0.00051491  1
  Nb5+  Nb125  1  0.75245547  -0.00504580  0.50379498  1
  Nb5+  Nb126  1  0.75711840  0.49810727  0.00653597  1
  Nb5+  Nb127  1  0.75306836  0.49158621  0.50151755  1
  O2-  O128  1  -0.01693220  -0.01266697  0.12079567  1
  O2-  O129  1  -0.01788975  0.00157244  0.62058821  1
  O2-  O130  1  -0.02639385  0.49925217  0.13170368  1
  O2-  O131  1  -0.01406285  0.51508015  0.63456182  1
  O2-  O132  1  0.49326232  0.02204093  0.12032783  1
  O2-  O133  1  0.48132521  0.03148698  0.63383799  1
  O2-  O134  1  0.49794753  0.53309138  0.13211683  1
  O2-  O135  1  0.49165880  0.52609208  0.63752237  1
  O2-  O136  1  0.01143828  -0.00235640  0.37358465  1
  O2-  O137  1  0.01056766  -0.00490242  0.87593849  1
  O2-  O138  1  0.02788920  0.50437950  0.36809807  1
  O2-  O139  1  0.00696291  0.51684667  0.86280411  1
  O2-  O140  1  0.51047162  -0.02389488  0.36333841  1
  O2-  O141  1  0.51602712  -0.01622025  0.88213974  1
  O2-  O142  1  0.51533085  0.48579758  0.36443799  1
  O2-  O143  1  0.52247198  0.47447880  0.86530694  1
  O2-  O144  1  0.23619217  0.26688335  0.13129052  1
  O2-  O145  1  0.23970842  0.27706484  0.63505736  1
  O2-  O146  1  0.24516455  0.77643683  0.13575916  1
  O2-  O147  1  0.23748203  0.77081869  0.63259748  1
  O2-  O148  1  0.71539851  0.25081584  0.13496758  1
  O2-  O149  1  0.72564737  0.25098837  0.62383853  1
  O2-  O150  1  0.73244961  0.74932417  0.12867300  1
  O2-  O151  1  0.73329308  0.74528823  0.62646937  1
  O2-  O152  1  0.26637277  0.21657724  0.36699558  1
  O2-  O153  1  0.26260767  0.20970849  0.86356675  1
  O2-  O154  1  0.27188267  0.71812436  0.36523119  1
  O2-  O155  1  0.24724931  0.72366120  0.86534454  1
  O2-  O156  1  0.77138541  0.25148646  0.38559233  1
  O2-  O157  1  0.77040753  0.25897101  0.86260248  1
  O2-  O158  1  0.76581569  0.75674968  0.37950937  1
  O2-  O159  1  0.76631743  0.75594311  0.87976732  1
  O2-  O160  1  0.01630332  0.26193549  0.11667338  1
  O2-  O161  1  0.01935438  0.24292186  0.61484832  1
  O2-  O162  1  0.00758488  0.77269470  0.11313096  1
  O2-  O163  1  0.00294698  0.76393458  0.62729765  1
  O2-  O164  1  0.53452082  0.23495179  0.11469526  1
  O2-  O165  1  0.52536482  0.23821793  0.63045225  1
  O2-  O166  1  0.52868753  0.74624759  0.12554573  1
  O2-  O167  1  0.53422522  0.73409272  0.61671209  1
  O2-  O168  1  0.22072193  0.01235588  0.38163824  1
  O2-  O169  1  0.21997322  0.01714592  0.88552648  1
  O2-  O170  1  0.22409258  0.51219845  0.38240561  1
  O2-  O171  1  0.22664831  0.51812753  0.88204144  1
  O2-  O172  1  0.73351361  -0.00292578  0.37438511  1
  O2-  O173  1  0.74044939  -0.01960397  0.88688725  1
  O2-  O174  1  0.73255952  0.48633763  0.38753994  1
  O2-  O175  1  0.74024328  0.49089835  0.86841176  1
  O2-  O176  1  -0.03464836  0.23903495  0.38652773  1
  O2-  O177  1  -0.02920437  0.23418779  0.88302128  1
  O2-  O178  1  -0.03139101  0.75562983  0.38674147  1
  O2-  O179  1  -0.02394709  0.75276273  0.87136937  1
  O2-  O180  1  0.47993847  0.26422554  0.38714810  1
  O2-  O181  1  0.48333759  0.26263953  0.86743384  1
  O2-  O182  1  0.49194624  0.77154013  0.36665286  1
  O2-  O183  1  0.49065358  0.77955220  0.88859846  1
  O2-  O184  1  0.26061805  -0.03192398  0.11122685  1
  O2-  O185  1  0.26744677  -0.01512274  0.61289053  1
  O2-  O186  1  0.27466058  0.48115888  0.11619399  1
  O2-  O187  1  0.27456143  0.48048796  0.61815331  1
  O2-  O188  1  0.76344505  0.00404051  0.12907162  1
  O2-  O189  1  0.77715880  0.00832916  0.61457296  1
  O2-  O190  1  0.76556795  0.52258315  0.11714368  1
  O2-  O191  1  0.76674687  0.51339197  0.62769621  1
  O2-  O192  1  0.13306912  0.26399055  0.27121174  1
  O2-  O193  1  0.13095420  0.27342500  0.77375040  1
  O2-  O194  1  0.13460758  0.77190220  0.27705950  1
  O2-  O195  1  0.11330895  0.77307040  0.76102016  1
  O2-  O196  1  0.63738815  0.26357218  0.28606440  1
  O2-  O197  1  0.62658863  0.27220577  0.76201454  1
  O2-  O198  1  0.62832010  0.78018247  0.26054741  1
  O2-  O199  1  0.63702659  0.77281383  0.76582046  1
  O2-  O200  1  0.37080336  0.22289205  0.22966192  1
  O2-  O201  1  0.38372185  0.23369236  0.72970542  1
  O2-  O202  1  0.39010296  0.73336155  0.22992772  1
  O2-  O203  1  0.36643871  0.71877380  0.73696395  1
  O2-  O204  1  0.86028589  0.21789448  0.23702065  1
  O2-  O205  1  0.86112665  0.23403989  0.72027828  1
  O2-  O206  1  0.86169493  0.73167689  0.23549542  1
  O2-  O207  1  0.87153955  0.72842031  0.73747436  1
  O2-  O208  1  0.27617040  0.36340435  0.26996986  1
  O2-  O209  1  0.27780756  0.36115789  0.77931985  1
  O2-  O210  1  0.28263738  0.86311251  0.27354900  1
  O2-  O211  1  0.26808646  0.86339555  0.76867168  1
  O2-  O212  1  0.77907383  0.36413857  0.24660325  1
  O2-  O213  1  0.76629988  0.37992922  0.74037876  1
  O2-  O214  1  0.76541014  0.87783833  0.25152440  1
  O2-  O215  1  0.77633237  0.86394441  0.74315806  1
  O2-  O216  1  0.22868294  0.12772698  0.22753788  1
  O2-  O217  1  0.23522000  0.13459717  0.71823169  1
  O2-  O218  1  0.23572111  0.63487867  0.22332838  1
  O2-  O219  1  0.21724561  0.63132748  0.73066393  1
  O2-  O220  1  0.72692718  0.11934961  0.25387978  1
  O2-  O221  1  0.72266265  0.13343262  0.75464817  1
  O2-  O222  1  0.72149786  0.63738443  0.26104338  1
  O2-  O223  1  0.73412999  0.62680495  0.75722711  1
  O2-  O224  1  0.11687346  0.47635315  0.22674247  1
  O2-  O225  1  0.11166791  0.46959965  0.73816454  1
  O2-  O226  1  0.11210238  0.96007989  0.24000951  1
  O2-  O227  1  0.11191834  0.96745012  0.73359083  1
  O2-  O228  1  0.61960429  0.47817140  0.23563103  1
  O2-  O229  1  0.63282517  0.48853927  0.73260332  1
  O2-  O230  1  0.62912795  0.98143112  0.23236803  1
  O2-  O231  1  0.61421284  0.98271412  0.73575377  1
  O2-  O232  1  0.38631051  0.01845629  0.25421858  1
  O2-  O233  1  0.38512659  0.01883863  0.77963550  1
  O2-  O234  1  0.38787876  0.52822194  0.26441769  1
  O2-  O235  1  0.38377849  0.51558614  0.77271744  1
  O2-  O236  1  0.86628044  0.02017757  0.26520628  1
  O2-  O237  1  0.88576083  0.02854923  0.76347903  1
  O2-  O238  1  0.88373468  0.53251832  0.27290404  1
  O2-  O239  1  0.86951952  0.52174907  0.76032503  1
  O2-  O240  1  0.47747788  0.38333842  0.22188535  1
  O2-  O241  1  0.48938621  0.37315331  0.73083640  1
  O2-  O242  1  0.49163531  0.87759651  0.22626748  1
  O2-  O243  1  0.47653455  0.88589487  0.72632940  1
  O2-  O244  1  0.97057864  0.38305503  0.25905283  1
  O2-  O245  1  0.96437200  0.38323641  0.75101552  1
  O2-  O246  1  0.95744691  0.88575731  0.25158262  1
  O2-  O247  1  0.96838350  0.87490449  0.75140019  1
  O2-  O248  1  0.01200639  0.10813328  0.23404751  1
  O2-  O249  1  0.03240314  0.11298685  0.75088902  1
  O2-  O250  1  0.02682266  0.62118248  0.24329822  1
  O2-  O251  1  0.01247641  0.63603888  0.74728649  1
  O2-  O252  1  0.52794558  0.11281370  0.26421229  1
  O2-  O253  1  0.51940740  0.13076830  0.76600541  1
  O2-  O254  1  0.52883183  0.63625303  0.26256717  1
  O2-  O255  1  0.52363484  0.61643700  0.77639162  1
  O2-  O256  1  0.13141657  0.47620418  0.01715979  1
  O2-  O257  1  0.13218208  0.46846656  0.52056145  1
  O2-  O258  1  0.11718342  0.97278056  0.01077409  1
  O2-  O259  1  0.11277928  0.97747252  0.51251904  1
  O2-  O260  1  0.63906863  0.48153432  0.00649775  1
  O2-  O261  1  0.63689213  0.49255375  0.52434653  1
  O2-  O262  1  0.62435287  0.98328844  0.01803368  1
  O2-  O263  1  0.63789688  0.98311203  0.52042559  1
  O2-  O264  1  0.37647582  0.01604482  -0.01620681  1
  O2-  O265  1  0.36773518  0.03034935  0.47417506  1
  O2-  O266  1  0.36946584  0.51874937  -0.02425569  1
  O2-  O267  1  0.36633760  0.52744347  0.48108073  1
  O2-  O268  1  0.87020415  0.01557887  -0.00785504  1
  O2-  O269  1  0.87314632  0.01673452  0.47669576  1
  O2-  O270  1  0.86301780  0.53743877  -0.02247527  1
  O2-  O271  1  0.86274203  0.53131562  0.48940654  1
  O2-  O272  1  0.48385003  0.36444948  0.01988551  1
  O2-  O273  1  0.49447985  0.36568161  0.52422460  1
  O2-  O274  1  0.48591219  0.88252238  0.02071995  1
  O2-  O275  1  0.48450116  0.86686382  0.51419002  1
  O2-  O276  1  0.96879543  0.36770581  -0.01109704  1
  O2-  O277  1  0.96865471  0.36502050  0.50361697  1
  O2-  O278  1  0.96641205  0.87928344  -0.00982463  1
  O2-  O279  1  0.96962484  0.88097793  0.50118833  1
  O2-  O280  1  0.01440497  0.11192651  0.00307188  1
  O2-  O281  1  0.00883837  0.11916918  0.49982204  1
  O2-  O282  1  0.01846214  0.64215372  0.00224910  1
  O2-  O283  1  0.01277254  0.64087596  0.50445994  1
  O2-  O284  1  0.51873388  0.11935570  -0.01715564  1
  O2-  O285  1  0.53667267  0.13767686  0.49100237  1
  O2-  O286  1  0.53232120  0.64041707  -0.01523787  1
  O2-  O287  1  0.52350636  0.63977950  0.47046500  1
  O2-  O288  1  0.11170768  0.25674430  -0.02172844  1
  O2-  O289  1  0.11170805  0.26821593  0.47193935  1
  O2-  O290  1  0.11233242  0.78364968  -0.02003504  1
  O2-  O291  1  0.11014410  0.78067095  0.48782866  1
  O2-  O292  1  0.61653551  0.26202651  -0.03271315  1
  O2-  O293  1  0.63468606  0.27369353  0.48741865  1
  O2-  O294  1  0.63157108  0.78101118  -0.00740669  1
  O2-  O295  1  0.63419154  0.78046876  0.49092080  1
  O2-  O296  1  0.38953769  0.22160915  0.01185024  1
  O2-  O297  1  0.38690142  0.22676854  0.52703557  1
  O2-  O298  1  0.39015261  0.73223203  0.02154624  1
  O2-  O299  1  0.38764915  0.72997681  0.52231292  1
  O2-  O300  1  0.88193239  0.21803698  0.02468670  1
  O2-  O301  1  0.86659955  0.23430248  0.52783845  1
  O2-  O302  1  0.86693548  0.73774063  0.01760951  1
  O2-  O303  1  0.86549349  0.73971925  0.52189735  1
  O2-  O304  1  0.26858362  0.37931014  -0.02232469  1
  O2-  O305  1  0.27769408  0.38118263  0.47815020  1
  O2-  O306  1  0.26778743  0.88222609  -0.03194807  1
  O2-  O307  1  0.26698801  0.88440983  0.48010959  1
  O2-  O308  1  0.78386077  0.38619598  0.00970195  1
  O2-  O309  1  0.77261005  0.37673950  0.51115507  1
  O2-  O310  1  0.76502857  0.87483403  0.01499719  1
  O2-  O311  1  0.77104353  0.87870270  0.50260597  1
  O2-  O312  1  0.23312423  0.11047399  0.02628011  1
  O2-  O313  1  0.21897210  0.11557489  0.51529871  1
  O2-  O314  1  0.23479725  0.61673447  0.02240135  1
  O2-  O315  1  0.22387656  0.61454267  0.52431197  1
  O2-  O316  1  0.72903756  0.11227593  -0.00555894  1
  O2-  O317  1  0.73500752  0.12685569  0.49688505  1
  O2-  O318  1  0.72367620  0.63538398  -0.00366380  1
  O2-  O319  1  0.72795090  0.63259710  0.49399949  1
