# generated using pymatgen
data_Sr64Ca21Nb43O192
_symmetry_space_group_name_H-M   'P 1'
_cell_length_a   16.52079014
_cell_length_b   16.51921722
_cell_length_c   16.67571712
_cell_angle_alpha   90.02393323
_cell_angle_beta   89.99138054
_cell_angle_gamma   90.00795337
_symmetry_Int_Tables_number   1
_chemical_formula_structural   Sr64Ca21Nb43O192
_chemical_formula_sum   'Sr64 Ca21 Nb43 O192'
_cell_volume   4550.97815287
_cell_formula_units_Z   1
loop_
 _symmetry_equiv_pos_site_id
 _symmetry_equiv_pos_as_xyz
  1  'x, y, z'
loop_
 _atom_type_symbol
 _atom_type_oxidation_number
  Sr2+  2.0
  Ca2+  2.0
  Nb5+  5.0
  O2-  -2.0
loop_
 _atom_site_type_symbol
 _atom_site_label
 _atom_site_symmetry_multiplicity
 _atom_site_fract_x
 _atom_site_fract_y
 _atom_site_fract_z
 _atom_site_occupancy
  Sr2+  Sr0  1  0.13615318  0.13033105  0.12657302  1
  Sr2+  Sr1  1  0.13261865  0.12118379  0.62794931  1
  Sr2+  Sr2  1  0.12872617  0.63193498  0.12312610  1
  Sr2+  Sr3  1  0.13902579  0.62859213  0.62551380  1
  Sr2+  Sr4  1  0.62513227  0.11703509  0.12276028  1
  Sr2+  Sr5  1  0.62842031  0.11812614  0.63645439  1
  Sr2+  Sr6  1  0.63062944  0.62421579  0.12503836  1
  Sr2+  Sr7  1  0.62414031  0.63126172  0.62514323  1
  Sr2+  Sr8  1  0.37956536  0.38702916  0.12622633  1
  Sr2+  Sr9  1  0.37599144  0.38995959  0.62359425  1
  Sr2+  Sr10  1  0.37995892  0.87095474  0.12705404  1
  Sr2+  Sr11  1  0.36786157  0.87664614  0.62380324  1
  Sr2+  Sr12  1  0.87405238  0.38550022  0.13149478  1
  Sr2+  Sr13  1  0.87798307  0.37807163  0.63288415  1
  Sr2+  Sr14  1  0.88133867  0.87976757  0.12228811  1
  Sr2+  Sr15  1  0.87865307  0.88648751  0.61761747  1
  Sr2+  Sr16  1  0.11569996  0.35757080  0.37301143  1
  Sr2+  Sr17  1  0.12066369  0.37002991  0.87712164  1
  Sr2+  Sr18  1  0.11151137  0.87890439  0.37495632  1
  Sr2+  Sr19  1  0.12559856  0.87395395  0.87510133  1
  Sr2+  Sr20  1  0.61529036  0.37309379  0.37499690  1
  Sr2+  Sr21  1  0.62824447  0.36802758  0.87139385  1
  Sr2+  Sr22  1  0.62580701  0.86340825  0.37734354  1
  Sr2+  Sr23  1  0.62629451  0.88711566  0.87085696  1
  Sr2+  Sr24  1  0.37165567  0.12390230  0.37015608  1
  Sr2+  Sr25  1  0.39950918  0.12195184  0.88036619  1
  Sr2+  Sr26  1  0.37675079  0.61861551  0.38342103  1
  Sr2+  Sr27  1  0.37320991  0.63176966  0.88025767  1
  Sr2+  Sr28  1  0.87739313  0.11377407  0.38156574  1
  Sr2+  Sr29  1  0.88322631  0.12188024  0.87424434  1
  Sr2+  Sr30  1  0.86499489  0.62722535  0.37685029  1
  Sr2+  Sr31  1  0.87800603  0.62130333  0.87529151  1
  Sr2+  Sr32  1  0.12710720  0.11644241  0.36828227  1
  Sr2+  Sr33  1  0.12416919  0.13395561  0.87788062  1
  Sr2+  Sr34  1  0.11485284  0.62129440  0.37928406  1
  Sr2+  Sr35  1  0.12004459  0.61590485  0.87867318  1
  Sr2+  Sr36  1  0.61306856  0.13246027  0.37404017  1
  Sr2+  Sr37  1  0.62942873  0.12084536  0.87453854  1
  Sr2+  Sr38  1  0.61915915  0.62201525  0.37536078  1
  Sr2+  Sr39  1  0.62143201  0.64532043  0.87808664  1
  Sr2+  Sr40  1  0.37562418  0.37087922  0.38217208  1
  Sr2+  Sr41  1  0.37046614  0.37401419  0.87143143  1
  Sr2+  Sr42  1  0.36328181  0.88083340  0.37439469  1
  Sr2+  Sr43  1  0.36973799  0.86983855  0.87394716  1
  Sr2+  Sr44  1  0.85782922  0.37001364  0.37191960  1
  Sr2+  Sr45  1  0.87494983  0.38205498  0.87441974  1
  Sr2+  Sr46  1  0.87197395  0.86475939  0.38075665  1
  Sr2+  Sr47  1  0.86009397  0.88118711  0.87422715  1
  Sr2+  Sr48  1  0.12401607  0.37823135  0.11931891  1
  Sr2+  Sr49  1  0.13938357  0.37772048  0.63221038  1
  Sr2+  Sr50  1  0.13180007  0.87409731  0.12982394  1
  Sr2+  Sr51  1  0.12520692  0.87891923  0.62610907  1
  Sr2+  Sr52  1  0.63926275  0.38104341  0.13047206  1
  Sr2+  Sr53  1  0.63460786  0.37998687  0.62602298  1
  Sr2+  Sr54  1  0.63686427  0.87131491  0.12533913  1
  Sr2+  Sr55  1  0.64294887  0.87139096  0.62889084  1
  Sr2+  Sr56  1  0.37907780  0.12292217  0.12701245  1
  Sr2+  Sr57  1  0.38399260  0.12404876  0.62944436  1
  Sr2+  Sr58  1  0.39872339  0.63291074  0.12284076  1
  Sr2+  Sr59  1  0.37452006  0.62935652  0.62524467  1
  Sr2+  Sr60  1  0.86196231  0.12631426  0.11737943  1
  Sr2+  Sr61  1  0.88894775  0.12477915  0.62424075  1
  Sr2+  Sr62  1  0.88653138  0.62333897  0.12769637  1
  Sr2+  Sr63  1  0.88557155  0.63554185  0.62617296  1
  Ca2+  Ca64  1  0.50115240  0.00183690  0.49842308  1
  Ca2+  Ca65  1  0.50073745  -0.00282297  0.00109456  1
  Ca2+  Ca66  1  0.00309787  0.00130858  0.00042004  1
  Ca2+  Ca67  1  0.50183516  0.49741459  -0.00136024  1
  Ca2+  Ca68  1  -0.00274229  0.49774957  0.50036411  1
  Ca2+  Ca69  1  0.75444551  0.75040422  0.00152069  1
  Ca2+  Ca70  1  0.74826862  0.24888241  0.49974113  1
  Ca2+  Ca71  1  0.24916797  0.24719743  0.50148274  1
  Ca2+  Ca72  1  0.74866969  0.25292541  -0.00130209  1
  Ca2+  Ca73  1  0.24952424  0.75082988  0.49668930  1
  Ca2+  Ca74  1  0.00013319  0.75124792  0.75219130  1
  Ca2+  Ca75  1  0.00002171  0.75005088  0.24996883  1
  Ca2+  Ca76  1  0.49965238  0.75145837  0.25216825  1
  Ca2+  Ca77  1  0.74599531  0.50468927  0.74977319  1
  Ca2+  Ca78  1  0.49899444  0.75138138  0.74904316  1
  Ca2+  Ca79  1  0.24911208  0.49943364  0.25173375  1
  Ca2+  Ca80  1  0.75341196  0.00146139  0.74692924  1
  Ca2+  Ca81  1  0.75119342  -0.00039202  0.25429664  1
  Ca2+  Ca82  1  -0.00288715  0.24640336  0.24828815  1
  Ca2+  Ca83  1  0.25351332  0.00181126  0.75431645  1
  Ca2+  Ca84  1  0.25132446  0.50263765  0.75240020  1
  Nb5+  Nb85  1  0.00287203  0.00095210  0.50159576  1
  Nb5+  Nb86  1  0.50220497  0.50088553  0.50302149  1
  Nb5+  Nb87  1  0.00073837  0.49948131  0.00016273  1
  Nb5+  Nb88  1  0.25089303  0.75561788  0.00240262  1
  Nb5+  Nb89  1  0.74939826  0.74795827  0.50119796  1
  Nb5+  Nb90  1  0.25340997  0.25376582  0.00045901  1
  Nb5+  Nb91  1  0.74815176  0.50179532  0.25149906  1
  Nb5+  Nb92  1  0.00538884  0.25112350  0.74755451  1
  Nb5+  Nb93  1  0.50556085  0.25498183  0.75366024  1
  Nb5+  Nb94  1  0.25144517  -0.00147024  0.24823556  1
  Nb5+  Nb95  1  0.49896887  0.25097993  0.25144199  1
  Nb5+  Nb96  1  -0.00181929  0.00194184  0.24610587  1
  Nb5+  Nb97  1  0.00223575  -0.00192168  0.75537098  1
  Nb5+  Nb98  1  0.00020848  0.49756088  0.25617981  1
  Nb5+  Nb99  1  0.00338163  0.50045131  0.74313625  1
  Nb5+  Nb100  1  0.50127679  -0.00367692  0.25239614  1
  Nb5+  Nb101  1  0.49707789  -0.00411502  0.74708511  1
  Nb5+  Nb102  1  0.49920350  0.50067221  0.24807997  1
  Nb5+  Nb103  1  0.49959961  0.50198238  0.75377368  1
  Nb5+  Nb104  1  0.25054642  0.25248981  0.24850866  1
  Nb5+  Nb105  1  0.25969085  0.24442156  0.75027426  1
  Nb5+  Nb106  1  0.24781452  0.74481547  0.25333208  1
  Nb5+  Nb107  1  0.25000850  0.74969502  0.74919400  1
  Nb5+  Nb108  1  0.74760665  0.24467859  0.25233958  1
  Nb5+  Nb109  1  0.75863827  0.24784097  0.75063782  1
  Nb5+  Nb110  1  0.75214207  0.75244637  0.24773253  1
  Nb5+  Nb111  1  0.75161596  0.74933395  0.75396157  1
  Nb5+  Nb112  1  -0.00200565  0.25168792  0.49830174  1
  Nb5+  Nb113  1  -0.00250267  0.25015920  1.00264686  1
  Nb5+  Nb114  1  0.00323068  0.74919969  0.50355712  1
  Nb5+  Nb115  1  -0.00131962  0.75259181  0.99479105  1
  Nb5+  Nb116  1  0.50099984  0.25016139  0.50905563  1
  Nb5+  Nb117  1  0.50110018  0.25701978  1.00679848  1
  Nb5+  Nb118  1  0.49548880  0.75224476  0.49992243  1
  Nb5+  Nb119  1  0.50537644  0.75665603  0.99918088  1
  Nb5+  Nb120  1  0.24789554  0.00508766  -0.00171987  1
  Nb5+  Nb121  1  0.25342021  0.00450409  0.50183439  1
  Nb5+  Nb122  1  0.25147213  0.50777920  0.00396665  1
  Nb5+  Nb123  1  0.24284347  0.49645229  0.49305831  1
  Nb5+  Nb124  1  0.74987449  0.00066658  0.00232333  1
  Nb5+  Nb125  1  0.74521832  0.00130406  0.49558758  1
  Nb5+  Nb126  1  0.74740972  0.49949300  -0.00471660  1
  Nb5+  Nb127  1  0.75040001  0.50163903  0.50262789  1
  O2-  O128  1  0.00252306  -0.02807444  0.13496527  1
  O2-  O129  1  0.00140387  -0.01892554  0.62311408  1
  O2-  O130  1  0.00376516  0.47222728  0.11780648  1
  O2-  O131  1  0.01298928  0.46494438  0.63255954  1
  O2-  O132  1  0.49612182  0.00872420  0.13597043  1
  O2-  O133  1  0.49312618  0.01663776  0.63053466  1
  O2-  O134  1  0.52027520  0.47986146  0.13441674  1
  O2-  O135  1  0.52339160  0.49161612  0.61772343  1
  O2-  O136  1  0.00463248  0.02175179  0.38169018  1
  O2-  O137  1  0.01165029  0.03128297  0.86629190  1
  O2-  O138  1  -0.01376756  0.53024257  0.36545800  1
  O2-  O139  1  -0.01289621  0.51245834  0.87717513  1
  O2-  O140  1  0.49681672  0.02949018  0.36545338  1
  O2-  O141  1  0.51412692  0.00700896  0.86557875  1
  O2-  O142  1  0.48869877  0.50153291  0.37255869  1
  O2-  O143  1  0.47101542  0.50145644  0.86514437  1
  O2-  O144  1  0.25973354  0.23234705  0.12045040  1
  O2-  O145  1  0.26472369  0.22878123  0.63616559  1
  O2-  O146  1  0.23540281  0.74562303  0.12215178  1
  O2-  O147  1  0.25138770  0.74094538  0.63232583  1
  O2-  O148  1  0.75502839  0.24449614  0.13463780  1
  O2-  O149  1  0.74971961  0.24350228  0.63349690  1
  O2-  O150  1  0.73633266  0.73725645  0.13398598  1
  O2-  O151  1  0.74748546  0.73182002  0.61919753  1
  O2-  O152  1  0.23574795  0.25225210  0.36355750  1
  O2-  O153  1  0.24057710  0.25848793  0.88009888  1
  O2-  O154  1  0.26958218  0.76067857  0.36444467  1
  O2-  O155  1  0.25773469  0.76034329  0.88188002  1
  O2-  O156  1  0.73044451  0.27393548  0.36562447  1
  O2-  O157  1  0.72821185  0.25803412  0.86568180  1
  O2-  O158  1  0.75146999  0.75930945  0.37699723  1
  O2-  O159  1  0.75589327  0.76474848  0.86816460  1
  O2-  O160  1  -0.01462798  0.27517561  0.11396482  1
  O2-  O161  1  -0.02118086  0.26252735  0.63043033  1
  O2-  O162  1  0.01087142  0.76896563  0.11277475  1
  O2-  O163  1  -0.01703662  0.77602085  0.61725272  1
  O2-  O164  1  0.48116914  0.25491757  0.12368174  1
  O2-  O165  1  0.48173444  0.25221067  0.62581594  1
  O2-  O166  1  0.50387423  0.76375093  0.11813488  1
  O2-  O167  1  0.51027646  0.74207969  0.61537903  1
  O2-  O168  1  0.25233205  -0.00419554  0.37078801  1
  O2-  O169  1  0.24715264  -0.02206008  0.88689344  1
  O2-  O170  1  0.28644948  0.49615108  0.38257758  1
  O2-  O171  1  0.26981497  0.49016440  0.88853575  1
  O2-  O172  1  0.77626299  -0.01994851  0.38394866  1
  O2-  O173  1  0.74486025  -0.01248984  0.88139056  1
  O2-  O174  1  0.76341569  0.49435858  0.37185518  1
  O2-  O175  1  0.77312466  0.49878268  0.88327699  1
  O2-  O176  1  0.02247530  0.23017186  0.38613149  1
  O2-  O177  1  0.01164894  0.23625434  0.87015629  1
  O2-  O178  1  -0.00194402  0.72846989  0.38603373  1
  O2-  O179  1  0.00615423  0.71303474  0.88353096  1
  O2-  O180  1  0.50911569  0.24886036  0.36968345  1
  O2-  O181  1  0.50856023  0.25717228  0.87275558  1
  O2-  O182  1  0.51140408  0.73673015  0.38449896  1
  O2-  O183  1  0.48710495  0.73824501  0.88316566  1
  O2-  O184  1  0.24935852  0.00836832  0.12774781  1
  O2-  O185  1  0.25196160  0.00422260  0.61770453  1
  O2-  O186  1  0.22119642  0.49575977  0.11714313  1
  O2-  O187  1  0.23145349  0.50663944  0.61320985  1
  O2-  O188  1  0.75325865  0.01254987  0.12194279  1
  O2-  O189  1  0.75275867  0.01129156  0.61164730  1
  O2-  O190  1  0.73609848  0.50829363  0.12901243  1
  O2-  O191  1  0.72292261  0.51039620  0.61378368  1
  O2-  O192  1  0.13580342  0.27065912  0.22931065  1
  O2-  O193  1  0.12039279  0.27170286  0.74106917  1
  O2-  O194  1  0.13490765  0.78333454  0.25561817  1
  O2-  O195  1  0.13395831  0.78471529  0.75197072  1
  O2-  O196  1  0.61553966  0.27476784  0.23647247  1
  O2-  O197  1  0.61716485  0.27763007  0.73740306  1
  O2-  O198  1  0.63516513  0.77417343  0.25803109  1
  O2-  O199  1  0.63304683  0.78500672  0.75347771  1
  O2-  O200  1  0.37659562  0.22563592  0.25457499  1
  O2-  O201  1  0.37396303  0.22693397  0.76819629  1
  O2-  O202  1  0.36376336  0.72908582  0.23078751  1
  O2-  O203  1  0.36555835  0.71301635  0.75360108  1
  O2-  O204  1  0.86128423  0.22487982  0.26790707  1
  O2-  O205  1  0.87381423  0.22589484  0.76175781  1
  O2-  O206  1  0.86560095  0.71530257  0.25189457  1
  O2-  O207  1  0.86569986  0.71331883  0.75188521  1
  O2-  O208  1  0.28110829  0.36360358  0.24164516  1
  O2-  O209  1  0.26334914  0.36276207  0.74214811  1
  O2-  O210  1  0.27444392  0.88077706  0.23930187  1
  O2-  O211  1  0.28317298  0.86582854  0.74707073  1
  O2-  O212  1  0.76327369  0.37894880  0.23932259  1
  O2-  O213  1  0.77247570  0.36751018  0.74526438  1
  O2-  O214  1  0.78373708  0.86428046  0.23795756  1
  O2-  O215  1  0.77922863  0.86454372  0.72768438  1
  O2-  O216  1  0.23475219  0.12324950  0.25254638  1
  O2-  O217  1  0.21683178  0.13566547  0.76424111  1
  O2-  O218  1  0.21379810  0.63379755  0.26002513  1
  O2-  O219  1  0.21557006  0.63436310  0.76463632  1
  O2-  O220  1  0.71259520  0.13418380  0.25954605  1
  O2-  O221  1  0.72042778  0.13450939  0.75594634  1
  O2-  O222  1  0.72516870  0.61967968  0.26163172  1
  O2-  O223  1  0.71053023  0.63643693  0.75713005  1
  O2-  O224  1  0.11223171  0.46826695  0.26526508  1
  O2-  O225  1  0.11568377  0.47317725  0.77089652  1
  O2-  O226  1  0.13174886  0.97918653  0.25391960  1
  O2-  O227  1  0.11801941  0.98382898  0.73866510  1
  O2-  O228  1  0.62722811  0.47802743  0.26411469  1
  O2-  O229  1  0.61065216  0.46131670  0.75872879  1
  O2-  O230  1  0.61544607  0.96967051  0.25315604  1
  O2-  O231  1  0.61622654  0.98054614  0.73565398  1
  O2-  O232  1  0.37125502  0.02377499  0.25057646  1
  O2-  O233  1  0.38456390  0.03870919  0.75633321  1
  O2-  O234  1  0.38598538  0.52051943  0.22931036  1
  O2-  O235  1  0.38647078  0.51155076  0.71579384  1
  O2-  O236  1  0.88743055  0.03509388  0.24465881  1
  O2-  O237  1  0.88712093  0.02842112  0.74501012  1
  O2-  O238  1  0.86806371  0.51560580  0.23650878  1
  O2-  O239  1  0.88461885  0.51567024  0.73650379  1
  O2-  O240  1  0.47575445  0.37203122  0.25740049  1
  O2-  O241  1  0.46758684  0.36896380  0.74816074  1
  O2-  O242  1  0.46779030  0.88625650  0.26333899  1
  O2-  O243  1  0.46483361  0.88519029  0.74646851  1
  O2-  O244  1  0.96728702  0.38273367  0.26766499  1
  O2-  O245  1  0.97598671  0.36748663  0.76515096  1
  O2-  O246  1  0.98362812  0.88804949  0.28058260  1
  O2-  O247  1  0.97940409  0.88704174  0.77861367  1
  O2-  O248  1  0.03679195  0.11432474  0.23830808  1
  O2-  O249  1  0.01732386  0.13231165  0.72941026  1
  O2-  O250  1  0.01468455  0.60987849  0.21810125  1
  O2-  O251  1  0.02411492  0.61279811  0.72435337  1
  O2-  O252  1  0.51992695  0.13366292  0.24058736  1
  O2-  O253  1  0.52196374  0.13716910  0.75038501  1
  O2-  O254  1  0.52559516  0.61429492  0.24150208  1
  O2-  O255  1  0.52807632  0.61313878  0.74863524  1
  O2-  O256  1  0.12337045  0.48100420  -0.01646908  1
  O2-  O257  1  0.13188067  0.47401617  0.46680557  1
  O2-  O258  1  0.13527015  0.96918556  0.00967620  1
  O2-  O259  1  0.12224880  0.97436022  0.49962462  1
  O2-  O260  1  0.63581707  0.46868132  -0.01416092  1
  O2-  O261  1  0.62478918  0.48447438  0.47711874  1
  O2-  O262  1  0.63333299  0.96812984  0.01006380  1
  O2-  O263  1  0.63471154  0.96619754  0.49278512  1
  O2-  O264  1  0.36454000  0.02330141  0.00328974  1
  O2-  O265  1  0.36560594  0.03529061  0.49615980  1
  O2-  O266  1  0.36425173  0.51967515  0.02772557  1
  O2-  O267  1  0.38488607  0.52189312  0.51575040  1
  O2-  O268  1  0.86949070  0.03228210  -0.00212011  1
  O2-  O269  1  0.88174309  0.01525603  0.50664823  1
  O2-  O270  1  0.88175132  0.51999524  0.01156534  1
  O2-  O271  1  0.86255729  0.53300962  0.51173278  1
  O2-  O272  1  0.45619707  0.36502862  -0.00618995  1
  O2-  O273  1  0.47793097  0.37950896  0.49567239  1
  O2-  O274  1  0.46101897  0.86633987  -0.00547784  1
  O2-  O275  1  0.46981260  0.86578643  0.49395185  1
  O2-  O276  1  0.99278376  0.37383702  -0.02476694  1
  O2-  O277  1  0.96829050  0.36265913  0.47940767  1
  O2-  O278  1  0.98156998  0.86362689  -0.03158772  1
  O2-  O279  1  0.98157771  0.87861136  0.48182661  1
  O2-  O280  1  0.02854078  0.13837023  0.01681611  1
  O2-  O281  1  0.01957851  0.11868225  0.52405675  1
  O2-  O282  1  0.02455511  0.61437926  0.01748010  1
  O2-  O283  1  0.02021046  0.63484230  0.52841113  1
  O2-  O284  1  0.51713181  0.13958052  -0.00463138  1
  O2-  O285  1  0.53439510  0.13956194  0.50707029  1
  O2-  O286  1  0.51925717  0.63430927  0.01222470  1
  O2-  O287  1  0.52432152  0.61806869  0.49958727  1
  O2-  O288  1  0.13013731  0.26869965  0.00754878  1
  O2-  O289  1  0.11206825  0.27403650  0.52470939  1
  O2-  O290  1  0.12900308  0.76268292  -0.00892944  1
  O2-  O291  1  0.11560334  0.77698770  0.50242604  1
  O2-  O292  1  0.61125193  0.28669108  0.01177051  1
  O2-  O293  1  0.61291067  0.28756062  0.50443026  1
  O2-  O294  1  0.61758300  0.78077079  -0.01337230  1
  O2-  O295  1  0.62894468  0.76995280  0.49995633  1
  O2-  O296  1  0.36772776  0.22220291  -0.00910436  1
  O2-  O297  1  0.38710701  0.23244998  0.48079330  1
  O2-  O298  1  0.36564793  0.72254442  0.00699642  1
  O2-  O299  1  0.38454631  0.71746919  0.50109576  1
  O2-  O300  1  0.88539690  0.22779267  -0.01533886  1
  O2-  O301  1  0.88391141  0.21419489  0.49472839  1
  O2-  O302  1  0.88786169  0.71887518  0.00604933  1
  O2-  O303  1  0.87028323  0.73077572  0.49582674  1
  O2-  O304  1  0.26891305  0.36894920  0.01076089  1
  O2-  O305  1  0.27502264  0.38190351  0.50901896  1
  O2-  O306  1  0.27214718  0.87018525  0.01461655  1
  O2-  O307  1  0.27446008  0.88605871  0.50042165  1
  O2-  O308  1  0.78165530  0.38619413  0.01370238  1
  O2-  O309  1  0.77427479  0.38785250  0.50854618  1
  O2-  O310  1  0.78523125  0.88330213  0.01288215  1
  O2-  O311  1  0.76949822  0.86734662  0.51224931  1
  O2-  O312  1  0.22340396  0.12144672  -0.00642151  1
  O2-  O313  1  0.21283857  0.11522493  0.49105695  1
  O2-  O314  1  0.22699161  0.62260640  -0.00545157  1
  O2-  O315  1  0.22422534  0.61619935  0.48593179  1
  O2-  O316  1  0.71854487  0.11857859  -0.00281071  1
  O2-  O317  1  0.72506024  0.11356358  0.47596151  1
  O2-  O318  1  0.72314836  0.61601333  -0.00350576  1
  O2-  O319  1  0.72706965  0.62777595  0.48261681  1
