# generated using pymatgen
data_Sr64Ca21Nb43O192
_symmetry_space_group_name_H-M   'P 1'
_cell_length_a   16.57175884
_cell_length_b   16.58059954
_cell_length_c   16.73697848
_cell_angle_alpha   89.98544278
_cell_angle_beta   90.00188269
_cell_angle_gamma   90.06438994
_symmetry_Int_Tables_number   1
_chemical_formula_structural   Sr64Ca21Nb43O192
_chemical_formula_sum   'Sr64 Ca21 Nb43 O192'
_cell_volume   4598.81145067
_cell_formula_units_Z   1
loop_
 _symmetry_equiv_pos_site_id
 _symmetry_equiv_pos_as_xyz
  1  'x, y, z'
loop_
 _atom_type_symbol
 _atom_type_oxidation_number
  Sr2+  2.0
  Ca2+  2.0
  Nb5+  5.0
  O2-  -2.0
loop_
 _atom_site_type_symbol
 _atom_site_label
 _atom_site_symmetry_multiplicity
 _atom_site_fract_x
 _atom_site_fract_y
 _atom_site_fract_z
 _atom_site_occupancy
  Sr2+  Sr0  1  0.12322367  0.12201989  0.12770514  1
  Sr2+  Sr1  1  0.12894305  0.11693461  0.61958320  1
  Sr2+  Sr2  1  0.11994483  0.62870988  0.12975395  1
  Sr2+  Sr3  1  0.12403547  0.62076002  0.62913544  1
  Sr2+  Sr4  1  0.63091085  0.13459854  0.12566892  1
  Sr2+  Sr5  1  0.63213113  0.12984641  0.62702083  1
  Sr2+  Sr6  1  0.63056697  0.62160957  0.11999705  1
  Sr2+  Sr7  1  0.62372352  0.62861832  0.62705505  1
  Sr2+  Sr8  1  0.37856340  0.37510787  0.12962662  1
  Sr2+  Sr9  1  0.38021563  0.37311423  0.60637400  1
  Sr2+  Sr10  1  0.38030072  0.87177600  0.12953611  1
  Sr2+  Sr11  1  0.38366775  0.85538431  0.62554914  1
  Sr2+  Sr12  1  0.87670102  0.37121202  0.12777282  1
  Sr2+  Sr13  1  0.87291210  0.38361260  0.62721963  1
  Sr2+  Sr14  1  0.87068703  0.86286609  0.12585776  1
  Sr2+  Sr15  1  0.88040788  0.87277182  0.62079558  1
  Sr2+  Sr16  1  0.12732575  0.38301834  0.36902008  1
  Sr2+  Sr17  1  0.11495602  0.37591910  0.88140870  1
  Sr2+  Sr18  1  0.11741481  0.88461730  0.37350586  1
  Sr2+  Sr19  1  0.13867594  0.88603180  0.87520367  1
  Sr2+  Sr20  1  0.61301746  0.38499578  0.37731689  1
  Sr2+  Sr21  1  0.62093187  0.38614475  0.87232827  1
  Sr2+  Sr22  1  0.62736198  0.88448005  0.38153815  1
  Sr2+  Sr23  1  0.62125351  0.87773892  0.87677360  1
  Sr2+  Sr24  1  0.35974005  0.13392915  0.37441796  1
  Sr2+  Sr25  1  0.36156350  0.12723558  0.87469660  1
  Sr2+  Sr26  1  0.35388286  0.62448560  0.36954644  1
  Sr2+  Sr27  1  0.36493829  0.63661784  0.87442045  1
  Sr2+  Sr28  1  0.88555465  0.12746601  0.38013048  1
  Sr2+  Sr29  1  0.87843846  0.13299527  0.86184883  1
  Sr2+  Sr30  1  0.87784107  0.63130992  0.38173404  1
  Sr2+  Sr31  1  0.87383402  0.63397895  0.87390857  1
  Sr2+  Sr32  1  0.11893595  0.12709262  0.37663695  1
  Sr2+  Sr33  1  0.13008766  0.13268908  0.88152012  1
  Sr2+  Sr34  1  0.12402643  0.65636354  0.37044810  1
  Sr2+  Sr35  1  0.11500932  0.63094517  0.87351800  1
  Sr2+  Sr36  1  0.63773735  0.13859194  0.37836397  1
  Sr2+  Sr37  1  0.61961854  0.13909576  0.87331046  1
  Sr2+  Sr38  1  0.62543692  0.63156830  0.38955981  1
  Sr2+  Sr39  1  0.62399239  0.63357446  0.87458727  1
  Sr2+  Sr40  1  0.36454523  0.38799916  0.36867687  1
  Sr2+  Sr41  1  0.36529082  0.38036025  0.87358838  1
  Sr2+  Sr42  1  0.36871346  0.88303001  0.36788245  1
  Sr2+  Sr43  1  0.37331223  0.88730191  0.87283276  1
  Sr2+  Sr44  1  0.88267205  0.38087461  0.37597179  1
  Sr2+  Sr45  1  0.87549645  0.38998473  0.87114793  1
  Sr2+  Sr46  1  0.87914666  0.87965032  0.37766844  1
  Sr2+  Sr47  1  0.87447097  0.87524714  0.87948718  1
  Sr2+  Sr48  1  0.11752689  0.36340738  0.12497301  1
  Sr2+  Sr49  1  0.13648486  0.37129261  0.61742301  1
  Sr2+  Sr50  1  0.12211462  0.86309534  0.13617924  1
  Sr2+  Sr51  1  0.13905398  0.86523757  0.61739930  1
  Sr2+  Sr52  1  0.62156391  0.37533761  0.11841914  1
  Sr2+  Sr53  1  0.62308423  0.37400397  0.63380190  1
  Sr2+  Sr54  1  0.62522417  0.87560003  0.12937345  1
  Sr2+  Sr55  1  0.61781962  0.87117877  0.62367323  1
  Sr2+  Sr56  1  0.39340239  0.12230676  0.12027702  1
  Sr2+  Sr57  1  0.38460051  0.12342289  0.61873645  1
  Sr2+  Sr58  1  0.39110465  0.61700948  0.12776562  1
  Sr2+  Sr59  1  0.36495763  0.61868789  0.62984619  1
  Sr2+  Sr60  1  0.86667465  0.12024506  0.13618141  1
  Sr2+  Sr61  1  0.88107149  0.11562242  0.63105182  1
  Sr2+  Sr62  1  0.87451304  0.61913988  0.12355176  1
  Sr2+  Sr63  1  0.86941316  0.61652507  0.62305236  1
  Ca2+  Ca64  1  0.50142413  0.00143442  0.50034280  1
  Ca2+  Ca65  1  -0.00163548  0.50065455  0.49888603  1
  Ca2+  Ca66  1  -0.00145940  0.00007765  0.00075004  1
  Ca2+  Ca67  1  0.49937637  0.50056020  0.50248845  1
  Ca2+  Ca68  1  -0.00124716  0.50008456  0.00365914  1
  Ca2+  Ca69  1  0.75038831  0.75210432  0.50377106  1
  Ca2+  Ca70  1  0.75256482  0.24987725  -0.00201412  1
  Ca2+  Ca71  1  0.75725302  0.25253593  0.50238826  1
  Ca2+  Ca72  1  0.25278535  0.75196071  0.49936495  1
  Ca2+  Ca73  1  0.25223053  0.74980504  0.00162864  1
  Ca2+  Ca74  1  0.74723200  0.50340519  0.25153305  1
  Ca2+  Ca75  1  0.00377989  0.25183777  0.74656862  1
  Ca2+  Ca76  1  0.49349422  0.25072098  0.75065999  1
  Ca2+  Ca77  1  0.25090775  0.00430152  0.24889356  1
  Ca2+  Ca78  1  -0.00301438  0.75201116  0.74962551  1
  Ca2+  Ca79  1  0.50000850  0.24789061  0.25333904  1
  Ca2+  Ca80  1  0.25237067  0.00401009  0.74508653  1
  Ca2+  Ca81  1  0.24620762  0.50256251  0.24188364  1
  Ca2+  Ca82  1  -0.00650838  0.75161563  0.25106020  1
  Ca2+  Ca83  1  0.50210211  0.74859930  0.24794405  1
  Ca2+  Ca84  1  0.24920880  0.49437507  0.75236850  1
  Nb5+  Nb85  1  0.50536354  0.00341889  -0.00133181  1
  Nb5+  Nb86  1  0.00100439  -0.00054695  0.50239810  1
  Nb5+  Nb87  1  0.50004104  0.50555450  -0.00498897  1
  Nb5+  Nb88  1  0.25258360  0.25207848  -0.00239514  1
  Nb5+  Nb89  1  0.74814953  0.74908788  0.00023725  1
  Nb5+  Nb90  1  0.24931025  0.25090440  0.49115435  1
  Nb5+  Nb91  1  -0.00144638  0.25117902  0.25178052  1
  Nb5+  Nb92  1  0.74975037  0.00111601  0.25682842  1
  Nb5+  Nb93  1  0.74686217  0.00339168  0.75803293  1
  Nb5+  Nb94  1  0.74740256  0.50856169  0.75151205  1
  Nb5+  Nb95  1  0.50114663  0.74711052  0.75252512  1
  Nb5+  Nb96  1  -0.00374679  0.00112016  0.24636829  1
  Nb5+  Nb97  1  0.00744918  -0.00585836  0.75140905  1
  Nb5+  Nb98  1  -0.00190709  0.50522012  0.25032544  1
  Nb5+  Nb99  1  0.00395250  0.49543708  0.74861214  1
  Nb5+  Nb100  1  0.50343846  0.00478755  0.25908080  1
  Nb5+  Nb101  1  0.50245946  0.00107403  0.75050483  1
  Nb5+  Nb102  1  0.50326856  0.50164965  0.25553461  1
  Nb5+  Nb103  1  0.49633223  0.50045957  0.75400001  1
  Nb5+  Nb104  1  0.25003819  0.24821449  0.24099601  1
  Nb5+  Nb105  1  0.24843253  0.24787284  0.73722141  1
  Nb5+  Nb106  1  0.25225707  0.75379373  0.24593877  1
  Nb5+  Nb107  1  0.24394309  0.75158237  0.75524291  1
  Nb5+  Nb108  1  0.75280695  0.25713065  0.25419382  1
  Nb5+  Nb109  1  0.75114614  0.25975372  0.75109811  1
  Nb5+  Nb110  1  0.74616538  0.74861786  0.25540114  1
  Nb5+  Nb111  1  0.74890972  0.75693377  0.75033573  1
  Nb5+  Nb112  1  0.00158674  0.25118699  0.50516847  1
  Nb5+  Nb113  1  -0.00441006  0.24054608  1.00149633  1
  Nb5+  Nb114  1  0.00368835  0.74819610  0.50398499  1
  Nb5+  Nb115  1  0.00585813  0.75500976  0.99791424  1
  Nb5+  Nb116  1  0.50566964  0.24870352  0.49562830  1
  Nb5+  Nb117  1  0.49944111  0.25883994  0.99518637  1
  Nb5+  Nb118  1  0.49469866  0.74555535  0.48968327  1
  Nb5+  Nb119  1  0.50004082  0.75454106  0.99762135  1
  Nb5+  Nb120  1  0.25164487  -0.00277240  0.00774202  1
  Nb5+  Nb121  1  0.25567368  0.00041715  0.49997574  1
  Nb5+  Nb122  1  0.24569817  0.49976800  -0.00014467  1
  Nb5+  Nb123  1  0.24227488  0.50603110  0.49695164  1
  Nb5+  Nb124  1  0.74966542  0.00102496  0.00151634  1
  Nb5+  Nb125  1  0.75137261  -0.00040619  0.51062875  1
  Nb5+  Nb126  1  0.75164393  0.50078400  -0.00177671  1
  Nb5+  Nb127  1  0.74566423  0.49910807  0.49613912  1
  O2-  O128  1  -0.02577911  0.01463615  0.13453180  1
  O2-  O129  1  -0.01887170  -0.00035386  0.61990335  1
  O2-  O130  1  -0.03421049  0.49697339  0.13540939  1
  O2-  O131  1  -0.02752642  0.50545356  0.63455657  1
  O2-  O132  1  0.49093466  -0.02259398  0.11189596  1
  O2-  O133  1  0.48403770  -0.02463253  0.63899217  1
  O2-  O134  1  0.48717599  0.48055161  0.10942674  1
  O2-  O135  1  0.48777736  0.48591160  0.64009691  1
  O2-  O136  1  0.00721251  -0.00090148  0.37734347  1
  O2-  O137  1  0.02908093  -0.00311407  0.86532202  1
  O2-  O138  1  0.00546057  0.47586921  0.36411691  1
  O2-  O139  1  0.01088303  0.49020623  0.86890315  1
  O2-  O140  1  0.54077473  0.01634321  0.36564347  1
  O2-  O141  1  0.52958241  0.00393420  0.87518854  1
  O2-  O142  1  0.52452485  0.51835928  0.36649666  1
  O2-  O143  1  0.52828387  0.51368921  0.87681153  1
  O2-  O144  1  0.22592805  0.24075376  0.12733439  1
  O2-  O145  1  0.22812131  0.24032894  0.62191362  1
  O2-  O146  1  0.21548796  0.74490961  0.13066503  1
  O2-  O147  1  0.23435318  0.72841342  0.63761840  1
  O2-  O148  1  0.73414797  0.25505393  0.13539975  1
  O2-  O149  1  0.72131228  0.25403333  0.63540549  1
  O2-  O150  1  0.72408611  0.75499494  0.11610346  1
  O2-  O151  1  0.72168244  0.75826259  0.63808924  1
  O2-  O152  1  0.26560211  0.26373629  0.37575089  1
  O2-  O153  1  0.26974930  0.25435888  0.88302329  1
  O2-  O154  1  0.27914178  0.76079818  0.36524667  1
  O2-  O155  1  0.27874700  0.76976020  0.86759595  1
  O2-  O156  1  0.77853115  0.23224433  0.36608627  1
  O2-  O157  1  0.77788164  0.24471568  0.86576185  1
  O2-  O158  1  0.77403761  0.74732526  0.36627019  1
  O2-  O159  1  0.76466293  0.74779759  0.87563694  1
  O2-  O160  1  0.01846733  0.24124206  0.13071685  1
  O2-  O161  1  0.03703898  0.24725610  0.61377221  1
  O2-  O162  1  0.01526773  0.75183961  0.11705545  1
  O2-  O163  1  0.03102329  0.76048607  0.61871126  1
  O2-  O164  1  0.51541838  0.26279317  0.11316245  1
  O2-  O165  1  0.50273172  0.28058007  0.61469766  1
  O2-  O166  1  0.52134909  0.76567901  0.11013489  1
  O2-  O167  1  0.51941998  0.76151818  0.63757919  1
  O2-  O168  1  0.22652038  -0.01093855  0.38593652  1
  O2-  O169  1  0.23909252  0.00073471  0.88726398  1
  O2-  O170  1  0.24550249  0.48062742  0.38015935  1
  O2-  O171  1  0.23898403  0.46283325  0.88702640  1
  O2-  O172  1  0.73521252  0.00359418  0.37063986  1
  O2-  O173  1  0.72650333  -0.00541283  0.87116305  1
  O2-  O174  1  0.72014343  0.50282208  0.38463141  1
  O2-  O175  1  0.73081310  0.49919070  0.87379480  1
  O2-  O176  1  -0.01529531  0.25062597  0.37258785  1
  O2-  O177  1  -0.00796637  0.24103708  0.88531284  1
  O2-  O178  1  -0.02622895  0.75188408  0.38594283  1
  O2-  O179  1  -0.02917181  0.74852434  0.88456203  1
  O2-  O180  1  0.48688298  0.20811107  0.38553080  1
  O2-  O181  1  0.47952228  0.21961218  0.88713704  1
  O2-  O182  1  0.47508606  0.72173274  0.38026997  1
  O2-  O183  1  0.49206710  0.72705856  0.87553812  1
  O2-  O184  1  0.28703226  0.01886355  0.11665407  1
  O2-  O185  1  0.25932977  0.03510679  0.61263019  1
  O2-  O186  1  0.28761954  0.50789275  0.10823402  1
  O2-  O187  1  0.24519879  0.52024380  0.61760400  1
  O2-  O188  1  0.76916122  -0.00547520  0.11641205  1
  O2-  O189  1  0.76890170  -0.00210143  0.62645360  1
  O2-  O190  1  0.75631839  0.51424570  0.11358080  1
  O2-  O191  1  0.76415837  0.49928243  0.63508669  1
  O2-  O192  1  0.11829874  0.26943805  0.26272238  1
  O2-  O193  1  0.13991508  0.28435204  0.76948701  1
  O2-  O194  1  0.13098102  0.77899539  0.27115123  1
  O2-  O195  1  0.13254669  0.77214772  0.77705023  1
  O2-  O196  1  0.63804743  0.26305660  0.27828822  1
  O2-  O197  1  0.63287411  0.26240149  0.77647433  1
  O2-  O198  1  0.63601296  0.78972969  0.26385621  1
  O2-  O199  1  0.62672142  0.75934842  0.77568128  1
  O2-  O200  1  0.36270538  0.22413189  0.23292596  1
  O2-  O201  1  0.36132908  0.20620553  0.74092489  1
  O2-  O202  1  0.36698753  0.73442436  0.21602975  1
  O2-  O203  1  0.38523517  0.72996277  0.73815582  1
  O2-  O204  1  0.87898951  0.23071475  0.23116936  1
  O2-  O205  1  0.86358271  0.22934981  0.72524453  1
  O2-  O206  1  0.85791846  0.73711059  0.21672451  1
  O2-  O207  1  0.85941632  0.72504236  0.73476089  1
  O2-  O208  1  0.26458460  0.36473513  0.24077638  1
  O2-  O209  1  0.29093314  0.36048747  0.73199590  1
  O2-  O210  1  0.27358657  0.87268709  0.23570356  1
  O2-  O211  1  0.27254841  0.86659001  0.72956904  1
  O2-  O212  1  0.78140889  0.36843703  0.25612868  1
  O2-  O213  1  0.76558340  0.37682350  0.75383226  1
  O2-  O214  1  0.77330201  0.88406082  0.24825159  1
  O2-  O215  1  0.76551466  0.87308873  0.75615926  1
  O2-  O216  1  0.22172351  0.13689473  0.26861053  1
  O2-  O217  1  0.21097259  0.13480863  0.75841246  1
  O2-  O218  1  0.22816855  0.63579845  0.26325466  1
  O2-  O219  1  0.23648394  0.63260136  0.77648793  1
  O2-  O220  1  0.73772751  0.12015401  0.23749982  1
  O2-  O221  1  0.72879253  0.11838042  0.75139703  1
  O2-  O222  1  0.71240367  0.63888852  0.25073032  1
  O2-  O223  1  0.72726256  0.62408325  0.75183678  1
  O2-  O224  1  0.11127497  0.47384821  0.22595612  1
  O2-  O225  1  0.11438234  0.46946660  0.73159255  1
  O2-  O226  1  0.11133558  0.98664913  0.23260467  1
  O2-  O227  1  0.11601639  0.97049829  0.72446790  1
  O2-  O228  1  0.61496241  0.46667234  0.23088527  1
  O2-  O229  1  0.62823211  0.48302748  0.74103492  1
  O2-  O230  1  0.63379017  0.98635392  0.23004417  1
  O2-  O231  1  0.63020415  0.97563705  0.73174577  1
  O2-  O232  1  0.38971468  0.02175619  0.27882880  1
  O2-  O233  1  0.38971726  0.01192394  0.77554613  1
  O2-  O234  1  0.38439039  0.52283707  0.26088027  1
  O2-  O235  1  0.38561395  0.52699262  0.77021674  1
  O2-  O236  1  0.87056228  0.02386837  0.26686746  1
  O2-  O237  1  0.86360062  0.01599680  0.76628131  1
  O2-  O238  1  0.87978002  0.53265989  0.27050578  1
  O2-  O239  1  0.86441121  0.51977766  0.77186538  1
  O2-  O240  1  0.47324224  0.38285737  0.26157409  1
  O2-  O241  1  0.48892485  0.38660692  0.77997292  1
  O2-  O242  1  0.48423397  0.88792941  0.25693697  1
  O2-  O243  1  0.49342434  0.86679816  0.77153281  1
  O2-  O244  1  0.97454875  0.36632318  0.24356687  1
  O2-  O245  1  0.96322067  0.38193450  0.75018935  1
  O2-  O246  1  0.97209541  0.88743827  0.24980749  1
  O2-  O247  1  0.96106050  0.88633968  0.74848397  1
  O2-  O248  1  0.01161426  0.12631672  0.26053402  1
  O2-  O249  1  0.00089586  0.11152768  0.74150596  1
  O2-  O250  1  0.02817576  0.61764613  0.25392240  1
  O2-  O251  1  0.02130248  0.61512348  0.75372663  1
  O2-  O252  1  0.51616230  0.11247927  0.21381531  1
  O2-  O253  1  0.52728716  0.11243974  0.73761550  1
  O2-  O254  1  0.51926233  0.61289880  0.21678925  1
  O2-  O255  1  0.52488205  0.62510932  0.74443910  1
  O2-  O256  1  0.13622465  0.47922249  0.02708059  1
  O2-  O257  1  0.13022331  0.46857787  0.50617916  1
  O2-  O258  1  0.13987824  0.97923016  0.03041460  1
  O2-  O259  1  0.11954941  0.98481863  0.51734721  1
  O2-  O260  1  0.62419790  0.47903351  0.00687915  1
  O2-  O261  1  0.63319707  0.46671454  0.52171634  1
  O2-  O262  1  0.62623757  0.97040098  0.00797760  1
  O2-  O263  1  0.63717692  0.97480212  0.51659043  1
  O2-  O264  1  0.38981103  0.01481033  -0.02329771  1
  O2-  O265  1  0.36655405  0.02154237  0.47565010  1
  O2-  O266  1  0.38524765  0.51237769  -0.03060893  1
  O2-  O267  1  0.36295607  0.50877022  0.49925463  1
  O2-  O268  1  0.85989063  0.01531894  -0.03198557  1
  O2-  O269  1  0.87695818  0.02156408  0.49011149  1
  O2-  O270  1  0.86331987  0.52709088  -0.02081774  1
  O2-  O271  1  0.86320974  0.53192200  0.48919034  1
  O2-  O272  1  0.48416471  0.37276633  -0.02317372  1
  O2-  O273  1  0.47601342  0.36200468  0.46877579  1
  O2-  O274  1  0.48679395  0.86890356  -0.02356619  1
  O2-  O275  1  0.47457059  0.86494307  0.48625494  1
  O2-  O276  1  0.98610893  0.35893991  0.01102058  1
  O2-  O277  1  0.97507793  0.36256851  0.50514932  1
  O2-  O278  1  0.96557412  0.86774041  0.00568687  1
  O2-  O279  1  0.97942960  0.88222310  0.49836619  1
  O2-  O280  1  0.04066471  0.13121234  0.00475434  1
  O2-  O281  1  0.02221108  0.12031156  0.49563819  1
  O2-  O282  1  0.02346178  0.63506867  0.00100722  1
  O2-  O283  1  0.02891447  0.63512853  0.49900025  1
  O2-  O284  1  0.52187180  0.11703394  0.01462103  1
  O2-  O285  1  0.51244850  0.13421326  0.53628346  1
  O2-  O286  1  0.52005301  0.61962704  0.01159206  1
  O2-  O287  1  0.52662565  0.63351451  0.51708244  1
  O2-  O288  1  0.13487076  0.26974953  -0.01098860  1
  O2-  O289  1  0.12484426  0.26366555  0.47310683  1
  O2-  O290  1  0.11623549  0.78059096  -0.02373269  1
  O2-  O291  1  0.11800338  0.78090806  0.47749355  1
  O2-  O292  1  0.61545003  0.26509909  -0.02221657  1
  O2-  O293  1  0.61862941  0.26382849  0.47652428  1
  O2-  O294  1  0.62429644  0.75959860  -0.02413385  1
  O2-  O295  1  0.61367940  0.77218063  0.48020568  1
  O2-  O296  1  0.37575944  0.23550228  0.02211113  1
  O2-  O297  1  0.36457320  0.23125249  0.51274365  1
  O2-  O298  1  0.38901769  0.72394751  0.01228460  1
  O2-  O299  1  0.38497990  0.72958749  0.53293097  1
  O2-  O300  1  0.88578195  0.21254160  0.01833210  1
  O2-  O301  1  0.89146230  0.21677611  0.51905303  1
  O2-  O302  1  0.86289022  0.72841466  0.01697027  1
  O2-  O303  1  0.88673989  0.73778519  0.53269817  1
  O2-  O304  1  0.27495478  0.36728139  0.01695220  1
  O2-  O305  1  0.26029564  0.36687305  0.51468616  1
  O2-  O306  1  0.28301302  0.88592914  0.00800051  1
  O2-  O307  1  0.26781480  0.88789792  0.52526370  1
  O2-  O308  1  0.77326768  0.38614132  -0.00010189  1
  O2-  O309  1  0.78512732  0.38584773  0.50028811  1
  O2-  O310  1  0.76205107  0.87056370  -0.00629501  1
  O2-  O311  1  0.77694727  0.88638056  0.48898162  1
  O2-  O312  1  0.24133330  0.12930552  -0.00376465  1
  O2-  O313  1  0.22851361  0.13117296  0.48336445  1
  O2-  O314  1  0.23347890  0.61230769  -0.02454671  1
  O2-  O315  1  0.22659550  0.61868014  0.47660403  1
  O2-  O316  1  0.71965644  0.11222036  0.00012939  1
  O2-  O317  1  0.73003336  0.11483893  0.50081169  1
  O2-  O318  1  0.72506356  0.62839150  -0.00654183  1
  O2-  O319  1  0.72266486  0.61737898  0.51174520  1
