# generated using pymatgen
data_Sr64Ca21Nb43O192
_symmetry_space_group_name_H-M   'P 1'
_cell_length_a   16.54836653
_cell_length_b   16.53581099
_cell_length_c   16.68736130
_cell_angle_alpha   90.01824728
_cell_angle_beta   89.98783126
_cell_angle_gamma   89.99563805
_symmetry_Int_Tables_number   1
_chemical_formula_structural   Sr64Ca21Nb43O192
_chemical_formula_sum   'Sr64 Ca21 Nb43 O192'
_cell_volume   4566.34023090
_cell_formula_units_Z   1
loop_
 _symmetry_equiv_pos_site_id
 _symmetry_equiv_pos_as_xyz
  1  'x, y, z'
loop_
 _atom_type_symbol
 _atom_type_oxidation_number
  Sr2+  2.0
  Ca2+  2.0
  Nb5+  5.0
  O2-  -2.0
loop_
 _atom_site_type_symbol
 _atom_site_label
 _atom_site_symmetry_multiplicity
 _atom_site_fract_x
 _atom_site_fract_y
 _atom_site_fract_z
 _atom_site_occupancy
  Sr2+  Sr0  1  0.12593452  0.11727341  0.12911119  1
  Sr2+  Sr1  1  0.13134728  0.13734934  0.62286209  1
  Sr2+  Sr2  1  0.11569336  0.61955780  0.12641192  1
  Sr2+  Sr3  1  0.11706463  0.64484336  0.62783173  1
  Sr2+  Sr4  1  0.62877408  0.14158410  0.13173494  1
  Sr2+  Sr5  1  0.62394484  0.12005739  0.61763177  1
  Sr2+  Sr6  1  0.63610418  0.63500813  0.12667951  1
  Sr2+  Sr7  1  0.64496437  0.62841824  0.62477890  1
  Sr2+  Sr8  1  0.37611937  0.38757832  0.12233689  1
  Sr2+  Sr9  1  0.37413540  0.38350218  0.62205315  1
  Sr2+  Sr10  1  0.37488067  0.87260460  0.13658002  1
  Sr2+  Sr11  1  0.37519562  0.87965773  0.62209492  1
  Sr2+  Sr12  1  0.88417991  0.38978321  0.12595418  1
  Sr2+  Sr13  1  0.87097428  0.38488631  0.63052313  1
  Sr2+  Sr14  1  0.87875492  0.88997837  0.12479243  1
  Sr2+  Sr15  1  0.88109896  0.87202630  0.62425369  1
  Sr2+  Sr16  1  0.12912875  0.37093988  0.37644317  1
  Sr2+  Sr17  1  0.12565578  0.36870143  0.87793156  1
  Sr2+  Sr18  1  0.12171073  0.87607646  0.36090791  1
  Sr2+  Sr19  1  0.11993052  0.87782527  0.87345635  1
  Sr2+  Sr20  1  0.61387757  0.36490027  0.36190460  1
  Sr2+  Sr21  1  0.59572824  0.37238789  0.87208880  1
  Sr2+  Sr22  1  0.62117903  0.86885937  0.37631981  1
  Sr2+  Sr23  1  0.62470813  0.87024394  0.88493938  1
  Sr2+  Sr24  1  0.37427405  0.12105040  0.37641370  1
  Sr2+  Sr25  1  0.37262338  0.12394921  0.87741552  1
  Sr2+  Sr26  1  0.37455285  0.62464827  0.37087228  1
  Sr2+  Sr27  1  0.37393416  0.60959265  0.87342008  1
  Sr2+  Sr28  1  0.84180235  0.12864406  0.37663108  1
  Sr2+  Sr29  1  0.84808073  0.12301357  0.87057184  1
  Sr2+  Sr30  1  0.86534085  0.61771664  0.37641512  1
  Sr2+  Sr31  1  0.87259324  0.62439624  0.88147596  1
  Sr2+  Sr32  1  0.12275740  0.12646274  0.37061606  1
  Sr2+  Sr33  1  0.12821906  0.12326913  0.87786529  1
  Sr2+  Sr34  1  0.12845894  0.62531883  0.37621303  1
  Sr2+  Sr35  1  0.12195951  0.63593821  0.87959328  1
  Sr2+  Sr36  1  0.61804572  0.11508652  0.37709202  1
  Sr2+  Sr37  1  0.61470621  0.12606745  0.87217847  1
  Sr2+  Sr38  1  0.61802697  0.61651924  0.36319565  1
  Sr2+  Sr39  1  0.62586374  0.62200595  0.88313583  1
  Sr2+  Sr40  1  0.36973444  0.39529561  0.37563749  1
  Sr2+  Sr41  1  0.36755828  0.37641735  0.87401757  1
  Sr2+  Sr42  1  0.36893723  0.85053236  0.37734319  1
  Sr2+  Sr43  1  0.36522457  0.87283836  0.87414570  1
  Sr2+  Sr44  1  0.87019012  0.37003345  0.37512451  1
  Sr2+  Sr45  1  0.87572708  0.37768439  0.87661634  1
  Sr2+  Sr46  1  0.86613919  0.88605102  0.36921801  1
  Sr2+  Sr47  1  0.86637011  0.88425000  0.88102377  1
  Sr2+  Sr48  1  0.12187497  0.37263340  0.12767566  1
  Sr2+  Sr49  1  0.11681802  0.37888491  0.62301656  1
  Sr2+  Sr50  1  0.12710558  0.88105727  0.12413108  1
  Sr2+  Sr51  1  0.13162547  0.88020657  0.63326755  1
  Sr2+  Sr52  1  0.64041970  0.38567923  0.13093553  1
  Sr2+  Sr53  1  0.61776594  0.37891418  0.62685465  1
  Sr2+  Sr54  1  0.63522455  0.86745849  0.12710324  1
  Sr2+  Sr55  1  0.61617296  0.88310579  0.61838315  1
  Sr2+  Sr56  1  0.37768312  0.12436952  0.12853300  1
  Sr2+  Sr57  1  0.37847068  0.12498692  0.61958620  1
  Sr2+  Sr58  1  0.39553902  0.63352318  0.13039871  1
  Sr2+  Sr59  1  0.38618688  0.63476953  0.62140549  1
  Sr2+  Sr60  1  0.87506387  0.12566478  0.13350834  1
  Sr2+  Sr61  1  0.85636970  0.13528137  0.62767879  1
  Sr2+  Sr62  1  0.86901177  0.63018792  0.12424385  1
  Sr2+  Sr63  1  0.87528304  0.62567870  0.62642975  1
  Ca2+  Ca64  1  -0.00124059  0.00444210  -0.00239895  1
  Ca2+  Ca65  1  0.50176141  0.50023012  0.00285385  1
  Ca2+  Ca66  1  0.00022401  0.00247908  0.50151931  1
  Ca2+  Ca67  1  0.50102113  0.49970695  0.49827366  1
  Ca2+  Ca68  1  0.50075987  -0.00099266  0.00032359  1
  Ca2+  Ca69  1  0.74859280  0.25159175  0.00003450  1
  Ca2+  Ca70  1  0.75304297  0.74844818  0.50026520  1
  Ca2+  Ca71  1  0.74522366  0.25727189  0.50025587  1
  Ca2+  Ca72  1  0.25170000  0.75142778  0.00072954  1
  Ca2+  Ca73  1  0.24567153  0.75258831  0.50236247  1
  Ca2+  Ca74  1  0.74412387  0.00047699  0.24904329  1
  Ca2+  Ca75  1  0.24707242  0.49888198  0.24643232  1
  Ca2+  Ca76  1  0.00051396  0.74731474  0.25067449  1
  Ca2+  Ca77  1  -0.00174780  0.25090834  0.25224489  1
  Ca2+  Ca78  1  0.75430020  0.50203521  0.24898412  1
  Ca2+  Ca79  1  0.49480163  0.25062107  0.25117041  1
  Ca2+  Ca80  1  0.50334939  0.75284613  0.24985024  1
  Ca2+  Ca81  1  0.74631545  -0.00628229  0.74736058  1
  Ca2+  Ca82  1  0.74887487  0.49913068  0.75385481  1
  Ca2+  Ca83  1  0.50303122  0.75335504  0.75090807  1
  Ca2+  Ca84  1  0.24713923  0.49961484  0.74765147  1
  Nb5+  Nb85  1  0.49385889  -0.00162084  0.49570805  1
  Nb5+  Nb86  1  0.00304668  0.50297940  0.50700723  1
  Nb5+  Nb87  1  0.00407058  0.49910942  0.00135022  1
  Nb5+  Nb88  1  0.25057487  0.24972557  -0.00001198  1
  Nb5+  Nb89  1  0.25202315  0.25073087  0.49557838  1
  Nb5+  Nb90  1  0.75337591  0.75262085  0.00072351  1
  Nb5+  Nb91  1  -0.00392814  0.25100236  0.75124266  1
  Nb5+  Nb92  1  0.25135113  0.00246532  0.75152523  1
  Nb5+  Nb93  1  0.48819153  0.24723453  0.74788829  1
  Nb5+  Nb94  1  -0.00608432  0.75537101  0.75336593  1
  Nb5+  Nb95  1  0.25038261  0.00176864  0.25567554  1
  Nb5+  Nb96  1  -0.00378275  0.00432442  0.25475222  1
  Nb5+  Nb97  1  -0.00093404  0.01019674  0.74831577  1
  Nb5+  Nb98  1  0.00108896  0.49707648  0.26233408  1
  Nb5+  Nb99  1  0.00363832  0.50616285  0.75473255  1
  Nb5+  Nb100  1  0.49901336  -0.00331559  0.24586498  1
  Nb5+  Nb101  1  0.49637607  -0.00123563  0.75085079  1
  Nb5+  Nb102  1  0.50099963  0.49850878  0.24789828  1
  Nb5+  Nb103  1  0.50138223  0.50741058  0.74402975  1
  Nb5+  Nb104  1  0.25303455  0.25041414  0.24597718  1
  Nb5+  Nb105  1  0.24818428  0.25036278  0.74706402  1
  Nb5+  Nb106  1  0.24471020  0.74576041  0.24637106  1
  Nb5+  Nb107  1  0.25222945  0.74556858  0.75331014  1
  Nb5+  Nb108  1  0.75025450  0.25188913  0.24660746  1
  Nb5+  Nb109  1  0.73539226  0.25348153  0.74910128  1
  Nb5+  Nb110  1  0.75576304  0.75313141  0.25653806  1
  Nb5+  Nb111  1  0.74921689  0.75360838  0.75056378  1
  Nb5+  Nb112  1  -0.00110980  0.24870619  0.50127556  1
  Nb5+  Nb113  1  0.00060448  0.24776682  0.99858762  1
  Nb5+  Nb114  1  -0.00068184  0.75379659  0.49492562  1
  Nb5+  Nb115  1  -0.00104448  0.75318307  1.00174011  1
  Nb5+  Nb116  1  0.49774191  0.24960925  0.49914609  1
  Nb5+  Nb117  1  0.49914481  0.25325070  1.00661947  1
  Nb5+  Nb118  1  0.50394164  0.74315553  0.50303969  1
  Nb5+  Nb119  1  0.49670364  0.74952152  0.99472495  1
  Nb5+  Nb120  1  0.25531384  -0.00007015  0.00567627  1
  Nb5+  Nb121  1  0.24656425  -0.00046280  0.50203423  1
  Nb5+  Nb122  1  0.24897540  0.50524638  0.00216836  1
  Nb5+  Nb123  1  0.24595041  0.50640021  0.50473559  1
  Nb5+  Nb124  1  0.74464057  0.00643236  0.00122520  1
  Nb5+  Nb125  1  0.75177822  -0.00166502  0.50178418  1
  Nb5+  Nb126  1  0.75045471  0.49754411  -0.00444112  1
  Nb5+  Nb127  1  0.74434321  0.49323953  0.49510702  1
  O2-  O128  1  -0.00263799  -0.00129870  0.13345112  1
  O2-  O129  1  0.00756743  -0.02641137  0.63777191  1
  O2-  O130  1  0.01992171  0.49114307  0.11686361  1
  O2-  O131  1  0.02050599  0.50495602  0.62497075  1
  O2-  O132  1  0.47869221  -0.01424810  0.13386482  1
  O2-  O133  1  0.49376997  -0.00993139  0.62168822  1
  O2-  O134  1  0.51046815  0.46323665  0.13322622  1
  O2-  O135  1  0.50149389  0.46936813  0.63136344  1
  O2-  O136  1  0.02608274  0.00158733  0.36870865  1
  O2-  O137  1  0.00969080  -0.00752524  0.86211964  1
  O2-  O138  1  -0.00932711  0.49548078  0.37986001  1
  O2-  O139  1  -0.01472332  0.50182784  0.87092060  1
  O2-  O140  1  0.49341718  0.02176202  0.37914207  1
  O2-  O141  1  0.49270786  0.02619424  0.86280433  1
  O2-  O142  1  0.48809993  0.52964689  0.36748355  1
  O2-  O143  1  0.48626710  0.50861748  0.86322132  1
  O2-  O144  1  0.25555636  0.24622783  0.12321952  1
  O2-  O145  1  0.26071699  0.24113217  0.62731036  1
  O2-  O146  1  0.26578202  0.76669535  0.13221413  1
  O2-  O147  1  0.26175422  0.75866284  0.63788695  1
  O2-  O148  1  0.75980180  0.21930050  0.12981297  1
  O2-  O149  1  0.76795388  0.25786621  0.63489198  1
  O2-  O150  1  0.75696094  0.73765858  0.11955182  1
  O2-  O151  1  0.76486518  0.73141590  0.63640253  1
  O2-  O152  1  0.24137641  0.24552050  0.37735400  1
  O2-  O153  1  0.24234334  0.24732435  0.87282117  1
  O2-  O154  1  0.23210855  0.75181920  0.36724597  1
  O2-  O155  1  0.23483312  0.77501830  0.86593858  1
  O2-  O156  1  0.74358583  0.27766826  0.36542482  1
  O2-  O157  1  0.73611948  0.23516856  0.86543743  1
  O2-  O158  1  0.75761618  0.77641975  0.36912955  1
  O2-  O159  1  0.74997354  0.76633020  0.87819087  1
  O2-  O160  1  -0.00904177  0.26254602  0.11171825  1
  O2-  O161  1  0.00128229  0.24570451  0.63168971  1
  O2-  O162  1  -0.00350787  0.72930896  0.11391671  1
  O2-  O163  1  -0.01801389  0.74493954  0.63492790  1
  O2-  O164  1  0.46882872  0.25940174  0.11620075  1
  O2-  O165  1  0.47739392  0.25986798  0.62909988  1
  O2-  O166  1  0.49326158  0.77654501  0.11215754  1
  O2-  O167  1  0.48214929  0.77477360  0.61720909  1
  O2-  O168  1  0.24421456  0.01000379  0.37540150  1
  O2-  O169  1  0.25689001  0.00273965  0.87143805  1
  O2-  O170  1  0.25438711  0.50295218  0.38445674  1
  O2-  O171  1  0.26765323  0.49483083  0.88425671  1
  O2-  O172  1  0.74176783  -0.01925307  0.38450844  1
  O2-  O173  1  0.74415691  -0.01489554  0.88158593  1
  O2-  O174  1  0.78082328  0.49261419  0.38178046  1
  O2-  O175  1  0.78760414  0.50137163  0.88416744  1
  O2-  O176  1  0.01807891  0.26515282  0.38939799  1
  O2-  O177  1  0.02514408  0.24834476  0.86734059  1
  O2-  O178  1  0.02925463  0.74593427  0.38555612  1
  O2-  O179  1  0.00743223  0.74026965  0.87484051  1
  O2-  O180  1  0.51430448  0.22953906  0.38737683  1
  O2-  O181  1  0.50718959  0.23456324  0.86730224  1
  O2-  O182  1  0.51405443  0.73467000  0.38511309  1
  O2-  O183  1  0.53164588  0.73491844  0.88128386  1
  O2-  O184  1  0.25147530  0.00446873  0.12467781  1
  O2-  O185  1  0.24836611  0.00741395  0.62378266  1
  O2-  O186  1  0.22568255  0.48058477  0.11357248  1
  O2-  O187  1  0.23635303  0.47262373  0.61572369  1
  O2-  O188  1  0.76842506  0.00994023  0.11711337  1
  O2-  O189  1  0.72312346  0.00312334  0.61572831  1
  O2-  O190  1  0.73842559  0.51964935  0.11139397  1
  O2-  O191  1  0.74319637  0.51067148  0.61488857  1
  O2-  O192  1  0.13643109  0.27162015  0.24551379  1
  O2-  O193  1  0.13166893  0.26763173  0.73857192  1
  O2-  O194  1  0.13317734  0.78586351  0.23558565  1
  O2-  O195  1  0.11632652  0.76952432  0.74233947  1
  O2-  O196  1  0.63003165  0.27293653  0.22917627  1
  O2-  O197  1  0.61948357  0.27080671  0.73817197  1
  O2-  O198  1  0.63667769  0.77716608  0.24654123  1
  O2-  O199  1  0.63922777  0.78830229  0.74014887  1
  O2-  O200  1  0.36300441  0.21128453  0.25780884  1
  O2-  O201  1  0.37302607  0.22073878  0.75804609  1
  O2-  O202  1  0.36501600  0.73089835  0.26218547  1
  O2-  O203  1  0.36514223  0.72267383  0.76888127  1
  O2-  O204  1  0.86625052  0.22013777  0.26103837  1
  O2-  O205  1  0.88549222  0.22299455  0.76051178  1
  O2-  O206  1  0.86927458  0.71610736  0.25440994  1
  O2-  O207  1  0.88172087  0.71683923  0.76356974  1
  O2-  O208  1  0.28397094  0.36202482  0.25111505  1
  O2-  O209  1  0.27823397  0.36132821  0.74993714  1
  O2-  O210  1  0.27320855  0.88521201  0.25755627  1
  O2-  O211  1  0.26939186  0.88461595  0.74402264  1
  O2-  O212  1  0.77203438  0.36728522  0.22038094  1
  O2-  O213  1  0.77710624  0.36291582  0.76103898  1
  O2-  O214  1  0.78093493  0.86743860  0.22994602  1
  O2-  O215  1  0.79529369  0.86351495  0.74645336  1
  O2-  O216  1  0.22265182  0.12310459  0.24827455  1
  O2-  O217  1  0.22806537  0.12499944  0.75201747  1
  O2-  O218  1  0.21935821  0.63352816  0.23881435  1
  O2-  O219  1  0.21708668  0.63530221  0.75620594  1
  O2-  O220  1  0.71987107  0.13345195  0.27236726  1
  O2-  O221  1  0.73441670  0.13296177  0.73776457  1
  O2-  O222  1  0.72456774  0.63620562  0.26010884  1
  O2-  O223  1  0.72633517  0.63641872  0.76881837  1
  O2-  O224  1  0.11471544  0.46063986  0.25673491  1
  O2-  O225  1  0.11308771  0.46398214  0.75880589  1
  O2-  O226  1  0.13301528  0.97796838  0.24055914  1
  O2-  O227  1  0.13236938  0.98294256  0.75135784  1
  O2-  O228  1  0.61958989  0.48035538  0.26688190  1
  O2-  O229  1  0.61438901  0.46714823  0.75768402  1
  O2-  O230  1  0.61106422  0.96739369  0.24758667  1
  O2-  O231  1  0.60895479  0.97594884  0.75084388  1
  O2-  O232  1  0.36707277  0.02809368  0.25136643  1
  O2-  O233  1  0.36906528  0.02911587  0.74150289  1
  O2-  O234  1  0.38142542  0.52067604  0.23243288  1
  O2-  O235  1  0.38191327  0.52717569  0.73309245  1
  O2-  O236  1  0.88297813  0.02759926  0.26837569  1
  O2-  O237  1  0.88550287  0.03079268  0.74568794  1
  O2-  O238  1  0.89081432  0.52723593  0.23045354  1
  O2-  O239  1  0.88964451  0.50825739  0.72726962  1
  O2-  O240  1  0.48077306  0.38302905  0.28229732  1
  O2-  O241  1  0.47435408  0.36392321  0.76291779  1
  O2-  O242  1  0.46696028  0.88626133  0.27506023  1
  O2-  O243  1  0.46207305  0.88837143  0.75901465  1
  O2-  O244  1  0.96657917  0.38310702  0.25142885  1
  O2-  O245  1  0.97956928  0.36684651  0.75137212  1
  O2-  O246  1  0.97786667  0.88418394  0.25653141  1
  O2-  O247  1  0.97693012  0.86885535  0.76080161  1
  O2-  O248  1  0.03137335  0.11879735  0.24547347  1
  O2-  O249  1  0.03110913  0.12346530  0.74500053  1
  O2-  O250  1  0.03744053  0.61105658  0.25527492  1
  O2-  O251  1  0.02584711  0.62064229  0.75320364  1
  O2-  O252  1  0.52104003  0.11394101  0.24004788  1
  O2-  O253  1  0.51768063  0.12777257  0.72990681  1
  O2-  O254  1  0.52160303  0.61702011  0.22239752  1
  O2-  O255  1  0.53052871  0.61738610  0.72685675  1
  O2-  O256  1  0.12280667  0.47799875  -0.02034576  1
  O2-  O257  1  0.12372599  0.47072067  0.48898077  1
  O2-  O258  1  0.13801739  0.97934208  -0.00545367  1
  O2-  O259  1  0.13569618  0.97079066  0.50375913  1
  O2-  O260  1  0.63822129  0.48292823  -0.02902413  1
  O2-  O261  1  0.63488326  0.45771387  0.48485410  1
  O2-  O262  1  0.63457303  0.96175082  0.00979822  1
  O2-  O263  1  0.61261360  0.98431906  0.49433971  1
  O2-  O264  1  0.36600706  0.03799917  -0.00079001  1
  O2-  O265  1  0.37289857  0.02506305  0.50206379  1
  O2-  O266  1  0.36345651  0.52331833  0.02185530  1
  O2-  O267  1  0.36265905  0.52272131  0.51206631  1
  O2-  O268  1  0.86511017  0.02492154  -0.01492623  1
  O2-  O269  1  0.86415060  0.03115242  0.50685226  1
  O2-  O270  1  0.88664670  0.51566123  0.01685811  1
  O2-  O271  1  0.88865019  0.52220738  0.51345158  1
  O2-  O272  1  0.47182093  0.36520793  -0.02529584  1
  O2-  O273  1  0.46856902  0.36190724  0.48764837  1
  O2-  O274  1  0.48254562  0.86599175  -0.03229229  1
  O2-  O275  1  0.47556394  0.88264434  0.48509300  1
  O2-  O276  1  0.98817263  0.37628132  -0.01594760  1
  O2-  O277  1  0.98817424  0.37385760  0.51943388  1
  O2-  O278  1  0.97357300  0.86537482  0.00014092  1
  O2-  O279  1  0.96625882  0.86405712  0.49181934  1
  O2-  O280  1  0.03422449  0.13732129  0.00129451  1
  O2-  O281  1  0.03513918  0.13759840  0.50572440  1
  O2-  O282  1  0.02188319  0.61706220  -0.00755241  1
  O2-  O283  1  0.03264647  0.61691337  0.49946676  1
  O2-  O284  1  0.52585439  0.13757519  0.00596384  1
  O2-  O285  1  0.50800398  0.12413154  0.51876089  1
  O2-  O286  1  0.52744727  0.63398727  0.02050606  1
  O2-  O287  1  0.52463138  0.63278034  0.53131392  1
  O2-  O288  1  0.13018642  0.27520898  0.00216637  1
  O2-  O289  1  0.13562810  0.26940856  0.51625564  1
  O2-  O290  1  0.11465145  0.77314906  -0.00024185  1
  O2-  O291  1  0.11048054  0.76756737  0.53489138  1
  O2-  O292  1  0.61151704  0.28413708  0.01498874  1
  O2-  O293  1  0.60959611  0.26547962  0.52565483  1
  O2-  O294  1  0.63608614  0.76889991  0.00816702  1
  O2-  O295  1  0.61706810  0.78190299  0.50911900  1
  O2-  O296  1  0.36774770  0.22680125  -0.01124187  1
  O2-  O297  1  0.37008772  0.22245754  0.49688685  1
  O2-  O298  1  0.38549201  0.71894232  -0.01848071  1
  O2-  O299  1  0.38294915  0.72735720  0.48719860  1
  O2-  O300  1  0.88896434  0.23011325  -0.02542347  1
  O2-  O301  1  0.88693164  0.22527789  0.49443660  1
  O2-  O302  1  0.87748044  0.72537338  -0.00839283  1
  O2-  O303  1  0.89038828  0.70910113  0.49617510  1
  O2-  O304  1  0.27140535  0.36783310  -0.00241950  1
  O2-  O305  1  0.27390662  0.36613427  0.49392433  1
  O2-  O306  1  0.28481634  0.88843068  0.00298742  1
  O2-  O307  1  0.28029719  0.88790496  0.49926894  1
  O2-  O308  1  0.77804217  0.38535000  0.01162959  1
  O2-  O309  1  0.79096776  0.38532884  0.50797885  1
  O2-  O310  1  0.78018244  0.86868860  0.00995526  1
  O2-  O311  1  0.77840315  0.88324834  0.51481408  1
  O2-  O312  1  0.22436292  0.12950526  -0.00096637  1
  O2-  O313  1  0.23057321  0.12478776  0.49960510  1
  O2-  O314  1  0.21745023  0.61660835  0.00071915  1
  O2-  O315  1  0.21746086  0.61673894  0.51435612  1
  O2-  O316  1  0.71148185  0.11583254  -0.00914149  1
  O2-  O317  1  0.72476258  0.11965039  0.48826883  1
  O2-  O318  1  0.74104926  0.62896267  -0.01503358  1
  O2-  O319  1  0.72370037  0.61303665  0.48192056  1
