# generated using pymatgen
data_Sr64Ca21Nb43O192
_symmetry_space_group_name_H-M   'P 1'
_cell_length_a   16.56090862
_cell_length_b   16.59495268
_cell_length_c   16.73284581
_cell_angle_alpha   90.01191958
_cell_angle_beta   89.94789977
_cell_angle_gamma   90.08903340
_symmetry_Int_Tables_number   1
_chemical_formula_structural   Sr64Ca21Nb43O192
_chemical_formula_sum   'Sr64 Ca21 Nb43 O192'
_cell_volume   4598.63854458
_cell_formula_units_Z   1
loop_
 _symmetry_equiv_pos_site_id
 _symmetry_equiv_pos_as_xyz
  1  'x, y, z'
loop_
 _atom_type_symbol
 _atom_type_oxidation_number
  Sr2+  2.0
  Ca2+  2.0
  Nb5+  5.0
  O2-  -2.0
loop_
 _atom_site_type_symbol
 _atom_site_label
 _atom_site_symmetry_multiplicity
 _atom_site_fract_x
 _atom_site_fract_y
 _atom_site_fract_z
 _atom_site_occupancy
  Sr2+  Sr0  1  0.12748412  0.12872666  0.12621288  1
  Sr2+  Sr1  1  0.13203741  0.11966913  0.62483805  1
  Sr2+  Sr2  1  0.13310505  0.61499770  0.13277894  1
  Sr2+  Sr3  1  0.13367268  0.60770319  0.62069549  1
  Sr2+  Sr4  1  0.63007500  0.13464279  0.12067003  1
  Sr2+  Sr5  1  0.62518558  0.14371399  0.62808440  1
  Sr2+  Sr6  1  0.62871991  0.60825500  0.12628242  1
  Sr2+  Sr7  1  0.62850122  0.60981376  0.62704871  1
  Sr2+  Sr8  1  0.37475794  0.37836233  0.11829455  1
  Sr2+  Sr9  1  0.38413227  0.36662260  0.63784946  1
  Sr2+  Sr10  1  0.38329108  0.87373229  0.12861137  1
  Sr2+  Sr11  1  0.37967566  0.87216073  0.62273874  1
  Sr2+  Sr12  1  0.88184009  0.36759111  0.12662913  1
  Sr2+  Sr13  1  0.87476619  0.38642677  0.61507636  1
  Sr2+  Sr14  1  0.88375085  0.87431767  0.12263225  1
  Sr2+  Sr15  1  0.88075316  0.86910493  0.63227233  1
  Sr2+  Sr16  1  0.11306670  0.36814113  0.37519755  1
  Sr2+  Sr17  1  0.11785316  0.37971112  0.87150835  1
  Sr2+  Sr18  1  0.13258626  0.87363653  0.37362233  1
  Sr2+  Sr19  1  0.10861086  0.87738429  0.87467169  1
  Sr2+  Sr20  1  0.62236344  0.36926989  0.37675808  1
  Sr2+  Sr21  1  0.61770564  0.38745015  0.87810158  1
  Sr2+  Sr22  1  0.64592155  0.87848546  0.37267667  1
  Sr2+  Sr23  1  0.64553915  0.87174384  0.87942360  1
  Sr2+  Sr24  1  0.37769048  0.11595914  0.38253980  1
  Sr2+  Sr25  1  0.37071897  0.12209943  0.87863475  1
  Sr2+  Sr26  1  0.37140242  0.62847179  0.37265861  1
  Sr2+  Sr27  1  0.37587114  0.61750282  0.87253719  1
  Sr2+  Sr28  1  0.86315228  0.12648800  0.37507679  1
  Sr2+  Sr29  1  0.86219277  0.11602799  0.87314077  1
  Sr2+  Sr30  1  0.86433005  0.63273828  0.38039862  1
  Sr2+  Sr31  1  0.85581753  0.63433707  0.87248541  1
  Sr2+  Sr32  1  0.11748215  0.11900000  0.38028666  1
  Sr2+  Sr33  1  0.12146173  0.11603379  0.87411967  1
  Sr2+  Sr34  1  0.11892755  0.63837188  0.37865845  1
  Sr2+  Sr35  1  0.12177289  0.62349447  0.86369292  1
  Sr2+  Sr36  1  0.62501025  0.11665900  0.38024577  1
  Sr2+  Sr37  1  0.62056209  0.11467274  0.87546314  1
  Sr2+  Sr38  1  0.61866915  0.64112978  0.36984478  1
  Sr2+  Sr39  1  0.61839457  0.63979867  0.86974504  1
  Sr2+  Sr40  1  0.36446064  0.36513960  0.37554956  1
  Sr2+  Sr41  1  0.36382583  0.37364345  0.87653915  1
  Sr2+  Sr42  1  0.37192613  0.86718509  0.37395507  1
  Sr2+  Sr43  1  0.37261594  0.87515695  0.88091501  1
  Sr2+  Sr44  1  0.86350914  0.37561626  0.37301576  1
  Sr2+  Sr45  1  0.86778366  0.38545949  0.88105037  1
  Sr2+  Sr46  1  0.87512948  0.87143248  0.37157390  1
  Sr2+  Sr47  1  0.87202056  0.87557181  0.87867556  1
  Sr2+  Sr48  1  0.13592594  0.36722244  0.12333242  1
  Sr2+  Sr49  1  0.10772850  0.37883463  0.62971991  1
  Sr2+  Sr50  1  0.12891723  0.87469476  0.12574406  1
  Sr2+  Sr51  1  0.13900245  0.87057619  0.62349947  1
  Sr2+  Sr52  1  0.65158088  0.38267142  0.12506086  1
  Sr2+  Sr53  1  0.63950897  0.37332611  0.62312042  1
  Sr2+  Sr54  1  0.63489222  0.87003450  0.12811054  1
  Sr2+  Sr55  1  0.63745147  0.87759232  0.63478907  1
  Sr2+  Sr56  1  0.37781273  0.12928918  0.12051340  1
  Sr2+  Sr57  1  0.39061907  0.12324706  0.62312291  1
  Sr2+  Sr58  1  0.38981011  0.62052570  0.13401621  1
  Sr2+  Sr59  1  0.38487206  0.61390900  0.62358260  1
  Sr2+  Sr60  1  0.87861310  0.12687892  0.12120510  1
  Sr2+  Sr61  1  0.88026626  0.14077210  0.63010294  1
  Sr2+  Sr62  1  0.88348102  0.61530606  0.12221621  1
  Sr2+  Sr63  1  0.88303573  0.61518370  0.62435155  1
  Ca2+  Ca64  1  0.00432089  0.50144842  0.49126934  1
  Ca2+  Ca65  1  0.49879534  0.50106099  0.49696100  1
  Ca2+  Ca66  1  -0.00065917  -0.00205425  0.50174879  1
  Ca2+  Ca67  1  0.49907825  0.50058510  0.00002776  1
  Ca2+  Ca68  1  0.00145979  0.50022370  0.00250568  1
  Ca2+  Ca69  1  0.24937556  0.74998891  0.00072018  1
  Ca2+  Ca70  1  0.74906424  0.74804159  0.00495622  1
  Ca2+  Ca71  1  0.24955609  0.24948916  0.50507571  1
  Ca2+  Ca72  1  0.74775249  0.75059597  0.50357627  1
  Ca2+  Ca73  1  0.75173950  0.25187708  -0.00117522  1
  Ca2+  Ca74  1  0.75191602  0.00156479  0.24686395  1
  Ca2+  Ca75  1  0.75413133  0.50255982  0.25381166  1
  Ca2+  Ca76  1  0.50054651  0.24986717  0.75710709  1
  Ca2+  Ca77  1  0.24749717  0.49656297  0.25203511  1
  Ca2+  Ca78  1  0.74901139  0.00365823  0.74557908  1
  Ca2+  Ca79  1  0.00146071  0.74917952  0.74944703  1
  Ca2+  Ca80  1  0.49735292  0.75447010  0.74646688  1
  Ca2+  Ca81  1  0.75128732  0.49821199  0.75023709  1
  Ca2+  Ca82  1  -0.00089597  0.25066085  0.75364130  1
  Ca2+  Ca83  1  0.49905372  0.24746651  0.24865820  1
  Ca2+  Ca84  1  0.25122512  0.00334146  0.24839216  1
  Nb5+  Nb85  1  0.49847523  -0.00154920  0.00752159  1
  Nb5+  Nb86  1  -0.00380273  0.00133456  0.00058024  1
  Nb5+  Nb87  1  0.50499049  -0.00517915  0.50619435  1
  Nb5+  Nb88  1  0.75149380  0.24867449  0.50009536  1
  Nb5+  Nb89  1  0.24826965  0.74503168  0.50083390  1
  Nb5+  Nb90  1  0.24907294  0.24698731  -0.00104799  1
  Nb5+  Nb91  1  0.00322850  0.74524831  0.24821043  1
  Nb5+  Nb92  1  0.25243503  0.49143811  0.74713579  1
  Nb5+  Nb93  1  0.00115884  0.24176473  0.25086575  1
  Nb5+  Nb94  1  0.50487428  0.75598755  0.24979917  1
  Nb5+  Nb95  1  0.25255182  -0.00668943  0.75024141  1
  Nb5+  Nb96  1  -0.00282122  -0.00479278  0.25290988  1
  Nb5+  Nb97  1  0.00042715  0.00108701  0.74559817  1
  Nb5+  Nb98  1  0.00102669  0.49041157  0.25113902  1
  Nb5+  Nb99  1  -0.00278193  0.50432672  0.75342991  1
  Nb5+  Nb100  1  0.50193986  0.00123293  0.25419293  1
  Nb5+  Nb101  1  0.49924435  -0.00191110  0.75893624  1
  Nb5+  Nb102  1  0.49721268  0.49414812  0.25531379  1
  Nb5+  Nb103  1  0.50273874  0.49974547  0.74938042  1
  Nb5+  Nb104  1  0.24955951  0.24589401  0.25513019  1
  Nb5+  Nb105  1  0.24974482  0.24105017  0.75062168  1
  Nb5+  Nb106  1  0.25176350  0.74750385  0.24763968  1
  Nb5+  Nb107  1  0.25351800  0.74231320  0.75098514  1
  Nb5+  Nb108  1  0.74819760  0.25047480  0.24953475  1
  Nb5+  Nb109  1  0.74832492  0.25442411  0.75831141  1
  Nb5+  Nb110  1  0.75826280  0.74816010  0.24617370  1
  Nb5+  Nb111  1  0.74745658  0.74911220  0.74537492  1
  Nb5+  Nb112  1  0.00044567  0.25275933  0.50297559  1
  Nb5+  Nb113  1  0.00077161  0.24637970  0.99593204  1
  Nb5+  Nb114  1  -0.00037256  0.75357449  0.50557590  1
  Nb5+  Nb115  1  0.00317728  0.74498714  1.00248682  1
  Nb5+  Nb116  1  0.49734541  0.25095095  0.49324369  1
  Nb5+  Nb117  1  0.50139372  0.25264034  1.00203570  1
  Nb5+  Nb118  1  0.50254167  0.75460144  0.50093337  1
  Nb5+  Nb119  1  0.49681842  0.74914552  1.00166651  1
  Nb5+  Nb120  1  0.24651783  -0.00012335  -0.00032760  1
  Nb5+  Nb121  1  0.25180042  -0.00254455  0.49783452  1
  Nb5+  Nb122  1  0.24652702  0.50528032  -0.00148554  1
  Nb5+  Nb123  1  0.25640787  0.48768546  0.49895971  1
  Nb5+  Nb124  1  0.74477811  0.00245032  0.00073024  1
  Nb5+  Nb125  1  0.75666847  0.00137425  0.50879048  1
  Nb5+  Nb126  1  0.75199090  0.50292375  -0.00265672  1
  Nb5+  Nb127  1  0.74682565  0.50526348  0.49451546  1
  O2-  O128  1  0.01697808  -0.01663483  0.11721427  1
  O2-  O129  1  0.02209549  -0.02531412  0.63631433  1
  O2-  O130  1  -0.03380163  0.49052209  0.13622437  1
  O2-  O131  1  -0.01004829  0.48510277  0.63256241  1
  O2-  O132  1  0.51116568  -0.02349069  0.11898838  1
  O2-  O133  1  0.50898013  -0.02163980  0.61958207  1
  O2-  O134  1  0.47484338  0.49135883  0.13574669  1
  O2-  O135  1  0.47556242  0.48222964  0.63373600  1
  O2-  O136  1  -0.01952155  0.02060028  0.36378447  1
  O2-  O137  1  -0.00592433  0.02116186  0.88064579  1
  O2-  O138  1  0.04624700  0.50849931  0.35942035  1
  O2-  O139  1  0.02635646  0.51407068  0.86794309  1
  O2-  O140  1  0.48977145  0.01554298  0.36951335  1
  O2-  O141  1  0.48756216  0.01798704  0.87375779  1
  O2-  O142  1  0.51680784  0.53394407  0.36458406  1
  O2-  O143  1  0.51172189  0.53083705  0.86538124  1
  O2-  O144  1  0.25473553  0.22363606  0.11987408  1
  O2-  O145  1  0.27685285  0.22973748  0.63938772  1
  O2-  O146  1  0.22373257  0.73723909  0.13696746  1
  O2-  O147  1  0.22463200  0.73895772  0.61719226  1
  O2-  O148  1  0.76414890  0.22779611  0.13632202  1
  O2-  O149  1  0.75817840  0.22698216  0.61565326  1
  O2-  O150  1  0.71892966  0.73055047  0.13796213  1
  O2-  O151  1  0.71292734  0.73363657  0.63238626  1
  O2-  O152  1  0.23461662  0.27102644  0.36679983  1
  O2-  O153  1  0.22822457  0.26364571  0.88188718  1
  O2-  O154  1  0.25777481  0.76391572  0.37852333  1
  O2-  O155  1  0.28226957  0.75287286  0.86201540  1
  O2-  O156  1  0.74466495  0.26909366  0.37769212  1
  O2-  O157  1  0.73673967  0.28392188  0.86758714  1
  O2-  O158  1  0.76474229  0.77279808  0.36548531  1
  O2-  O159  1  0.77073391  0.76828360  0.86714966  1
  O2-  O160  1  -0.01197576  0.25386146  0.13016295  1
  O2-  O161  1  -0.02209972  0.27027335  0.61543458  1
  O2-  O162  1  0.01147952  0.77858583  0.13348547  1
  O2-  O163  1  0.01433311  0.78071841  0.61507050  1
  O2-  O164  1  0.46485755  0.25460448  0.11582558  1
  O2-  O165  1  0.48805484  0.25473208  0.61242510  1
  O2-  O166  1  0.50934289  0.78139962  0.13337813  1
  O2-  O167  1  0.51182605  0.78870451  0.60913084  1
  O2-  O168  1  0.27451200  -0.01074887  0.38471884  1
  O2-  O169  1  0.26786419  -0.00898591  0.87165734  1
  O2-  O170  1  0.24285035  0.46409125  0.38679386  1
  O2-  O171  1  0.23366169  0.48611495  0.86679459  1
  O2-  O172  1  0.76796618  -0.01508971  0.38879700  1
  O2-  O173  1  0.76599962  -0.01724860  0.88265657  1
  O2-  O174  1  0.73649474  0.46535462  0.38467106  1
  O2-  O175  1  0.74238897  0.46965323  0.88171951  1
  O2-  O176  1  0.01577890  0.23171577  0.37081804  1
  O2-  O177  1  0.02688019  0.23482927  0.88622654  1
  O2-  O178  1  -0.01889934  0.73507078  0.36499514  1
  O2-  O179  1  -0.01010952  0.72803298  0.88878137  1
  O2-  O180  1  0.52099290  0.22127476  0.38183900  1
  O2-  O181  1  0.51446228  0.21916298  0.89048340  1
  O2-  O182  1  0.47720306  0.74049342  0.36964547  1
  O2-  O183  1  0.47618034  0.73489727  0.88825939  1
  O2-  O184  1  0.23534013  0.01753518  0.11183481  1
  O2-  O185  1  0.23620239  0.00746978  0.63040018  1
  O2-  O186  1  0.26655267  0.51966217  0.11123615  1
  O2-  O187  1  0.26532849  0.51538071  0.63025837  1
  O2-  O188  1  0.73769604  0.03095650  0.11359185  1
  O2-  O189  1  0.70968733  0.02111827  0.61365482  1
  O2-  O190  1  0.76050541  0.52455813  0.11698540  1
  O2-  O191  1  0.76679657  0.51468277  0.61376148  1
  O2-  O192  1  0.11754028  0.27113026  0.24012803  1
  O2-  O193  1  0.13828794  0.27469103  0.73540749  1
  O2-  O194  1  0.11762553  0.76481467  0.26827615  1
  O2-  O195  1  0.14035025  0.77578116  0.76227182  1
  O2-  O196  1  0.63527218  0.27367481  0.23893007  1
  O2-  O197  1  0.63266417  0.26852160  0.72887755  1
  O2-  O198  1  0.61800450  0.77052125  0.26918935  1
  O2-  O199  1  0.62919827  0.77242929  0.77337115  1
  O2-  O200  1  0.36204458  0.22005786  0.26849154  1
  O2-  O201  1  0.36323283  0.24305891  0.78403971  1
  O2-  O202  1  0.36825217  0.73573712  0.23769479  1
  O2-  O203  1  0.36243026  0.74027955  0.70897084  1
  O2-  O204  1  0.88226470  0.23499975  0.26533581  1
  O2-  O205  1  0.86499302  0.22154935  0.76233028  1
  O2-  O206  1  0.87460543  0.73412971  0.23018641  1
  O2-  O207  1  0.86626238  0.73278237  0.72148252  1
  O2-  O208  1  0.26470859  0.35989648  0.22101763  1
  O2-  O209  1  0.27194423  0.37693490  0.74076683  1
  O2-  O210  1  0.25594777  0.86611691  0.24326482  1
  O2-  O211  1  0.26915246  0.87970786  0.73637493  1
  O2-  O212  1  0.77836737  0.36591780  0.23699608  1
  O2-  O213  1  0.77469015  0.36394514  0.72026380  1
  O2-  O214  1  0.76416804  0.86630595  0.22670100  1
  O2-  O215  1  0.76515083  0.86955604  0.72545525  1
  O2-  O216  1  0.21135260  0.13446638  0.26135280  1
  O2-  O217  1  0.22939380  0.12663285  0.76494349  1
  O2-  O218  1  0.22823698  0.63392116  0.27390394  1
  O2-  O219  1  0.23443147  0.62707349  0.75807646  1
  O2-  O220  1  0.74018987  0.13533277  0.27876294  1
  O2-  O221  1  0.72371289  0.13545174  0.76774213  1
  O2-  O222  1  0.73591087  0.63590360  0.27774255  1
  O2-  O223  1  0.73128784  0.63276003  0.77060264  1
  O2-  O224  1  0.11505282  0.48797063  0.21046587  1
  O2-  O225  1  0.13364709  0.48453445  0.73354706  1
  O2-  O226  1  0.11394220  0.98073846  0.25775779  1
  O2-  O227  1  0.13338883  0.98599014  0.76896515  1
  O2-  O228  1  0.61474703  0.48946289  0.22914259  1
  O2-  O229  1  0.61628290  0.47958821  0.73394492  1
  O2-  O230  1  0.61549941  0.96754559  0.25494045  1
  O2-  O231  1  0.61111308  0.97375991  0.76679901  1
  O2-  O232  1  0.38681251  0.01696569  0.22646767  1
  O2-  O233  1  0.36689451  0.02841461  0.74062399  1
  O2-  O234  1  0.38107350  0.52575275  0.26522638  1
  O2-  O235  1  0.36861614  0.51921946  0.76356523  1
  O2-  O236  1  0.88631187  0.01329081  0.21803784  1
  O2-  O237  1  0.88719617  0.02398658  0.73546191  1
  O2-  O238  1  0.89132365  0.52105914  0.28426101  1
  O2-  O239  1  0.88536804  0.52925415  0.76450691  1
  O2-  O240  1  0.48273223  0.38295622  0.28188958  1
  O2-  O241  1  0.47949759  0.38540495  0.77828772  1
  O2-  O242  1  0.47069320  0.87481765  0.26144019  1
  O2-  O243  1  0.45800398  0.88916460  0.75694207  1
  O2-  O244  1  0.98598814  0.37370161  0.26513620  1
  O2-  O245  1  0.98994398  0.38575276  0.77231106  1
  O2-  O246  1  0.97896230  0.87753008  0.26189292  1
  O2-  O247  1  0.98631903  0.88675953  0.77898920  1
  O2-  O248  1  0.01687388  0.12540338  0.23583232  1
  O2-  O249  1  0.03169984  0.11549558  0.73745389  1
  O2-  O250  1  0.01476849  0.63196550  0.22953741  1
  O2-  O251  1  0.03167075  0.61800654  0.73174058  1
  O2-  O252  1  0.52945336  0.11154312  0.23001559  1
  O2-  O253  1  0.50997239  0.11155305  0.72668329  1
  O2-  O254  1  0.51218635  0.64060512  0.22893903  1
  O2-  O255  1  0.51042691  0.61945819  0.72390776  1
  O2-  O256  1  0.13606084  0.46517973  0.00665310  1
  O2-  O257  1  0.14095021  0.48389682  0.52421082  1
  O2-  O258  1  0.12853104  0.98758977  -0.01814003  1
  O2-  O259  1  0.13588054  0.97914993  0.48575549  1
  O2-  O260  1  0.63222581  0.47584349  0.01191184  1
  O2-  O261  1  0.63201546  0.48194562  0.52054662  1
  O2-  O262  1  0.62256356  0.98874182  -0.01485531  1
  O2-  O263  1  0.61801697  0.98423456  0.47854260  1
  O2-  O264  1  0.37781500  0.01876913  0.00792006  1
  O2-  O265  1  0.37602055  0.01428235  0.51573488  1
  O2-  O266  1  0.36168521  0.50175890  -0.02847862  1
  O2-  O267  1  0.36412997  0.53461175  0.48975999  1
  O2-  O268  1  0.87831756  0.01715879  0.01019938  1
  O2-  O269  1  0.86637999  0.02077893  0.53499416  1
  O2-  O270  1  0.86928277  0.52735022  -0.02163673  1
  O2-  O271  1  0.86799264  0.51586763  0.48357188  1
  O2-  O272  1  0.48072611  0.36286670  -0.02164684  1
  O2-  O273  1  0.48829806  0.36382674  0.47185338  1
  O2-  O274  1  0.47952512  0.88289197  -0.01547429  1
  O2-  O275  1  0.47575542  0.88158838  0.47832874  1
  O2-  O276  1  0.98218201  0.36063032  -0.00749670  1
  O2-  O277  1  0.98039405  0.36537848  0.47034725  1
  O2-  O278  1  0.98236550  0.88318877  -0.01558928  1
  O2-  O279  1  0.98453436  0.86540496  0.47023502  1
  O2-  O280  1  0.01946764  0.11933627  0.01865664  1
  O2-  O281  1  0.02045280  0.13497003  0.51395885  1
  O2-  O282  1  0.02580523  0.63641258  0.03098249  1
  O2-  O283  1  0.02837678  0.63804581  0.50682385  1
  O2-  O284  1  0.51340088  0.11739634  0.02104007  1
  O2-  O285  1  0.51265698  0.11449296  0.51255817  1
  O2-  O286  1  0.51269475  0.63772434  0.02787739  1
  O2-  O287  1  0.51113374  0.64172898  0.52281790  1
  O2-  O288  1  0.12580680  0.25175319  0.02138020  1
  O2-  O289  1  0.11543340  0.27618736  0.51276128  1
  O2-  O290  1  0.11482663  0.78486819  -0.00465756  1
  O2-  O291  1  0.12800518  0.77115050  0.48222948  1
  O2-  O292  1  0.61378862  0.26310668  0.02981206  1
  O2-  O293  1  0.62807477  0.25844397  0.50810054  1
  O2-  O294  1  0.61150264  0.77704887  -0.00801669  1
  O2-  O295  1  0.61159628  0.76804133  0.46824740  1
  O2-  O296  1  0.36700208  0.22880333  -0.01372468  1
  O2-  O297  1  0.38376075  0.22801252  0.47923357  1
  O2-  O298  1  0.38224935  0.74782259  0.03484533  1
  O2-  O299  1  0.36897981  0.74168066  0.50793812  1
  O2-  O300  1  0.88791214  0.21817881  -0.01110686  1
  O2-  O301  1  0.87296957  0.23000953  0.48663748  1
  O2-  O302  1  0.88688428  0.74372923  0.02775310  1
  O2-  O303  1  0.88503346  0.72846549  0.51552811  1
  O2-  O304  1  0.26546734  0.36349989  0.01460315  1
  O2-  O305  1  0.29007624  0.38093350  0.52272224  1
  O2-  O306  1  0.27016702  0.88715042  0.00823607  1
  O2-  O307  1  0.26413762  0.87504646  0.51779060  1
  O2-  O308  1  0.77839168  0.38350835  0.02312930  1
  O2-  O309  1  0.76448635  0.36590141  0.51618960  1
  O2-  O310  1  0.76086953  0.88696103  0.02239102  1
  O2-  O311  1  0.76158933  0.88570468  0.52709447  1
  O2-  O312  1  0.23899913  0.12201782  -0.02357110  1
  O2-  O313  1  0.23144215  0.11386275  0.49423846  1
  O2-  O314  1  0.22283254  0.61586977  -0.02160811  1
  O2-  O315  1  0.23057732  0.63040160  0.48521048  1
  O2-  O316  1  0.73488531  0.11877999  -0.02832722  1
  O2-  O317  1  0.73780750  0.12585464  0.47849082  1
  O2-  O318  1  0.72473904  0.61747106  -0.02631287  1
  O2-  O319  1  0.72816945  0.61713063  0.47317605  1
