# generated using pymatgen
data_Sr64Ca21Nb43O192
_symmetry_space_group_name_H-M   'P 1'
_cell_length_a   16.55205846
_cell_length_b   16.55043265
_cell_length_c   16.71365333
_cell_angle_alpha   90.02168130
_cell_angle_beta   90.00848465
_cell_angle_gamma   89.96154006
_symmetry_Int_Tables_number   1
_chemical_formula_structural   Sr64Ca21Nb43O192
_chemical_formula_sum   'Sr64 Ca21 Nb43 O192'
_cell_volume   4578.59910390
_cell_formula_units_Z   1
loop_
 _symmetry_equiv_pos_site_id
 _symmetry_equiv_pos_as_xyz
  1  'x, y, z'
loop_
 _atom_type_symbol
 _atom_type_oxidation_number
  Sr2+  2.0
  Ca2+  2.0
  Nb5+  5.0
  O2-  -2.0
loop_
 _atom_site_type_symbol
 _atom_site_label
 _atom_site_symmetry_multiplicity
 _atom_site_fract_x
 _atom_site_fract_y
 _atom_site_fract_z
 _atom_site_occupancy
  Sr2+  Sr0  1  0.12762120  0.15359394  0.12525355  1
  Sr2+  Sr1  1  0.11957176  0.11227351  0.62240201  1
  Sr2+  Sr2  1  0.13248561  0.62339020  0.13121093  1
  Sr2+  Sr3  1  0.13849733  0.62491261  0.62544449  1
  Sr2+  Sr4  1  0.62913015  0.11887405  0.12299496  1
  Sr2+  Sr5  1  0.62159882  0.12295433  0.63596709  1
  Sr2+  Sr6  1  0.62542611  0.62919969  0.12674956  1
  Sr2+  Sr7  1  0.62224559  0.63038943  0.63318846  1
  Sr2+  Sr8  1  0.36016754  0.37977776  0.12545313  1
  Sr2+  Sr9  1  0.36973726  0.38649189  0.62909192  1
  Sr2+  Sr10  1  0.38043564  0.88134582  0.12213423  1
  Sr2+  Sr11  1  0.37364821  0.88215524  0.62453553  1
  Sr2+  Sr12  1  0.89074427  0.38652785  0.12093577  1
  Sr2+  Sr13  1  0.88792718  0.37005144  0.62900630  1
  Sr2+  Sr14  1  0.87436566  0.87452888  0.12609272  1
  Sr2+  Sr15  1  0.87577773  0.88450109  0.62793271  1
  Sr2+  Sr16  1  0.14478642  0.37431628  0.36936582  1
  Sr2+  Sr17  1  0.09845951  0.37014768  0.87488500  1
  Sr2+  Sr18  1  0.11757839  0.87472360  0.37506579  1
  Sr2+  Sr19  1  0.12838182  0.86813822  0.86838826  1
  Sr2+  Sr20  1  0.62826900  0.36678506  0.37967043  1
  Sr2+  Sr21  1  0.61189722  0.37043472  0.87186954  1
  Sr2+  Sr22  1  0.62205835  0.87863005  0.37603834  1
  Sr2+  Sr23  1  0.62335682  0.87331188  0.88358990  1
  Sr2+  Sr24  1  0.34676149  0.12538248  0.37374008  1
  Sr2+  Sr25  1  0.37110086  0.12862034  0.87672737  1
  Sr2+  Sr26  1  0.37880984  0.61423520  0.37139448  1
  Sr2+  Sr27  1  0.36928144  0.61582892  0.87491920  1
  Sr2+  Sr28  1  0.86592222  0.12826827  0.37574365  1
  Sr2+  Sr29  1  0.88763533  0.12738866  0.87197879  1
  Sr2+  Sr30  1  0.86578279  0.61635184  0.37677999  1
  Sr2+  Sr31  1  0.87170289  0.61960020  0.88412615  1
  Sr2+  Sr32  1  0.11904977  0.12911695  0.37385957  1
  Sr2+  Sr33  1  0.12300404  0.12520728  0.88789311  1
  Sr2+  Sr34  1  0.11570906  0.62055266  0.37132500  1
  Sr2+  Sr35  1  0.12393366  0.61994280  0.86432507  1
  Sr2+  Sr36  1  0.62033528  0.13568206  0.37305598  1
  Sr2+  Sr37  1  0.61723629  0.13592127  0.87652828  1
  Sr2+  Sr38  1  0.62317869  0.59839677  0.37430553  1
  Sr2+  Sr39  1  0.62651492  0.60483767  0.87818040  1
  Sr2+  Sr40  1  0.37440470  0.37257539  0.37531283  1
  Sr2+  Sr41  1  0.37241981  0.37433289  0.87060566  1
  Sr2+  Sr42  1  0.36691444  0.87622763  0.37784239  1
  Sr2+  Sr43  1  0.37565416  0.87883167  0.88207041  1
  Sr2+  Sr44  1  0.86373329  0.36771014  0.37897505  1
  Sr2+  Sr45  1  0.87234504  0.38441378  0.87816868  1
  Sr2+  Sr46  1  0.86874135  0.87655238  0.37676056  1
  Sr2+  Sr47  1  0.86979235  0.87096108  0.87373997  1
  Sr2+  Sr48  1  0.12378150  0.37599997  0.12042681  1
  Sr2+  Sr49  1  0.13911851  0.37994180  0.61919926  1
  Sr2+  Sr50  1  0.15357814  0.86827853  0.12728694  1
  Sr2+  Sr51  1  0.10390128  0.86980749  0.62751383  1
  Sr2+  Sr52  1  0.62085197  0.38450115  0.12930129  1
  Sr2+  Sr53  1  0.61834669  0.37193840  0.63091194  1
  Sr2+  Sr54  1  0.63262201  0.87692974  0.12561563  1
  Sr2+  Sr55  1  0.62004619  0.87297102  0.62429566  1
  Sr2+  Sr56  1  0.35896768  0.12595615  0.12147161  1
  Sr2+  Sr57  1  0.36863289  0.12423387  0.62911572  1
  Sr2+  Sr58  1  0.38254514  0.63591411  0.12309480  1
  Sr2+  Sr59  1  0.36664993  0.62422245  0.63740885  1
  Sr2+  Sr60  1  0.88234529  0.12657808  0.12058082  1
  Sr2+  Sr61  1  0.88214861  0.12648371  0.62919914  1
  Sr2+  Sr62  1  0.89200318  0.63310075  0.12861026  1
  Sr2+  Sr63  1  0.86940608  0.63104013  0.62264794  1
  Ca2+  Ca64  1  0.00370602  0.50552662  0.00186415  1
  Ca2+  Ca65  1  0.49821419  0.50055197  0.50188312  1
  Ca2+  Ca66  1  0.49591183  0.50164310  0.00202644  1
  Ca2+  Ca67  1  0.00252112  -0.00470580  0.00769505  1
  Ca2+  Ca68  1  0.00233460  0.49774083  0.50078423  1
  Ca2+  Ca69  1  0.25219812  0.25016666  0.50272841  1
  Ca2+  Ca70  1  0.25195986  0.25524811  -0.00501787  1
  Ca2+  Ca71  1  0.25027446  0.74420633  -0.00210769  1
  Ca2+  Ca72  1  0.75004190  0.24900266  -0.00395515  1
  Ca2+  Ca73  1  0.24886625  0.74906638  0.49750225  1
  Ca2+  Ca74  1  0.74917023  0.00191002  0.74978218  1
  Ca2+  Ca75  1  0.00249995  0.24848980  0.74906226  1
  Ca2+  Ca76  1  -0.00305972  0.25118402  0.25424391  1
  Ca2+  Ca77  1  0.75131232  0.49984815  0.24735752  1
  Ca2+  Ca78  1  0.24709933  -0.00000604  0.24739050  1
  Ca2+  Ca79  1  0.25166697  0.50394344  0.24920683  1
  Ca2+  Ca80  1  0.49877619  0.24562724  0.24931372  1
  Ca2+  Ca81  1  0.24914115  0.00093172  0.74805314  1
  Ca2+  Ca82  1  0.74805530  0.49929144  0.74564617  1
  Ca2+  Ca83  1  -0.00487500  0.74466909  0.74801504  1
  Ca2+  Ca84  1  0.49806649  0.75221784  0.75153967  1
  Nb5+  Nb85  1  0.50275134  0.00126570  0.00670539  1
  Nb5+  Nb86  1  0.49514967  0.00467191  0.50061231  1
  Nb5+  Nb87  1  -0.00710111  0.00085861  0.49659808  1
  Nb5+  Nb88  1  0.74843977  0.24013441  0.50401259  1
  Nb5+  Nb89  1  0.75020815  0.74774672  0.00796091  1
  Nb5+  Nb90  1  0.74704276  0.74766934  0.49945775  1
  Nb5+  Nb91  1  0.00573098  0.75590216  0.24968896  1
  Nb5+  Nb92  1  0.24649642  0.49592467  0.75419434  1
  Nb5+  Nb93  1  0.50847428  0.75280739  0.25141462  1
  Nb5+  Nb94  1  0.74989883  0.00131661  0.25046267  1
  Nb5+  Nb95  1  0.49551458  0.24787603  0.74973218  1
  Nb5+  Nb96  1  0.00212162  -0.00150069  0.24788095  1
  Nb5+  Nb97  1  0.00191770  -0.00087468  0.75874129  1
  Nb5+  Nb98  1  -0.00283925  0.49656536  0.25813043  1
  Nb5+  Nb99  1  -0.00579315  0.50089573  0.74483972  1
  Nb5+  Nb100  1  0.50145894  0.00237596  0.25649644  1
  Nb5+  Nb101  1  0.49887856  -0.00028001  0.75728721  1
  Nb5+  Nb102  1  0.49659731  0.49319173  0.24691784  1
  Nb5+  Nb103  1  0.50075022  0.50206677  0.75153104  1
  Nb5+  Nb104  1  0.25158410  0.25170879  0.24918700  1
  Nb5+  Nb105  1  0.24359045  0.24929842  0.74655176  1
  Nb5+  Nb106  1  0.26172491  0.74974021  0.25381376  1
  Nb5+  Nb107  1  0.25279771  0.75416270  0.74978702  1
  Nb5+  Nb108  1  0.75179428  0.25181686  0.24219083  1
  Nb5+  Nb109  1  0.75026111  0.25288975  0.75203990  1
  Nb5+  Nb110  1  0.75267170  0.75195713  0.25635039  1
  Nb5+  Nb111  1  0.74635866  0.75086130  0.76170714  1
  Nb5+  Nb112  1  0.00146772  0.25397031  0.49815678  1
  Nb5+  Nb113  1  -0.00308208  0.24824639  1.00150375  1
  Nb5+  Nb114  1  -0.00205036  0.74908753  0.49965743  1
  Nb5+  Nb115  1  0.00490258  0.75444396  0.99914057  1
  Nb5+  Nb116  1  0.49685576  0.24718162  0.50285068  1
  Nb5+  Nb117  1  0.50236686  0.25172393  1.00817412  1
  Nb5+  Nb118  1  0.50051905  0.74936067  0.49563646  1
  Nb5+  Nb119  1  0.50329231  0.74948691  0.99695287  1
  Nb5+  Nb120  1  0.24698668  -0.00322413  -0.00023945  1
  Nb5+  Nb121  1  0.23991472  -0.00625360  0.50064188  1
  Nb5+  Nb122  1  0.24623257  0.49938779  0.00056630  1
  Nb5+  Nb123  1  0.25451764  0.50224435  0.49408052  1
  Nb5+  Nb124  1  0.75140750  -0.00039358  -0.00542237  1
  Nb5+  Nb125  1  0.74495116  -0.00244987  0.50004312  1
  Nb5+  Nb126  1  0.75014468  0.49430701  0.00410137  1
  Nb5+  Nb127  1  0.75203739  0.48842662  0.50451380  1
  O2-  O128  1  -0.03216601  -0.00926837  0.13936266  1
  O2-  O129  1  -0.00757426  -0.01028309  0.61567917  1
  O2-  O130  1  0.01509924  0.48260462  0.13891967  1
  O2-  O131  1  0.01757337  0.46469711  0.63432617  1
  O2-  O132  1  0.49602951  -0.00013234  0.12498273  1
  O2-  O133  1  0.48448429  0.00427730  0.61693604  1
  O2-  O134  1  0.52687836  0.51220964  0.13443826  1
  O2-  O135  1  0.51286142  0.50317308  0.63463498  1
  O2-  O136  1  0.01596120  0.00897753  0.37746123  1
  O2-  O137  1  0.01274953  0.01174400  0.87192218  1
  O2-  O138  1  -0.01169064  0.53498193  0.37033100  1
  O2-  O139  1  -0.00924560  0.52310431  0.86519052  1
  O2-  O140  1  0.51996030  -0.00057152  0.37322431  1
  O2-  O141  1  0.51632209  -0.00489436  0.87371986  1
  O2-  O142  1  0.47759027  0.49910996  0.36621444  1
  O2-  O143  1  0.47885402  0.48417512  0.86788567  1
  O2-  O144  1  0.25700804  0.25621796  0.12989495  1
  O2-  O145  1  0.26720113  0.26590880  0.63291606  1
  O2-  O146  1  0.24990190  0.73236106  0.13450650  1
  O2-  O147  1  0.26084787  0.73349519  0.63191674  1
  O2-  O148  1  0.73997410  0.22418892  0.13203330  1
  O2-  O149  1  0.74243847  0.21825722  0.61911310  1
  O2-  O150  1  0.75489496  0.73830923  0.12650993  1
  O2-  O151  1  0.75069271  0.73496493  0.61416437  1
  O2-  O152  1  0.25009931  0.25225513  0.36970786  1
  O2-  O153  1  0.26231213  0.23849970  0.86203123  1
  O2-  O154  1  0.24215682  0.77899982  0.36479427  1
  O2-  O155  1  0.22865784  0.74808740  0.86570502  1
  O2-  O156  1  0.75310031  0.26125982  0.38134037  1
  O2-  O157  1  0.75286494  0.28863988  0.86091194  1
  O2-  O158  1  0.74349162  0.77807488  0.37003898  1
  O2-  O159  1  0.74322777  0.76938671  0.87857926  1
  O2-  O160  1  -0.01201628  0.26489825  0.12046136  1
  O2-  O161  1  -0.00729602  0.24470774  0.61434312  1
  O2-  O162  1  -0.01459822  0.77184327  0.13425762  1
  O2-  O163  1  -0.02604241  0.77122368  0.61184234  1
  O2-  O164  1  0.52872012  0.23788592  0.11740369  1
  O2-  O165  1  0.50832187  0.23274281  0.62565130  1
  O2-  O166  1  0.49468784  0.75252119  0.12975191  1
  O2-  O167  1  0.49667487  0.75803623  0.61114484  1
  O2-  O168  1  0.24357142  -0.01180326  0.38207780  1
  O2-  O169  1  0.25472513  0.00553530  0.88230969  1
  O2-  O170  1  0.27675476  0.49674611  0.38160918  1
  O2-  O171  1  0.26869709  0.50225154  0.87059683  1
  O2-  O172  1  0.74312312  -0.01729660  0.37558885  1
  O2-  O173  1  0.74366881  -0.03006140  0.88395777  1
  O2-  O174  1  0.76881630  0.48901335  0.38440669  1
  O2-  O175  1  0.77425959  0.50247711  0.88356848  1
  O2-  O176  1  -0.00895899  0.22079159  0.38639525  1
  O2-  O177  1  0.01011988  0.22682225  0.88243578  1
  O2-  O178  1  0.00419798  0.74199189  0.37358907  1
  O2-  O179  1  0.00883117  0.73270967  0.88616733  1
  O2-  O180  1  0.50935170  0.25493854  0.38707802  1
  O2-  O181  1  0.49053725  0.25313949  0.86889004  1
  O2-  O182  1  0.51421431  0.76656585  0.36967797  1
  O2-  O183  1  0.51327638  0.76724685  0.88511291  1
  O2-  O184  1  0.27527347  -0.00151217  0.11556748  1
  O2-  O185  1  0.27248118  0.00516979  0.61353918  1
  O2-  O186  1  0.22964412  0.49164580  0.11649315  1
  O2-  O187  1  0.24193571  0.49901468  0.63039691  1
  O2-  O188  1  0.75690050  0.01182805  0.13101390  1
  O2-  O189  1  0.76266422  0.02004824  0.61099225  1
  O2-  O190  1  0.71561995  0.51163987  0.11612575  1
  O2-  O191  1  0.72932875  0.52988413  0.61110311  1
  O2-  O192  1  0.13178868  0.27989774  0.24372903  1
  O2-  O193  1  0.13496187  0.28554121  0.74619748  1
  O2-  O194  1  0.11947784  0.77699362  0.24645643  1
  O2-  O195  1  0.13213208  0.76959879  0.73545482  1
  O2-  O196  1  0.63686565  0.26979690  0.26240757  1
  O2-  O197  1  0.61965617  0.26839186  0.74890951  1
  O2-  O198  1  0.62536695  0.77434359  0.23968048  1
  O2-  O199  1  0.63236307  0.78152210  0.74048846  1
  O2-  O200  1  0.36765418  0.21364112  0.24983227  1
  O2-  O201  1  0.38009781  0.22520996  0.74475578  1
  O2-  O202  1  0.37937865  0.73118237  0.26131390  1
  O2-  O203  1  0.36650330  0.71779745  0.76473537  1
  O2-  O204  1  0.86264523  0.21223118  0.25352242  1
  O2-  O205  1  0.86421652  0.22796266  0.74420132  1
  O2-  O206  1  0.86899861  0.73645486  0.25812762  1
  O2-  O207  1  0.86024935  0.71421045  0.75938416  1
  O2-  O208  1  0.28082540  0.36924844  0.25628331  1
  O2-  O209  1  0.27705268  0.37796560  0.75320857  1
  O2-  O210  1  0.27434871  0.86602500  0.22885752  1
  O2-  O211  1  0.28321018  0.86627510  0.75039203  1
  O2-  O212  1  0.78092634  0.36313121  0.23266635  1
  O2-  O213  1  0.75722615  0.36301526  0.70576358  1
  O2-  O214  1  0.76439776  0.87465092  0.23358846  1
  O2-  O215  1  0.77741503  0.86343696  0.73444012  1
  O2-  O216  1  0.21888176  0.13282948  0.25158289  1
  O2-  O217  1  0.22237244  0.13593768  0.73265157  1
  O2-  O218  1  0.22520283  0.63814375  0.26755297  1
  O2-  O219  1  0.23171149  0.61588612  0.75180332  1
  O2-  O220  1  0.72626548  0.11535656  0.26546765  1
  O2-  O221  1  0.72340464  0.13742548  0.77036212  1
  O2-  O222  1  0.72559148  0.63962937  0.26550846  1
  O2-  O223  1  0.71277847  0.63628595  0.75779688  1
  O2-  O224  1  0.11610764  0.49253586  0.27500609  1
  O2-  O225  1  0.13167844  0.47578816  0.76517731  1
  O2-  O226  1  0.11121367  0.96334891  0.23909296  1
  O2-  O227  1  0.11646378  0.96596717  0.73919215  1
  O2-  O228  1  0.61484486  0.47785921  0.27283046  1
  O2-  O229  1  0.61459297  0.47302971  0.76473737  1
  O2-  O230  1  0.63034233  0.97277130  0.24486813  1
  O2-  O231  1  0.61265953  0.98752106  0.72399301  1
  O2-  O232  1  0.38838190  0.02033244  0.26344316  1
  O2-  O233  1  0.38687859  0.03452296  0.75466337  1
  O2-  O234  1  0.38581317  0.53459681  0.23005592  1
  O2-  O235  1  0.37576240  0.51327636  0.73802487  1
  O2-  O236  1  0.86838439  0.01104158  0.27130092  1
  O2-  O237  1  0.88485848  0.02798421  0.75164372  1
  O2-  O238  1  0.88377092  0.53183490  0.23695051  1
  O2-  O239  1  0.88229435  0.51951214  0.72373708  1
  O2-  O240  1  0.47261175  0.38138684  0.23347318  1
  O2-  O241  1  0.48076681  0.36659240  0.73794243  1
  O2-  O242  1  0.48422592  0.87742832  0.24719944  1
  O2-  O243  1  0.47092379  0.88796898  0.74781133  1
  O2-  O244  1  0.97212404  0.38596034  0.27761676  1
  O2-  O245  1  0.97608406  0.38262644  0.77339565  1
  O2-  O246  1  0.97411774  0.87388253  0.27117972  1
  O2-  O247  1  0.97079589  0.88181759  0.75836039  1
  O2-  O248  1  0.02349049  0.11196627  0.24174548  1
  O2-  O249  1  0.02903736  0.11341159  0.73738756  1
  O2-  O250  1  0.01811772  0.63912083  0.23492894  1
  O2-  O251  1  0.03088661  0.61252495  0.72700676  1
  O2-  O252  1  0.53601563  0.11165526  0.24651814  1
  O2-  O253  1  0.52329031  0.12711927  0.75565610  1
  O2-  O254  1  0.52370561  0.63639976  0.25756327  1
  O2-  O255  1  0.51963255  0.61616939  0.76193856  1
  O2-  O256  1  0.13398898  0.46404577  -0.01946669  1
  O2-  O257  1  0.13837508  0.46677629  0.49041756  1
  O2-  O258  1  0.13665156  0.96422992  0.00422031  1
  O2-  O259  1  0.12480489  0.97342613  0.51156184  1
  O2-  O260  1  0.63430650  0.48214326  -0.02857511  1
  O2-  O261  1  0.63419793  0.48024181  0.48103327  1
  O2-  O262  1  0.62422628  0.97454340  0.00999703  1
  O2-  O263  1  0.62981333  0.98140573  0.50773286  1
  O2-  O264  1  0.38781825  0.01833984  -0.01165088  1
  O2-  O265  1  0.38414326  0.02140713  0.47968574  1
  O2-  O266  1  0.36265821  0.53948467  0.01260717  1
  O2-  O267  1  0.36671772  0.53916940  0.51782669  1
  O2-  O268  1  0.86406198  0.02189037  -0.00722723  1
  O2-  O269  1  0.87661284  0.01856023  0.48570723  1
  O2-  O270  1  0.86423048  0.52805400  0.02277313  1
  O2-  O271  1  0.86494143  0.52497416  0.51436726  1
  O2-  O272  1  0.48217897  0.36472046  0.01855359  1
  O2-  O273  1  0.47994541  0.36070201  0.51657457  1
  O2-  O274  1  0.48609785  0.87822325  0.00434053  1
  O2-  O275  1  0.49022695  0.88330335  0.49443464  1
  O2-  O276  1  0.97148769  0.36672841  -0.01552520  1
  O2-  O277  1  0.96452086  0.36280204  0.48919162  1
  O2-  O278  1  0.96113955  0.86414936  -0.00731233  1
  O2-  O279  1  0.97885991  0.88132778  0.48231969  1
  O2-  O280  1  0.02601757  0.12961930  0.02037171  1
  O2-  O281  1  0.02075734  0.11684669  0.50813076  1
  O2-  O282  1  0.01253809  0.64123728  0.03377400  1
  O2-  O283  1  0.01418559  0.63750436  0.51896272  1
  O2-  O284  1  0.52764815  0.11599373  -0.00149917  1
  O2-  O285  1  0.53418189  0.11840735  0.49933370  1
  O2-  O286  1  0.53204107  0.63756847  0.00057560  1
  O2-  O287  1  0.53463522  0.63975248  0.49208401  1
  O2-  O288  1  0.11680297  0.27321148  0.00679819  1
  O2-  O289  1  0.11478062  0.27602046  0.49614748  1
  O2-  O290  1  0.11455262  0.78391947  0.00998917  1
  O2-  O291  1  0.11014362  0.77883741  0.50358912  1
  O2-  O292  1  0.61512313  0.25935606  -0.02745551  1
  O2-  O293  1  0.62948260  0.26656326  0.50361600  1
  O2-  O294  1  0.62894389  0.77539839  0.01173360  1
  O2-  O295  1  0.63161514  0.78142161  0.49856029  1
  O2-  O296  1  0.39047817  0.21572149  0.00326195  1
  O2-  O297  1  0.38834623  0.20992189  0.49884262  1
  O2-  O298  1  0.38892552  0.72947064  -0.00613059  1
  O2-  O299  1  0.38910400  0.73427338  0.47516993  1
  O2-  O300  1  0.88078378  0.21473418  -0.00573972  1
  O2-  O301  1  0.86666163  0.22644095  0.50467789  1
  O2-  O302  1  0.86645483  0.73018892  -0.00557730  1
  O2-  O303  1  0.86795636  0.74207617  0.48048216  1
  O2-  O304  1  0.29010245  0.38635985  -0.00618253  1
  O2-  O305  1  0.28677680  0.38482358  0.50185163  1
  O2-  O306  1  0.28363927  0.87991158  0.00000876  1
  O2-  O307  1  0.28358010  0.88306291  0.50501480  1
  O2-  O308  1  0.77323982  0.38265421  0.02194192  1
  O2-  O309  1  0.76877626  0.37155770  0.51793455  1
  O2-  O310  1  0.76457225  0.87325737  0.02026359  1
  O2-  O311  1  0.76993209  0.88144990  0.51064563  1
  O2-  O312  1  0.22913927  0.11562460  0.00811370  1
  O2-  O313  1  0.22657882  0.11331958  0.49357413  1
  O2-  O314  1  0.20949440  0.61330120  -0.00906376  1
  O2-  O315  1  0.21396304  0.61603658  0.49079559  1
  O2-  O316  1  0.71938316  0.11012319  -0.01188412  1
  O2-  O317  1  0.73348742  0.12267360  0.47649301  1
  O2-  O318  1  0.72603634  0.63477799  -0.01038534  1
  O2-  O319  1  0.73334692  0.63706291  0.47311766  1
