# generated using pymatgen
data_Sr64Ca21Nb43O192
_symmetry_space_group_name_H-M   'P 1'
_cell_length_a   16.59403644
_cell_length_b   16.64298544
_cell_length_c   16.70908856
_cell_angle_alpha   90.01849042
_cell_angle_beta   89.88093150
_cell_angle_gamma   90.01853521
_symmetry_Int_Tables_number   1
_chemical_formula_structural   Sr64Ca21Nb43O192
_chemical_formula_sum   'Sr64 Ca21 Nb43 O192'
_cell_volume   4614.61050668
_cell_formula_units_Z   1
loop_
 _symmetry_equiv_pos_site_id
 _symmetry_equiv_pos_as_xyz
  1  'x, y, z'
loop_
 _atom_type_symbol
 _atom_type_oxidation_number
  Sr2+  2.0
  Ca2+  2.0
  Nb5+  5.0
  O2-  -2.0
loop_
 _atom_site_type_symbol
 _atom_site_label
 _atom_site_symmetry_multiplicity
 _atom_site_fract_x
 _atom_site_fract_y
 _atom_site_fract_z
 _atom_site_occupancy
  Sr2+  Sr0  1  0.13065370  0.13662522  0.12602058  1
  Sr2+  Sr1  1  0.12797630  0.13803172  0.61920364  1
  Sr2+  Sr2  1  0.13180215  0.64077636  0.12281203  1
  Sr2+  Sr3  1  0.12880185  0.60938408  0.63175271  1
  Sr2+  Sr4  1  0.62712056  0.13573233  0.13034791  1
  Sr2+  Sr5  1  0.63609544  0.12773176  0.62553956  1
  Sr2+  Sr6  1  0.63270836  0.63738910  0.12320152  1
  Sr2+  Sr7  1  0.62927089  0.64155470  0.61751431  1
  Sr2+  Sr8  1  0.38080910  0.38445966  0.12251724  1
  Sr2+  Sr9  1  0.37474740  0.38834316  0.62205113  1
  Sr2+  Sr10  1  0.37999315  0.87298126  0.13193789  1
  Sr2+  Sr11  1  0.38409489  0.87280009  0.63504171  1
  Sr2+  Sr12  1  0.87846427  0.38579312  0.12357908  1
  Sr2+  Sr13  1  0.88745631  0.38760661  0.62928117  1
  Sr2+  Sr14  1  0.88453723  0.87334496  0.11997921  1
  Sr2+  Sr15  1  0.88165294  0.88354962  0.62929202  1
  Sr2+  Sr16  1  0.12023986  0.36445502  0.38037455  1
  Sr2+  Sr17  1  0.10596594  0.36662326  0.87349777  1
  Sr2+  Sr18  1  0.11131743  0.87339718  0.37492410  1
  Sr2+  Sr19  1  0.12057386  0.86948282  0.87305897  1
  Sr2+  Sr20  1  0.61771407  0.37091556  0.37918951  1
  Sr2+  Sr21  1  0.62531117  0.36778336  0.87479397  1
  Sr2+  Sr22  1  0.61817841  0.85791089  0.37804154  1
  Sr2+  Sr23  1  0.62180332  0.86729228  0.86821991  1
  Sr2+  Sr24  1  0.36574937  0.12363115  0.37054173  1
  Sr2+  Sr25  1  0.36694023  0.11850631  0.87593246  1
  Sr2+  Sr26  1  0.37089390  0.61491173  0.37414328  1
  Sr2+  Sr27  1  0.37173924  0.61869042  0.86896263  1
  Sr2+  Sr28  1  0.87524683  0.10927587  0.37633838  1
  Sr2+  Sr29  1  0.85819528  0.11749117  0.87920268  1
  Sr2+  Sr30  1  0.85805779  0.62216352  0.36713566  1
  Sr2+  Sr31  1  0.86546227  0.62177696  0.87423627  1
  Sr2+  Sr32  1  0.12214980  0.11183436  0.37388251  1
  Sr2+  Sr33  1  0.12424960  0.11878051  0.88456465  1
  Sr2+  Sr34  1  0.10989210  0.61470978  0.37267105  1
  Sr2+  Sr35  1  0.11229591  0.61182460  0.87302760  1
  Sr2+  Sr36  1  0.61246867  0.12221324  0.37561071  1
  Sr2+  Sr37  1  0.62235722  0.11704435  0.87475782  1
  Sr2+  Sr38  1  0.62087853  0.60810946  0.37450495  1
  Sr2+  Sr39  1  0.61335758  0.61225438  0.87169731  1
  Sr2+  Sr40  1  0.37253273  0.36842303  0.37621701  1
  Sr2+  Sr41  1  0.37403710  0.37203392  0.88306314  1
  Sr2+  Sr42  1  0.35955694  0.86628725  0.37218817  1
  Sr2+  Sr43  1  0.36493552  0.86614867  0.86653149  1
  Sr2+  Sr44  1  0.85835785  0.37093458  0.38377926  1
  Sr2+  Sr45  1  0.86715205  0.36193784  0.87255827  1
  Sr2+  Sr46  1  0.87500366  0.85990477  0.37102863  1
  Sr2+  Sr47  1  0.86678661  0.86303567  0.87346355  1
  Sr2+  Sr48  1  0.12509235  0.38375770  0.12283814  1
  Sr2+  Sr49  1  0.12997710  0.37841200  0.62811156  1
  Sr2+  Sr50  1  0.13207257  0.87781692  0.12614988  1
  Sr2+  Sr51  1  0.13891809  0.88335283  0.62319435  1
  Sr2+  Sr52  1  0.63236129  0.37999975  0.12458105  1
  Sr2+  Sr53  1  0.63760555  0.38496505  0.62426585  1
  Sr2+  Sr54  1  0.63270476  0.88216993  0.12663739  1
  Sr2+  Sr55  1  0.64093774  0.87846272  0.62520329  1
  Sr2+  Sr56  1  0.38967254  0.12795602  0.13062079  1
  Sr2+  Sr57  1  0.38920142  0.13190588  0.62976948  1
  Sr2+  Sr58  1  0.38082148  0.63094146  0.11852340  1
  Sr2+  Sr59  1  0.37961684  0.63466077  0.61723464  1
  Sr2+  Sr60  1  0.88311295  0.13174690  0.12334827  1
  Sr2+  Sr61  1  0.89013360  0.12671720  0.62084186  1
  Sr2+  Sr62  1  0.89302951  0.63308474  0.12511125  1
  Sr2+  Sr63  1  0.88606801  0.63363601  0.63640222  1
  Ca2+  Ca64  1  0.49927045  0.00099263  -0.00232579  1
  Ca2+  Ca65  1  -0.00164680  0.50119714  0.49850714  1
  Ca2+  Ca66  1  -0.00160211  0.50066407  0.00133134  1
  Ca2+  Ca67  1  -0.00180244  0.00150065  -0.00076260  1
  Ca2+  Ca68  1  0.49817978  -0.00029589  0.49961678  1
  Ca2+  Ca69  1  0.75420617  0.75060200  0.49967628  1
  Ca2+  Ca70  1  0.75030338  0.24913518  0.50148261  1
  Ca2+  Ca71  1  0.25233582  0.75033266  -0.00201809  1
  Ca2+  Ca72  1  0.24585901  0.75165875  0.49949884  1
  Ca2+  Ca73  1  0.74905049  0.74814857  0.00086405  1
  Ca2+  Ca74  1  0.25359649  0.49819764  0.75388545  1
  Ca2+  Ca75  1  0.49820223  0.74540629  0.25236783  1
  Ca2+  Ca76  1  0.00081037  0.24970131  0.25161007  1
  Ca2+  Ca77  1  0.49927396  0.25247722  0.74969656  1
  Ca2+  Ca78  1  0.24727836  0.49874948  0.25122953  1
  Ca2+  Ca79  1  0.74685365  0.49917249  0.24814469  1
  Ca2+  Ca80  1  -0.00056112  0.24502666  0.75052457  1
  Ca2+  Ca81  1  0.74873729  -0.00122096  0.24999529  1
  Ca2+  Ca82  1  0.74681733  0.49712588  0.75087403  1
  Ca2+  Ca83  1  0.00327581  0.75313766  0.74745209  1
  Ca2+  Ca84  1  0.50145343  0.74735924  0.75109697  1
  Nb5+  Nb85  1  0.50081951  0.50069223  -0.00346615  1
  Nb5+  Nb86  1  0.49858469  0.49984335  0.49589577  1
  Nb5+  Nb87  1  0.00054466  -0.00217329  0.50083926  1
  Nb5+  Nb88  1  0.24915724  0.25138338  0.00705067  1
  Nb5+  Nb89  1  0.25348248  0.24906994  0.50637422  1
  Nb5+  Nb90  1  0.74331772  0.24851846  0.00208149  1
  Nb5+  Nb91  1  0.25458554  0.00628186  0.74313741  1
  Nb5+  Nb92  1  0.00296452  0.74768632  0.24971630  1
  Nb5+  Nb93  1  0.50089685  0.25295608  0.24882483  1
  Nb5+  Nb94  1  0.75828639  0.00043821  0.74784439  1
  Nb5+  Nb95  1  0.24897585  0.00221017  0.24189289  1
  Nb5+  Nb96  1  -0.00016492  -0.00014118  0.24580524  1
  Nb5+  Nb97  1  0.00728680  0.00386924  0.75337573  1
  Nb5+  Nb98  1  -0.00710538  0.49124059  0.25590231  1
  Nb5+  Nb99  1  -0.00172454  0.49911585  0.75243003  1
  Nb5+  Nb100  1  0.50009990  -0.00626113  0.25601825  1
  Nb5+  Nb101  1  0.50982625  -0.00008774  0.74865998  1
  Nb5+  Nb102  1  0.50164532  0.49972503  0.24122288  1
  Nb5+  Nb103  1  0.49980657  0.49737571  0.73876207  1
  Nb5+  Nb104  1  0.25266651  0.25335238  0.25257760  1
  Nb5+  Nb105  1  0.25170258  0.25220340  0.75937868  1
  Nb5+  Nb106  1  0.24713965  0.74516245  0.25579540  1
  Nb5+  Nb107  1  0.24470220  0.74655865  0.75190107  1
  Nb5+  Nb108  1  0.75308421  0.24626966  0.25331084  1
  Nb5+  Nb109  1  0.75399725  0.24667049  0.74376481  1
  Nb5+  Nb110  1  0.74539134  0.75291844  0.24656424  1
  Nb5+  Nb111  1  0.74853079  0.74328350  0.75416048  1
  Nb5+  Nb112  1  -0.00433520  0.24994916  0.49311848  1
  Nb5+  Nb113  1  -0.00914273  0.24875119  0.99969308  1
  Nb5+  Nb114  1  0.00282581  0.74736865  0.50229953  1
  Nb5+  Nb115  1  0.00458909  0.74997502  0.99367222  1
  Nb5+  Nb116  1  0.49933614  0.25382625  0.50513713  1
  Nb5+  Nb117  1  0.49721035  0.24915468  0.99924636  1
  Nb5+  Nb118  1  0.49593971  0.75468677  0.49615379  1
  Nb5+  Nb119  1  0.49649232  0.75601375  1.00015058  1
  Nb5+  Nb120  1  0.25469036  -0.00218723  -0.00424438  1
  Nb5+  Nb121  1  0.25398659  0.00343090  0.49651057  1
  Nb5+  Nb122  1  0.24565812  0.50123176  -0.00273713  1
  Nb5+  Nb123  1  0.24666612  0.50100133  0.49674339  1
  Nb5+  Nb124  1  0.74687168  -0.00188703  0.00426490  1
  Nb5+  Nb125  1  0.74804337  -0.00430158  0.49319986  1
  Nb5+  Nb126  1  0.74847344  0.50206194  -0.00000686  1
  Nb5+  Nb127  1  0.75420805  0.50545939  0.50657110  1
  O2-  O128  1  0.01327716  -0.02619396  0.13468026  1
  O2-  O129  1  0.01304107  -0.02353902  0.61763910  1
  O2-  O130  1  0.01063274  0.47858072  0.13770649  1
  O2-  O131  1  0.01858277  0.47852517  0.63215473  1
  O2-  O132  1  0.50666871  -0.01285911  0.13770236  1
  O2-  O133  1  0.50760762  -0.03075029  0.63258729  1
  O2-  O134  1  0.51125453  0.47625232  0.12763228  1
  O2-  O135  1  0.50827492  0.47571164  0.62394329  1
  O2-  O136  1  -0.00268384  0.01588331  0.37668227  1
  O2-  O137  1  -0.00826363  0.03425610  0.86241536  1
  O2-  O138  1  -0.01852845  0.53413542  0.36683193  1
  O2-  O139  1  -0.01673024  0.52774156  0.86813610  1
  O2-  O140  1  0.48325294  0.03343398  0.36565956  1
  O2-  O141  1  0.48966447  0.03377544  0.86163186  1
  O2-  O142  1  0.48520006  0.51123338  0.37931651  1
  O2-  O143  1  0.48618690  0.51449566  0.88251314  1
  O2-  O144  1  0.27099883  0.23062683  0.11979331  1
  O2-  O145  1  0.26851188  0.22997057  0.61864666  1
  O2-  O146  1  0.26461356  0.73843097  0.13777004  1
  O2-  O147  1  0.26639020  0.74184787  0.63522751  1
  O2-  O148  1  0.75965102  0.22258196  0.12020462  1
  O2-  O149  1  0.76780520  0.21640417  0.63415883  1
  O2-  O150  1  0.76847023  0.71877853  0.13436611  1
  O2-  O151  1  0.76673051  0.72890010  0.63690251  1
  O2-  O152  1  0.24144642  0.26355121  0.36823655  1
  O2-  O153  1  0.23782764  0.26728226  0.87474162  1
  O2-  O154  1  0.23182752  0.78541002  0.36586164  1
  O2-  O155  1  0.23748325  0.78210208  0.86734513  1
  O2-  O156  1  0.73440472  0.27254826  0.36449174  1
  O2-  O157  1  0.73732119  0.26300571  0.88297463  1
  O2-  O158  1  0.74559937  0.78048014  0.36368622  1
  O2-  O159  1  0.74009525  0.78037790  0.86847071  1
  O2-  O160  1  -0.01576464  0.27310502  0.11646339  1
  O2-  O161  1  -0.01590991  0.26188611  0.61051262  1
  O2-  O162  1  -0.01347854  0.76584445  0.13152432  1
  O2-  O163  1  -0.02749160  0.76456622  0.61196354  1
  O2-  O164  1  0.48152800  0.26486863  0.12653711  1
  O2-  O165  1  0.46867474  0.26677648  0.61402255  1
  O2-  O166  1  0.47079862  0.75339425  0.11921801  1
  O2-  O167  1  0.47485876  0.75310074  0.61467676  1
  O2-  O168  1  0.26415244  -0.00526809  0.37918535  1
  O2-  O169  1  0.26868691  -0.00850153  0.87719948  1
  O2-  O170  1  0.27965683  0.48548187  0.38500392  1
  O2-  O171  1  0.28572748  0.48946803  0.88663209  1
  O2-  O172  1  0.78239021  -0.01484537  0.38399258  1
  O2-  O173  1  0.77140722  -0.01104329  0.86786835  1
  O2-  O174  1  0.75940760  0.48318479  0.38789324  1
  O2-  O175  1  0.75921954  0.46759115  0.88723613  1
  O2-  O176  1  0.03796811  0.23401021  0.38317834  1
  O2-  O177  1  0.02833829  0.23304430  0.88736602  1
  O2-  O178  1  0.02651429  0.74320591  0.36816824  1
  O2-  O179  1  0.02935335  0.73835852  0.88208394  1
  O2-  O180  1  0.51386213  0.24600021  0.36922368  1
  O2-  O181  1  0.52405841  0.24294272  0.88712700  1
  O2-  O182  1  0.52808388  0.72667014  0.38482679  1
  O2-  O183  1  0.52787724  0.73443507  0.88785189  1
  O2-  O184  1  0.23106325  0.01670113  0.12720531  1
  O2-  O185  1  0.22985586  0.02105226  0.62865065  1
  O2-  O186  1  0.23389700  0.50518510  0.11502925  1
  O2-  O187  1  0.23584294  0.49643090  0.61610744  1
  O2-  O188  1  0.71774320  0.01534667  0.11430508  1
  O2-  O189  1  0.73372993  0.01355910  0.62925921  1
  O2-  O190  1  0.71474435  0.50525039  0.11332275  1
  O2-  O191  1  0.71508636  0.51433624  0.61799510  1
  O2-  O192  1  0.14010449  0.26451702  0.22401562  1
  O2-  O193  1  0.13823482  0.25809664  0.72607941  1
  O2-  O194  1  0.12535036  0.77230301  0.23144608  1
  O2-  O195  1  0.13424437  0.78737198  0.73514238  1
  O2-  O196  1  0.61637209  0.26993536  0.23172353  1
  O2-  O197  1  0.63624509  0.26343261  0.73694009  1
  O2-  O198  1  0.63237737  0.77425912  0.23103199  1
  O2-  O199  1  0.63542210  0.77598798  0.73357801  1
  O2-  O200  1  0.37492678  0.22772016  0.25914651  1
  O2-  O201  1  0.36361157  0.21694514  0.76229759  1
  O2-  O202  1  0.36257029  0.73500942  0.27590913  1
  O2-  O203  1  0.36417187  0.73959120  0.77199387  1
  O2-  O204  1  0.86407554  0.21660824  0.26314755  1
  O2-  O205  1  0.86568541  0.22687321  0.77955224  1
  O2-  O206  1  0.88536379  0.73703035  0.26553724  1
  O2-  O207  1  0.86829151  0.73649866  0.77159922  1
  O2-  O208  1  0.27680255  0.36354490  0.23390038  1
  O2-  O209  1  0.27369679  0.36168861  0.73603850  1
  O2-  O210  1  0.26617434  0.88534311  0.23397370  1
  O2-  O211  1  0.26819100  0.89009243  0.73558463  1
  O2-  O212  1  0.76607202  0.35959575  0.22282649  1
  O2-  O213  1  0.77397959  0.36010140  0.72970055  1
  O2-  O214  1  0.77339160  0.86729671  0.21923810  1
  O2-  O215  1  0.76802217  0.88378918  0.73316369  1
  O2-  O216  1  0.23677398  0.12464041  0.26225877  1
  O2-  O217  1  0.22839686  0.12053972  0.77255900  1
  O2-  O218  1  0.22286661  0.63469583  0.27317563  1
  O2-  O219  1  0.21881122  0.63542619  0.76592966  1
  O2-  O220  1  0.71232784  0.13461997  0.26151664  1
  O2-  O221  1  0.72965623  0.11922836  0.76784137  1
  O2-  O222  1  0.73156550  0.63606082  0.27505620  1
  O2-  O223  1  0.73132696  0.63201848  0.77921547  1
  O2-  O224  1  0.11211530  0.47672340  0.27460372  1
  O2-  O225  1  0.11815151  0.48038862  0.77186529  1
  O2-  O226  1  0.13214068  0.98613453  0.26712918  1
  O2-  O227  1  0.12370324  0.98497930  0.76348059  1
  O2-  O228  1  0.61178914  0.47011429  0.27141113  1
  O2-  O229  1  0.61174657  0.46596680  0.76637907  1
  O2-  O230  1  0.61282351  0.97531548  0.27355061  1
  O2-  O231  1  0.62563285  0.98337678  0.76292196  1
  O2-  O232  1  0.36780446  0.01971827  0.23884696  1
  O2-  O233  1  0.36866833  0.02319802  0.73552840  1
  O2-  O234  1  0.38551022  0.52218223  0.23842622  1
  O2-  O235  1  0.38622241  0.53668038  0.73480574  1
  O2-  O236  1  0.88652100  0.02221248  0.23828159  1
  O2-  O237  1  0.87258349  0.02152941  0.73126946  1
  O2-  O238  1  0.88090132  0.52684054  0.23179182  1
  O2-  O239  1  0.88084725  0.51614831  0.72910366  1
  O2-  O240  1  0.47341138  0.37087129  0.25959844  1
  O2-  O241  1  0.46282329  0.38646644  0.76409912  1
  O2-  O242  1  0.46964647  0.88376330  0.27060225  1
  O2-  O243  1  0.47777898  0.88731238  0.77266073  1
  O2-  O244  1  0.96570499  0.38192075  0.27768014  1
  O2-  O245  1  0.97976397  0.38046951  0.77030842  1
  O2-  O246  1  0.99129824  0.87820040  0.26956469  1
  O2-  O247  1  0.97505218  0.89170496  0.76311416  1
  O2-  O248  1  0.02726732  0.11354070  0.23513899  1
  O2-  O249  1  0.01257623  0.11311719  0.71158540  1
  O2-  O250  1  0.02387762  0.63386673  0.23294742  1
  O2-  O251  1  0.01987626  0.61807757  0.72876228  1
  O2-  O252  1  0.51300147  0.13282657  0.23462618  1
  O2-  O253  1  0.51646725  0.11538422  0.71639354  1
  O2-  O254  1  0.52906468  0.61130788  0.23440440  1
  O2-  O255  1  0.53504047  0.61197162  0.73863677  1
  O2-  O256  1  0.13655483  0.46824533  -0.02072343  1
  O2-  O257  1  0.13520424  0.47252394  0.48126184  1
  O2-  O258  1  0.13681367  0.99368251  -0.01702863  1
  O2-  O259  1  0.12732693  0.99144261  0.48921452  1
  O2-  O260  1  0.61733401  0.47113997  -0.01478201  1
  O2-  O261  1  0.61399698  0.47546814  0.48815715  1
  O2-  O262  1  0.63417135  0.98397288  -0.03198979  1
  O2-  O263  1  0.63546441  0.97442576  0.47770713  1
  O2-  O264  1  0.36448226  0.03444076  0.01440307  1
  O2-  O265  1  0.36283110  0.03456865  0.51574421  1
  O2-  O266  1  0.38191003  0.51016396  0.02230141  1
  O2-  O267  1  0.37692906  0.51252211  0.51972821  1
  O2-  O268  1  0.86185386  0.02998682  0.01250119  1
  O2-  O269  1  0.88342733  0.02165012  0.51363931  1
  O2-  O270  1  0.86104311  0.51533879  0.02314261  1
  O2-  O271  1  0.86526584  0.53026534  0.52459326  1
  O2-  O272  1  0.48290128  0.37256141  -0.00668926  1
  O2-  O273  1  0.47565235  0.37562626  0.48406717  1
  O2-  O274  1  0.46740554  0.86598230  -0.01463147  1
  O2-  O275  1  0.47400744  0.86567916  0.47369906  1
  O2-  O276  1  0.98395115  0.36527744  -0.02327075  1
  O2-  O277  1  0.98314699  0.36471946  0.47506365  1
  O2-  O278  1  0.97622908  0.86724538  -0.01677578  1
  O2-  O279  1  0.98153257  0.88390486  0.47915402  1
  O2-  O280  1  0.01876013  0.13625208  0.02747819  1
  O2-  O281  1  0.01801306  0.12255074  0.51296150  1
  O2-  O282  1  0.02498594  0.63430142  0.02236706  1
  O2-  O283  1  0.03319421  0.63697332  0.51464540  1
  O2-  O284  1  0.51727055  0.13779426  0.02323596  1
  O2-  O285  1  0.52053612  0.13912259  0.51237896  1
  O2-  O286  1  0.52443464  0.61184911  0.01978827  1
  O2-  O287  1  0.51487321  0.61384669  0.51679010  1
  O2-  O288  1  0.13494027  0.26855501  0.01952354  1
  O2-  O289  1  0.13470594  0.26805244  0.51705141  1
  O2-  O290  1  0.11865271  0.77657434  0.02184216  1
  O2-  O291  1  0.11299630  0.78999140  0.50893233  1
  O2-  O292  1  0.62707508  0.26723565  0.01968442  1
  O2-  O293  1  0.61280492  0.27850851  0.51411673  1
  O2-  O294  1  0.61263334  0.76805712  0.03076978  1
  O2-  O295  1  0.61428743  0.77083248  0.52094379  1
  O2-  O296  1  0.37972294  0.23624341  -0.01872829  1
  O2-  O297  1  0.37284613  0.23391811  0.47599967  1
  O2-  O298  1  0.38592551  0.71138075  -0.01578848  1
  O2-  O299  1  0.38133017  0.72196872  0.47785587  1
  O2-  O300  1  0.87496397  0.22883419  -0.01337595  1
  O2-  O301  1  0.88516071  0.22671041  0.46992809  1
  O2-  O302  1  0.88657431  0.72447885  -0.01369061  1
  O2-  O303  1  0.89067944  0.73555691  0.46633934  1
  O2-  O304  1  0.27513988  0.36764861  0.01141880  1
  O2-  O305  1  0.27189442  0.36601583  0.50778232  1
  O2-  O306  1  0.27344710  0.88848380  0.02060048  1
  O2-  O307  1  0.27095634  0.89253197  0.52052876  1
  O2-  O308  1  0.76807837  0.36395027  0.01970611  1
  O2-  O309  1  0.77271185  0.38444364  0.52400117  1
  O2-  O310  1  0.76949879  0.88590418  0.01794042  1
  O2-  O311  1  0.77267437  0.88603173  0.52798514  1
  O2-  O312  1  0.23678602  0.13472725  -0.01714318  1
  O2-  O313  1  0.23025882  0.13106117  0.48239255  1
  O2-  O314  1  0.22576473  0.61399795  -0.01559790  1
  O2-  O315  1  0.22842592  0.61408264  0.48764569  1
  O2-  O316  1  0.72930469  0.12888429  -0.01820444  1
  O2-  O317  1  0.73031125  0.11334363  0.48778466  1
  O2-  O318  1  0.72611122  0.61158926  -0.02532345  1
  O2-  O319  1  0.72160643  0.61735009  0.48318304  1
