# generated using pymatgen
data_Sr64Ca21Nb43O192
_symmetry_space_group_name_H-M   'P 1'
_cell_length_a   16.56155678
_cell_length_b   16.57689062
_cell_length_c   16.73539157
_cell_angle_alpha   90.04651096
_cell_angle_beta   90.00109643
_cell_angle_gamma   90.06380269
_symmetry_Int_Tables_number   1
_chemical_formula_structural   Sr64Ca21Nb43O192
_chemical_formula_sum   'Sr64 Ca21 Nb43 O192'
_cell_volume   4594.51523110
_cell_formula_units_Z   1
loop_
 _symmetry_equiv_pos_site_id
 _symmetry_equiv_pos_as_xyz
  1  'x, y, z'
loop_
 _atom_type_symbol
 _atom_type_oxidation_number
  Sr2+  2.0
  Ca2+  2.0
  Nb5+  5.0
  O2-  -2.0
loop_
 _atom_site_type_symbol
 _atom_site_label
 _atom_site_symmetry_multiplicity
 _atom_site_fract_x
 _atom_site_fract_y
 _atom_site_fract_z
 _atom_site_occupancy
  Sr2+  Sr0  1  0.12153416  0.12175882  0.13836100  1
  Sr2+  Sr1  1  0.12050816  0.12768736  0.61956497  1
  Sr2+  Sr2  1  0.13867896  0.63818513  0.12614604  1
  Sr2+  Sr3  1  0.12732084  0.61662570  0.62096489  1
  Sr2+  Sr4  1  0.62849582  0.13358772  0.11933380  1
  Sr2+  Sr5  1  0.62426448  0.14172197  0.62579745  1
  Sr2+  Sr6  1  0.63091411  0.61634066  0.12930495  1
  Sr2+  Sr7  1  0.62720303  0.61376418  0.62447360  1
  Sr2+  Sr8  1  0.38676928  0.35900455  0.12909064  1
  Sr2+  Sr9  1  0.38126907  0.35712271  0.63084807  1
  Sr2+  Sr10  1  0.37732208  0.88017304  0.12729957  1
  Sr2+  Sr11  1  0.38203553  0.87030052  0.62492845  1
  Sr2+  Sr12  1  0.87501943  0.36891456  0.12722283  1
  Sr2+  Sr13  1  0.87566881  0.39127945  0.62276980  1
  Sr2+  Sr14  1  0.87746581  0.86369982  0.12325858  1
  Sr2+  Sr15  1  0.87318135  0.87587060  0.61845977  1
  Sr2+  Sr16  1  0.12250779  0.37508245  0.37165310  1
  Sr2+  Sr17  1  0.12845294  0.38912296  0.87436786  1
  Sr2+  Sr18  1  0.11564455  0.87953690  0.37965535  1
  Sr2+  Sr19  1  0.13616539  0.86819755  0.87777812  1
  Sr2+  Sr20  1  0.61541919  0.38442200  0.37373679  1
  Sr2+  Sr21  1  0.62577863  0.37577841  0.88023573  1
  Sr2+  Sr22  1  0.61857380  0.87385026  0.38947854  1
  Sr2+  Sr23  1  0.62613415  0.87306712  0.87248673  1
  Sr2+  Sr24  1  0.36143644  0.12452054  0.38021983  1
  Sr2+  Sr25  1  0.36932671  0.11917315  0.87408147  1
  Sr2+  Sr26  1  0.36880199  0.62398862  0.37461749  1
  Sr2+  Sr27  1  0.37175999  0.62330133  0.87110115  1
  Sr2+  Sr28  1  0.88087740  0.12468288  0.37434994  1
  Sr2+  Sr29  1  0.86897532  0.12348541  0.87110044  1
  Sr2+  Sr30  1  0.87871161  0.61815020  0.37663638  1
  Sr2+  Sr31  1  0.90082021  0.62454611  0.87861403  1
  Sr2+  Sr32  1  0.11652409  0.13177712  0.37480566  1
  Sr2+  Sr33  1  0.11137351  0.13933311  0.87314004  1
  Sr2+  Sr34  1  0.11858419  0.63107647  0.37296081  1
  Sr2+  Sr35  1  0.12810504  0.61283634  0.87584804  1
  Sr2+  Sr36  1  0.61447402  0.13389416  0.37867986  1
  Sr2+  Sr37  1  0.62374947  0.12652630  0.87292178  1
  Sr2+  Sr38  1  0.62990578  0.61849403  0.37248063  1
  Sr2+  Sr39  1  0.62275993  0.62814975  0.87578963  1
  Sr2+  Sr40  1  0.36889422  0.38065627  0.36996471  1
  Sr2+  Sr41  1  0.36766017  0.39000389  0.87657437  1
  Sr2+  Sr42  1  0.37042998  0.86527506  0.38101475  1
  Sr2+  Sr43  1  0.37789942  0.86469635  0.86992517  1
  Sr2+  Sr44  1  0.87407754  0.38128760  0.37130396  1
  Sr2+  Sr45  1  0.88538965  0.36760334  0.87578057  1
  Sr2+  Sr46  1  0.88067672  0.85745430  0.37667854  1
  Sr2+  Sr47  1  0.88161596  0.86570406  0.87379334  1
  Sr2+  Sr48  1  0.13854139  0.36122770  0.12274938  1
  Sr2+  Sr49  1  0.13318165  0.37229840  0.63808716  1
  Sr2+  Sr50  1  0.14427375  0.88372558  0.12590756  1
  Sr2+  Sr51  1  0.12650054  0.88468788  0.62272973  1
  Sr2+  Sr52  1  0.62625769  0.37511098  0.13355444  1
  Sr2+  Sr53  1  0.62638901  0.37583084  0.62003354  1
  Sr2+  Sr54  1  0.62806785  0.87981522  0.12623062  1
  Sr2+  Sr55  1  0.62246736  0.88069911  0.63352248  1
  Sr2+  Sr56  1  0.37817413  0.11491676  0.12415931  1
  Sr2+  Sr57  1  0.36465186  0.12082564  0.62376041  1
  Sr2+  Sr58  1  0.38330824  0.62629000  0.13326028  1
  Sr2+  Sr59  1  0.38343561  0.61589648  0.62537831  1
  Sr2+  Sr60  1  0.88560789  0.12376163  0.12876390  1
  Sr2+  Sr61  1  0.86983628  0.11860032  0.62627206  1
  Sr2+  Sr62  1  0.87209894  0.62140478  0.13126971  1
  Sr2+  Sr63  1  0.87573258  0.62481338  0.61766110  1
  Ca2+  Ca64  1  0.49622792  0.49892440  0.49846027  1
  Ca2+  Ca65  1  -0.00084634  0.49956756  0.00541449  1
  Ca2+  Ca66  1  -0.00043827  -0.00026230  0.00062345  1
  Ca2+  Ca67  1  0.50095103  0.50116529  0.00268124  1
  Ca2+  Ca68  1  0.00470144  0.49665881  0.49867124  1
  Ca2+  Ca69  1  0.74764257  0.75060233  0.50013629  1
  Ca2+  Ca70  1  0.24730114  0.25453596  0.49883337  1
  Ca2+  Ca71  1  0.24727075  0.74790969  0.50446819  1
  Ca2+  Ca72  1  0.75404592  0.24889006  0.49884120  1
  Ca2+  Ca73  1  0.25305030  0.24967456  -0.00194778  1
  Ca2+  Ca74  1  -0.00220421  0.25033782  0.74761850  1
  Ca2+  Ca75  1  0.49961565  0.24640011  0.75355097  1
  Ca2+  Ca76  1  0.24580643  0.49851157  0.24727153  1
  Ca2+  Ca77  1  0.50294762  0.75233894  0.24750023  1
  Ca2+  Ca78  1  0.00136821  0.75297418  0.74660564  1
  Ca2+  Ca79  1  0.74486530  0.00077738  0.25142003  1
  Ca2+  Ca80  1  0.50347274  0.24290357  0.25103839  1
  Ca2+  Ca81  1  0.25246788  0.00085985  0.25494901  1
  Ca2+  Ca82  1  0.00172884  0.74786448  0.24455814  1
  Ca2+  Ca83  1  0.75047792  0.50333406  0.75578668  1
  Ca2+  Ca84  1  0.24895878  -0.00312853  0.75048943  1
  Nb5+  Nb85  1  0.49521414  0.00089297  0.50763284  1
  Nb5+  Nb86  1  0.50115330  -0.00127105  0.00414056  1
  Nb5+  Nb87  1  -0.00746968  0.00176788  0.50065358  1
  Nb5+  Nb88  1  0.75177554  0.24487771  -0.00042779  1
  Nb5+  Nb89  1  0.26237070  0.74904995  -0.00007614  1
  Nb5+  Nb90  1  0.75295940  0.74455424  -0.00327429  1
  Nb5+  Nb91  1  -0.00134886  0.25382899  0.25000388  1
  Nb5+  Nb92  1  0.25307038  0.50171197  0.74796681  1
  Nb5+  Nb93  1  0.74863866  -0.00060807  0.75045683  1
  Nb5+  Nb94  1  0.50291274  0.74748862  0.74843066  1
  Nb5+  Nb95  1  0.75198541  0.49863826  0.25013596  1
  Nb5+  Nb96  1  -0.00525906  -0.00484384  0.25005794  1
  Nb5+  Nb97  1  0.00165384  -0.00365495  0.75341337  1
  Nb5+  Nb98  1  0.00448616  0.49845248  0.24440981  1
  Nb5+  Nb99  1  -0.00359893  0.50459847  0.74970889  1
  Nb5+  Nb100  1  0.50196452  -0.00204319  0.26327535  1
  Nb5+  Nb101  1  0.49927456  0.00190605  0.75521648  1
  Nb5+  Nb102  1  0.49477648  0.49945227  0.25094743  1
  Nb5+  Nb103  1  0.50243013  0.49205274  0.75274707  1
  Nb5+  Nb104  1  0.25495280  0.24788096  0.24577870  1
  Nb5+  Nb105  1  0.24873904  0.24435274  0.75517512  1
  Nb5+  Nb106  1  0.24805571  0.75316438  0.25546920  1
  Nb5+  Nb107  1  0.25150514  0.74882486  0.74518489  1
  Nb5+  Nb108  1  0.75151429  0.24847052  0.25191792  1
  Nb5+  Nb109  1  0.75275332  0.25712347  0.74996585  1
  Nb5+  Nb110  1  0.74822160  0.75245988  0.25164126  1
  Nb5+  Nb111  1  0.75126489  0.74905937  0.75295104  1
  Nb5+  Nb112  1  -0.00310787  0.25352490  0.50191628  1
  Nb5+  Nb113  1  0.00372469  0.25222953  1.00030102  1
  Nb5+  Nb114  1  0.00124190  0.74647940  0.50099536  1
  Nb5+  Nb115  1  0.01111072  0.75526562  1.00061857  1
  Nb5+  Nb116  1  0.49661004  0.25172117  0.49521422  1
  Nb5+  Nb117  1  0.49897642  0.24978611  0.99657136  1
  Nb5+  Nb118  1  0.50597668  0.74582582  0.49718016  1
  Nb5+  Nb119  1  0.50800514  0.75399415  1.00115754  1
  Nb5+  Nb120  1  0.24730683  0.00291499  -0.00713460  1
  Nb5+  Nb121  1  0.24178412  -0.00162762  0.50012429  1
  Nb5+  Nb122  1  0.25519912  0.50322270  0.00829188  1
  Nb5+  Nb123  1  0.24855682  0.49598517  0.49652072  1
  Nb5+  Nb124  1  0.75035870  -0.00292098  -0.00054060  1
  Nb5+  Nb125  1  0.74309791  0.00322239  0.49790718  1
  Nb5+  Nb126  1  0.75000063  0.49386814  -0.00084176  1
  Nb5+  Nb127  1  0.74926841  0.49781015  0.50169101  1
  O2-  O128  1  0.00758655  0.00156312  0.13621055  1
  O2-  O129  1  0.00296399  -0.00099362  0.62051076  1
  O2-  O130  1  -0.03514007  0.49667655  0.13494579  1
  O2-  O131  1  0.00287947  0.50996994  0.63243404  1
  O2-  O132  1  0.50258613  -0.01965067  0.11898774  1
  O2-  O133  1  0.50100304  -0.01820930  0.62363655  1
  O2-  O134  1  0.48629346  0.47271930  0.13461608  1
  O2-  O135  1  0.49428433  0.49870383  0.63520345  1
  O2-  O136  1  -0.00776032  0.00315968  0.37972258  1
  O2-  O137  1  -0.01683205  0.00697669  0.86586043  1
  O2-  O138  1  0.00807348  0.49659373  0.36386624  1
  O2-  O139  1  0.00602498  0.48855743  0.86833081  1
  O2-  O140  1  0.50592938  0.01233361  0.37972446  1
  O2-  O141  1  0.49466918  0.01124832  0.87167834  1
  O2-  O142  1  0.51803856  0.51873905  0.36634421  1
  O2-  O143  1  0.50727332  0.52276825  0.86581569  1
  O2-  O144  1  0.22152493  0.23027688  0.13033912  1
  O2-  O145  1  0.22180284  0.24382162  0.63661892  1
  O2-  O146  1  0.27223003  0.72911005  0.11519468  1
  O2-  O147  1  0.27329518  0.72131558  0.63664934  1
  O2-  O148  1  0.73416460  0.26310104  0.11654133  1
  O2-  O149  1  0.73000857  0.26295363  0.63701915  1
  O2-  O150  1  0.77245484  0.75158205  0.11317213  1
  O2-  O151  1  0.76870074  0.75790231  0.63883898  1
  O2-  O152  1  0.26088528  0.27658765  0.36097864  1
  O2-  O153  1  0.28097381  0.27159533  0.86609574  1
  O2-  O154  1  0.22991327  0.77594213  0.36702237  1
  O2-  O155  1  0.24499448  0.76389120  0.87654962  1
  O2-  O156  1  0.77798878  0.24038564  0.36236435  1
  O2-  O157  1  0.77249287  0.24956536  0.88149456  1
  O2-  O158  1  0.71871444  0.75397456  0.36195044  1
  O2-  O159  1  0.72139384  0.75250989  0.87958335  1
  O2-  O160  1  0.01278877  0.25690487  0.12669619  1
  O2-  O161  1  0.02348071  0.25415151  0.61329450  1
  O2-  O162  1  -0.02859944  0.73957195  0.11065667  1
  O2-  O163  1  -0.03503512  0.74799880  0.61435395  1
  O2-  O164  1  0.52639678  0.26045478  0.11300632  1
  O2-  O165  1  0.52093278  0.26553979  0.61447987  1
  O2-  O166  1  0.47854754  0.76957297  0.11042529  1
  O2-  O167  1  0.48388373  0.75741836  0.63052195  1
  O2-  O168  1  0.26211337  -0.02959285  0.38758915  1
  O2-  O169  1  0.26980979  -0.03107899  0.88307033  1
  O2-  O170  1  0.24278224  0.47425653  0.38308054  1
  O2-  O171  1  0.24956273  0.49248925  0.87330633  1
  O2-  O172  1  0.74176966  0.03319900  0.38802670  1
  O2-  O173  1  0.75001272  0.00840586  0.87603938  1
  O2-  O174  1  0.74119849  0.49764274  0.37173154  1
  O2-  O175  1  0.72223247  0.50177119  0.88815350  1
  O2-  O176  1  -0.02298098  0.24676901  0.36682821  1
  O2-  O177  1  -0.02079165  0.23727975  0.88595312  1
  O2-  O178  1  0.02307591  0.75788861  0.38089987  1
  O2-  O179  1  0.01474964  0.77186077  0.88207510  1
  O2-  O180  1  0.48335809  0.21408661  0.38283070  1
  O2-  O181  1  0.49026080  0.21057667  0.88603403  1
  O2-  O182  1  0.52842796  0.74353085  0.38351457  1
  O2-  O183  1  0.51545848  0.74821638  0.87327762  1
  O2-  O184  1  0.24896823  0.01628284  0.11198178  1
  O2-  O185  1  0.23861417  0.02866534  0.61763858  1
  O2-  O186  1  0.25623874  0.53631199  0.11732354  1
  O2-  O187  1  0.25185055  0.52457476  0.63304363  1
  O2-  O188  1  0.72554817  -0.00025721  0.11218181  1
  O2-  O189  1  0.74761656  -0.02314521  0.63412449  1
  O2-  O190  1  0.76422756  0.50019462  0.12922037  1
  O2-  O191  1  0.75239590  0.49779566  0.61948412  1
  O2-  O192  1  0.11527885  0.27167006  0.26028121  1
  O2-  O193  1  0.13346410  0.27531759  0.77697899  1
  O2-  O194  1  0.13485080  0.76334971  0.21319637  1
  O2-  O195  1  0.13916276  0.77184522  0.73304693  1
  O2-  O196  1  0.63870065  0.27380805  0.26693999  1
  O2-  O197  1  0.63773684  0.26249717  0.78043715  1
  O2-  O198  1  0.63780361  0.75486016  0.20921530  1
  O2-  O199  1  0.62038796  0.77585638  0.74177551  1
  O2-  O200  1  0.36767467  0.22841799  0.22710534  1
  O2-  O201  1  0.36509919  0.23252960  0.72382943  1
  O2-  O202  1  0.36479414  0.72909522  0.26368467  1
  O2-  O203  1  0.38458101  0.73410902  0.76835666  1
  O2-  O204  1  0.87471952  0.24042426  0.22280819  1
  O2-  O205  1  0.86243627  0.21371363  0.74329794  1
  O2-  O206  1  0.86313039  0.72017453  0.26220536  1
  O2-  O207  1  0.86155748  0.73321510  0.78060683  1
  O2-  O208  1  0.26479581  0.36545321  0.21707296  1
  O2-  O209  1  0.27054949  0.38489578  0.73666109  1
  O2-  O210  1  0.26511592  0.86722471  0.22266287  1
  O2-  O211  1  0.28197893  0.86180624  0.73714311  1
  O2-  O212  1  0.77001068  0.37699111  0.24669082  1
  O2-  O213  1  0.78331736  0.36770647  0.75813746  1
  O2-  O214  1  0.77665484  0.86471268  0.24509845  1
  O2-  O215  1  0.76049266  0.87561084  0.76942541  1
  O2-  O216  1  0.22550316  0.13508550  0.27145230  1
  O2-  O217  1  0.23077183  0.13241066  0.77680229  1
  O2-  O218  1  0.22586027  0.63433105  0.26663830  1
  O2-  O219  1  0.24060138  0.62689020  0.77190382  1
  O2-  O220  1  0.73476380  0.13729050  0.23005763  1
  O2-  O221  1  0.72404832  0.11640286  0.74705078  1
  O2-  O222  1  0.73262869  0.61905684  0.24691690  1
  O2-  O223  1  0.71579186  0.63786887  0.74994520  1
  O2-  O224  1  0.11299359  0.46481039  0.22797474  1
  O2-  O225  1  0.13259047  0.48489004  0.74860794  1
  O2-  O226  1  0.11326745  0.98645501  0.26576270  1
  O2-  O227  1  0.11321766  0.96354080  0.75841812  1
  O2-  O228  1  0.63024202  0.48271747  0.24170613  1
  O2-  O229  1  0.61612327  0.46771614  0.74442999  1
  O2-  O230  1  0.61367343  0.95267583  0.25939915  1
  O2-  O231  1  0.62453436  0.97660457  0.75765507  1
  O2-  O232  1  0.38820656  0.03580784  0.25069535  1
  O2-  O233  1  0.38531048  0.02264944  0.74371845  1
  O2-  O234  1  0.38057002  0.51638252  0.26705294  1
  O2-  O235  1  0.37459763  0.52256829  0.75517313  1
  O2-  O236  1  0.88107110  0.03039212  0.25207432  1
  O2-  O237  1  0.86555954  0.02192783  0.74655497  1
  O2-  O238  1  0.87004950  0.51502711  0.26668676  1
  O2-  O239  1  0.88323042  0.53509983  0.75012195  1
  O2-  O240  1  0.48696874  0.37927509  0.27262069  1
  O2-  O241  1  0.47138213  0.38198285  0.76677251  1
  O2-  O242  1  0.46126596  0.88527336  0.26124083  1
  O2-  O243  1  0.48485433  0.87671121  0.75561323  1
  O2-  O244  1  0.97310909  0.37172984  0.25270098  1
  O2-  O245  1  0.97564883  0.38501789  0.74222975  1
  O2-  O246  1  0.97026126  0.88235513  0.25288182  1
  O2-  O247  1  0.96186440  0.88600536  0.73976554  1
  O2-  O248  1  0.01282106  0.13242679  0.24886196  1
  O2-  O249  1  0.02475873  0.11335309  0.74029566  1
  O2-  O250  1  0.02614716  0.61287084  0.24405136  1
  O2-  O251  1  0.02887340  0.62014831  0.76186887  1
  O2-  O252  1  0.54247298  0.10740990  0.23745372  1
  O2-  O253  1  0.52853987  0.11215289  0.73589679  1
  O2-  O254  1  0.51343586  0.61525451  0.22337089  1
  O2-  O255  1  0.52276307  0.63150860  0.74044793  1
  O2-  O256  1  0.13709370  0.48526368  0.00189207  1
  O2-  O257  1  0.13559264  0.46119656  0.51652401  1
  O2-  O258  1  0.13501289  0.97444181  -0.01058284  1
  O2-  O259  1  0.12388891  0.98115657  0.49574644  1
  O2-  O260  1  0.63495086  0.48642716  0.02929151  1
  O2-  O261  1  0.63205331  0.46823731  0.50361841  1
  O2-  O262  1  0.61996197  0.98558476  -0.01606465  1
  O2-  O263  1  0.62696212  0.98069550  0.50394525  1
  O2-  O264  1  0.38040886  0.01532962  0.00206987  1
  O2-  O265  1  0.37963184  0.01780807  0.50507290  1
  O2-  O266  1  0.36841041  0.53337885  -0.01028166  1
  O2-  O267  1  0.36369450  0.53574286  0.49541870  1
  O2-  O268  1  0.86125468  0.02484745  0.00831202  1
  O2-  O269  1  0.87616113  0.01861127  0.50667010  1
  O2-  O270  1  0.85989436  0.53259393  -0.00772576  1
  O2-  O271  1  0.86721913  0.52845620  0.49804670  1
  O2-  O272  1  0.48978716  0.36270581  -0.03002973  1
  O2-  O273  1  0.47705345  0.36358103  0.47599117  1
  O2-  O274  1  0.48537941  0.87878374  -0.01968032  1
  O2-  O275  1  0.48523414  0.88197669  0.48605257  1
  O2-  O276  1  0.96603050  0.36451162  0.00299956  1
  O2-  O277  1  0.96649287  0.36425718  0.49634853  1
  O2-  O278  1  0.97005414  0.86743978  0.00590427  1
  O2-  O279  1  0.98201492  0.88145955  0.49685045  1
  O2-  O280  1  0.02332775  0.13529337  0.01410565  1
  O2-  O281  1  0.02289623  0.11798071  0.49874411  1
  O2-  O282  1  0.01481912  0.63736345  -0.01736849  1
  O2-  O283  1  0.02294124  0.63311555  0.49817547  1
  O2-  O284  1  0.51725284  0.11632316  0.01655823  1
  O2-  O285  1  0.52391818  0.11509937  0.51498295  1
  O2-  O286  1  0.52330291  0.64017696  0.00989759  1
  O2-  O287  1  0.52333602  0.63487785  0.51629173  1
  O2-  O288  1  0.11579848  0.27909641  -0.01796016  1
  O2-  O289  1  0.11054002  0.25853800  0.46625798  1
  O2-  O290  1  0.12614755  0.77080366  0.01858757  1
  O2-  O291  1  0.11352219  0.77528197  0.52707691  1
  O2-  O292  1  0.63026977  0.26082391  -0.02053701  1
  O2-  O293  1  0.61749416  0.25642667  0.47469517  1
  O2-  O294  1  0.62311090  0.77865456  0.01035878  1
  O2-  O295  1  0.61515834  0.78309864  0.52304269  1
  O2-  O296  1  0.38726367  0.23296669  0.02569179  1
  O2-  O297  1  0.38333874  0.22276929  0.51853342  1
  O2-  O298  1  0.37733307  0.73894007  -0.02202815  1
  O2-  O299  1  0.38676229  0.74301091  0.48121031  1
  O2-  O300  1  0.86861833  0.22792408  0.01857876  1
  O2-  O301  1  0.88760937  0.21127025  0.50815644  1
  O2-  O302  1  0.86442512  0.73761495  -0.02890606  1
  O2-  O303  1  0.88201854  0.73760816  0.47053610  1
  O2-  O304  1  0.27883597  0.38945019  0.01970033  1
  O2-  O305  1  0.28550189  0.38626165  0.52486496  1
  O2-  O306  1  0.26480287  0.86781006  0.01767173  1
  O2-  O307  1  0.26448915  0.88537439  0.53384313  1
  O2-  O308  1  0.76968935  0.37753481  -0.00534148  1
  O2-  O309  1  0.78084830  0.38232453  0.49572926  1
  O2-  O310  1  0.76385630  0.87945084  -0.00516943  1
  O2-  O311  1  0.77328665  0.88945137  0.48645502  1
  O2-  O312  1  0.23725098  0.11477536  -0.03421678  1
  O2-  O313  1  0.23764709  0.11532521  0.47421239  1
  O2-  O314  1  0.22878861  0.63480683  -0.01572529  1
  O2-  O315  1  0.21355343  0.61320141  0.48796070  1
  O2-  O316  1  0.72848220  0.12850843  -0.00294624  1
  O2-  O317  1  0.74129537  0.11316601  0.53852712  1
  O2-  O318  1  0.72387285  0.63228294  0.00329215  1
  O2-  O319  1  0.72018189  0.61641557  0.49801173  1
