# generated using pymatgen
data_Sr64Ca21Nb43O192
_symmetry_space_group_name_H-M   'P 1'
_cell_length_a   16.53106274
_cell_length_b   16.53040093
_cell_length_c   16.66689146
_cell_angle_alpha   89.95847841
_cell_angle_beta   90.09538065
_cell_angle_gamma   89.99606288
_symmetry_Int_Tables_number   1
_chemical_formula_structural   Sr64Ca21Nb43O192
_chemical_formula_sum   'Sr64 Ca21 Nb43 O192'
_cell_volume   4554.47216013
_cell_formula_units_Z   1
loop_
 _symmetry_equiv_pos_site_id
 _symmetry_equiv_pos_as_xyz
  1  'x, y, z'
loop_
 _atom_type_symbol
 _atom_type_oxidation_number
  Sr2+  2.0
  Ca2+  2.0
  Nb5+  5.0
  O2-  -2.0
loop_
 _atom_site_type_symbol
 _atom_site_label
 _atom_site_symmetry_multiplicity
 _atom_site_fract_x
 _atom_site_fract_y
 _atom_site_fract_z
 _atom_site_occupancy
  Sr2+  Sr0  1  0.11330427  0.11425412  0.12872405  1
  Sr2+  Sr1  1  0.12416719  0.11500637  0.61696876  1
  Sr2+  Sr2  1  0.12144149  0.61831361  0.12554904  1
  Sr2+  Sr3  1  0.11258420  0.61920513  0.62812900  1
  Sr2+  Sr4  1  0.62612511  0.11447959  0.12682574  1
  Sr2+  Sr5  1  0.61083736  0.11395180  0.62804373  1
  Sr2+  Sr6  1  0.61452418  0.61836256  0.12481522  1
  Sr2+  Sr7  1  0.62278711  0.60991376  0.62256453  1
  Sr2+  Sr8  1  0.36463272  0.36823931  0.12582165  1
  Sr2+  Sr9  1  0.37422964  0.36266851  0.62904095  1
  Sr2+  Sr10  1  0.37041168  0.86931307  0.12826873  1
  Sr2+  Sr11  1  0.36656206  0.86544072  0.62085077  1
  Sr2+  Sr12  1  0.86808199  0.36125222  0.12720664  1
  Sr2+  Sr13  1  0.86625419  0.36699675  0.62278694  1
  Sr2+  Sr14  1  0.87249602  0.86997280  0.11182648  1
  Sr2+  Sr15  1  0.86730518  0.86235407  0.62710994  1
  Sr2+  Sr16  1  0.13613862  0.37727236  0.37514352  1
  Sr2+  Sr17  1  0.13614352  0.38535022  0.87579224  1
  Sr2+  Sr18  1  0.13861571  0.88543704  0.37196938  1
  Sr2+  Sr19  1  0.13223682  0.88087704  0.87202703  1
  Sr2+  Sr20  1  0.63193501  0.39256137  0.37937135  1
  Sr2+  Sr21  1  0.64383573  0.37331914  0.86866581  1
  Sr2+  Sr22  1  0.63528283  0.87678096  0.37589205  1
  Sr2+  Sr23  1  0.63882406  0.88921401  0.87231432  1
  Sr2+  Sr24  1  0.37334886  0.13513916  0.37516055  1
  Sr2+  Sr25  1  0.39798097  0.12853793  0.87984367  1
  Sr2+  Sr26  1  0.38503217  0.62642880  0.37536086  1
  Sr2+  Sr27  1  0.37758597  0.63158850  0.86897063  1
  Sr2+  Sr28  1  0.89018662  0.13066833  0.37527731  1
  Sr2+  Sr29  1  0.86883310  0.12741743  0.88143382  1
  Sr2+  Sr30  1  0.87082110  0.63696892  0.36986061  1
  Sr2+  Sr31  1  0.88595261  0.63331238  0.87728161  1
  Sr2+  Sr32  1  0.13160300  0.13954704  0.37481017  1
  Sr2+  Sr33  1  0.13041893  0.13276900  0.88316085  1
  Sr2+  Sr34  1  0.13091643  0.62659329  0.37360571  1
  Sr2+  Sr35  1  0.12736349  0.63680557  0.87151850  1
  Sr2+  Sr36  1  0.63812472  0.12919500  0.37409103  1
  Sr2+  Sr37  1  0.63153593  0.12482605  0.86508147  1
  Sr2+  Sr38  1  0.62513709  0.63718740  0.37388193  1
  Sr2+  Sr39  1  0.63185170  0.63135465  0.88359546  1
  Sr2+  Sr40  1  0.37839565  0.38524648  0.37586662  1
  Sr2+  Sr41  1  0.38670701  0.38069695  0.87548301  1
  Sr2+  Sr42  1  0.39082202  0.88802625  0.37150423  1
  Sr2+  Sr43  1  0.37804857  0.89070509  0.87886370  1
  Sr2+  Sr44  1  0.88426612  0.37445652  0.37254847  1
  Sr2+  Sr45  1  0.87947844  0.39180893  0.87553429  1
  Sr2+  Sr46  1  0.87453307  0.88850758  0.38054712  1
  Sr2+  Sr47  1  0.88612680  0.89018676  0.87045529  1
  Sr2+  Sr48  1  0.11540424  0.37483597  0.12597299  1
  Sr2+  Sr49  1  0.12227360  0.36770991  0.63218196  1
  Sr2+  Sr50  1  0.13038470  0.87169146  0.12148405  1
  Sr2+  Sr51  1  0.10622643  0.87208390  0.62165581  1
  Sr2+  Sr52  1  0.62474154  0.36462841  0.12909434  1
  Sr2+  Sr53  1  0.61386834  0.36765224  0.62429074  1
  Sr2+  Sr54  1  0.60379127  0.86790024  0.12614010  1
  Sr2+  Sr55  1  0.62102222  0.86519752  0.62719684  1
  Sr2+  Sr56  1  0.36191192  0.11397984  0.12888600  1
  Sr2+  Sr57  1  0.36569531  0.12130085  0.62345939  1
  Sr2+  Sr58  1  0.36518701  0.62456470  0.12542494  1
  Sr2+  Sr59  1  0.36543158  0.61189161  0.62575182  1
  Sr2+  Sr60  1  0.86115247  0.11770315  0.13067792  1
  Sr2+  Sr61  1  0.86055154  0.11340081  0.62287921  1
  Sr2+  Sr62  1  0.86886686  0.61139417  0.11817616  1
  Sr2+  Sr63  1  0.85955673  0.62623309  0.62447383  1
  Ca2+  Ca64  1  0.50151573  0.00140362  0.00166546  1
  Ca2+  Ca65  1  0.49858662  0.49622366  0.00249025  1
  Ca2+  Ca66  1  -0.00034042  0.00023400  0.49851867  1
  Ca2+  Ca67  1  0.50069319  -0.00078189  0.49961945  1
  Ca2+  Ca68  1  -0.00018247  0.50032878  0.49876859  1
  Ca2+  Ca69  1  0.74837622  0.24954613  -0.00011311  1
  Ca2+  Ca70  1  0.25342034  0.24959565  0.00055075  1
  Ca2+  Ca71  1  0.74925650  0.25144288  0.49996928  1
  Ca2+  Ca72  1  0.74998268  0.75164165  -0.00014393  1
  Ca2+  Ca73  1  0.24666901  0.74786944  0.49813132  1
  Ca2+  Ca74  1  0.49879181  0.74698268  0.74968535  1
  Ca2+  Ca75  1  -0.00138514  0.74960494  0.24669180  1
  Ca2+  Ca76  1  0.00113919  0.25014316  0.75289730  1
  Ca2+  Ca77  1  0.25032157  0.49915359  0.75118955  1
  Ca2+  Ca78  1  0.25000845  0.00061188  0.74950103  1
  Ca2+  Ca79  1  0.75002127  -0.00408697  0.24991741  1
  Ca2+  Ca80  1  0.49905470  0.25231054  0.25279866  1
  Ca2+  Ca81  1  0.24942946  0.00042306  0.25208870  1
  Ca2+  Ca82  1  0.75265026  -0.00110141  0.74678817  1
  Ca2+  Ca83  1  0.75006400  0.50177318  0.24995492  1
  Ca2+  Ca84  1  0.75086867  0.50026292  0.75065240  1
  Nb5+  Nb85  1  0.00286087  0.50467006  -0.00111928  1
  Nb5+  Nb86  1  0.49833523  0.49944987  0.50215805  1
  Nb5+  Nb87  1  0.00190861  0.00639938  -0.00108336  1
  Nb5+  Nb88  1  0.25163137  0.74864858  -0.00231258  1
  Nb5+  Nb89  1  0.25008258  0.25336098  0.50239420  1
  Nb5+  Nb90  1  0.74767772  0.74978102  0.49889545  1
  Nb5+  Nb91  1  0.49779371  0.74916692  0.25090365  1
  Nb5+  Nb92  1  0.25031329  0.50057888  0.24969644  1
  Nb5+  Nb93  1  -0.00127003  0.75035962  0.74857373  1
  Nb5+  Nb94  1  0.50033489  0.25000878  0.75163100  1
  Nb5+  Nb95  1  0.00244991  0.24887376  0.24789590  1
  Nb5+  Nb96  1  -0.00317698  -0.00884909  0.24923785  1
  Nb5+  Nb97  1  0.00542049  0.00899300  0.74905026  1
  Nb5+  Nb98  1  0.00116004  0.50100718  0.25262230  1
  Nb5+  Nb99  1  -0.00455683  0.50057380  0.74485048  1
  Nb5+  Nb100  1  0.50351335  0.00801339  0.25209676  1
  Nb5+  Nb101  1  0.49545415  -0.00812622  0.74667634  1
  Nb5+  Nb102  1  0.49767039  0.49925431  0.24756017  1
  Nb5+  Nb103  1  0.50568830  0.49928501  0.75769258  1
  Nb5+  Nb104  1  0.24814851  0.25043249  0.24557716  1
  Nb5+  Nb105  1  0.25274447  0.24600301  0.75809290  1
  Nb5+  Nb106  1  0.25054368  0.74974923  0.25463406  1
  Nb5+  Nb107  1  0.24750892  0.75225265  0.74284837  1
  Nb5+  Nb108  1  0.74545866  0.25291184  0.25586793  1
  Nb5+  Nb109  1  0.75595298  0.24719113  0.74483016  1
  Nb5+  Nb110  1  0.74903193  0.75085457  0.24216695  1
  Nb5+  Nb111  1  0.74662881  0.74822510  0.75519635  1
  Nb5+  Nb112  1  0.00013691  0.24860465  0.50638205  1
  Nb5+  Nb113  1  -0.00244283  0.25653329  0.99810348  1
  Nb5+  Nb114  1  -0.00149408  0.75246711  0.49071773  1
  Nb5+  Nb115  1  0.00320480  0.75455033  1.00099865  1
  Nb5+  Nb116  1  0.50177484  0.24919187  0.49619337  1
  Nb5+  Nb117  1  0.50428442  0.24972860  1.00862609  1
  Nb5+  Nb118  1  0.49611265  0.74645385  0.50503376  1
  Nb5+  Nb119  1  0.49865034  0.75204619  0.99183406  1
  Nb5+  Nb120  1  0.24893523  0.00463220  0.00100100  1
  Nb5+  Nb121  1  0.25375665  -0.00516897  0.49685484  1
  Nb5+  Nb122  1  0.25162863  0.50391882  -0.00324808  1
  Nb5+  Nb123  1  0.24777290  0.49656046  0.50497011  1
  Nb5+  Nb124  1  0.74790798  -0.00442476  0.00313774  1
  Nb5+  Nb125  1  0.74566904  0.00300536  0.50176453  1
  Nb5+  Nb126  1  0.74303867  0.49667093  0.00608735  1
  Nb5+  Nb127  1  0.75786713  0.50250678  0.49404151  1
  O2-  O128  1  -0.01585864  0.01470731  0.11894165  1
  O2-  O129  1  -0.01331064  0.02341524  0.63572292  1
  O2-  O130  1  -0.00618915  0.51345949  0.12190103  1
  O2-  O131  1  -0.02016078  0.52832514  0.63444218  1
  O2-  O132  1  0.47459391  0.01261569  0.13533120  1
  O2-  O133  1  0.48270494  0.02687664  0.63393122  1
  O2-  O134  1  0.48138578  0.52687422  0.13677883  1
  O2-  O135  1  0.48367668  0.51912231  0.61859013  1
  O2-  O136  1  0.01496581  -0.02551542  0.36282373  1
  O2-  O137  1  0.02021340  -0.01249685  0.88114526  1
  O2-  O138  1  0.02304827  0.47980562  0.36370644  1
  O2-  O139  1  0.01981309  0.48378904  0.88277607  1
  O2-  O140  1  0.51930959  -0.02639248  0.36483430  1
  O2-  O141  1  0.51854430  -0.01930892  0.86600251  1
  O2-  O142  1  0.50500807  0.48578100  0.37701842  1
  O2-  O143  1  0.52050152  0.46909104  0.86739593  1
  O2-  O144  1  0.23519195  0.28166627  0.13383739  1
  O2-  O145  1  0.24170391  0.27762693  0.61722255  1
  O2-  O146  1  0.24279239  0.76306297  0.12630720  1
  O2-  O147  1  0.23021593  0.78198452  0.63281418  1
  O2-  O148  1  0.73977626  0.27006284  0.13692593  1
  O2-  O149  1  0.73786175  0.28392847  0.63212883  1
  O2-  O150  1  0.73065967  0.78191664  0.13329835  1
  O2-  O151  1  0.74174182  0.76845923  0.62054862  1
  O2-  O152  1  0.25889711  0.24053250  0.37223430  1
  O2-  O153  1  0.26869485  0.21217941  0.86615154  1
  O2-  O154  1  0.26041100  0.71540598  0.36531955  1
  O2-  O155  1  0.25842866  0.72433665  0.88227897  1
  O2-  O156  1  0.77655609  0.22706903  0.36814000  1
  O2-  O157  1  0.75007035  0.22158290  0.86293878  1
  O2-  O158  1  0.75337762  0.72738189  0.38038995  1
  O2-  O159  1  0.76099618  0.71932108  0.86598527  1
  O2-  O160  1  0.02872172  0.24525197  0.12741828  1
  O2-  O161  1  0.03297519  0.24046834  0.61614012  1
  O2-  O162  1  0.03068602  0.74558770  0.11340184  1
  O2-  O163  1  0.01487177  0.73740143  0.63156904  1
  O2-  O164  1  0.53210349  0.23948022  0.11997082  1
  O2-  O165  1  0.50935576  0.24314735  0.62114119  1
  O2-  O166  1  0.51202486  0.73364898  0.13218643  1
  O2-  O167  1  0.52628153  0.73029901  0.61559594  1
  O2-  O168  1  0.21908836  0.01839062  0.38345216  1
  O2-  O169  1  0.21799453  0.00883797  0.88724860  1
  O2-  O170  1  0.23226385  0.51149275  0.37123979  1
  O2-  O171  1  0.22411056  0.52011837  0.88564697  1
  O2-  O172  1  0.72049053  0.00479641  0.38446684  1
  O2-  O173  1  0.73634941  0.01577524  0.88358632  1
  O2-  O174  1  0.71896643  0.52142940  0.38351697  1
  O2-  O175  1  0.72278310  0.51328323  0.88817859  1
  O2-  O176  1  -0.01032946  0.26386811  0.36756171  1
  O2-  O177  1  -0.03520148  0.25831366  0.88701090  1
  O2-  O178  1  -0.03336814  0.76118975  0.38092820  1
  O2-  O179  1  -0.01196706  0.75767217  0.87652402  1
  O2-  O180  1  0.46854269  0.26339022  0.38575854  1
  O2-  O181  1  0.48063215  0.26255941  0.86659857  1
  O2-  O182  1  0.48312042  0.75576599  0.37563251  1
  O2-  O183  1  0.46418324  0.76222910  0.88309609  1
  O2-  O184  1  0.26483201  -0.02392773  0.11635762  1
  O2-  O185  1  0.28115599  -0.01131656  0.61390580  1
  O2-  O186  1  0.26917658  0.49059459  0.12728429  1
  O2-  O187  1  0.27440465  0.47948985  0.61563778  1
  O2-  O188  1  0.78226015  -0.01649779  0.11660127  1
  O2-  O189  1  0.78180513  -0.01798936  0.61441581  1
  O2-  O190  1  0.78396645  0.48584347  0.11844252  1
  O2-  O191  1  0.77381756  0.49085836  0.61166539  1
  O2-  O192  1  0.12586143  0.27352728  0.26602215  1
  O2-  O193  1  0.13837351  0.27353102  0.76935236  1
  O2-  O194  1  0.13544505  0.76978936  0.26547218  1
  O2-  O195  1  0.12002797  0.76640612  0.76713070  1
  O2-  O196  1  0.63419465  0.27625862  0.27948266  1
  O2-  O197  1  0.61794964  0.26916900  0.75623889  1
  O2-  O198  1  0.61591583  0.76696785  0.26568646  1
  O2-  O199  1  0.63402138  0.77514150  0.76667215  1
  O2-  O200  1  0.36363182  0.23182621  0.23223200  1
  O2-  O201  1  0.37798933  0.23424982  0.72968920  1
  O2-  O202  1  0.37560916  0.72721428  0.23828796  1
  O2-  O203  1  0.36141855  0.72589024  0.72898735  1
  O2-  O204  1  0.88649581  0.23535805  0.23204849  1
  O2-  O205  1  0.86844907  0.22423669  0.72773215  1
  O2-  O206  1  0.86140780  0.72125533  0.22948372  1
  O2-  O207  1  0.88068998  0.72769454  0.73967124  1
  O2-  O208  1  0.26767279  0.38098895  0.26552553  1
  O2-  O209  1  0.27670039  0.36360343  0.76998909  1
  O2-  O210  1  0.27506132  0.86258194  0.27057314  1
  O2-  O211  1  0.26612861  0.86179445  0.78267525  1
  O2-  O212  1  0.77905351  0.36811158  0.26757235  1
  O2-  O213  1  0.76961859  0.36448666  0.77511447  1
  O2-  O214  1  0.76386052  0.86081780  0.28230611  1
  O2-  O215  1  0.77951159  0.86228351  0.76284652  1
  O2-  O216  1  0.22560162  0.13714556  0.23153984  1
  O2-  O217  1  0.23529819  0.13717081  0.71410908  1
  O2-  O218  1  0.23348990  0.62141772  0.23091360  1
  O2-  O219  1  0.22154799  0.63517426  0.73511575  1
  O2-  O220  1  0.73064939  0.13423291  0.23461074  1
  O2-  O221  1  0.72642582  0.13301806  0.71969334  1
  O2-  O222  1  0.71583426  0.63646691  0.23716794  1
  O2-  O223  1  0.73580900  0.63515522  0.72060994  1
  O2-  O224  1  0.13179963  0.48224729  0.23156593  1
  O2-  O225  1  0.11367896  0.48139560  0.73687116  1
  O2-  O226  1  0.11350863  0.98286821  0.22469599  1
  O2-  O227  1  0.11552428  0.96672604  0.73644174  1
  O2-  O228  1  0.61152602  0.47833297  0.23740151  1
  O2-  O229  1  0.61613683  0.48244546  0.71906888  1
  O2-  O230  1  0.61548425  0.97858532  0.22061763  1
  O2-  O231  1  0.61607927  0.98083703  0.73173175  1
  O2-  O232  1  0.38361526  0.02096897  0.27384682  1
  O2-  O233  1  0.38309619  0.01916252  0.77811098  1
  O2-  O234  1  0.36920627  0.52083263  0.26775165  1
  O2-  O235  1  0.38691587  0.51906046  0.76280682  1
  O2-  O236  1  0.88638519  0.03118311  0.26393961  1
  O2-  O237  1  0.88996052  0.01736624  0.77697794  1
  O2-  O238  1  0.88854798  0.52278072  0.26598279  1
  O2-  O239  1  0.88503296  0.51912875  0.78378103  1
  O2-  O240  1  0.46813429  0.38691389  0.23657080  1
  O2-  O241  1  0.48281192  0.37341843  0.73280365  1
  O2-  O242  1  0.47718151  0.86565378  0.23851186  1
  O2-  O243  1  0.47306277  0.88007516  0.72521448  1
  O2-  O244  1  0.98866109  0.37695054  0.23097458  1
  O2-  O245  1  0.97515846  0.38538964  0.73170673  1
  O2-  O246  1  0.96755948  0.88229059  0.22864838  1
  O2-  O247  1  0.98001926  0.86868619  0.74043654  1
  O2-  O248  1  0.02417701  0.13184994  0.25933416  1
  O2-  O249  1  0.03690199  0.11769006  0.76738660  1
  O2-  O250  1  0.03123992  0.61482835  0.25767454  1
  O2-  O251  1  0.01804397  0.62761020  0.76757728  1
  O2-  O252  1  0.53018777  0.11916568  0.26688034  1
  O2-  O253  1  0.51697390  0.13184178  0.76231252  1
  O2-  O254  1  0.51081929  0.62474672  0.27061349  1
  O2-  O255  1  0.52482157  0.61414052  0.77598023  1
  O2-  O256  1  0.12565524  0.48793966  0.02060181  1
  O2-  O257  1  0.13469911  0.47015512  0.51695771  1
  O2-  O258  1  0.12055921  0.98299678  0.02114472  1
  O2-  O259  1  0.13613381  0.98789344  0.52736696  1
  O2-  O260  1  0.63237557  0.48142032  0.03602172  1
  O2-  O261  1  0.61676465  0.48453694  0.51522497  1
  O2-  O262  1  0.63587591  0.97221789  0.02033802  1
  O2-  O263  1  0.63323129  0.97110859  0.52647367  1
  O2-  O264  1  0.36318395  0.01313997  -0.02192459  1
  O2-  O265  1  0.36678889  0.02672084  0.47415563  1
  O2-  O266  1  0.36421885  0.52918729  -0.01768600  1
  O2-  O267  1  0.37317996  0.51583504  0.48235317  1
  O2-  O268  1  0.88504185  0.01413419  -0.01927221  1
  O2-  O269  1  0.86430551  0.01574208  0.47243422  1
  O2-  O270  1  0.88637672  0.51976808  -0.01629580  1
  O2-  O271  1  0.86749880  0.52697960  0.47033566  1
  O2-  O272  1  0.46193539  0.36357047  0.01188870  1
  O2-  O273  1  0.47742793  0.38124893  0.51399345  1
  O2-  O274  1  0.47848868  0.86377473  0.02568238  1
  O2-  O275  1  0.47699119  0.86134447  0.51371549  1
  O2-  O276  1  0.98853318  0.37588673  0.01477827  1
  O2-  O277  1  0.97505175  0.36520889  0.50742924  1
  O2-  O278  1  0.98890320  0.87368967  0.00646390  1
  O2-  O279  1  0.97780885  0.86465479  0.52553052  1
  O2-  O280  1  0.01947689  0.12432134  -0.00958056  1
  O2-  O281  1  0.02102202  0.13551609  0.47399586  1
  O2-  O282  1  0.02139998  0.62408469  -0.01201545  1
  O2-  O283  1  0.02470706  0.63654123  0.49116584  1
  O2-  O284  1  0.52987912  0.13626967  -0.02322888  1
  O2-  O285  1  0.52405182  0.13651664  0.48459767  1
  O2-  O286  1  0.51883966  0.63449365  -0.00929263  1
  O2-  O287  1  0.51337971  0.62102633  0.48153629  1
  O2-  O288  1  0.11507384  0.26361289  -0.02689485  1
  O2-  O289  1  0.13024972  0.27036193  0.48361046  1
  O2-  O290  1  0.12821686  0.76376581  -0.01817904  1
  O2-  O291  1  0.11216409  0.77795767  0.47584651  1
  O2-  O292  1  0.61454577  0.28858160  -0.01567204  1
  O2-  O293  1  0.61243709  0.28176358  0.48346843  1
  O2-  O294  1  0.61259805  0.77237471  -0.02565301  1
  O2-  O295  1  0.62495201  0.76303451  0.48536384  1
  O2-  O296  1  0.38674638  0.21541313  0.01994118  1
  O2-  O297  1  0.37126649  0.23826623  0.51541977  1
  O2-  O298  1  0.36893054  0.73134551  0.01588995  1
  O2-  O299  1  0.38248020  0.72305697  0.52127758  1
  O2-  O300  1  0.88783343  0.23094335  0.03171185  1
  O2-  O301  1  0.88670656  0.22537068  0.52245561  1
  O2-  O302  1  0.88971761  0.73114533  0.01839621  1
  O2-  O303  1  0.86966005  0.72904595  0.51258741  1
  O2-  O304  1  0.26565768  0.38808165  -0.01771496  1
  O2-  O305  1  0.26816937  0.37490715  0.47637105  1
  O2-  O306  1  0.26139831  0.86759258  -0.01406343  1
  O2-  O307  1  0.27131061  0.88226352  0.47299296  1
  O2-  O308  1  0.77614598  0.38446691  -0.01748836  1
  O2-  O309  1  0.76718994  0.38758361  0.47466682  1
  O2-  O310  1  0.78047842  0.88209160  -0.02290994  1
  O2-  O311  1  0.76569785  0.86649168  0.48319332  1
  O2-  O312  1  0.22889086  0.11549507  0.02709037  1
  O2-  O313  1  0.23521643  0.13576235  0.51177659  1
  O2-  O314  1  0.23055878  0.62804581  0.02206243  1
  O2-  O315  1  0.22789314  0.61162790  0.51901375  1
  O2-  O316  1  0.74112775  0.11403711  0.02216184  1
  O2-  O317  1  0.72452945  0.11648659  0.51921833  1
  O2-  O318  1  0.73851367  0.61685427  0.02395964  1
  O2-  O319  1  0.73119420  0.62738520  0.51845006  1
