# generated using pymatgen
data_Sr64Ca21Nb43O192
_symmetry_space_group_name_H-M   'P 1'
_cell_length_a   16.54152087
_cell_length_b   16.55514854
_cell_length_c   16.71494060
_cell_angle_alpha   90.00217000
_cell_angle_beta   90.00942241
_cell_angle_gamma   90.00169639
_symmetry_Int_Tables_number   1
_chemical_formula_structural   Sr64Ca21Nb43O192
_chemical_formula_sum   'Sr64 Ca21 Nb43 O192'
_cell_volume   4577.34186956
_cell_formula_units_Z   1
loop_
 _symmetry_equiv_pos_site_id
 _symmetry_equiv_pos_as_xyz
  1  'x, y, z'
loop_
 _atom_type_symbol
 _atom_type_oxidation_number
  Sr2+  2.0
  Ca2+  2.0
  Nb5+  5.0
  O2-  -2.0
loop_
 _atom_site_type_symbol
 _atom_site_label
 _atom_site_symmetry_multiplicity
 _atom_site_fract_x
 _atom_site_fract_y
 _atom_site_fract_z
 _atom_site_occupancy
  Sr2+  Sr0  1  0.12554434  0.11711151  0.12932758  1
  Sr2+  Sr1  1  0.12267118  0.12542390  0.62066043  1
  Sr2+  Sr2  1  0.12643733  0.65037050  0.13449230  1
  Sr2+  Sr3  1  0.11869054  0.62349822  0.61422945  1
  Sr2+  Sr4  1  0.62380159  0.11777660  0.12560534  1
  Sr2+  Sr5  1  0.61565211  0.12065083  0.61830532  1
  Sr2+  Sr6  1  0.62158699  0.61859094  0.13154041  1
  Sr2+  Sr7  1  0.62262897  0.62991304  0.62698116  1
  Sr2+  Sr8  1  0.37468738  0.38301259  0.12381055  1
  Sr2+  Sr9  1  0.36134670  0.37393447  0.62402619  1
  Sr2+  Sr10  1  0.38086975  0.86787160  0.12538132  1
  Sr2+  Sr11  1  0.36906684  0.87059718  0.62510995  1
  Sr2+  Sr12  1  0.87654736  0.37468818  0.12833854  1
  Sr2+  Sr13  1  0.87395714  0.38113345  0.62418700  1
  Sr2+  Sr14  1  0.87161217  0.86491199  0.12281938  1
  Sr2+  Sr15  1  0.86117743  0.87047204  0.61650804  1
  Sr2+  Sr16  1  0.13507476  0.37823259  0.37597421  1
  Sr2+  Sr17  1  0.13698119  0.37377290  0.87546001  1
  Sr2+  Sr18  1  0.12838215  0.86985592  0.37482905  1
  Sr2+  Sr19  1  0.12214054  0.88680473  0.87408647  1
  Sr2+  Sr20  1  0.61552325  0.37344891  0.37736074  1
  Sr2+  Sr21  1  0.63288069  0.38280531  0.87474334  1
  Sr2+  Sr22  1  0.63322527  0.88197418  0.38952555  1
  Sr2+  Sr23  1  0.62839424  0.87094494  0.86912911  1
  Sr2+  Sr24  1  0.37934291  0.12876042  0.38142311  1
  Sr2+  Sr25  1  0.38549344  0.12884032  0.87653498  1
  Sr2+  Sr26  1  0.35930348  0.62438502  0.37917603  1
  Sr2+  Sr27  1  0.38346357  0.63213618  0.86678032  1
  Sr2+  Sr28  1  0.87865758  0.13261009  0.37194169  1
  Sr2+  Sr29  1  0.89169912  0.13266363  0.87614239  1
  Sr2+  Sr30  1  0.89491734  0.61894001  0.37829164  1
  Sr2+  Sr31  1  0.87859091  0.61461101  0.87611409  1
  Sr2+  Sr32  1  0.12812733  0.11434248  0.37431487  1
  Sr2+  Sr33  1  0.12793350  0.12776428  0.87620203  1
  Sr2+  Sr34  1  0.12826396  0.64202805  0.37865353  1
  Sr2+  Sr35  1  0.13703666  0.62434429  0.86510648  1
  Sr2+  Sr36  1  0.62394627  0.12837546  0.38243495  1
  Sr2+  Sr37  1  0.62494266  0.12664059  0.87845144  1
  Sr2+  Sr38  1  0.62913058  0.60873515  0.37378561  1
  Sr2+  Sr39  1  0.62958183  0.61738181  0.86978159  1
  Sr2+  Sr40  1  0.37786527  0.37983844  0.38152222  1
  Sr2+  Sr41  1  0.36985608  0.39654119  0.87919997  1
  Sr2+  Sr42  1  0.37208037  0.87660534  0.37271482  1
  Sr2+  Sr43  1  0.38801211  0.88176861  0.86966086  1
  Sr2+  Sr44  1  0.87929328  0.37825736  0.37254067  1
  Sr2+  Sr45  1  0.88251368  0.36850162  0.87081350  1
  Sr2+  Sr46  1  0.88151280  0.86251767  0.38033025  1
  Sr2+  Sr47  1  0.88234450  0.88001432  0.87883816  1
  Sr2+  Sr48  1  0.13246378  0.36383299  0.12915300  1
  Sr2+  Sr49  1  0.12777062  0.37418629  0.62035518  1
  Sr2+  Sr50  1  0.15109171  0.87953740  0.12665390  1
  Sr2+  Sr51  1  0.11693554  0.86382623  0.62544782  1
  Sr2+  Sr52  1  0.61947744  0.37759542  0.12991152  1
  Sr2+  Sr53  1  0.62351899  0.38003093  0.62002757  1
  Sr2+  Sr54  1  0.62302730  0.86975430  0.12365143  1
  Sr2+  Sr55  1  0.62394787  0.87300457  0.62633460  1
  Sr2+  Sr56  1  0.38098938  0.11588416  0.12508867  1
  Sr2+  Sr57  1  0.37454199  0.11935866  0.61601715  1
  Sr2+  Sr58  1  0.37126308  0.62760912  0.13019652  1
  Sr2+  Sr59  1  0.35346475  0.62561158  0.62508303  1
  Sr2+  Sr60  1  0.86920918  0.12399397  0.12907396  1
  Sr2+  Sr61  1  0.87239745  0.12988363  0.62751938  1
  Sr2+  Sr62  1  0.86931208  0.62035066  0.13423333  1
  Sr2+  Sr63  1  0.87951025  0.62460271  0.61944171  1
  Ca2+  Ca64  1  -0.00014744  0.00125242  0.50052056  1
  Ca2+  Ca65  1  0.49960593  0.50490423  -0.00102490  1
  Ca2+  Ca66  1  -0.00003810  0.49561025  0.49911195  1
  Ca2+  Ca67  1  0.49966268  0.50366919  0.50373245  1
  Ca2+  Ca68  1  0.00415424  0.50153682  0.00182073  1
  Ca2+  Ca69  1  0.75306024  0.25090814  0.50174847  1
  Ca2+  Ca70  1  0.25179417  0.74826811  -0.00525931  1
  Ca2+  Ca71  1  0.24845694  0.24921464  0.49861108  1
  Ca2+  Ca72  1  0.74451972  0.74508573  0.49792353  1
  Ca2+  Ca73  1  0.25122668  0.75415628  0.50215924  1
  Ca2+  Ca74  1  0.50252930  0.24655043  0.24904487  1
  Ca2+  Ca75  1  -0.00375156  0.75186032  0.75317211  1
  Ca2+  Ca76  1  0.24722952  0.50097991  0.24553460  1
  Ca2+  Ca77  1  0.50142084  0.25109979  0.75050103  1
  Ca2+  Ca78  1  0.24757052  0.50041921  0.74909754  1
  Ca2+  Ca79  1  0.24912228  0.00074584  0.75171294  1
  Ca2+  Ca80  1  0.74811870  -0.00122151  0.25267487  1
  Ca2+  Ca81  1  0.25351588  0.00424421  0.24993240  1
  Ca2+  Ca82  1  -0.00351046  0.75260431  0.24514267  1
  Ca2+  Ca83  1  0.74929991  0.00122718  0.75278337  1
  Ca2+  Ca84  1  0.50389399  0.74926437  0.25195409  1
  Nb5+  Nb85  1  0.50749448  -0.00350254  0.00012757  1
  Nb5+  Nb86  1  0.49801930  -0.00283196  0.49811549  1
  Nb5+  Nb87  1  0.00285679  -0.00002438  0.00403642  1
  Nb5+  Nb88  1  0.74934538  0.74149467  -0.00144575  1
  Nb5+  Nb89  1  0.75100736  0.24881469  0.00037472  1
  Nb5+  Nb90  1  0.25444207  0.24723697  0.00037374  1
  Nb5+  Nb91  1  0.50047926  0.74987497  0.74606677  1
  Nb5+  Nb92  1  0.00241673  0.25016917  0.24719009  1
  Nb5+  Nb93  1  0.75162241  0.49644236  0.24733586  1
  Nb5+  Nb94  1  0.75130164  0.49988067  0.74402275  1
  Nb5+  Nb95  1  0.00290633  0.25159316  0.74606818  1
  Nb5+  Nb96  1  -0.00443983  -0.00262891  0.25034421  1
  Nb5+  Nb97  1  -0.00630502  0.00057491  0.74494921  1
  Nb5+  Nb98  1  0.00524561  0.49923809  0.24843694  1
  Nb5+  Nb99  1  0.00328164  0.50017465  0.75171523  1
  Nb5+  Nb100  1  0.50120920  -0.00423594  0.25315399  1
  Nb5+  Nb101  1  0.50333761  0.00216383  0.74712802  1
  Nb5+  Nb102  1  0.49375680  0.50136938  0.25285674  1
  Nb5+  Nb103  1  0.49784934  0.49835865  0.74913351  1
  Nb5+  Nb104  1  0.25610697  0.24734860  0.24939355  1
  Nb5+  Nb105  1  0.25431760  0.24597447  0.75009933  1
  Nb5+  Nb106  1  0.25402812  0.75055669  0.24823723  1
  Nb5+  Nb107  1  0.24425810  0.75465511  0.75213764  1
  Nb5+  Nb108  1  0.75003646  0.25176673  0.25070698  1
  Nb5+  Nb109  1  0.74909964  0.25241889  0.75068305  1
  Nb5+  Nb110  1  0.74706213  0.74780202  0.25404943  1
  Nb5+  Nb111  1  0.75293609  0.74889191  0.75414945  1
  Nb5+  Nb112  1  -0.00029176  0.24901447  0.49248692  1
  Nb5+  Nb113  1  0.00308823  0.25216117  1.00011128  1
  Nb5+  Nb114  1  -0.00113779  0.75166157  0.49964517  1
  Nb5+  Nb115  1  0.00224858  0.75063525  0.99399283  1
  Nb5+  Nb116  1  0.49689265  0.25305529  0.50474902  1
  Nb5+  Nb117  1  0.49986589  0.25265412  1.00048138  1
  Nb5+  Nb118  1  0.50216233  0.74868683  0.49540972  1
  Nb5+  Nb119  1  0.50208400  0.74675469  0.99800661  1
  Nb5+  Nb120  1  0.26011354  0.00163861  -0.00345420  1
  Nb5+  Nb121  1  0.24572991  -0.00494561  0.50320814  1
  Nb5+  Nb122  1  0.24367137  0.50829046  0.00158385  1
  Nb5+  Nb123  1  0.25047910  0.49676877  0.49888126  1
  Nb5+  Nb124  1  0.75559458  -0.00396927  -0.00163782  1
  Nb5+  Nb125  1  0.75358385  0.00413936  0.49849720  1
  Nb5+  Nb126  1  0.75431708  0.49389393  -0.00129244  1
  Nb5+  Nb127  1  0.75068647  0.49810638  0.49317697  1
  O2-  O128  1  -0.01987428  0.02041425  0.11857823  1
  O2-  O129  1  -0.00867975  0.03196832  0.63512617  1
  O2-  O130  1  -0.01976493  0.50231827  0.13452368  1
  O2-  O131  1  -0.01246439  0.50539775  0.63513585  1
  O2-  O132  1  0.48772837  -0.00120961  0.12225975  1
  O2-  O133  1  0.48876834  0.00875142  0.62923521  1
  O2-  O134  1  0.50196790  0.50702393  0.13254475  1
  O2-  O135  1  0.52491615  0.51355781  0.63699945  1
  O2-  O136  1  0.01890111  -0.00832312  0.36338960  1
  O2-  O137  1  0.00469746  -0.00691678  0.88273852  1
  O2-  O138  1  -0.01135804  0.48419373  0.36456839  1
  O2-  O139  1  -0.01766777  0.48443773  0.86700309  1
  O2-  O140  1  0.50749132  -0.01010371  0.37780973  1
  O2-  O141  1  0.51543942  -0.00695867  0.88107052  1
  O2-  O142  1  0.50667826  0.48138784  0.36913012  1
  O2-  O143  1  0.51636670  0.49430481  0.86547016  1
  O2-  O144  1  0.23615068  0.23919634  0.11619219  1
  O2-  O145  1  0.24272990  0.26242736  0.63611189  1
  O2-  O146  1  0.26151095  0.73911014  0.12745772  1
  O2-  O147  1  0.24694138  0.77309352  0.63530920  1
  O2-  O148  1  0.75057150  0.26693669  0.11758393  1
  O2-  O149  1  0.76431673  0.26366257  0.63831842  1
  O2-  O150  1  0.77123290  0.75060450  0.11393401  1
  O2-  O151  1  0.75113566  0.75895903  0.63745767  1
  O2-  O152  1  0.26103903  0.26309980  0.36227049  1
  O2-  O153  1  0.24641873  0.24418902  0.87949796  1
  O2-  O154  1  0.24592664  0.75856524  0.36711295  1
  O2-  O155  1  0.25881713  0.71795938  0.86496124  1
  O2-  O156  1  0.76474818  0.24364630  0.36416726  1
  O2-  O157  1  0.75857213  0.25489177  0.88049114  1
  O2-  O158  1  0.71407980  0.74021543  0.36262173  1
  O2-  O159  1  0.73139832  0.73346495  0.87610304  1
  O2-  O160  1  0.01069119  0.24222009  0.12487975  1
  O2-  O161  1  0.00478146  0.23791315  0.63044121  1
  O2-  O162  1  -0.02771340  0.73643288  0.10771815  1
  O2-  O163  1  0.00535011  0.73520396  0.61935591  1
  O2-  O164  1  0.52016395  0.23781130  0.11332619  1
  O2-  O165  1  0.50539379  0.22726474  0.61986845  1
  O2-  O166  1  0.49664223  0.76015864  0.11286173  1
  O2-  O167  1  0.51016887  0.74630202  0.63073705  1
  O2-  O168  1  0.23701460  -0.00318488  0.38251681  1
  O2-  O169  1  0.22354729  0.00345814  0.88664131  1
  O2-  O170  1  0.25469762  0.49139362  0.37887394  1
  O2-  O171  1  0.22847686  0.49868245  0.88232873  1
  O2-  O172  1  0.72039030  0.01310257  0.38373922  1
  O2-  O173  1  0.72076431  0.00794159  0.88858761  1
  O2-  O174  1  0.74931775  0.50066829  0.37348639  1
  O2-  O175  1  0.74998214  0.50797173  0.87981938  1
  O2-  O176  1  -0.01201611  0.25436788  0.37275489  1
  O2-  O177  1  -0.00225173  0.25792570  0.88085847  1
  O2-  O178  1  0.00405771  0.76646541  0.37858392  1
  O2-  O179  1  0.00061532  0.79097786  0.88387545  1
  O2-  O180  1  0.49607941  0.25103266  0.38400178  1
  O2-  O181  1  0.50378463  0.23303177  0.88566591  1
  O2-  O182  1  0.49393093  0.77297088  0.38483452  1
  O2-  O183  1  0.50153479  0.76446421  0.87512157  1
  O2-  O184  1  0.25714046  0.01520605  0.11295376  1
  O2-  O185  1  0.27342532  0.00098083  0.61981351  1
  O2-  O186  1  0.28064488  0.50276760  0.11322574  1
  O2-  O187  1  0.25236248  0.48374762  0.61872910  1
  O2-  O188  1  0.75247707  0.00625846  0.11442278  1
  O2-  O189  1  0.75952589  -0.01763110  0.61719494  1
  O2-  O190  1  0.75400235  0.49065262  0.12614553  1
  O2-  O191  1  0.75023348  0.48912112  0.62881727  1
  O2-  O192  1  0.11777084  0.27418220  0.25650004  1
  O2-  O193  1  0.11769613  0.27699958  0.75670392  1
  O2-  O194  1  0.13114415  0.77664123  0.23394253  1
  O2-  O195  1  0.13161537  0.77969989  0.76371555  1
  O2-  O196  1  0.63853057  0.28270985  0.25176794  1
  O2-  O197  1  0.63786985  0.28698961  0.75581233  1
  O2-  O198  1  0.63827964  0.75232826  0.21058986  1
  O2-  O199  1  0.62395067  0.76749814  0.75147085  1
  O2-  O200  1  0.36660365  0.22031841  0.23345929  1
  O2-  O201  1  0.36493668  0.21247178  0.74941867  1
  O2-  O202  1  0.36895170  0.71777175  0.25401633  1
  O2-  O203  1  0.38240920  0.72896829  0.74351272  1
  O2-  O204  1  0.87768726  0.23293817  0.23595151  1
  O2-  O205  1  0.87750534  0.23275040  0.75879898  1
  O2-  O206  1  0.86131711  0.71492794  0.26063269  1
  O2-  O207  1  0.86355121  0.71532003  0.76039854  1
  O2-  O208  1  0.26138863  0.36253214  0.22240536  1
  O2-  O209  1  0.27320629  0.36321088  0.76752525  1
  O2-  O210  1  0.27443127  0.86939944  0.23642706  1
  O2-  O211  1  0.27995968  0.86596403  0.77127610  1
  O2-  O212  1  0.77987861  0.37614353  0.25043735  1
  O2-  O213  1  0.77632264  0.38255690  0.76336694  1
  O2-  O214  1  0.77455643  0.86073383  0.25367557  1
  O2-  O215  1  0.77098552  0.86194651  0.77360326  1
  O2-  O216  1  0.21413618  0.13741976  0.25032442  1
  O2-  O217  1  0.21055949  0.13576156  0.75009229  1
  O2-  O218  1  0.21720568  0.63344051  0.25332444  1
  O2-  O219  1  0.22643785  0.63509513  0.72554805  1
  O2-  O220  1  0.73121396  0.13908989  0.23270499  1
  O2-  O221  1  0.72300322  0.13984637  0.75086756  1
  O2-  O222  1  0.73014334  0.61406315  0.23982555  1
  O2-  O223  1  0.72358193  0.61962121  0.74519696  1
  O2-  O224  1  0.11449496  0.46453979  0.24319106  1
  O2-  O225  1  0.11275562  0.46579860  0.74917710  1
  O2-  O226  1  0.11075220  0.98874761  0.22100666  1
  O2-  O227  1  0.10953280  0.97383570  0.74728716  1
  O2-  O228  1  0.63349776  0.47195528  0.25056523  1
  O2-  O229  1  0.63336386  0.47784112  0.75513343  1
  O2-  O230  1  0.61435913  0.95902107  0.24257612  1
  O2-  O231  1  0.61540602  0.96576261  0.74564299  1
  O2-  O232  1  0.38726373  0.03652443  0.25858494  1
  O2-  O233  1  0.38859168  0.01492610  0.77642879  1
  O2-  O234  1  0.38302570  0.53099972  0.25812242  1
  O2-  O235  1  0.38547512  0.52882801  0.75249287  1
  O2-  O236  1  0.88292170  0.03630883  0.25676325  1
  O2-  O237  1  0.88121722  0.03254827  0.76991897  1
  O2-  O238  1  0.86980650  0.51769251  0.25484365  1
  O2-  O239  1  0.86842763  0.52507002  0.74966685  1
  O2-  O240  1  0.47566962  0.38185451  0.23815207  1
  O2-  O241  1  0.47152764  0.38526934  0.74090018  1
  O2-  O242  1  0.46333427  0.88370679  0.24687248  1
  O2-  O243  1  0.47953056  0.87125046  0.74624940  1
  O2-  O244  1  0.97504818  0.36783723  0.24286219  1
  O2-  O245  1  0.97233890  0.36843195  0.74349001  1
  O2-  O246  1  0.96367920  0.88710831  0.23896342  1
  O2-  O247  1  0.96175210  0.88905475  0.73305575  1
  O2-  O248  1  0.01925198  0.13195581  0.25680489  1
  O2-  O249  1  0.01815565  0.13332605  0.76811461  1
  O2-  O250  1  0.02470396  0.61421474  0.25751119  1
  O2-  O251  1  0.02608079  0.61401551  0.76225709  1
  O2-  O252  1  0.53997440  0.11094291  0.25137988  1
  O2-  O253  1  0.53212545  0.11314721  0.75760098  1
  O2-  O254  1  0.53470629  0.61379708  0.25895250  1
  O2-  O255  1  0.52159571  0.63162376  0.76349575  1
  O2-  O256  1  0.13650619  0.45847892  0.01483422  1
  O2-  O257  1  0.13273957  0.46965102  0.50063320  1
  O2-  O258  1  0.11796799  0.98701411  0.01578060  1
  O2-  O259  1  0.13392911  0.96628935  0.51751599  1
  O2-  O260  1  0.63750055  0.47733447  0.00619913  1
  O2-  O261  1  0.63492691  0.46504932  0.49739787  1
  O2-  O262  1  0.62205641  0.98309827  0.01698745  1
  O2-  O263  1  0.61610094  0.97796585  0.51570755  1
  O2-  O264  1  0.37606171  0.01850896  -0.01601283  1
  O2-  O265  1  0.38159645  0.02686320  0.49023336  1
  O2-  O266  1  0.36337824  0.51997776  -0.02777844  1
  O2-  O267  1  0.36783503  0.53372815  0.50255243  1
  O2-  O268  1  0.86888613  0.02214284  -0.01478528  1
  O2-  O269  1  0.86527386  0.02982313  0.48518080  1
  O2-  O270  1  0.86469980  0.53319337  0.00532655  1
  O2-  O271  1  0.86470328  0.53237393  0.50161614  1
  O2-  O272  1  0.47631058  0.36482018  0.00038210  1
  O2-  O273  1  0.47077924  0.36593590  0.51644862  1
  O2-  O274  1  0.48031905  0.87880932  -0.00054433  1
  O2-  O275  1  0.47372781  0.88175837  0.51303237  1
  O2-  O276  1  0.97676568  0.36341366  0.00996826  1
  O2-  O277  1  0.96681713  0.36167878  0.50896299  1
  O2-  O278  1  0.97271115  0.88626508  0.01365767  1
  O2-  O279  1  0.96650670  0.86882832  0.51365988  1
  O2-  O280  1  0.01203886  0.12635976  -0.00900585  1
  O2-  O281  1  0.03663741  0.13445158  0.49201151  1
  O2-  O282  1  0.01676088  0.63990718  -0.03387717  1
  O2-  O283  1  0.02213621  0.63229223  0.48555853  1
  O2-  O284  1  0.51565864  0.11645334  0.00065436  1
  O2-  O285  1  0.52341986  0.11716219  0.49437633  1
  O2-  O286  1  0.53991157  0.63817340  -0.00576679  1
  O2-  O287  1  0.53311770  0.63787003  0.48778825  1
  O2-  O288  1  0.12373115  0.26316393  -0.00434575  1
  O2-  O289  1  0.11466719  0.28284958  0.49684646  1
  O2-  O290  1  0.11283386  0.77771385  0.01508585  1
  O2-  O291  1  0.11648977  0.77937183  0.49848641  1
  O2-  O292  1  0.63035784  0.27255061  -0.00786631  1
  O2-  O293  1  0.61693693  0.27278266  0.50050309  1
  O2-  O294  1  0.63324830  0.78108460  0.00088691  1
  O2-  O295  1  0.61376367  0.78651977  0.50899788  1
  O2-  O296  1  0.37712441  0.22523885  0.00659241  1
  O2-  O297  1  0.38211217  0.21752503  0.50430633  1
  O2-  O298  1  0.38942107  0.71996337  -0.00564674  1
  O2-  O299  1  0.38699359  0.72766221  0.51631374  1
  O2-  O300  1  0.87514758  0.22976911  0.00531466  1
  O2-  O301  1  0.88695767  0.21179675  0.50548173  1
  O2-  O302  1  0.86575900  0.74254231  -0.02724332  1
  O2-  O303  1  0.87941552  0.72599908  0.49069426  1
  O2-  O304  1  0.27614853  0.36379868  -0.00183511  1
  O2-  O305  1  0.28479801  0.38060379  0.49610883  1
  O2-  O306  1  0.26977400  0.88506281  0.00315516  1
  O2-  O307  1  0.28799992  0.88509043  0.49674182  1
  O2-  O308  1  0.77896170  0.37878136  -0.00664937  1
  O2-  O309  1  0.78384768  0.38431554  0.49885489  1
  O2-  O310  1  0.76985219  0.88015411  -0.00511373  1
  O2-  O311  1  0.76736276  0.88371093  0.47884921  1
  O2-  O312  1  0.23728715  0.12645166  -0.00703300  1
  O2-  O313  1  0.22592118  0.11499445  0.50245756  1
  O2-  O314  1  0.20582962  0.61592131  0.00730851  1
  O2-  O315  1  0.22262868  0.61771236  0.50167925  1
  O2-  O316  1  0.73065008  0.13344699  0.00386984  1
  O2-  O317  1  0.71927765  0.11734548  0.51497075  1
  O2-  O318  1  0.72749750  0.62744453  0.00857114  1
  O2-  O319  1  0.71607017  0.61177249  0.51069362  1
