# generated using pymatgen
data_Sr64Ca21Nb43O192
_symmetry_space_group_name_H-M   'P 1'
_cell_length_a   16.59833782
_cell_length_b   16.57363511
_cell_length_c   16.74008989
_cell_angle_alpha   90.00201545
_cell_angle_beta   89.87590794
_cell_angle_gamma   89.96598704
_symmetry_Int_Tables_number   1
_chemical_formula_structural   Sr64Ca21Nb43O192
_chemical_formula_sum   'Sr64 Ca21 Nb43 O192'
_cell_volume   4605.09997148
_cell_formula_units_Z   1
loop_
 _symmetry_equiv_pos_site_id
 _symmetry_equiv_pos_as_xyz
  1  'x, y, z'
loop_
 _atom_type_symbol
 _atom_type_oxidation_number
  Sr2+  2.0
  Ca2+  2.0
  Nb5+  5.0
  O2-  -2.0
loop_
 _atom_site_type_symbol
 _atom_site_label
 _atom_site_symmetry_multiplicity
 _atom_site_fract_x
 _atom_site_fract_y
 _atom_site_fract_z
 _atom_site_occupancy
  Sr2+  Sr0  1  0.12843957  0.12710548  0.12654265  1
  Sr2+  Sr1  1  0.12069895  0.12658641  0.62248964  1
  Sr2+  Sr2  1  0.12619515  0.63233943  0.12491899  1
  Sr2+  Sr3  1  0.12701289  0.62751970  0.62303828  1
  Sr2+  Sr4  1  0.62553806  0.10842727  0.12318280  1
  Sr2+  Sr5  1  0.62891514  0.15841501  0.62234928  1
  Sr2+  Sr6  1  0.62932010  0.60866778  0.12183463  1
  Sr2+  Sr7  1  0.63212798  0.63657212  0.62652231  1
  Sr2+  Sr8  1  0.38574806  0.38782495  0.12127643  1
  Sr2+  Sr9  1  0.38281907  0.38715460  0.62476916  1
  Sr2+  Sr10  1  0.38064668  0.88929544  0.13323681  1
  Sr2+  Sr11  1  0.38762496  0.88808338  0.62713218  1
  Sr2+  Sr12  1  0.86719563  0.37473386  0.12039900  1
  Sr2+  Sr13  1  0.87061088  0.37430798  0.62853880  1
  Sr2+  Sr14  1  0.86592431  0.88456109  0.12369473  1
  Sr2+  Sr15  1  0.86828509  0.88189714  0.62523679  1
  Sr2+  Sr16  1  0.12123084  0.36982553  0.38009761  1
  Sr2+  Sr17  1  0.12397890  0.37217672  0.87088957  1
  Sr2+  Sr18  1  0.12225406  0.87276207  0.37582233  1
  Sr2+  Sr19  1  0.12459613  0.86328526  0.87672480  1
  Sr2+  Sr20  1  0.60593263  0.37016364  0.37318209  1
  Sr2+  Sr21  1  0.61655868  0.35677714  0.86868572  1
  Sr2+  Sr22  1  0.61688509  0.85970965  0.38020033  1
  Sr2+  Sr23  1  0.60596222  0.87306823  0.87283689  1
  Sr2+  Sr24  1  0.35912134  0.11987752  0.37585060  1
  Sr2+  Sr25  1  0.37977276  0.12429642  0.87473424  1
  Sr2+  Sr26  1  0.36747778  0.61706062  0.36467498  1
  Sr2+  Sr27  1  0.36356704  0.62137466  0.87462942  1
  Sr2+  Sr28  1  0.87539027  0.11798932  0.37363181  1
  Sr2+  Sr29  1  0.86757508  0.11997157  0.88564269  1
  Sr2+  Sr30  1  0.87476152  0.62344753  0.37360875  1
  Sr2+  Sr31  1  0.88880127  0.61725227  0.87622761  1
  Sr2+  Sr32  1  0.12062967  0.10854351  0.37306062  1
  Sr2+  Sr33  1  0.12111750  0.10342492  0.87697116  1
  Sr2+  Sr34  1  0.11831232  0.61234224  0.37470984  1
  Sr2+  Sr35  1  0.12413226  0.61308944  0.87590582  1
  Sr2+  Sr36  1  0.61744936  0.12767606  0.37924868  1
  Sr2+  Sr37  1  0.62805873  0.11558765  0.87377025  1
  Sr2+  Sr38  1  0.62833432  0.61120543  0.36378485  1
  Sr2+  Sr39  1  0.61718276  0.62368289  0.87397048  1
  Sr2+  Sr40  1  0.37026554  0.36160565  0.37591617  1
  Sr2+  Sr41  1  0.36149963  0.36119564  0.87488699  1
  Sr2+  Sr42  1  0.36772079  0.87937601  0.37948652  1
  Sr2+  Sr43  1  0.37057110  0.85792331  0.87035157  1
  Sr2+  Sr44  1  0.87676085  0.36093922  0.37271033  1
  Sr2+  Sr45  1  0.87878668  0.37365280  0.87113418  1
  Sr2+  Sr46  1  0.87544362  0.86567814  0.37758866  1
  Sr2+  Sr47  1  0.86734099  0.88417005  0.86934394  1
  Sr2+  Sr48  1  0.12647384  0.37401599  0.12038780  1
  Sr2+  Sr49  1  0.13623496  0.38197924  0.62524492  1
  Sr2+  Sr50  1  0.13213968  0.87674105  0.12485141  1
  Sr2+  Sr51  1  0.11909971  0.88426383  0.63453464  1
  Sr2+  Sr52  1  0.62495284  0.38284085  0.12774391  1
  Sr2+  Sr53  1  0.63017696  0.38737746  0.62474382  1
  Sr2+  Sr54  1  0.62511218  0.87985506  0.11802041  1
  Sr2+  Sr55  1  0.63327720  0.87865435  0.62958310  1
  Sr2+  Sr56  1  0.38916987  0.13361413  0.12759914  1
  Sr2+  Sr57  1  0.38953326  0.13444758  0.61965409  1
  Sr2+  Sr58  1  0.39077840  0.63257718  0.12387079  1
  Sr2+  Sr59  1  0.39194086  0.62929624  0.63172547  1
  Sr2+  Sr60  1  0.85994724  0.13395837  0.12956604  1
  Sr2+  Sr61  1  0.86474734  0.12999123  0.62841879  1
  Sr2+  Sr62  1  0.86698391  0.63215425  0.12430178  1
  Sr2+  Sr63  1  0.85706427  0.62979998  0.62473846  1
  Ca2+  Ca64  1  -0.00184037  -0.00046593  0.00460381  1
  Ca2+  Ca65  1  0.50160285  0.00179349  0.50019243  1
  Ca2+  Ca66  1  0.49782926  0.49785559  -0.00775600  1
  Ca2+  Ca67  1  0.49633688  -0.00062945  -0.00174866  1
  Ca2+  Ca68  1  0.49961918  0.50542105  0.49886547  1
  Ca2+  Ca69  1  0.24698963  0.74929169  0.50140495  1
  Ca2+  Ca70  1  0.74762076  0.25103705  -0.00019911  1
  Ca2+  Ca71  1  0.75038683  0.25491230  0.49741745  1
  Ca2+  Ca72  1  0.75141564  0.74924341  -0.00258091  1
  Ca2+  Ca73  1  0.24786669  0.24924730  0.50024181  1
  Ca2+  Ca74  1  -0.00001462  0.24752400  0.75237947  1
  Ca2+  Ca75  1  0.49683520  0.25039145  0.24845524  1
  Ca2+  Ca76  1  0.49896777  0.25415376  0.74956451  1
  Ca2+  Ca77  1  0.75042495  -0.00226844  0.25598679  1
  Ca2+  Ca78  1  -0.00227115  0.74834727  0.75043842  1
  Ca2+  Ca79  1  0.75513007  0.49633172  0.25051678  1
  Ca2+  Ca80  1  0.74877652  0.00294930  0.74648749  1
  Ca2+  Ca81  1  0.50047926  0.75122495  0.24998833  1
  Ca2+  Ca82  1  0.24816474  0.49962901  0.24716127  1
  Ca2+  Ca83  1  0.75350187  0.50154851  0.75420842  1
  Ca2+  Ca84  1  0.25313760  -0.00296933  0.75117151  1
  Nb5+  Nb85  1  -0.00371104  0.49347334  0.49580252  1
  Nb5+  Nb86  1  0.00169149  0.49863074  0.00001480  1
  Nb5+  Nb87  1  -0.00093339  -0.00459698  0.50108963  1
  Nb5+  Nb88  1  0.24979243  0.74243807  0.00138560  1
  Nb5+  Nb89  1  0.24696564  0.23842548  -0.00138425  1
  Nb5+  Nb90  1  0.74803986  0.75206931  0.49861871  1
  Nb5+  Nb91  1  0.49983900  0.75089545  0.74790013  1
  Nb5+  Nb92  1  0.24788056  0.00168698  0.24712355  1
  Nb5+  Nb93  1  0.25122121  0.49902259  0.74982299  1
  Nb5+  Nb94  1  0.00184021  0.74406671  0.25109041  1
  Nb5+  Nb95  1  0.00171004  0.24149790  0.24957818  1
  Nb5+  Nb96  1  0.00032848  -0.00728262  0.24860173  1
  Nb5+  Nb97  1  -0.00105894  0.00086428  0.75391393  1
  Nb5+  Nb98  1  0.00224303  0.49289102  0.24358263  1
  Nb5+  Nb99  1  0.00295903  0.50211938  0.73863373  1
  Nb5+  Nb100  1  0.50510240  -0.00203255  0.25795459  1
  Nb5+  Nb101  1  0.50388830  0.00804599  0.74338523  1
  Nb5+  Nb102  1  0.49847966  0.50325310  0.24953608  1
  Nb5+  Nb103  1  0.50390640  0.49914197  0.75602500  1
  Nb5+  Nb104  1  0.24930720  0.25310976  0.24597414  1
  Nb5+  Nb105  1  0.24661837  0.24036693  0.74926177  1
  Nb5+  Nb106  1  0.24813945  0.75033296  0.25281272  1
  Nb5+  Nb107  1  0.25119378  0.74587800  0.74386791  1
  Nb5+  Nb108  1  0.74080147  0.25380322  0.24884590  1
  Nb5+  Nb109  1  0.75210039  0.25097391  0.75239994  1
  Nb5+  Nb110  1  0.74655017  0.75556168  0.24641843  1
  Nb5+  Nb111  1  0.74936673  0.75092393  0.75950106  1
  Nb5+  Nb112  1  -0.00082049  0.24339178  0.50209436  1
  Nb5+  Nb113  1  0.00285024  0.24670024  1.00070225  1
  Nb5+  Nb114  1  -0.00202625  0.74313860  0.50334794  1
  Nb5+  Nb115  1  -0.00035494  0.74842314  1.00036812  1
  Nb5+  Nb116  1  0.49749410  0.25481535  0.49865070  1
  Nb5+  Nb117  1  0.50408864  0.25320253  1.00180427  1
  Nb5+  Nb118  1  0.49344865  0.74398968  0.49370345  1
  Nb5+  Nb119  1  0.50229897  0.75303112  1.00368871  1
  Nb5+  Nb120  1  0.25342171  -0.01020835  -0.00118403  1
  Nb5+  Nb121  1  0.24734378  0.00159439  0.50756752  1
  Nb5+  Nb122  1  0.24816720  0.49329579  0.00351157  1
  Nb5+  Nb123  1  0.25312380  0.50318768  0.50010660  1
  Nb5+  Nb124  1  0.74995966  -0.00319617  0.00004117  1
  Nb5+  Nb125  1  0.74567001  0.00129677  0.49568698  1
  Nb5+  Nb126  1  0.74714531  0.49462473  -0.00776858  1
  Nb5+  Nb127  1  0.75120955  0.49851925  0.49677110  1
  O2-  O128  1  0.02635424  -0.00676396  0.13745657  1
  O2-  O129  1  0.02502951  0.00357004  0.61526989  1
  O2-  O130  1  0.02930346  0.49906755  0.13142144  1
  O2-  O131  1  0.02449328  0.50051408  0.62416202  1
  O2-  O132  1  0.51393165  -0.02270224  0.13777719  1
  O2-  O133  1  0.51615430  -0.03196772  0.63109360  1
  O2-  O134  1  0.51462181  0.48136728  0.12874675  1
  O2-  O135  1  0.50639972  0.48214947  0.63777400  1
  O2-  O136  1  -0.01003994  0.00635229  0.37667874  1
  O2-  O137  1  -0.02476245  0.00385891  0.86720631  1
  O2-  O138  1  -0.01975983  0.49974171  0.38063185  1
  O2-  O139  1  -0.01120562  0.49818402  0.88387553  1
  O2-  O140  1  0.46785848  0.02046305  0.36764028  1
  O2-  O141  1  0.48832222  0.02230203  0.86164260  1
  O2-  O142  1  0.48918292  0.53452884  0.36531677  1
  O2-  O143  1  0.48403479  0.53989968  0.86376742  1
  O2-  O144  1  0.25596220  0.22663837  0.12022173  1
  O2-  O145  1  0.25761977  0.21994667  0.63651177  1
  O2-  O146  1  0.25766461  0.73436826  0.12127959  1
  O2-  O147  1  0.26335395  0.71719266  0.63455991  1
  O2-  O148  1  0.77234262  0.25729222  0.13284202  1
  O2-  O149  1  0.77647434  0.25387244  0.63099827  1
  O2-  O150  1  0.77173910  0.75659972  0.13359401  1
  O2-  O151  1  0.76521476  0.75203427  0.61919476  1
  O2-  O152  1  0.23503972  0.27184673  0.36029752  1
  O2-  O153  1  0.23247400  0.26666685  0.88346792  1
  O2-  O154  1  0.23612285  0.77302902  0.36459113  1
  O2-  O155  1  0.23925720  0.76191229  0.88101475  1
  O2-  O156  1  0.73320304  0.24129272  0.36533923  1
  O2-  O157  1  0.72081051  0.24444290  0.86685919  1
  O2-  O158  1  0.73577665  0.74772940  0.37706505  1
  O2-  O159  1  0.71337530  0.75722223  0.86669619  1
  O2-  O160  1  -0.01026950  0.24979006  0.12995992  1
  O2-  O161  1  -0.02407894  0.24254080  0.61388979  1
  O2-  O162  1  -0.00915992  0.74373439  0.13027278  1
  O2-  O163  1  -0.02891283  0.73802174  0.61445294  1
  O2-  O164  1  0.47184259  0.26919189  0.11576615  1
  O2-  O165  1  0.47056722  0.26586047  0.61656375  1
  O2-  O166  1  0.47460447  0.77073117  0.11392862  1
  O2-  O167  1  0.47696307  0.76491384  0.62845582  1
  O2-  O168  1  0.26143808  -0.01220785  0.36577831  1
  O2-  O169  1  0.28272823  -0.01199444  0.88796769  1
  O2-  O170  1  0.27051220  0.48721879  0.38664941  1
  O2-  O171  1  0.26109335  0.48953199  0.87556473  1
  O2-  O172  1  0.78853780  -0.00248009  0.38712661  1
  O2-  O173  1  0.77256036  0.00527549  0.88159308  1
  O2-  O174  1  0.77837879  0.51444468  0.38417675  1
  O2-  O175  1  0.79154414  0.50888431  0.88442455  1
  O2-  O176  1  0.02161263  0.25710624  0.36674406  1
  O2-  O177  1  0.01577500  0.26631879  0.88882319  1
  O2-  O178  1  0.01755181  0.75263446  0.37276664  1
  O2-  O179  1  0.02421043  0.74233886  0.88784483  1
  O2-  O180  1  0.52365825  0.24251156  0.38124322  1
  O2-  O181  1  0.51526112  0.22680939  0.88443815  1
  O2-  O182  1  0.52925534  0.72803093  0.38529321  1
  O2-  O183  1  0.51437624  0.73541641  0.86806034  1
  O2-  O184  1  0.21963182  0.00414909  0.12786721  1
  O2-  O185  1  0.21612040  0.00930386  0.61723129  1
  O2-  O186  1  0.21787498  0.50847434  0.11367652  1
  O2-  O187  1  0.22628250  0.51429460  0.63432882  1
  O2-  O188  1  0.73108935  -0.01539743  0.12104010  1
  O2-  O189  1  0.74908067  -0.01988224  0.60993316  1
  O2-  O190  1  0.73713139  0.48568095  0.11362156  1
  O2-  O191  1  0.73753616  0.50575040  0.61555778  1
  O2-  O192  1  0.12497515  0.26469267  0.22891956  1
  O2-  O193  1  0.13579380  0.27955968  0.73972323  1
  O2-  O194  1  0.12065921  0.77311681  0.23443235  1
  O2-  O195  1  0.13672608  0.76597034  0.73655524  1
  O2-  O196  1  0.63141472  0.28368501  0.23596594  1
  O2-  O197  1  0.63336361  0.28296251  0.72759111  1
  O2-  O198  1  0.63598606  0.78659004  0.23968973  1
  O2-  O199  1  0.61824155  0.76748599  0.72949763  1
  O2-  O200  1  0.36008317  0.22152657  0.26086999  1
  O2-  O201  1  0.36197767  0.24144907  0.77471166  1
  O2-  O202  1  0.36186928  0.73042583  0.25929811  1
  O2-  O203  1  0.37636816  0.72601227  0.76599152  1
  O2-  O204  1  0.88741431  0.22658292  0.26566482  1
  O2-  O205  1  0.86719868  0.22216267  0.77694005  1
  O2-  O206  1  0.88538652  0.72966561  0.26538579  1
  O2-  O207  1  0.86251874  0.73090587  0.78020999  1
  O2-  O208  1  0.26780418  0.36409230  0.22081776  1
  O2-  O209  1  0.26816483  0.38165414  0.73817616  1
  O2-  O210  1  0.25775287  0.87600434  0.22960860  1
  O2-  O211  1  0.27749953  0.85921421  0.73791520  1
  O2-  O212  1  0.78752315  0.36430879  0.25675553  1
  O2-  O213  1  0.78266914  0.36893636  0.75476891  1
  O2-  O214  1  0.78857361  0.86529493  0.25844708  1
  O2-  O215  1  0.77053278  0.86588051  0.74343651  1
  O2-  O216  1  0.22359223  0.11976976  0.25729633  1
  O2-  O217  1  0.22988143  0.13139084  0.77893173  1
  O2-  O218  1  0.22023496  0.63727348  0.26169948  1
  O2-  O219  1  0.23576569  0.62262200  0.77326541  1
  O2-  O220  1  0.73305354  0.13393991  0.23689440  1
  O2-  O221  1  0.72326468  0.13450327  0.73664243  1
  O2-  O222  1  0.73358217  0.63663004  0.24541176  1
  O2-  O223  1  0.72666164  0.63641552  0.74247943  1
  O2-  O224  1  0.11356233  0.48754759  0.28277913  1
  O2-  O225  1  0.12808430  0.48192895  0.76632267  1
  O2-  O226  1  0.12228133  0.98339693  0.27232467  1
  O2-  O227  1  0.11798914  0.97006396  0.77236352  1
  O2-  O228  1  0.61823938  0.48212005  0.26687237  1
  O2-  O229  1  0.61697381  0.48475232  0.77233346  1
  O2-  O230  1  0.61533636  0.98185565  0.28520481  1
  O2-  O231  1  0.61638785  0.97512516  0.76542482  1
  O2-  O232  1  0.36165785  0.01695419  0.22941564  1
  O2-  O233  1  0.38485168  0.01461332  0.72225102  1
  O2-  O234  1  0.38007784  0.52786444  0.23019863  1
  O2-  O235  1  0.36760291  0.52004203  0.73690832  1
  O2-  O236  1  0.88997966  0.02499944  0.23634147  1
  O2-  O237  1  0.88693315  0.02074781  0.72415574  1
  O2-  O238  1  0.89246316  0.52947034  0.23658314  1
  O2-  O239  1  0.89081515  0.53002239  0.73386048  1
  O2-  O240  1  0.47233734  0.38730304  0.27038006  1
  O2-  O241  1  0.47630800  0.38904482  0.77870772  1
  O2-  O242  1  0.46816479  0.88372616  0.26911596  1
  O2-  O243  1  0.47913059  0.86689362  0.76605463  1
  O2-  O244  1  0.98426918  0.37721352  0.24810759  1
  O2-  O245  1  0.98208233  0.38677286  0.75064014  1
  O2-  O246  1  0.98321614  0.87614480  0.25574164  1
  O2-  O247  1  0.98237467  0.88301494  0.73360727  1
  O2-  O248  1  0.02576893  0.12659620  0.25041033  1
  O2-  O249  1  0.03585784  0.11429116  0.74571124  1
  O2-  O250  1  0.02532753  0.62893549  0.25285846  1
  O2-  O251  1  0.03092169  0.61530313  0.75777535  1
  O2-  O252  1  0.51525358  0.11460544  0.23184969  1
  O2-  O253  1  0.51987417  0.11961724  0.71997513  1
  O2-  O254  1  0.52316261  0.62113694  0.22286227  1
  O2-  O255  1  0.51657833  0.62925151  0.72851102  1
  O2-  O256  1  0.12621728  0.48261649  -0.02092836  1
  O2-  O257  1  0.11618080  0.48173105  0.48663491  1
  O2-  O258  1  0.13579328  0.97969179  -0.02222391  1
  O2-  O259  1  0.12066670  0.98300784  0.47887147  1
  O2-  O260  1  0.63655063  0.47549283  -0.03246618  1
  O2-  O261  1  0.63807378  0.48634308  0.47667054  1
  O2-  O262  1  0.63275472  0.97181147  -0.01533314  1
  O2-  O263  1  0.63664571  0.97703661  0.47254544  1
  O2-  O264  1  0.36116197  0.01693861  0.03487555  1
  O2-  O265  1  0.36172843  0.02126746  0.52052525  1
  O2-  O266  1  0.36001886  0.52144542  0.01670030  1
  O2-  O267  1  0.36185531  0.52780790  0.52367195  1
  O2-  O268  1  0.86732227  0.02707512  0.02558689  1
  O2-  O269  1  0.88670984  0.02566397  0.51607944  1
  O2-  O270  1  0.89076166  0.51841760  0.02626781  1
  O2-  O271  1  0.88576926  0.52389867  0.52364805  1
  O2-  O272  1  0.46748277  0.36546014  -0.02297299  1
  O2-  O273  1  0.47338606  0.37325626  0.48030826  1
  O2-  O274  1  0.47781976  0.86447776  -0.02992837  1
  O2-  O275  1  0.48489761  0.86228816  0.48268357  1
  O2-  O276  1  0.99348002  0.37883201  0.01624901  1
  O2-  O277  1  0.97742303  0.37889693  0.50187224  1
  O2-  O278  1  0.98119071  0.86161482  0.00275585  1
  O2-  O279  1  0.97927338  0.87932256  0.49989499  1
  O2-  O280  1  0.03269298  0.13503396  0.00147355  1
  O2-  O281  1  0.02366865  0.12854814  0.49446439  1
  O2-  O282  1  0.02860508  0.61748599  0.00783271  1
  O2-  O283  1  0.01772024  0.62733154  0.49363422  1
  O2-  O284  1  0.50991864  0.13490865  0.02441157  1
  O2-  O285  1  0.52399917  0.13655472  0.51527525  1
  O2-  O286  1  0.51371560  0.63513387  0.01288744  1
  O2-  O287  1  0.51958003  0.63661388  0.53289498  1
  O2-  O288  1  0.12919092  0.26898946  0.01898148  1
  O2-  O289  1  0.11163550  0.27801801  0.51085091  1
  O2-  O290  1  0.12802127  0.76399062  0.01841332  1
  O2-  O291  1  0.10899444  0.77439636  0.52073271  1
  O2-  O292  1  0.61379365  0.28353219  0.01547129  1
  O2-  O293  1  0.61589889  0.28285841  0.51997981  1
  O2-  O294  1  0.61488300  0.77064629  0.01575129  1
  O2-  O295  1  0.63267899  0.76882471  0.51560921  1
  O2-  O296  1  0.36292385  0.23074993  -0.01590529  1
  O2-  O297  1  0.38034866  0.22960741  0.47590826  1
  O2-  O298  1  0.36728585  0.73086702  -0.01407721  1
  O2-  O299  1  0.38218534  0.72359717  0.47518109  1
  O2-  O300  1  0.88890651  0.22780260  -0.00614610  1
  O2-  O301  1  0.88804817  0.23740955  0.46598400  1
  O2-  O302  1  0.88973907  0.71499480  -0.00774014  1
  O2-  O303  1  0.87868387  0.73943423  0.47517887  1
  O2-  O304  1  0.26411613  0.37692899  0.01291526  1
  O2-  O305  1  0.25815042  0.38741355  0.52829422  1
  O2-  O306  1  0.26493783  0.87229143  0.01571429  1
  O2-  O307  1  0.26704146  0.88476243  0.50610100  1
  O2-  O308  1  0.78832782  0.38237792  -0.00854459  1
  O2-  O309  1  0.78439862  0.38825128  0.49966113  1
  O2-  O310  1  0.78665338  0.88083386  -0.00474357  1
  O2-  O311  1  0.77451636  0.86837047  0.49353331  1
  O2-  O312  1  0.22839981  0.12333617  -0.01296307  1
  O2-  O313  1  0.22767461  0.11474261  0.47528915  1
  O2-  O314  1  0.22942206  0.62657821  -0.01201335  1
  O2-  O315  1  0.21343759  0.61457904  0.49174820  1
  O2-  O316  1  0.72283058  0.11567850  0.00384590  1
  O2-  O317  1  0.73081443  0.11593379  0.50484239  1
  O2-  O318  1  0.73430879  0.61342152  0.00655918  1
  O2-  O319  1  0.74669645  0.63092251  0.50297225  1
