# generated using pymatgen
data_Sr64Ca21Nb43O192
_symmetry_space_group_name_H-M   'P 1'
_cell_length_a   16.62219577
_cell_length_b   16.62701668
_cell_length_c   16.69850846
_cell_angle_alpha   90.06118542
_cell_angle_beta   89.96870545
_cell_angle_gamma   90.15158803
_symmetry_Int_Tables_number   1
_chemical_formula_structural   Sr64Ca21Nb43O192
_chemical_formula_sum   'Sr64 Ca21 Nb43 O192'
_cell_volume   4615.07299926
_cell_formula_units_Z   1
loop_
 _symmetry_equiv_pos_site_id
 _symmetry_equiv_pos_as_xyz
  1  'x, y, z'
loop_
 _atom_type_symbol
 _atom_type_oxidation_number
  Sr2+  2.0
  Ca2+  2.0
  Nb5+  5.0
  O2-  -2.0
loop_
 _atom_site_type_symbol
 _atom_site_label
 _atom_site_symmetry_multiplicity
 _atom_site_fract_x
 _atom_site_fract_y
 _atom_site_fract_z
 _atom_site_occupancy
  Sr2+  Sr0  1  0.13326658  0.12858220  0.12053314  1
  Sr2+  Sr1  1  0.13087220  0.12501285  0.61864728  1
  Sr2+  Sr2  1  0.12683385  0.61442562  0.13209335  1
  Sr2+  Sr3  1  0.13126764  0.60946488  0.62263942  1
  Sr2+  Sr4  1  0.62960890  0.11255047  0.13047479  1
  Sr2+  Sr5  1  0.63647748  0.11649098  0.62845606  1
  Sr2+  Sr6  1  0.63462124  0.61951278  0.11368061  1
  Sr2+  Sr7  1  0.63342062  0.61404303  0.62462454  1
  Sr2+  Sr8  1  0.37804477  0.35569883  0.12839259  1
  Sr2+  Sr9  1  0.37379616  0.36695563  0.63074536  1
  Sr2+  Sr10  1  0.37442204  0.87595521  0.11309021  1
  Sr2+  Sr11  1  0.38173237  0.86288986  0.62282707  1
  Sr2+  Sr12  1  0.88677523  0.36368115  0.12484607  1
  Sr2+  Sr13  1  0.88566182  0.36043705  0.63120363  1
  Sr2+  Sr14  1  0.87845592  0.86508144  0.12489784  1
  Sr2+  Sr15  1  0.88068192  0.87539429  0.62707751  1
  Sr2+  Sr16  1  0.11942703  0.38462794  0.38118806  1
  Sr2+  Sr17  1  0.10730882  0.38329930  0.87814242  1
  Sr2+  Sr18  1  0.11605070  0.87990548  0.36777906  1
  Sr2+  Sr19  1  0.12390964  0.88037741  0.87238867  1
  Sr2+  Sr20  1  0.61564101  0.37586743  0.36915910  1
  Sr2+  Sr21  1  0.62857780  0.37726226  0.87738400  1
  Sr2+  Sr22  1  0.61699074  0.87953147  0.37404043  1
  Sr2+  Sr23  1  0.61383471  0.87693345  0.86760010  1
  Sr2+  Sr24  1  0.36305400  0.13475162  0.37732465  1
  Sr2+  Sr25  1  0.36076840  0.12410593  0.88036529  1
  Sr2+  Sr26  1  0.37046212  0.62839345  0.37187608  1
  Sr2+  Sr27  1  0.37190697  0.63190429  0.87108939  1
  Sr2+  Sr28  1  0.85873343  0.13008655  0.38005103  1
  Sr2+  Sr29  1  0.86244551  0.13835426  0.87045610  1
  Sr2+  Sr30  1  0.86408490  0.63752691  0.37333030  1
  Sr2+  Sr31  1  0.85291942  0.62918678  0.87710076  1
  Sr2+  Sr32  1  0.11371343  0.13310676  0.37924066  1
  Sr2+  Sr33  1  0.11580426  0.14403317  0.87986922  1
  Sr2+  Sr34  1  0.11986240  0.63570462  0.37056025  1
  Sr2+  Sr35  1  0.12253652  0.62962963  0.87103308  1
  Sr2+  Sr36  1  0.61737006  0.14018299  0.37138168  1
  Sr2+  Sr37  1  0.61983955  0.14276909  0.87082209  1
  Sr2+  Sr38  1  0.62317820  0.61563268  0.37826886  1
  Sr2+  Sr39  1  0.61535146  0.62717078  0.88057426  1
  Sr2+  Sr40  1  0.36941650  0.38944764  0.37142366  1
  Sr2+  Sr41  1  0.36318476  0.39052091  0.87744452  1
  Sr2+  Sr42  1  0.36881887  0.88440530  0.38668529  1
  Sr2+  Sr43  1  0.37126304  0.88070175  0.87107983  1
  Sr2+  Sr44  1  0.85704508  0.38855642  0.37328795  1
  Sr2+  Sr45  1  0.86766120  0.38048786  0.86786766  1
  Sr2+  Sr46  1  0.87175347  0.88296786  0.37290654  1
  Sr2+  Sr47  1  0.86939492  0.89005649  0.87050694  1
  Sr2+  Sr48  1  0.13093006  0.36962269  0.12561115  1
  Sr2+  Sr49  1  0.12559073  0.36763985  0.63405176  1
  Sr2+  Sr50  1  0.13116679  0.86281748  0.12809388  1
  Sr2+  Sr51  1  0.11829047  0.87274996  0.62055475  1
  Sr2+  Sr52  1  0.63232827  0.35761546  0.12760742  1
  Sr2+  Sr53  1  0.63568931  0.36915896  0.63373123  1
  Sr2+  Sr54  1  0.63147512  0.87540867  0.12162971  1
  Sr2+  Sr55  1  0.63104397  0.86689585  0.62526660  1
  Sr2+  Sr56  1  0.39027716  0.11850505  0.12624048  1
  Sr2+  Sr57  1  0.38458686  0.12123024  0.61800365  1
  Sr2+  Sr58  1  0.38048699  0.61591640  0.12221105  1
  Sr2+  Sr59  1  0.38421430  0.61850159  0.63089207  1
  Sr2+  Sr60  1  0.88777132  0.11766998  0.12142512  1
  Sr2+  Sr61  1  0.89280245  0.11686323  0.63008655  1
  Sr2+  Sr62  1  0.88504199  0.61856059  0.12316612  1
  Sr2+  Sr63  1  0.89165726  0.61933380  0.61553449  1
  Ca2+  Ca64  1  0.49577567  0.49933444  -0.00006560  1
  Ca2+  Ca65  1  -0.00204305  0.50231133  -0.00094980  1
  Ca2+  Ca66  1  0.49824398  0.49927177  0.50255627  1
  Ca2+  Ca67  1  -0.00044405  0.49859446  0.49739727  1
  Ca2+  Ca68  1  0.00214066  0.00095755  0.00098930  1
  Ca2+  Ca69  1  0.74966199  0.24780226  0.00320958  1
  Ca2+  Ca70  1  0.25138451  0.25383739  -0.00319538  1
  Ca2+  Ca71  1  0.25018818  0.74859864  0.49999978  1
  Ca2+  Ca72  1  0.74904465  0.24995149  0.50131614  1
  Ca2+  Ca73  1  0.24959059  0.25344944  0.49813904  1
  Ca2+  Ca74  1  0.00239626  0.24772553  0.75024422  1
  Ca2+  Ca75  1  0.75383960  -0.00065249  0.25329572  1
  Ca2+  Ca76  1  0.00024027  0.24939799  0.25305892  1
  Ca2+  Ca77  1  0.25205864  -0.00222681  0.74730091  1
  Ca2+  Ca78  1  0.75175074  -0.00045958  0.75299119  1
  Ca2+  Ca79  1  0.74728202  0.50149472  0.24808202  1
  Ca2+  Ca80  1  0.49479760  0.24960916  0.75130870  1
  Ca2+  Ca81  1  0.25144249  -0.00285174  0.25010786  1
  Ca2+  Ca82  1  0.50007762  0.75073618  0.24650105  1
  Ca2+  Ca83  1  0.75072149  0.50338327  0.74957740  1
  Ca2+  Ca84  1  -0.00189592  0.74820064  0.74926679  1
  Nb5+  Nb85  1  -0.00491987  0.00043176  0.49727307  1
  Nb5+  Nb86  1  0.50550808  0.00274949  -0.00983965  1
  Nb5+  Nb87  1  0.50025094  0.00324304  0.49479856  1
  Nb5+  Nb88  1  0.74642736  0.75635122  -0.00692517  1
  Nb5+  Nb89  1  0.24186865  0.74791287  -0.00301996  1
  Nb5+  Nb90  1  0.74996946  0.75305829  0.49477330  1
  Nb5+  Nb91  1  0.24828345  0.49927364  0.75679022  1
  Nb5+  Nb92  1  0.49695992  0.24826895  0.24958099  1
  Nb5+  Nb93  1  -0.00207027  0.75001056  0.24802939  1
  Nb5+  Nb94  1  0.50310677  0.74876598  0.74768113  1
  Nb5+  Nb95  1  0.24769786  0.49934057  0.25408747  1
  Nb5+  Nb96  1  0.00215039  0.00098549  0.24681111  1
  Nb5+  Nb97  1  0.00860153  -0.00020240  0.75727626  1
  Nb5+  Nb98  1  -0.00605234  0.49817450  0.25624828  1
  Nb5+  Nb99  1  -0.00553732  0.50488000  0.75153548  1
  Nb5+  Nb100  1  0.49758018  -0.00464747  0.24618035  1
  Nb5+  Nb101  1  0.50021486  -0.00034020  0.73965596  1
  Nb5+  Nb102  1  0.50142371  0.50061512  0.24205099  1
  Nb5+  Nb103  1  0.49779942  0.49482986  0.75216564  1
  Nb5+  Nb104  1  0.24467224  0.24821923  0.25253848  1
  Nb5+  Nb105  1  0.24959697  0.24434370  0.75225793  1
  Nb5+  Nb106  1  0.25493660  0.74750884  0.24769168  1
  Nb5+  Nb107  1  0.25003988  0.74934824  0.74777569  1
  Nb5+  Nb108  1  0.75521925  0.24717567  0.24713432  1
  Nb5+  Nb109  1  0.74808644  0.25088575  0.74824627  1
  Nb5+  Nb110  1  0.74570232  0.75272286  0.24329675  1
  Nb5+  Nb111  1  0.75247808  0.74558665  0.74034377  1
  Nb5+  Nb112  1  -0.00580898  0.25369377  0.49353136  1
  Nb5+  Nb113  1  -0.00267092  0.25132355  1.00070361  1
  Nb5+  Nb114  1  0.00348747  0.75262106  0.49800280  1
  Nb5+  Nb115  1  -0.00818300  0.74619863  0.99439037  1
  Nb5+  Nb116  1  0.49858717  0.25796678  0.50035382  1
  Nb5+  Nb117  1  0.49466639  0.25092821  0.99484324  1
  Nb5+  Nb118  1  0.50479775  0.74683637  0.49783480  1
  Nb5+  Nb119  1  0.49529765  0.75397882  1.00079216  1
  Nb5+  Nb120  1  0.24562001  -0.00057909  0.00305148  1
  Nb5+  Nb121  1  0.24170320  -0.00150622  0.50063770  1
  Nb5+  Nb122  1  0.25056566  0.50115943  0.00856697  1
  Nb5+  Nb123  1  0.25288085  0.50222211  0.50899182  1
  Nb5+  Nb124  1  0.75138418  0.00382669  -0.00339057  1
  Nb5+  Nb125  1  0.74340001  -0.00136729  0.50218092  1
  Nb5+  Nb126  1  0.75241365  0.49527289  0.00615959  1
  Nb5+  Nb127  1  0.75189981  0.49696322  0.50591202  1
  O2-  O128  1  -0.02953932  -0.01689822  0.13714879  1
  O2-  O129  1  -0.01109208  -0.01988106  0.61556307  1
  O2-  O130  1  -0.01756745  0.49168385  0.13860794  1
  O2-  O131  1  -0.02188176  0.48542061  0.63263270  1
  O2-  O132  1  0.48242770  -0.01633008  0.13084185  1
  O2-  O133  1  0.47848327  -0.01798095  0.62597960  1
  O2-  O134  1  0.46195206  0.48228331  0.13247792  1
  O2-  O135  1  0.46840458  0.49065890  0.63736123  1
  O2-  O136  1  0.02840111  0.00473593  0.38100523  1
  O2-  O137  1  0.03846513  0.01133325  0.86802270  1
  O2-  O138  1  0.03616907  0.51497450  0.36527934  1
  O2-  O139  1  0.03187350  0.51482153  0.86456114  1
  O2-  O140  1  0.52801473  0.01336729  0.38307536  1
  O2-  O141  1  0.52775648  0.01401904  0.87837573  1
  O2-  O142  1  0.50844741  0.51105436  0.36095954  1
  O2-  O143  1  0.50267903  0.52989051  0.86455522  1
  O2-  O144  1  0.23201105  0.24986926  0.13390250  1
  O2-  O145  1  0.22000699  0.24865126  0.63393735  1
  O2-  O146  1  0.23135876  0.73109711  0.11643390  1
  O2-  O147  1  0.24259627  0.72587252  0.63588679  1
  O2-  O148  1  0.71707361  0.23172833  0.13590863  1
  O2-  O149  1  0.71634614  0.24011588  0.63250524  1
  O2-  O150  1  0.73820055  0.73771432  0.12773948  1
  O2-  O151  1  0.72914428  0.73629792  0.62736084  1
  O2-  O152  1  0.28054420  0.26942208  0.36181434  1
  O2-  O153  1  0.28829921  0.26306370  0.86376346  1
  O2-  O154  1  0.26981168  0.75967499  0.36151277  1
  O2-  O155  1  0.26863200  0.75757248  0.87893745  1
  O2-  O156  1  0.76095924  0.27225550  0.36472973  1
  O2-  O157  1  0.76811010  0.26698545  0.86795269  1
  O2-  O158  1  0.76075900  0.76925011  0.38076177  1
  O2-  O159  1  0.76994981  0.76988709  0.88155580  1
  O2-  O160  1  0.01420000  0.27695012  0.11904490  1
  O2-  O161  1  0.01496724  0.26541184  0.61180622  1
  O2-  O162  1  0.00633121  0.77216328  0.13115730  1
  O2-  O163  1  0.00087234  0.77477880  0.61251787  1
  O2-  O164  1  0.51059842  0.26210646  0.12575873  1
  O2-  O165  1  0.51074386  0.28070217  0.61234818  1
  O2-  O166  1  0.50714481  0.78375069  0.11191639  1
  O2-  O167  1  0.50975071  0.77215058  0.62957259  1
  O2-  O168  1  0.24476509  -0.03204494  0.38445908  1
  O2-  O169  1  0.24573831  -0.02917791  0.88849121  1
  O2-  O170  1  0.23804213  0.48462432  0.36833994  1
  O2-  O171  1  0.23246511  0.48672063  0.87197574  1
  O2-  O172  1  0.74157894  -0.03566183  0.39019082  1
  O2-  O173  1  0.73322581  -0.03780081  0.88769553  1
  O2-  O174  1  0.72254795  0.48718431  0.38771806  1
  O2-  O175  1  0.74176560  0.48012726  0.88712809  1
  O2-  O176  1  -0.01823974  0.21204171  0.38237141  1
  O2-  O177  1  -0.01530308  0.22190920  0.88354610  1
  O2-  O178  1  -0.01310387  0.73518162  0.37408908  1
  O2-  O179  1  -0.01469740  0.71757226  0.88470532  1
  O2-  O180  1  0.48492891  0.22601105  0.36620514  1
  O2-  O181  1  0.48350125  0.21229669  0.88586866  1
  O2-  O182  1  0.50214036  0.72683965  0.38404258  1
  O2-  O183  1  0.49705900  0.73660071  0.87376877  1
  O2-  O184  1  0.28455265  0.00797070  0.11414026  1
  O2-  O185  1  0.26486732  0.03080628  0.61348308  1
  O2-  O186  1  0.26012727  0.52509115  0.12257961  1
  O2-  O187  1  0.26476888  0.52101007  0.62454423  1
  O2-  O188  1  0.76316500  0.01708739  0.11504003  1
  O2-  O189  1  0.77430932  0.01411767  0.61556089  1
  O2-  O190  1  0.75888238  0.53728358  0.11843774  1
  O2-  O191  1  0.76710041  0.53718281  0.61720491  1
  O2-  O192  1  0.13532406  0.28062948  0.27058492  1
  O2-  O193  1  0.13724650  0.27691722  0.77682776  1
  O2-  O194  1  0.12326456  0.76215602  0.26023364  1
  O2-  O195  1  0.13775233  0.76907162  0.76710860  1
  O2-  O196  1  0.61450721  0.26791905  0.26377227  1
  O2-  O197  1  0.62854319  0.27482450  0.77220673  1
  O2-  O198  1  0.63521139  0.78156249  0.25548934  1
  O2-  O199  1  0.62235232  0.76868134  0.75957934  1
  O2-  O200  1  0.37611303  0.23130741  0.22902490  1
  O2-  O201  1  0.36375050  0.23620509  0.71379372  1
  O2-  O202  1  0.36548270  0.71948748  0.22941634  1
  O2-  O203  1  0.38240477  0.72856694  0.74291200  1
  O2-  O204  1  0.86630150  0.22514599  0.22670031  1
  O2-  O205  1  0.86530756  0.22820660  0.72954098  1
  O2-  O206  1  0.87938562  0.72809123  0.23825531  1
  O2-  O207  1  0.86348116  0.71771335  0.73277014  1
  O2-  O208  1  0.26979710  0.38575775  0.23093974  1
  O2-  O209  1  0.27102571  0.38570076  0.73910709  1
  O2-  O210  1  0.26552181  0.85924463  0.22082992  1
  O2-  O211  1  0.28187368  0.86055333  0.73842662  1
  O2-  O212  1  0.76745829  0.36674101  0.22786257  1
  O2-  O213  1  0.76987811  0.36984515  0.72948575  1
  O2-  O214  1  0.78398576  0.86363820  0.24094385  1
  O2-  O215  1  0.77170542  0.86135692  0.73971937  1
  O2-  O216  1  0.22571744  0.13488668  0.26351120  1
  O2-  O217  1  0.23063037  0.13244858  0.77297076  1
  O2-  O218  1  0.22635416  0.62403048  0.25931804  1
  O2-  O219  1  0.23760907  0.62567576  0.77057456  1
  O2-  O220  1  0.73065125  0.13261502  0.27613217  1
  O2-  O221  1  0.72591263  0.13230992  0.76675687  1
  O2-  O222  1  0.73415704  0.64034901  0.27703898  1
  O2-  O223  1  0.72426649  0.63824500  0.78100573  1
  O2-  O224  1  0.13032371  0.48561332  0.22906741  1
  O2-  O225  1  0.13468645  0.48932393  0.72639248  1
  O2-  O226  1  0.11549958  0.96502868  0.23785094  1
  O2-  O227  1  0.12070001  0.96572301  0.73082133  1
  O2-  O228  1  0.61145926  0.47073553  0.22826083  1
  O2-  O229  1  0.61204755  0.48242728  0.73673177  1
  O2-  O230  1  0.61594878  0.98231816  0.23766703  1
  O2-  O231  1  0.61513719  0.97317556  0.73501626  1
  O2-  O232  1  0.38746652  0.02526790  0.27482870  1
  O2-  O233  1  0.38975591  0.01177261  0.77852346  1
  O2-  O234  1  0.36671407  0.52418549  0.26308563  1
  O2-  O235  1  0.36757504  0.52429647  0.76346077  1
  O2-  O236  1  0.89077825  0.01474116  0.28483288  1
  O2-  O237  1  0.88951311  0.02203524  0.77112374  1
  O2-  O238  1  0.88331104  0.52376537  0.27712017  1
  O2-  O239  1  0.88449542  0.52455683  0.77615201  1
  O2-  O240  1  0.47612833  0.36796469  0.26160364  1
  O2-  O241  1  0.47430425  0.38506899  0.77570197  1
  O2-  O242  1  0.47889059  0.88498266  0.27838042  1
  O2-  O243  1  0.48394839  0.87070321  0.76517958  1
  O2-  O244  1  0.97761460  0.38506904  0.27335090  1
  O2-  O245  1  0.98721081  0.38492890  0.76539822  1
  O2-  O246  1  0.98369793  0.86703470  0.26955838  1
  O2-  O247  1  0.97683407  0.88243942  0.76383832  1
  O2-  O248  1  0.02883694  0.11230277  0.23184800  1
  O2-  O249  1  0.02642714  0.11230610  0.72414851  1
  O2-  O250  1  0.01759357  0.63038437  0.23850348  1
  O2-  O251  1  0.02575226  0.61727554  0.72518710  1
  O2-  O252  1  0.51711343  0.12494774  0.23345377  1
  O2-  O253  1  0.51825464  0.11317244  0.72503036  1
  O2-  O254  1  0.52095401  0.61392148  0.22269724  1
  O2-  O255  1  0.51770092  0.63192849  0.73018108  1
  O2-  O256  1  0.13450954  0.48406858  0.01557534  1
  O2-  O257  1  0.13699650  0.46964665  0.51797805  1
  O2-  O258  1  0.13655313  0.98203015  0.03268566  1
  O2-  O259  1  0.12750502  0.98084700  0.51563701  1
  O2-  O260  1  0.63185347  0.49584362  0.01340847  1
  O2-  O261  1  0.63333867  0.48773400  0.53045361  1
  O2-  O262  1  0.62006144  0.98150177  0.02128166  1
  O2-  O263  1  0.62800397  0.98243620  0.52484900  1
  O2-  O264  1  0.38615145  0.00641356  -0.01653872  1
  O2-  O265  1  0.38575857  0.01552252  0.48273585  1
  O2-  O266  1  0.36193527  0.52970747  -0.02073937  1
  O2-  O267  1  0.36586426  0.53396089  0.48281194  1
  O2-  O268  1  0.86545724  0.01475880  -0.02429684  1
  O2-  O269  1  0.87997226  0.01214662  0.48184887  1
  O2-  O270  1  0.86466759  0.53183046  -0.01128335  1
  O2-  O271  1  0.86348890  0.52890529  0.47553665  1
  O2-  O272  1  0.47549527  0.36303691  -0.02251166  1
  O2-  O273  1  0.48155557  0.36611982  0.46870378  1
  O2-  O274  1  0.49048625  0.87670676  -0.02448333  1
  O2-  O275  1  0.49296303  0.88010845  0.48643279  1
  O2-  O276  1  0.97119955  0.36760517  -0.02158960  1
  O2-  O277  1  0.97103598  0.36417685  0.47208709  1
  O2-  O278  1  0.98896160  0.86321342  -0.01722245  1
  O2-  O279  1  0.98194726  0.87570512  0.48053426  1
  O2-  O280  1  0.02352962  0.13289174  0.02491736  1
  O2-  O281  1  0.02007012  0.11353048  0.51532897  1
  O2-  O282  1  0.01848793  0.63903911  0.03175080  1
  O2-  O283  1  0.01657167  0.63773335  0.51478860  1
  O2-  O284  1  0.51726126  0.11515783  0.02223892  1
  O2-  O285  1  0.52138787  0.11607398  0.52340997  1
  O2-  O286  1  0.51681553  0.64109270  0.01700519  1
  O2-  O287  1  0.52465280  0.63725763  0.52359745  1
  O2-  O288  1  0.11698213  0.27164767  -0.01906093  1
  O2-  O289  1  0.11337667  0.26042578  0.47247633  1
  O2-  O290  1  0.12629756  0.76460030  -0.01973654  1
  O2-  O291  1  0.11558708  0.77478885  0.48220592  1
  O2-  O292  1  0.61271854  0.26501265  -0.01542648  1
  O2-  O293  1  0.61240033  0.25644879  0.47200367  1
  O2-  O294  1  0.62810176  0.77175562  -0.01213402  1
  O2-  O295  1  0.62673339  0.77814243  0.49411937  1
  O2-  O296  1  0.38327554  0.22367518  0.02406742  1
  O2-  O297  1  0.38730440  0.21943682  0.50740857  1
  O2-  O298  1  0.37737350  0.74078014  0.00839902  1
  O2-  O299  1  0.38946399  0.74406340  0.51182645  1
  O2-  O300  1  0.88125886  0.22621958  0.02343645  1
  O2-  O301  1  0.88209124  0.21916941  0.51908111  1
  O2-  O302  1  0.87426435  0.73753488  0.01662469  1
  O2-  O303  1  0.86826173  0.73546254  0.50845625  1
  O2-  O304  1  0.27755384  0.38933801  0.01395437  1
  O2-  O305  1  0.28595919  0.38799559  0.50784132  1
  O2-  O306  1  0.26061732  0.86561545  0.01600542  1
  O2-  O307  1  0.27269672  0.88467151  0.52469630  1
  O2-  O308  1  0.76674269  0.38470830  0.03114582  1
  O2-  O309  1  0.77696015  0.38646927  0.52301315  1
  O2-  O310  1  0.76268363  0.87042269  0.02725405  1
  O2-  O311  1  0.76400305  0.86988634  0.52757787  1
  O2-  O312  1  0.23358784  0.11321213  -0.01706717  1
  O2-  O313  1  0.23523642  0.11398716  0.47121977  1
  O2-  O314  1  0.23026747  0.62893091  -0.01652530  1
  O2-  O315  1  0.21941327  0.61460677  0.48228755  1
  O2-  O316  1  0.72470781  0.11285350  -0.02510182  1
  O2-  O317  1  0.73159997  0.11048403  0.47867802  1
  O2-  O318  1  0.73040070  0.63979287  -0.01570132  1
  O2-  O319  1  0.72441071  0.63852815  0.48665272  1
