# generated using pymatgen
data_Sr64Ca21Nb43O192
_symmetry_space_group_name_H-M   'P 1'
_cell_length_a   16.55983079
_cell_length_b   16.57721934
_cell_length_c   16.71597926
_cell_angle_alpha   89.98974582
_cell_angle_beta   90.00899077
_cell_angle_gamma   89.87490355
_symmetry_Int_Tables_number   1
_chemical_formula_structural   Sr64Ca21Nb43O192
_chemical_formula_sum   'Sr64 Ca21 Nb43 O192'
_cell_volume   4588.79181097
_cell_formula_units_Z   1
loop_
 _symmetry_equiv_pos_site_id
 _symmetry_equiv_pos_as_xyz
  1  'x, y, z'
loop_
 _atom_type_symbol
 _atom_type_oxidation_number
  Sr2+  2.0
  Ca2+  2.0
  Nb5+  5.0
  O2-  -2.0
loop_
 _atom_site_type_symbol
 _atom_site_label
 _atom_site_symmetry_multiplicity
 _atom_site_fract_x
 _atom_site_fract_y
 _atom_site_fract_z
 _atom_site_occupancy
  Sr2+  Sr0  1  0.13201438  0.13510702  0.11429791  1
  Sr2+  Sr1  1  0.13436286  0.12787926  0.62903296  1
  Sr2+  Sr2  1  0.12785252  0.62064480  0.13054863  1
  Sr2+  Sr3  1  0.12909961  0.63404679  0.61878511  1
  Sr2+  Sr4  1  0.63772075  0.12208079  0.13125808  1
  Sr2+  Sr5  1  0.63780565  0.12615113  0.61578607  1
  Sr2+  Sr6  1  0.63025222  0.63010068  0.12221825  1
  Sr2+  Sr7  1  0.62706608  0.62143511  0.63180355  1
  Sr2+  Sr8  1  0.38227726  0.38355614  0.13139163  1
  Sr2+  Sr9  1  0.38041353  0.38402923  0.61131702  1
  Sr2+  Sr10  1  0.38397006  0.86384502  0.13055842  1
  Sr2+  Sr11  1  0.37499867  0.86933946  0.62176585  1
  Sr2+  Sr12  1  0.87676252  0.37393402  0.11791295  1
  Sr2+  Sr13  1  0.87902672  0.37874913  0.63509869  1
  Sr2+  Sr14  1  0.87657292  0.87201557  0.11670742  1
  Sr2+  Sr15  1  0.87876922  0.86579299  0.62793937  1
  Sr2+  Sr16  1  0.11788778  0.37194905  0.37274012  1
  Sr2+  Sr17  1  0.10908856  0.36330587  0.88013250  1
  Sr2+  Sr18  1  0.11198159  0.87742670  0.36918187  1
  Sr2+  Sr19  1  0.11730825  0.88859501  0.87050701  1
  Sr2+  Sr20  1  0.61129772  0.36075554  0.37004709  1
  Sr2+  Sr21  1  0.61821410  0.36981074  0.87368497  1
  Sr2+  Sr22  1  0.61883287  0.88865098  0.37945410  1
  Sr2+  Sr23  1  0.61362933  0.87347310  0.87578912  1
  Sr2+  Sr24  1  0.39110712  0.12856111  0.37955394  1
  Sr2+  Sr25  1  0.36828976  0.12093262  0.87367469  1
  Sr2+  Sr26  1  0.36161205  0.62742082  0.37083761  1
  Sr2+  Sr27  1  0.37416065  0.62524176  0.87248401  1
  Sr2+  Sr28  1  0.85139820  0.12213246  0.37484919  1
  Sr2+  Sr29  1  0.90206652  0.13023578  0.87580739  1
  Sr2+  Sr30  1  0.87361368  0.62406431  0.37443044  1
  Sr2+  Sr31  1  0.86185644  0.62332891  0.87598790  1
  Sr2+  Sr32  1  0.12267370  0.12613155  0.38305454  1
  Sr2+  Sr33  1  0.12976792  0.12908076  0.86759716  1
  Sr2+  Sr34  1  0.11688280  0.62424915  0.37246937  1
  Sr2+  Sr35  1  0.12529284  0.62817918  0.87961620  1
  Sr2+  Sr36  1  0.62791011  0.12778587  0.37658585  1
  Sr2+  Sr37  1  0.61621080  0.11482491  0.87610613  1
  Sr2+  Sr38  1  0.62253459  0.61813999  0.37238138  1
  Sr2+  Sr39  1  0.61788212  0.62393969  0.87385325  1
  Sr2+  Sr40  1  0.36605591  0.36325009  0.37090978  1
  Sr2+  Sr41  1  0.37218344  0.36449099  0.87805413  1
  Sr2+  Sr42  1  0.36391856  0.89035794  0.37200956  1
  Sr2+  Sr43  1  0.37005759  0.88618118  0.87723851  1
  Sr2+  Sr44  1  0.86741616  0.35967696  0.37254202  1
  Sr2+  Sr45  1  0.86353608  0.35800223  0.87361829  1
  Sr2+  Sr46  1  0.86960861  0.89142107  0.37475181  1
  Sr2+  Sr47  1  0.86382250  0.88269309  0.87468536  1
  Sr2+  Sr48  1  0.13804458  0.37986191  0.12237172  1
  Sr2+  Sr49  1  0.12154267  0.37770654  0.62059746  1
  Sr2+  Sr50  1  0.11463605  0.87079829  0.12568302  1
  Sr2+  Sr51  1  0.12725757  0.87404577  0.62810712  1
  Sr2+  Sr52  1  0.63223191  0.38134105  0.12814049  1
  Sr2+  Sr53  1  0.64132404  0.38362725  0.62508383  1
  Sr2+  Sr54  1  0.63727769  0.87248292  0.12224180  1
  Sr2+  Sr55  1  0.63267604  0.86879493  0.62318866  1
  Sr2+  Sr56  1  0.38714491  0.11985828  0.12744552  1
  Sr2+  Sr57  1  0.38278676  0.13100223  0.62548166  1
  Sr2+  Sr58  1  0.37969496  0.61860880  0.12709987  1
  Sr2+  Sr59  1  0.38176387  0.63117875  0.62356284  1
  Sr2+  Sr60  1  0.88615554  0.13478384  0.13153259  1
  Sr2+  Sr61  1  0.87963130  0.12009707  0.62356184  1
  Sr2+  Sr62  1  0.88097277  0.63332358  0.12300365  1
  Sr2+  Sr63  1  0.88746124  0.61502080  0.62601995  1
  Ca2+  Ca64  1  -0.00097263  0.50107218  0.00194078  1
  Ca2+  Ca65  1  0.00182984  -0.00213137  0.50238137  1
  Ca2+  Ca66  1  0.50008387  0.50125927  0.49960965  1
  Ca2+  Ca67  1  0.00013027  -0.00135331  0.00118567  1
  Ca2+  Ca68  1  0.49882664  -0.00234889  0.50461411  1
  Ca2+  Ca69  1  0.25064029  0.75460350  0.00115617  1
  Ca2+  Ca70  1  0.74898360  0.74819736  0.50169203  1
  Ca2+  Ca71  1  0.75199625  0.25384491  0.50282406  1
  Ca2+  Ca72  1  0.74587307  0.24794151  -0.00171392  1
  Ca2+  Ca73  1  0.25575250  0.25109873  -0.00113428  1
  Ca2+  Ca74  1  0.24582884  0.00204717  0.24878362  1
  Ca2+  Ca75  1  0.74622213  -0.00142938  0.75239484  1
  Ca2+  Ca76  1  0.24967356  0.49949765  0.74727433  1
  Ca2+  Ca77  1  0.75112754  -0.00242485  0.24736839  1
  Ca2+  Ca78  1  0.00271449  0.25246027  0.25266384  1
  Ca2+  Ca79  1  0.00026942  0.74741930  0.75058816  1
  Ca2+  Ca80  1  0.75104343  0.50028282  0.24804600  1
  Ca2+  Ca81  1  0.49756798  0.24921126  0.24469593  1
  Ca2+  Ca82  1  0.50288762  0.25042420  0.74837093  1
  Ca2+  Ca83  1  0.00018098  0.25096624  0.74453343  1
  Ca2+  Ca84  1  0.50146401  0.75043836  0.25040037  1
  Nb5+  Nb85  1  0.49750823  -0.00757469  0.00239267  1
  Nb5+  Nb86  1  -0.00218458  0.49885781  0.49628718  1
  Nb5+  Nb87  1  0.50050675  0.49568693  -0.00240728  1
  Nb5+  Nb88  1  0.74898515  0.74964859  -0.00197818  1
  Nb5+  Nb89  1  0.25130308  0.75583139  0.49782910  1
  Nb5+  Nb90  1  0.24968768  0.25516827  0.50030136  1
  Nb5+  Nb91  1  0.25024426  0.50001058  0.25166099  1
  Nb5+  Nb92  1  0.50026991  0.75203422  0.74953891  1
  Nb5+  Nb93  1  0.75151309  0.50166160  0.75143644  1
  Nb5+  Nb94  1  -0.00358822  0.74835390  0.25258180  1
  Nb5+  Nb95  1  0.25178832  -0.00121290  0.74776782  1
  Nb5+  Nb96  1  0.00508627  0.00618033  0.24833564  1
  Nb5+  Nb97  1  -0.00532081  -0.00170313  0.75076487  1
  Nb5+  Nb98  1  -0.00341091  0.50044994  0.25044624  1
  Nb5+  Nb99  1  0.00378983  0.50185605  0.75889172  1
  Nb5+  Nb100  1  0.50028711  0.00108947  0.25247856  1
  Nb5+  Nb101  1  0.50000558  -0.00315418  0.74690029  1
  Nb5+  Nb102  1  0.50057108  0.50385056  0.25734360  1
  Nb5+  Nb103  1  0.49828386  0.49905438  0.75125918  1
  Nb5+  Nb104  1  0.24594230  0.24329489  0.24858391  1
  Nb5+  Nb105  1  0.25543380  0.25784256  0.74567521  1
  Nb5+  Nb106  1  0.24825589  0.75068435  0.24717165  1
  Nb5+  Nb107  1  0.25081521  0.75197160  0.75440461  1
  Nb5+  Nb108  1  0.74999464  0.25173149  0.24734339  1
  Nb5+  Nb109  1  0.74482825  0.24073859  0.75133485  1
  Nb5+  Nb110  1  0.74874997  0.75453326  0.25848955  1
  Nb5+  Nb111  1  0.75138553  0.74726813  0.74879455  1
  Nb5+  Nb112  1  -0.00060927  0.24617159  0.50053592  1
  Nb5+  Nb113  1  -0.00043748  0.25201109  1.00261324  1
  Nb5+  Nb114  1  -0.00282747  0.74685489  0.49854115  1
  Nb5+  Nb115  1  -0.00017631  0.74678440  0.99141713  1
  Nb5+  Nb116  1  0.50297616  0.25344424  0.50454741  1
  Nb5+  Nb117  1  0.50188359  0.24055925  1.00003309  1
  Nb5+  Nb118  1  0.50067182  0.74752542  0.49167185  1
  Nb5+  Nb119  1  0.50006757  0.74409615  1.00175824  1
  Nb5+  Nb120  1  0.25007814  0.00046523  0.00486249  1
  Nb5+  Nb121  1  0.24752906  0.00715958  0.49934459  1
  Nb5+  Nb122  1  0.25184314  0.49842892  -0.00686268  1
  Nb5+  Nb123  1  0.24619042  0.50575578  0.49933811  1
  Nb5+  Nb124  1  0.75075649  0.00565235  -0.00523507  1
  Nb5+  Nb125  1  0.75131567  -0.00196997  0.50485674  1
  Nb5+  Nb126  1  0.74967416  0.50140361  0.00029117  1
  Nb5+  Nb127  1  0.74904390  0.49754093  0.49228240  1
  O2-  O128  1  -0.01423673  -0.02995309  0.13569255  1
  O2-  O129  1  -0.01194848  -0.03471688  0.63733404  1
  O2-  O130  1  0.01792679  0.47854986  0.13804938  1
  O2-  O131  1  0.00205598  0.48048678  0.61387910  1
  O2-  O132  1  0.47362103  -0.01639445  0.11738922  1
  O2-  O133  1  0.47542702  -0.02335940  0.63748277  1
  O2-  O134  1  0.50930541  0.48196074  0.11567952  1
  O2-  O135  1  0.51447575  0.47998092  0.63768759  1
  O2-  O136  1  0.02688672  0.01117314  0.36701530  1
  O2-  O137  1  0.02870547  0.01989839  0.86502854  1
  O2-  O138  1  -0.00507832  0.52787816  0.37441424  1
  O2-  O139  1  -0.00225388  0.53421296  0.86735831  1
  O2-  O140  1  0.52159112  0.01695404  0.36608041  1
  O2-  O141  1  0.50913135  0.00684529  0.87838406  1
  O2-  O142  1  0.48798651  0.53333925  0.36714004  1
  O2-  O143  1  0.49340756  0.52788430  0.87732600  1
  O2-  O144  1  0.26311526  0.22793660  0.13571167  1
  O2-  O145  1  0.26505389  0.23015700  0.61848821  1
  O2-  O146  1  0.22353064  0.73886856  0.13543139  1
  O2-  O147  1  0.24688680  0.73779344  0.62102308  1
  O2-  O148  1  0.76595905  0.22657638  0.13155067  1
  O2-  O149  1  0.77408788  0.23281610  0.63553420  1
  O2-  O150  1  0.74106163  0.73775823  0.11834522  1
  O2-  O151  1  0.72188069  0.73783283  0.63736976  1
  O2-  O152  1  0.23225937  0.26461692  0.38230010  1
  O2-  O153  1  0.23611127  0.27391454  0.85982538  1
  O2-  O154  1  0.26400482  0.76272395  0.37904488  1
  O2-  O155  1  0.27395893  0.76447764  0.86572576  1
  O2-  O156  1  0.73471974  0.27370122  0.36767981  1
  O2-  O157  1  0.73248452  0.27557443  0.86454527  1
  O2-  O158  1  0.77373621  0.76400272  0.36867787  1
  O2-  O159  1  0.76210942  0.75865447  0.87592397  1
  O2-  O160  1  -0.02016585  0.26910639  0.11895497  1
  O2-  O161  1  -0.00765801  0.28670932  0.61061123  1
  O2-  O162  1  0.00185555  0.76801188  0.13501425  1
  O2-  O163  1  0.01465919  0.76596643  0.61313332  1
  O2-  O164  1  0.46293315  0.25990992  0.11069767  1
  O2-  O165  1  0.46910305  0.26866842  0.61641231  1
  O2-  O166  1  0.51931107  0.77215374  0.11390997  1
  O2-  O167  1  0.50613711  0.77301527  0.63466248  1
  O2-  O168  1  0.22722807  -0.01811201  0.38892318  1
  O2-  O169  1  0.24367047  -0.02175847  0.86743675  1
  O2-  O170  1  0.26559782  0.48780210  0.37564023  1
  O2-  O171  1  0.27511545  0.48543721  0.88244795  1
  O2-  O172  1  0.73670077  -0.02108256  0.38395442  1
  O2-  O173  1  0.72087473  -0.02488820  0.88505270  1
  O2-  O174  1  0.77557685  0.48668877  0.38242854  1
  O2-  O175  1  0.76033863  0.49335209  0.87407467  1
  O2-  O176  1  0.03204018  0.24280975  0.38723110  1
  O2-  O177  1  0.02269928  0.23322664  0.88089461  1
  O2-  O178  1  -0.00405632  0.72090480  0.37623582  1
  O2-  O179  1  -0.01073408  0.71372666  0.88311396  1
  O2-  O180  1  0.51421244  0.22991134  0.38423692  1
  O2-  O181  1  0.53154100  0.23885192  0.88302095  1
  O2-  O182  1  0.49507985  0.71460795  0.38319354  1
  O2-  O183  1  0.49092422  0.73305699  0.87932385  1
  O2-  O184  1  0.25750234  0.03267994  0.11438854  1
  O2-  O185  1  0.27430620  0.01139659  0.62878714  1
  O2-  O186  1  0.24258176  0.51714639  0.13255323  1
  O2-  O187  1  0.22099405  0.51059539  0.61247821  1
  O2-  O188  1  0.76534240  0.00630646  0.11121657  1
  O2-  O189  1  0.76306860  0.02389155  0.62124654  1
  O2-  O190  1  0.72333411  0.51341558  0.11294233  1
  O2-  O191  1  0.74237008  0.52049935  0.63235592  1
  O2-  O192  1  0.13656563  0.28767681  0.23961061  1
  O2-  O193  1  0.13808424  0.25861075  0.72424619  1
  O2-  O194  1  0.12413407  0.76045150  0.26834698  1
  O2-  O195  1  0.13676564  0.77421605  0.76002730  1
  O2-  O196  1  0.63102366  0.27521232  0.23309537  1
  O2-  O197  1  0.63447985  0.27795652  0.72369912  1
  O2-  O198  1  0.63626780  0.78247917  0.26549123  1
  O2-  O199  1  0.62016673  0.76389129  0.76849122  1
  O2-  O200  1  0.36052106  0.23935375  0.27749682  1
  O2-  O201  1  0.36660441  0.21875743  0.75837917  1
  O2-  O202  1  0.36331230  0.72475858  0.23756541  1
  O2-  O203  1  0.37907517  0.73090761  0.73946600  1
  O2-  O204  1  0.86877715  0.22896841  0.27015233  1
  O2-  O205  1  0.86484060  0.23498851  0.77202161  1
  O2-  O206  1  0.88062147  0.72122136  0.24589000  1
  O2-  O207  1  0.86423920  0.72305217  0.73504805  1
  O2-  O208  1  0.26996641  0.38345740  0.23868427  1
  O2-  O209  1  0.28225216  0.36697741  0.72371826  1
  O2-  O210  1  0.27092290  0.86416428  0.24077688  1
  O2-  O211  1  0.27018764  0.87334567  0.73009940  1
  O2-  O212  1  0.77644435  0.36860430  0.22651319  1
  O2-  O213  1  0.76487635  0.38664526  0.73671234  1
  O2-  O214  1  0.78125212  0.86295649  0.22804560  1
  O2-  O215  1  0.77118010  0.86243839  0.74072529  1
  O2-  O216  1  0.21361575  0.13518827  0.26714061  1
  O2-  O217  1  0.23609388  0.11632009  0.75906431  1
  O2-  O218  1  0.23499277  0.62390126  0.27138069  1
  O2-  O219  1  0.23076441  0.63591300  0.76324609  1
  O2-  O220  1  0.72624949  0.13196128  0.26578731  1
  O2-  O221  1  0.71323591  0.13159074  0.76343431  1
  O2-  O222  1  0.72542425  0.63691058  0.25942577  1
  O2-  O223  1  0.73016773  0.62609016  0.77053103  1
  O2-  O224  1  0.13111606  0.48979881  0.26496919  1
  O2-  O225  1  0.11535369  0.46990179  0.76221972  1
  O2-  O226  1  0.11625524  0.96104724  0.23849570  1
  O2-  O227  1  0.13451360  0.98022079  0.73552212  1
  O2-  O228  1  0.61450825  0.48067361  0.26951348  1
  O2-  O229  1  0.62688899  0.49305485  0.76268040  1
  O2-  O230  1  0.61402032  0.97721763  0.22567127  1
  O2-  O231  1  0.61088136  0.96334936  0.74172281  1
  O2-  O232  1  0.38036390  0.02565998  0.26524227  1
  O2-  O233  1  0.37512452  0.00651915  0.76968351  1
  O2-  O234  1  0.37166007  0.52171259  0.24237505  1
  O2-  O235  1  0.38638176  0.52850974  0.73913265  1
  O2-  O236  1  0.88788086  0.01500222  0.27050485  1
  O2-  O237  1  0.88222178  0.01619407  0.77143824  1
  O2-  O238  1  0.88605304  0.52908258  0.23588419  1
  O2-  O239  1  0.87046401  0.52398746  0.74613135  1
  O2-  O240  1  0.47357964  0.38823509  0.26055625  1
  O2-  O241  1  0.48478218  0.38849726  0.78034530  1
  O2-  O242  1  0.47141887  0.88428977  0.26380995  1
  O2-  O243  1  0.47959491  0.86660449  0.77544189  1
  O2-  O244  1  0.98333231  0.38969928  0.27959329  1
  O2-  O245  1  0.96987346  0.38873260  0.76503385  1
  O2-  O246  1  0.98303289  0.86109786  0.27795124  1
  O2-  O247  1  0.98661232  0.88014285  0.78166426  1
  O2-  O248  1  0.02552810  0.11617871  0.22203912  1
  O2-  O249  1  0.01212860  0.11392652  0.72096458  1
  O2-  O250  1  0.02500882  0.62583349  0.23797995  1
  O2-  O251  1  0.01762853  0.61145469  0.71616560  1
  O2-  O252  1  0.51335716  0.11538752  0.21853695  1
  O2-  O253  1  0.51950310  0.10987770  0.73522332  1
  O2-  O254  1  0.51514528  0.61482707  0.21765541  1
  O2-  O255  1  0.51935230  0.63067463  0.74048500  1
  O2-  O256  1  0.13726461  0.47878712  -0.01334209  1
  O2-  O257  1  0.12373688  0.48451015  0.48050687  1
  O2-  O258  1  0.13714905  0.97186338  0.00850940  1
  O2-  O259  1  0.13653001  0.99016423  0.53474323  1
  O2-  O260  1  0.62146065  0.49049208  -0.01999430  1
  O2-  O261  1  0.63546315  0.47196808  0.48269568  1
  O2-  O262  1  0.61537968  0.98342941  0.01796594  1
  O2-  O263  1  0.63144554  0.97773190  0.52042308  1
  O2-  O264  1  0.37967871  0.01990718  -0.01494788  1
  O2-  O265  1  0.36425680  0.01227241  0.48255858  1
  O2-  O266  1  0.38286471  0.52376080  0.00848687  1
  O2-  O267  1  0.36168691  0.51343658  0.51922540  1
  O2-  O268  1  0.86310989  0.01303625  -0.03086557  1
  O2-  O269  1  0.86902646  0.01944126  0.48564264  1
  O2-  O270  1  0.86241801  0.52845770  0.01047708  1
  O2-  O271  1  0.88086283  0.52516277  0.50419556  1
  O2-  O272  1  0.48498971  0.38356164  -0.02208630  1
  O2-  O273  1  0.47570715  0.36770556  0.47564554  1
  O2-  O274  1  0.48595958  0.87491587  -0.01711956  1
  O2-  O275  1  0.46576084  0.86019408  0.48373499  1
  O2-  O276  1  0.98014085  0.36955005  -0.02450790  1
  O2-  O277  1  0.98766909  0.38445510  0.47165169  1
  O2-  O278  1  0.96997912  0.86091205  -0.01283758  1
  O2-  O279  1  0.98855857  0.85969422  0.47259275  1
  O2-  O280  1  0.01200658  0.13197897  0.02303521  1
  O2-  O281  1  0.01529640  0.13558044  0.52800927  1
  O2-  O282  1  0.01358600  0.63678394  0.03435554  1
  O2-  O283  1  0.02486372  0.62162096  0.51237171  1
  O2-  O284  1  0.51518519  0.12339525  0.01410688  1
  O2-  O285  1  0.50602219  0.13392360  0.52393118  1
  O2-  O286  1  0.52148852  0.62857435  0.01402512  1
  O2-  O287  1  0.51179915  0.63717753  0.53582358  1
  O2-  O288  1  0.11993408  0.27044725  0.01794632  1
  O2-  O289  1  0.13053841  0.26381380  0.51849270  1
  O2-  O290  1  0.11365162  0.77016717  -0.01903879  1
  O2-  O291  1  0.13192174  0.75683363  0.49063959  1
  O2-  O292  1  0.61112977  0.27641102  0.02525565  1
  O2-  O293  1  0.61565370  0.27182539  0.52199258  1
  O2-  O294  1  0.62675168  0.76413578  -0.01414564  1
  O2-  O295  1  0.61269411  0.77709644  0.48904600  1
  O2-  O296  1  0.38708962  0.24111765  -0.03660505  1
  O2-  O297  1  0.36646441  0.23673752  0.48301178  1
  O2-  O298  1  0.38654523  0.73210795  0.01937332  1
  O2-  O299  1  0.36881807  0.72611216  0.50642408  1
  O2-  O300  1  0.88151144  0.23335488  -0.01810217  1
  O2-  O301  1  0.88665334  0.23768965  0.47653325  1
  O2-  O302  1  0.86858987  0.72978526  0.00610364  1
  O2-  O303  1  0.88560368  0.72200475  0.51352043  1
  O2-  O304  1  0.27654394  0.38725029  0.02641437  1
  O2-  O305  1  0.26105050  0.37417380  0.51200863  1
  O2-  O306  1  0.28606235  0.88787134  0.01560669  1
  O2-  O307  1  0.26336965  0.87090192  0.51434482  1
  O2-  O308  1  0.76563050  0.38714465  0.00991323  1
  O2-  O309  1  0.77462053  0.38894656  0.53016181  1
  O2-  O310  1  0.76087018  0.86881106  0.00960548  1
  O2-  O311  1  0.77421239  0.88085174  0.52446421  1
  O2-  O312  1  0.23825055  0.11497909  -0.03094297  1
  O2-  O313  1  0.23281870  0.12453463  0.49043941  1
  O2-  O314  1  0.23548226  0.61682410  -0.01173764  1
  O2-  O315  1  0.23428304  0.62223454  0.48164048  1
  O2-  O316  1  0.71685565  0.11472793  -0.01257105  1
  O2-  O317  1  0.72759897  0.11869340  0.48576078  1
  O2-  O318  1  0.72841704  0.62878287  -0.01694551  1
  O2-  O319  1  0.72341816  0.61403319  0.48826040  1
