# generated using pymatgen
data_Sr64Ca21Nb43O192
_symmetry_space_group_name_H-M   'P 1'
_cell_length_a   16.56996410
_cell_length_b   16.59772456
_cell_length_c   16.75208153
_cell_angle_alpha   90.04185315
_cell_angle_beta   90.02598476
_cell_angle_gamma   89.91030128
_symmetry_Int_Tables_number   1
_chemical_formula_structural   Sr64Ca21Nb43O192
_chemical_formula_sum   'Sr64 Ca21 Nb43 O192'
_cell_volume   4607.21210123
_cell_formula_units_Z   1
loop_
 _symmetry_equiv_pos_site_id
 _symmetry_equiv_pos_as_xyz
  1  'x, y, z'
loop_
 _atom_type_symbol
 _atom_type_oxidation_number
  Sr2+  2.0
  Ca2+  2.0
  Nb5+  5.0
  O2-  -2.0
loop_
 _atom_site_type_symbol
 _atom_site_label
 _atom_site_symmetry_multiplicity
 _atom_site_fract_x
 _atom_site_fract_y
 _atom_site_fract_z
 _atom_site_occupancy
  Sr2+  Sr0  1  0.12708181  0.12409404  0.12577264  1
  Sr2+  Sr1  1  0.11232701  0.11151606  0.62253944  1
  Sr2+  Sr2  1  0.13408581  0.63674174  0.12134258  1
  Sr2+  Sr3  1  0.13538838  0.62611377  0.62541432  1
  Sr2+  Sr4  1  0.62065870  0.11850159  0.13297529  1
  Sr2+  Sr5  1  0.61816353  0.11539748  0.62193658  1
  Sr2+  Sr6  1  0.60907768  0.63418432  0.12283598  1
  Sr2+  Sr7  1  0.62452277  0.63740613  0.62410017  1
  Sr2+  Sr8  1  0.36491742  0.35870902  0.12623926  1
  Sr2+  Sr9  1  0.36617997  0.36685024  0.62555474  1
  Sr2+  Sr10  1  0.37217158  0.88406814  0.12099976  1
  Sr2+  Sr11  1  0.37618593  0.86713816  0.63019275  1
  Sr2+  Sr12  1  0.88369902  0.37005301  0.12977558  1
  Sr2+  Sr13  1  0.87272526  0.37481710  0.62741625  1
  Sr2+  Sr14  1  0.87346334  0.87656259  0.11285645  1
  Sr2+  Sr15  1  0.87400689  0.88057534  0.62273168  1
  Sr2+  Sr16  1  0.11924184  0.38795117  0.37168972  1
  Sr2+  Sr17  1  0.12663856  0.37730685  0.86609353  1
  Sr2+  Sr18  1  0.11888098  0.86944167  0.37620265  1
  Sr2+  Sr19  1  0.12037654  0.87409193  0.89646398  1
  Sr2+  Sr20  1  0.61879757  0.37775953  0.38284969  1
  Sr2+  Sr21  1  0.63490206  0.38619868  0.87650033  1
  Sr2+  Sr22  1  0.63107412  0.87398477  0.36282266  1
  Sr2+  Sr23  1  0.62653536  0.88586662  0.87220732  1
  Sr2+  Sr24  1  0.39430477  0.13886461  0.37013738  1
  Sr2+  Sr25  1  0.37642977  0.13421240  0.88598973  1
  Sr2+  Sr26  1  0.39484134  0.61591327  0.37601697  1
  Sr2+  Sr27  1  0.38271369  0.61883842  0.87466706  1
  Sr2+  Sr28  1  0.87794703  0.12491885  0.37339758  1
  Sr2+  Sr29  1  0.88590189  0.13024245  0.88051523  1
  Sr2+  Sr30  1  0.88888143  0.62360489  0.37880041  1
  Sr2+  Sr31  1  0.88340849  0.61747633  0.87412224  1
  Sr2+  Sr32  1  0.12004254  0.12234799  0.37680992  1
  Sr2+  Sr33  1  0.12748691  0.13638719  0.88073129  1
  Sr2+  Sr34  1  0.12940215  0.62667009  0.35986027  1
  Sr2+  Sr35  1  0.12475606  0.62944398  0.87856894  1
  Sr2+  Sr36  1  0.63597361  0.14202972  0.37388143  1
  Sr2+  Sr37  1  0.62746962  0.14079298  0.87700740  1
  Sr2+  Sr38  1  0.62811427  0.62803549  0.36885841  1
  Sr2+  Sr39  1  0.62927674  0.63145852  0.87878721  1
  Sr2+  Sr40  1  0.37724064  0.37222379  0.36388416  1
  Sr2+  Sr41  1  0.37836264  0.37738480  0.86920382  1
  Sr2+  Sr42  1  0.38513035  0.86637795  0.38388980  1
  Sr2+  Sr43  1  0.37640976  0.89498298  0.87967266  1
  Sr2+  Sr44  1  0.88001207  0.37490465  0.38186536  1
  Sr2+  Sr45  1  0.88044429  0.37101493  0.86801631  1
  Sr2+  Sr46  1  0.87227681  0.87982856  0.37176127  1
  Sr2+  Sr47  1  0.87213923  0.84864577  0.87894325  1
  Sr2+  Sr48  1  0.12641896  0.37565503  0.13455383  1
  Sr2+  Sr49  1  0.11353199  0.37087475  0.62614231  1
  Sr2+  Sr50  1  0.11726682  0.86311381  0.12908218  1
  Sr2+  Sr51  1  0.15036934  0.87485395  0.62184646  1
  Sr2+  Sr52  1  0.61664686  0.37505013  0.12129016  1
  Sr2+  Sr53  1  0.62039560  0.36818649  0.62325411  1
  Sr2+  Sr54  1  0.62024219  0.88245063  0.12761822  1
  Sr2+  Sr55  1  0.64327364  0.87587015  0.62699906  1
  Sr2+  Sr56  1  0.37076812  0.11922308  0.12549795  1
  Sr2+  Sr57  1  0.36171030  0.11304316  0.63243116  1
  Sr2+  Sr58  1  0.37070061  0.61670573  0.13084454  1
  Sr2+  Sr59  1  0.37325645  0.62796851  0.62741070  1
  Sr2+  Sr60  1  0.86101228  0.11731066  0.12488801  1
  Sr2+  Sr61  1  0.87576320  0.12036357  0.62753299  1
  Sr2+  Sr62  1  0.89470757  0.63090643  0.11490433  1
  Sr2+  Sr63  1  0.87739783  0.62778520  0.62710356  1
  Ca2+  Ca64  1  0.00213965  0.49274564  0.00044891  1
  Ca2+  Ca65  1  0.49941960  0.50051301  0.50547483  1
  Ca2+  Ca66  1  0.00207199  0.50167967  0.50287379  1
  Ca2+  Ca67  1  0.49929451  -0.00144216  0.49814563  1
  Ca2+  Ca68  1  -0.00248830  0.00293129  0.00030315  1
  Ca2+  Ca69  1  0.24887934  0.25040131  0.49850647  1
  Ca2+  Ca70  1  0.74536215  0.74614540  0.00452636  1
  Ca2+  Ca71  1  0.24814618  0.25304105  -0.00049289  1
  Ca2+  Ca72  1  0.75147663  0.25258225  -0.00151185  1
  Ca2+  Ca73  1  0.25999629  0.74974172  -0.00297267  1
  Ca2+  Ca74  1  0.25020426  -0.00219315  0.25531212  1
  Ca2+  Ca75  1  0.49676508  0.75262433  0.24549694  1
  Ca2+  Ca76  1  0.00220949  0.75272464  0.74449046  1
  Ca2+  Ca77  1  0.00117824  0.24956140  0.25496336  1
  Ca2+  Ca78  1  0.49988826  0.24915843  0.74977857  1
  Ca2+  Ca79  1  -0.00353590  0.74968166  0.25355649  1
  Ca2+  Ca80  1  0.75203303  0.00336814  0.75079863  1
  Ca2+  Ca81  1  0.75218941  0.50046269  0.24671743  1
  Ca2+  Ca82  1  0.24516174  0.00033447  0.75281762  1
  Ca2+  Ca83  1  0.49847744  0.75070515  0.75604709  1
  Ca2+  Ca84  1  0.50494373  0.25102451  0.24716865  1
  Nb5+  Nb85  1  0.50088386  0.50461367  -0.00061544  1
  Nb5+  Nb86  1  0.50238811  0.01009600  -0.00097669  1
  Nb5+  Nb87  1  -0.00133449  -0.00478924  0.49901169  1
  Nb5+  Nb88  1  0.75504266  0.25861129  0.50036515  1
  Nb5+  Nb89  1  0.25564661  0.74576216  0.49421382  1
  Nb5+  Nb90  1  0.75534637  0.75262280  0.49674349  1
  Nb5+  Nb91  1  -0.00046430  0.24778978  0.74786163  1
  Nb5+  Nb92  1  0.25462943  0.50018557  0.74689719  1
  Nb5+  Nb93  1  0.25139665  0.49861801  0.24516460  1
  Nb5+  Nb94  1  0.75016623  0.00011469  0.24994344  1
  Nb5+  Nb95  1  0.75471974  0.50331244  0.74899615  1
  Nb5+  Nb96  1  0.00218702  -0.00187535  0.24687721  1
  Nb5+  Nb97  1  -0.00190939  -0.00319386  0.75581421  1
  Nb5+  Nb98  1  -0.00310130  0.50447471  0.24831034  1
  Nb5+  Nb99  1  0.00618759  0.50062435  0.74665152  1
  Nb5+  Nb100  1  0.49794944  0.00018112  0.25543561  1
  Nb5+  Nb101  1  0.49699472  0.00185022  0.74891815  1
  Nb5+  Nb102  1  0.50451071  0.49471109  0.24960462  1
  Nb5+  Nb103  1  0.50715133  0.50204399  0.74795868  1
  Nb5+  Nb104  1  0.24732802  0.24375554  0.25408182  1
  Nb5+  Nb105  1  0.24763466  0.24628336  0.74268950  1
  Nb5+  Nb106  1  0.25712442  0.75384436  0.25049198  1
  Nb5+  Nb107  1  0.24717315  0.75077565  0.75453620  1
  Nb5+  Nb108  1  0.75548603  0.25813132  0.24744892  1
  Nb5+  Nb109  1  0.74799438  0.24944689  0.74725767  1
  Nb5+  Nb110  1  0.75184721  0.74686770  0.24516030  1
  Nb5+  Nb111  1  0.74976304  0.74891017  0.75047936  1
  Nb5+  Nb112  1  -0.00118709  0.24948093  0.49926875  1
  Nb5+  Nb113  1  0.00224653  0.25153481  1.00717876  1
  Nb5+  Nb114  1  0.00717605  0.74794924  0.50583924  1
  Nb5+  Nb115  1  0.00168085  0.74873961  0.99834122  1
  Nb5+  Nb116  1  0.49590155  0.24700500  0.50702350  1
  Nb5+  Nb117  1  0.49959055  0.25926999  1.00044785  1
  Nb5+  Nb118  1  0.50948407  0.75293367  0.50015469  1
  Nb5+  Nb119  1  0.49969459  0.76175925  0.99838505  1
  Nb5+  Nb120  1  0.24152167  -0.00229291  0.00502379  1
  Nb5+  Nb121  1  0.25174340  0.00196647  0.49403738  1
  Nb5+  Nb122  1  0.25003073  0.49508986  -0.00467455  1
  Nb5+  Nb123  1  0.25372888  0.49792244  0.49332037  1
  Nb5+  Nb124  1  0.74759484  0.00496928  -0.00579902  1
  Nb5+  Nb125  1  0.74840274  0.00716851  0.49927835  1
  Nb5+  Nb126  1  0.75335372  0.49862140  0.00457928  1
  Nb5+  Nb127  1  0.74687974  0.50816442  0.49853785  1
  O2-  O128  1  -0.03082813  -0.00294501  0.13636687  1
  O2-  O129  1  -0.02849354  -0.00060753  0.61610334  1
  O2-  O130  1  -0.00283168  0.47569014  0.13395513  1
  O2-  O131  1  -0.01957731  0.48994831  0.63497556  1
  O2-  O132  1  0.49536212  0.02255537  0.11977529  1
  O2-  O133  1  0.48058637  0.01666207  0.63464801  1
  O2-  O134  1  0.50004470  0.51725561  0.12129973  1
  O2-  O135  1  0.50181031  0.53507038  0.63923823  1
  O2-  O136  1  0.01218107  0.00811988  0.38093391  1
  O2-  O137  1  0.02768601  0.00867728  0.86488353  1
  O2-  O138  1  0.01426596  0.51849801  0.36821208  1
  O2-  O139  1  -0.00345216  0.49140658  0.86396349  1
  O2-  O140  1  0.50711647  -0.03140455  0.36435105  1
  O2-  O141  1  0.51102384  -0.01640073  0.88311464  1
  O2-  O142  1  0.49615756  0.48018024  0.36593107  1
  O2-  O143  1  0.49862558  0.47559967  0.88198353  1
  O2-  O144  1  0.22802448  0.26190827  0.13570963  1
  O2-  O145  1  0.23176293  0.28406330  0.63106007  1
  O2-  O146  1  0.26729093  0.74626828  0.13545490  1
  O2-  O147  1  0.26707866  0.74712464  0.61366173  1
  O2-  O148  1  0.73600524  0.27121258  0.13548451  1
  O2-  O149  1  0.74105480  0.27058731  0.62279105  1
  O2-  O150  1  0.78655846  0.75211113  0.13668583  1
  O2-  O151  1  0.76405960  0.74732364  0.61656340  1
  O2-  O152  1  0.28304055  0.24492230  0.36770569  1
  O2-  O153  1  0.25889684  0.23943516  0.86015722  1
  O2-  O154  1  0.22621303  0.74880450  0.37791931  1
  O2-  O155  1  0.21797606  0.74947262  0.86430546  1
  O2-  O156  1  0.77338498  0.24033583  0.38426491  1
  O2-  O157  1  0.77419924  0.23305947  0.85921761  1
  O2-  O158  1  0.72186612  0.74677825  0.38395489  1
  O2-  O159  1  0.73380697  0.74897135  0.86480844  1
  O2-  O160  1  0.02416385  0.26034715  0.11948211  1
  O2-  O161  1  0.01638205  0.24589082  0.62340556  1
  O2-  O162  1  -0.01698337  0.76337310  0.11771526  1
  O2-  O163  1  -0.03297467  0.76733976  0.61364724  1
  O2-  O164  1  0.53413599  0.24039876  0.11321179  1
  O2-  O165  1  0.53587804  0.23521056  0.61766079  1
  O2-  O166  1  0.46692188  0.72763733  0.10862185  1
  O2-  O167  1  0.48297382  0.72898716  0.61396137  1
  O2-  O168  1  0.20796590  -0.00737797  0.38591080  1
  O2-  O169  1  0.22758516  -0.00304518  0.88544760  1
  O2-  O170  1  0.24381510  0.50544200  0.37643308  1
  O2-  O171  1  0.24689333  0.50367313  0.87664377  1
  O2-  O172  1  0.73501825  0.00481145  0.37675387  1
  O2-  O173  1  0.72467609  0.01745442  0.88320683  1
  O2-  O174  1  0.73575801  0.50566759  0.38397538  1
  O2-  O175  1  0.74241713  0.51905554  0.86622418  1
  O2-  O176  1  -0.03009086  0.24317584  0.38785739  1
  O2-  O177  1  -0.01800821  0.24592352  0.86428178  1
  O2-  O178  1  0.01156408  0.72869878  0.38960783  1
  O2-  O179  1  0.02079574  0.74306024  0.87947283  1
  O2-  O180  1  0.48833256  0.27088377  0.38796591  1
  O2-  O181  1  0.46900408  0.25721325  0.88364536  1
  O2-  O182  1  0.51157728  0.77604907  0.38229912  1
  O2-  O183  1  0.54402778  0.76334798  0.88863812  1
  O2-  O184  1  0.27230621  0.00196493  0.12017667  1
  O2-  O185  1  0.26951845  -0.01550324  0.61158763  1
  O2-  O186  1  0.25607125  0.49202043  0.12679298  1
  O2-  O187  1  0.25807345  0.49908094  0.63042790  1
  O2-  O188  1  0.76108532  -0.00967544  0.13253442  1
  O2-  O189  1  0.76852792  -0.00486222  0.61381982  1
  O2-  O190  1  0.75653103  0.46585210  0.11366237  1
  O2-  O191  1  0.75780699  0.49640357  0.62719291  1
  O2-  O192  1  0.13541664  0.27698067  0.27898916  1
  O2-  O193  1  0.11993318  0.26929247  0.76035711  1
  O2-  O194  1  0.13676151  0.76884954  0.24469350  1
  O2-  O195  1  0.13627567  0.75392014  0.71167551  1
  O2-  O196  1  0.64158688  0.26616919  0.28025689  1
  O2-  O197  1  0.63779590  0.27903843  0.76595586  1
  O2-  O198  1  0.63576150  0.77662416  0.23730275  1
  O2-  O199  1  0.63391710  0.75771455  0.72211720  1
  O2-  O200  1  0.36718367  0.23147662  0.22828123  1
  O2-  O201  1  0.36290720  0.23745502  0.72323240  1
  O2-  O202  1  0.36544096  0.71825541  0.27704927  1
  O2-  O203  1  0.35891419  0.71510122  0.75464240  1
  O2-  O204  1  0.86668011  0.21876542  0.23611882  1
  O2-  O205  1  0.87795896  0.24256959  0.72609427  1
  O2-  O206  1  0.86066698  0.74000414  0.28934514  1
  O2-  O207  1  0.86467848  0.71702537  0.75941763  1
  O2-  O208  1  0.27083607  0.38084339  0.25631950  1
  O2-  O209  1  0.26112393  0.38205934  0.76406135  1
  O2-  O210  1  0.28684105  0.86505400  0.25823685  1
  O2-  O211  1  0.26836366  0.86355595  0.74724535  1
  O2-  O212  1  0.78764019  0.36683644  0.26551220  1
  O2-  O213  1  0.76962644  0.38264580  0.75571883  1
  O2-  O214  1  0.76419316  0.87925888  0.26213791  1
  O2-  O215  1  0.77197000  0.86384008  0.74500162  1
  O2-  O216  1  0.21904874  0.13198093  0.25029679  1
  O2-  O217  1  0.22519453  0.13498028  0.72366627  1
  O2-  O218  1  0.23055230  0.61851061  0.24425689  1
  O2-  O219  1  0.22283890  0.61512176  0.75272040  1
  O2-  O220  1  0.73252132  0.12071240  0.24425054  1
  O2-  O221  1  0.72837471  0.13836634  0.72523750  1
  O2-  O222  1  0.72148185  0.63510389  0.24363702  1
  O2-  O223  1  0.72778092  0.62087330  0.73540390  1
  O2-  O224  1  0.13225741  0.47857242  0.24860019  1
  O2-  O225  1  0.12316333  0.47789270  0.74120035  1
  O2-  O226  1  0.11430535  0.97685286  0.22690537  1
  O2-  O227  1  0.10837257  0.98592696  0.71501078  1
  O2-  O228  1  0.61713996  0.46890451  0.24441831  1
  O2-  O229  1  0.62345920  0.48068992  0.74696771  1
  O2-  O230  1  0.62939678  0.98328661  0.24190043  1
  O2-  O231  1  0.61407994  0.96852781  0.73980438  1
  O2-  O232  1  0.38597061  0.03021134  0.26008919  1
  O2-  O233  1  0.38105321  0.03156993  0.77412647  1
  O2-  O234  1  0.37107608  0.51892823  0.25386287  1
  O2-  O235  1  0.37005375  0.51777357  0.75616263  1
  O2-  O236  1  0.86889800  0.01562240  0.26902571  1
  O2-  O237  1  0.88561938  0.03716621  0.76026108  1
  O2-  O238  1  0.88525571  0.53739945  0.25030669  1
  O2-  O239  1  0.87146808  0.51920460  0.75449580  1
  O2-  O240  1  0.47368723  0.38341286  0.22541081  1
  O2-  O241  1  0.47487716  0.38916437  0.73535964  1
  O2-  O242  1  0.48776367  0.88806460  0.21712898  1
  O2-  O243  1  0.46494305  0.88419256  0.75210142  1
  O2-  O244  1  0.98192626  0.38613207  0.27001351  1
  O2-  O245  1  0.98664889  0.37044371  0.74480903  1
  O2-  O246  1  0.98456396  0.88391422  0.27331565  1
  O2-  O247  1  0.96639001  0.88614961  0.76074576  1
  O2-  O248  1  0.02307819  0.11457309  0.25597367  1
  O2-  O249  1  0.01877219  0.13061315  0.74386842  1
  O2-  O250  1  0.03088101  0.61744498  0.22825637  1
  O2-  O251  1  0.02102497  0.61445743  0.74544993  1
  O2-  O252  1  0.52883987  0.11570501  0.26737683  1
  O2-  O253  1  0.53188226  0.11506346  0.76672365  1
  O2-  O254  1  0.51895623  0.61389974  0.25943887  1
  O2-  O255  1  0.50888234  0.61258393  0.78851492  1
  O2-  O256  1  0.13856456  0.46628126  0.00300313  1
  O2-  O257  1  0.13870602  0.47714896  0.51513444  1
  O2-  O258  1  0.13061722  0.97149461  0.02539676  1
  O2-  O259  1  0.11307846  0.98173672  0.52127103  1
  O2-  O260  1  0.61807926  0.47375909  0.00405380  1
  O2-  O261  1  0.63486081  0.47198565  0.51281026  1
  O2-  O262  1  0.62132917  0.98098617  0.01298190  1
  O2-  O263  1  0.63564125  0.98063085  0.51456395  1
  O2-  O264  1  0.38254623  0.01810603  -0.01173680  1
  O2-  O265  1  0.36115789  0.01849172  0.46522777  1
  O2-  O266  1  0.38050182  0.52219760  -0.00048932  1
  O2-  O267  1  0.36384628  0.53744895  0.50519566  1
  O2-  O268  1  0.86211820  0.02637456  -0.01020653  1
  O2-  O269  1  0.87085426  0.00848142  0.47885246  1
  O2-  O270  1  0.86457876  0.53005604  -0.00111695  1
  O2-  O271  1  0.86435621  0.52245968  0.49484855  1
  O2-  O272  1  0.48168432  0.37389985  0.01907125  1
  O2-  O273  1  0.48684150  0.36557182  0.52894530  1
  O2-  O274  1  0.48498163  0.87710582  0.01460493  1
  O2-  O275  1  0.47009655  0.86470508  0.51529606  1
  O2-  O276  1  0.96113003  0.36246692  -0.00534693  1
  O2-  O277  1  0.97572542  0.36438574  0.50617079  1
  O2-  O278  1  0.97793868  0.86805290  -0.01519921  1
  O2-  O279  1  0.98184133  0.87621743  0.48500119  1
  O2-  O280  1  0.03133925  0.13444812  -0.00328655  1
  O2-  O281  1  0.00835946  0.12166883  0.50346209  1
  O2-  O282  1  0.02247236  0.62944065  0.01211326  1
  O2-  O283  1  0.01301584  0.63533964  0.53104427  1
  O2-  O284  1  0.52003244  0.12327214  -0.01695977  1
  O2-  O285  1  0.52573221  0.13335148  0.47851157  1
  O2-  O286  1  0.51865667  0.61814493  -0.01627316  1
  O2-  O287  1  0.51836195  0.63605902  0.47344667  1
  O2-  O288  1  0.11353241  0.27666785  -0.02883844  1
  O2-  O289  1  0.11209408  0.26550138  0.47844540  1
  O2-  O290  1  0.12068558  0.76905929  0.01494661  1
  O2-  O291  1  0.12060401  0.77119862  0.51553779  1
  O2-  O292  1  0.61508232  0.26680736  -0.03304028  1
  O2-  O293  1  0.63777750  0.26771401  0.48543813  1
  O2-  O294  1  0.61412885  0.76000755  0.03973541  1
  O2-  O295  1  0.62411657  0.76742151  0.52025480  1
  O2-  O296  1  0.38631920  0.22627854  0.02365387  1
  O2-  O297  1  0.38523286  0.22155201  0.52676237  1
  O2-  O298  1  0.39085839  0.74509783  -0.04722711  1
  O2-  O299  1  0.36839960  0.73179555  0.47652346  1
  O2-  O300  1  0.88587375  0.21705719  0.01431317  1
  O2-  O301  1  0.87095161  0.22946049  0.52398816  1
  O2-  O302  1  0.88249086  0.72531919  -0.01948036  1
  O2-  O303  1  0.86798045  0.73197744  0.48197026  1
  O2-  O304  1  0.28986055  0.38410016  -0.00644925  1
  O2-  O305  1  0.28644020  0.38772281  0.49061733  1
  O2-  O306  1  0.27841724  0.88392873  -0.00174962  1
  O2-  O307  1  0.25933834  0.86872214  0.49316243  1
  O2-  O308  1  0.76207401  0.38755904  -0.03683976  1
  O2-  O309  1  0.77528920  0.37396921  0.49456305  1
  O2-  O310  1  0.76592941  0.88581662  -0.00523009  1
  O2-  O311  1  0.76492895  0.87018495  0.49599075  1
  O2-  O312  1  0.22954390  0.11693217  0.00381216  1
  O2-  O313  1  0.22210889  0.11319474  0.51052141  1
  O2-  O314  1  0.23658660  0.61299665  0.00595914  1
  O2-  O315  1  0.22098832  0.62996485  0.49869661  1
  O2-  O316  1  0.72416226  0.11723322  0.02504910  1
  O2-  O317  1  0.73514101  0.12414080  0.50673452  1
  O2-  O318  1  0.71377167  0.60991144  0.01053686  1
  O2-  O319  1  0.72471831  0.62529050  0.50563417  1
