# generated using pymatgen
data_Sr64Ca21Nb43O192
_symmetry_space_group_name_H-M   'P 1'
_cell_length_a   16.57207453
_cell_length_b   16.66082105
_cell_length_c   16.72711533
_cell_angle_alpha   89.99259570
_cell_angle_beta   90.01456364
_cell_angle_gamma   90.05412692
_symmetry_Int_Tables_number   1
_chemical_formula_structural   Sr64Ca21Nb43O192
_chemical_formula_sum   'Sr64 Ca21 Nb43 O192'
_cell_volume   4618.42736079
_cell_formula_units_Z   1
loop_
 _symmetry_equiv_pos_site_id
 _symmetry_equiv_pos_as_xyz
  1  'x, y, z'
loop_
 _atom_type_symbol
 _atom_type_oxidation_number
  Sr2+  2.0
  Ca2+  2.0
  Nb5+  5.0
  O2-  -2.0
loop_
 _atom_site_type_symbol
 _atom_site_label
 _atom_site_symmetry_multiplicity
 _atom_site_fract_x
 _atom_site_fract_y
 _atom_site_fract_z
 _atom_site_occupancy
  Sr2+  Sr0  1  0.13134074  0.13444078  0.12596991  1
  Sr2+  Sr1  1  0.12815353  0.13351404  0.61600678  1
  Sr2+  Sr2  1  0.13058804  0.64171772  0.12696843  1
  Sr2+  Sr3  1  0.13422105  0.63386724  0.63171762  1
  Sr2+  Sr4  1  0.62614039  0.12901294  0.12648919  1
  Sr2+  Sr5  1  0.62803051  0.13367770  0.62441644  1
  Sr2+  Sr6  1  0.60894382  0.63907119  0.12330991  1
  Sr2+  Sr7  1  0.61264004  0.63354552  0.61673748  1
  Sr2+  Sr8  1  0.37544399  0.38969124  0.12607605  1
  Sr2+  Sr9  1  0.37663031  0.39102196  0.62508935  1
  Sr2+  Sr10  1  0.37366548  0.85176654  0.12798550  1
  Sr2+  Sr11  1  0.37390115  0.84971198  0.62851920  1
  Sr2+  Sr12  1  0.87696414  0.38724109  0.13403154  1
  Sr2+  Sr13  1  0.87802687  0.38928345  0.61143259  1
  Sr2+  Sr14  1  0.87379964  0.87649703  0.13793301  1
  Sr2+  Sr15  1  0.87959532  0.87842432  0.62520508  1
  Sr2+  Sr16  1  0.11287973  0.36555636  0.36790320  1
  Sr2+  Sr17  1  0.10707054  0.36774633  0.87419788  1
  Sr2+  Sr18  1  0.11405544  0.86993187  0.38347808  1
  Sr2+  Sr19  1  0.11267128  0.87306552  0.86695043  1
  Sr2+  Sr20  1  0.63566616  0.37256204  0.37088566  1
  Sr2+  Sr21  1  0.63189893  0.36485243  0.87405475  1
  Sr2+  Sr22  1  0.62392095  0.86865962  0.36593950  1
  Sr2+  Sr23  1  0.63279619  0.86952550  0.86954449  1
  Sr2+  Sr24  1  0.37655013  0.11663708  0.37172814  1
  Sr2+  Sr25  1  0.37966653  0.11824113  0.87094089  1
  Sr2+  Sr26  1  0.38030395  0.61743814  0.38386962  1
  Sr2+  Sr27  1  0.37858243  0.61384570  0.87160142  1
  Sr2+  Sr28  1  0.88029686  0.11439175  0.37281928  1
  Sr2+  Sr29  1  0.87437753  0.12436708  0.88157736  1
  Sr2+  Sr30  1  0.87290138  0.62122852  0.37825603  1
  Sr2+  Sr31  1  0.88418312  0.62215402  0.86927678  1
  Sr2+  Sr32  1  0.12271035  0.11164543  0.37964394  1
  Sr2+  Sr33  1  0.12624241  0.11988241  0.87709943  1
  Sr2+  Sr34  1  0.12034853  0.63329601  0.36613115  1
  Sr2+  Sr35  1  0.11036190  0.61017028  0.87556870  1
  Sr2+  Sr36  1  0.62230550  0.10997797  0.37288161  1
  Sr2+  Sr37  1  0.62917375  0.11439001  0.87615257  1
  Sr2+  Sr38  1  0.62995151  0.62854469  0.38559864  1
  Sr2+  Sr39  1  0.62681918  0.62766414  0.87688165  1
  Sr2+  Sr40  1  0.37488788  0.36862406  0.37016310  1
  Sr2+  Sr41  1  0.37934239  0.36848713  0.86612925  1
  Sr2+  Sr42  1  0.37288691  0.85219149  0.37521834  1
  Sr2+  Sr43  1  0.36649570  0.87081882  0.87323144  1
  Sr2+  Sr44  1  0.87458691  0.39441277  0.37196971  1
  Sr2+  Sr45  1  0.87494732  0.38680247  0.88242023  1
  Sr2+  Sr46  1  0.86854844  0.85279907  0.37967851  1
  Sr2+  Sr47  1  0.86717662  0.85502232  0.86929933  1
  Sr2+  Sr48  1  0.13310421  0.38601589  0.12726260  1
  Sr2+  Sr49  1  0.13406653  0.37777963  0.61491125  1
  Sr2+  Sr50  1  0.14106292  0.87300018  0.12761263  1
  Sr2+  Sr51  1  0.13469244  0.88881339  0.62838968  1
  Sr2+  Sr52  1  0.61985101  0.37885788  0.12517152  1
  Sr2+  Sr53  1  0.63006021  0.37842394  0.62865499  1
  Sr2+  Sr54  1  0.62489883  0.88326702  0.12716870  1
  Sr2+  Sr55  1  0.63341927  0.87749218  0.62459164  1
  Sr2+  Sr56  1  0.38139840  0.13008009  0.11657985  1
  Sr2+  Sr57  1  0.38566286  0.12976247  0.61725262  1
  Sr2+  Sr58  1  0.36464939  0.62504373  0.12390857  1
  Sr2+  Sr59  1  0.37312646  0.62414245  0.62504330  1
  Sr2+  Sr60  1  0.87703045  0.13371663  0.12872185  1
  Sr2+  Sr61  1  0.88913044  0.13239991  0.62002351  1
  Sr2+  Sr62  1  0.88081934  0.63775113  0.12146334  1
  Sr2+  Sr63  1  0.86840132  0.63444741  0.61954824  1
  Ca2+  Ca64  1  0.50035928  -0.00355400  0.50141359  1
  Ca2+  Ca65  1  0.50057149  0.49416031  0.49945976  1
  Ca2+  Ca66  1  0.00015948  0.00150373  -0.00007012  1
  Ca2+  Ca67  1  0.49828421  0.00044738  -0.00154026  1
  Ca2+  Ca68  1  0.00766207  0.50187560  0.49793603  1
  Ca2+  Ca69  1  0.74947223  0.74956275  0.00371026  1
  Ca2+  Ca70  1  0.75130131  0.24959828  0.49627157  1
  Ca2+  Ca71  1  0.74897787  0.75199202  0.50252949  1
  Ca2+  Ca72  1  0.24428267  0.75179857  0.50349703  1
  Ca2+  Ca73  1  0.24808158  0.74894942  -0.00587001  1
  Ca2+  Ca74  1  0.50112080  0.75030690  0.75279883  1
  Ca2+  Ca75  1  0.25193134  0.49920803  0.25456144  1
  Ca2+  Ca76  1  -0.00237566  0.25229615  0.74728178  1
  Ca2+  Ca77  1  -0.00265414  0.24883244  0.24946509  1
  Ca2+  Ca78  1  -0.00289220  0.75291577  0.24964904  1
  Ca2+  Ca79  1  0.75227378  0.49921680  0.75119715  1
  Ca2+  Ca80  1  0.25360518  -0.00238054  0.25079680  1
  Ca2+  Ca81  1  0.24853403  0.49596210  0.75421146  1
  Ca2+  Ca82  1  0.00070502  0.74888209  0.74808973  1
  Ca2+  Ca83  1  0.74799759  0.50212633  0.24465841  1
  Ca2+  Ca84  1  0.49926941  0.74602502  0.25093680  1
  Nb5+  Nb85  1  -0.00514907  0.50041298  0.00468703  1
  Nb5+  Nb86  1  0.49665859  0.50153600  -0.00047911  1
  Nb5+  Nb87  1  -0.00177100  -0.00080395  0.49985493  1
  Nb5+  Nb88  1  0.25101985  0.25014512  0.49253211  1
  Nb5+  Nb89  1  0.25287571  0.25257729  -0.00536458  1
  Nb5+  Nb90  1  0.75409707  0.24842612  -0.00070171  1
  Nb5+  Nb91  1  0.26065365  0.00566527  0.74728591  1
  Nb5+  Nb92  1  0.49992004  0.24931562  0.24271993  1
  Nb5+  Nb93  1  0.75225017  0.00084565  0.25506514  1
  Nb5+  Nb94  1  0.75752589  0.00504995  0.75232252  1
  Nb5+  Nb95  1  0.50011745  0.24997538  0.74479466  1
  Nb5+  Nb96  1  0.00603458  -0.00658935  0.24473202  1
  Nb5+  Nb97  1  0.00633185  0.00668104  0.74981216  1
  Nb5+  Nb98  1  0.00167292  0.50292377  0.24975483  1
  Nb5+  Nb99  1  0.00218393  0.49593462  0.74255498  1
  Nb5+  Nb100  1  0.49604016  -0.00077146  0.24540169  1
  Nb5+  Nb101  1  0.50577199  -0.00113881  0.74802371  1
  Nb5+  Nb102  1  0.50354381  0.50067617  0.25374875  1
  Nb5+  Nb103  1  0.50676666  0.50028041  0.75073169  1
  Nb5+  Nb104  1  0.25107114  0.24804509  0.24367774  1
  Nb5+  Nb105  1  0.25193036  0.24859675  0.74156306  1
  Nb5+  Nb106  1  0.24850421  0.74919608  0.25458596  1
  Nb5+  Nb107  1  0.24603256  0.74545597  0.75932886  1
  Nb5+  Nb108  1  0.74865470  0.24703070  0.25355632  1
  Nb5+  Nb109  1  0.75404177  0.24752232  0.75282992  1
  Nb5+  Nb110  1  0.74412603  0.74368418  0.24817860  1
  Nb5+  Nb111  1  0.74433755  0.74365079  0.74804711  1
  Nb5+  Nb112  1  -0.00370612  0.24979202  0.49311068  1
  Nb5+  Nb113  1  0.00718961  0.25042956  1.00618246  1
  Nb5+  Nb114  1  0.00340422  0.74456690  0.50415461  1
  Nb5+  Nb115  1  -0.00269660  0.75813606  0.99770852  1
  Nb5+  Nb116  1  0.50478752  0.25375478  0.48903181  1
  Nb5+  Nb117  1  0.50456000  0.25405532  0.99596391  1
  Nb5+  Nb118  1  0.49769760  0.75016665  0.50061005  1
  Nb5+  Nb119  1  0.49659483  0.75506738  0.99845621  1
  Nb5+  Nb120  1  0.24926654  -0.00056436  0.00188420  1
  Nb5+  Nb121  1  0.25567488  0.00148276  0.50158157  1
  Nb5+  Nb122  1  0.24202097  0.49982794  -0.00307825  1
  Nb5+  Nb123  1  0.24675797  0.50510719  0.49854140  1
  Nb5+  Nb124  1  0.75221153  -0.00093576  0.00510107  1
  Nb5+  Nb125  1  0.74881712  0.00002381  0.50539788  1
  Nb5+  Nb126  1  0.74053045  0.50048082  0.00152267  1
  Nb5+  Nb127  1  0.75039907  0.49823554  0.50135677  1
  O2-  O128  1  0.01452863  -0.03456867  0.13307302  1
  O2-  O129  1  0.00509424  -0.01894216  0.62119325  1
  O2-  O130  1  0.01587433  0.47759149  0.11894398  1
  O2-  O131  1  0.01416238  0.47041810  0.63171303  1
  O2-  O132  1  0.53027169  0.01197202  0.13220053  1
  O2-  O133  1  0.51743126  0.02972877  0.63556718  1
  O2-  O134  1  0.52414950  0.50375071  0.11609034  1
  O2-  O135  1  0.52752437  0.49922103  0.63682253  1
  O2-  O136  1  -0.00542515  0.01915119  0.38036260  1
  O2-  O137  1  -0.00740860  0.03506514  0.86070439  1
  O2-  O138  1  -0.01345454  0.52037379  0.36381095  1
  O2-  O139  1  -0.01242228  0.51197818  0.88533652  1
  O2-  O140  1  0.49270944  0.00484596  0.36328107  1
  O2-  O141  1  0.47954254  0.00115224  0.86248421  1
  O2-  O142  1  0.47887581  0.48561594  0.36405617  1
  O2-  O143  1  0.48166244  0.48458002  0.88116774  1
  O2-  O144  1  0.26674298  0.22951336  0.12909468  1
  O2-  O145  1  0.26563061  0.22664403  0.62975552  1
  O2-  O146  1  0.26728482  0.73856462  0.13085873  1
  O2-  O147  1  0.26580147  0.73117381  0.64007193  1
  O2-  O148  1  0.75960867  0.25349536  0.11811177  1
  O2-  O149  1  0.75276171  0.25238259  0.63716991  1
  O2-  O150  1  0.77571936  0.76087381  0.13610136  1
  O2-  O151  1  0.77051454  0.76474408  0.63606503  1
  O2-  O152  1  0.23967825  0.26876149  0.37956211  1
  O2-  O153  1  0.23560352  0.26771818  0.88232522  1
  O2-  O154  1  0.22668498  0.76875300  0.36996819  1
  O2-  O155  1  0.23467391  0.79186667  0.86685550  1
  O2-  O156  1  0.71471909  0.23613447  0.36190375  1
  O2-  O157  1  0.72733956  0.23187439  0.87728434  1
  O2-  O158  1  0.72504517  0.75494164  0.36773182  1
  O2-  O159  1  0.72833995  0.75227702  0.86854539  1
  O2-  O160  1  -0.03324729  0.26523922  0.11476369  1
  O2-  O161  1  -0.01910098  0.26771252  0.60999311  1
  O2-  O162  1  -0.02956613  0.76065443  0.11450670  1
  O2-  O163  1  -0.03048667  0.75840946  0.61687725  1
  O2-  O164  1  0.48521090  0.24226939  0.12402044  1
  O2-  O165  1  0.49158106  0.24106026  0.62954960  1
  O2-  O166  1  0.47560306  0.72677493  0.11570349  1
  O2-  O167  1  0.47888004  0.72778686  0.62041890  1
  O2-  O168  1  0.26605212  -0.01641651  0.38915785  1
  O2-  O169  1  0.27145519  -0.00287839  0.86650983  1
  O2-  O170  1  0.28432045  0.48824134  0.38728825  1
  O2-  O171  1  0.28133732  0.47956297  0.88949605  1
  O2-  O172  1  0.76429921  0.01191874  0.37144926  1
  O2-  O173  1  0.76446009  0.01480322  0.86948353  1
  O2-  O174  1  0.76615096  0.51374871  0.38035046  1
  O2-  O175  1  0.77505664  0.51185545  0.88954771  1
  O2-  O176  1  0.03263644  0.22866585  0.38133024  1
  O2-  O177  1  0.01568262  0.23464057  0.88821588  1
  O2-  O178  1  0.02198594  0.74740319  0.38486695  1
  O2-  O179  1  0.02280540  0.73052764  0.88391499  1
  O2-  O180  1  0.51450290  0.26341622  0.37216691  1
  O2-  O181  1  0.50639009  0.26753482  0.88017941  1
  O2-  O182  1  0.51704632  0.76492071  0.38367494  1
  O2-  O183  1  0.53063951  0.75609117  0.88622524  1
  O2-  O184  1  0.22170968  0.01324234  0.11365715  1
  O2-  O185  1  0.23277057  0.02622931  0.63202768  1
  O2-  O186  1  0.24266416  0.50486796  0.11423880  1
  O2-  O187  1  0.22274301  0.50806394  0.61948189  1
  O2-  O188  1  0.73493585  -0.00558410  0.12100604  1
  O2-  O189  1  0.73618425  -0.00166197  0.62486254  1
  O2-  O190  1  0.74361998  0.46412671  0.11132860  1
  O2-  O191  1  0.74406545  0.47270018  0.61897763  1
  O2-  O192  1  0.13741923  0.26749084  0.22862441  1
  O2-  O193  1  0.13757675  0.26749717  0.73586025  1
  O2-  O194  1  0.13133954  0.77183720  0.23043735  1
  O2-  O195  1  0.13465264  0.77915113  0.73237520  1
  O2-  O196  1  0.62153142  0.26420830  0.22517828  1
  O2-  O197  1  0.61873679  0.26772795  0.74366951  1
  O2-  O198  1  0.63150911  0.78233793  0.23077165  1
  O2-  O199  1  0.63277614  0.78420680  0.73570881  1
  O2-  O200  1  0.38272965  0.22738958  0.26441272  1
  O2-  O201  1  0.37939532  0.23179711  0.76703294  1
  O2-  O202  1  0.36643958  0.72602545  0.27775227  1
  O2-  O203  1  0.36545361  0.74654188  0.77549606  1
  O2-  O204  1  0.86037468  0.21941594  0.26337755  1
  O2-  O205  1  0.86331666  0.21703125  0.76367841  1
  O2-  O206  1  0.86119217  0.72980685  0.27474783  1
  O2-  O207  1  0.86277129  0.73593261  0.77236252  1
  O2-  O208  1  0.28105197  0.36111015  0.24471247  1
  O2-  O209  1  0.27959328  0.36101090  0.74130953  1
  O2-  O210  1  0.27787762  0.86677523  0.23772123  1
  O2-  O211  1  0.26830673  0.89177716  0.73211744  1
  O2-  O212  1  0.76764490  0.36086949  0.25987662  1
  O2-  O213  1  0.76499073  0.35995757  0.77326699  1
  O2-  O214  1  0.76751636  0.88511037  0.25382541  1
  O2-  O215  1  0.76518958  0.88872439  0.75682618  1
  O2-  O216  1  0.23816662  0.13533526  0.27664749  1
  O2-  O217  1  0.23916352  0.13100412  0.77381458  1
  O2-  O218  1  0.22462453  0.63177326  0.25800069  1
  O2-  O219  1  0.22994859  0.63448575  0.78129326  1
  O2-  O220  1  0.72865497  0.12150142  0.23504552  1
  O2-  O221  1  0.71918845  0.12154403  0.74653718  1
  O2-  O222  1  0.71455036  0.63370699  0.23911068  1
  O2-  O223  1  0.71685587  0.63315062  0.73741974  1
  O2-  O224  1  0.11723368  0.46938435  0.25758609  1
  O2-  O225  1  0.11610405  0.47526338  0.77710373  1
  O2-  O226  1  0.11670541  0.97618341  0.27074853  1
  O2-  O227  1  0.12388919  0.99210472  0.76013901  1
  O2-  O228  1  0.61520448  0.46174500  0.25376547  1
  O2-  O229  1  0.61810143  0.47188495  0.77639145  1
  O2-  O230  1  0.63071833  0.98641644  0.26452809  1
  O2-  O231  1  0.62257760  0.98529123  0.76454171  1
  O2-  O232  1  0.38658433  0.03191234  0.22952845  1
  O2-  O233  1  0.37411787  0.02974038  0.73318301  1
  O2-  O234  1  0.39051910  0.51232289  0.22004107  1
  O2-  O235  1  0.38711956  0.51549045  0.73646417  1
  O2-  O236  1  0.86859796  0.02166495  0.23240984  1
  O2-  O237  1  0.86994199  0.02431390  0.73222176  1
  O2-  O238  1  0.88461823  0.52124928  0.22211183  1
  O2-  O239  1  0.88702001  0.53019090  0.73771733  1
  O2-  O240  1  0.48032218  0.36644598  0.23888208  1
  O2-  O241  1  0.48054213  0.36983034  0.74629657  1
  O2-  O242  1  0.47946729  0.88570413  0.23851157  1
  O2-  O243  1  0.47961307  0.88924650  0.73286635  1
  O2-  O244  1  0.97411287  0.38295069  0.26014407  1
  O2-  O245  1  0.97341695  0.38367368  0.77328426  1
  O2-  O246  1  0.96360162  0.88755548  0.27137192  1
  O2-  O247  1  0.97908951  0.89172395  0.76482215  1
  O2-  O248  1  0.01258398  0.11086311  0.22809926  1
  O2-  O249  1  0.01153399  0.11830902  0.71373051  1
  O2-  O250  1  0.02748549  0.61709482  0.23124007  1
  O2-  O251  1  0.03204280  0.61318889  0.74069541  1
  O2-  O252  1  0.52392041  0.13248872  0.25543648  1
  O2-  O253  1  0.51653376  0.13447500  0.76735105  1
  O2-  O254  1  0.53091980  0.61187056  0.26207594  1
  O2-  O255  1  0.52101317  0.61351494  0.76983207  1
  O2-  O256  1  0.12750531  0.47708034  -0.01650119  1
  O2-  O257  1  0.13942764  0.45978938  0.47994288  1
  O2-  O258  1  0.13685530  0.99148910  -0.03571242  1
  O2-  O259  1  0.12115259  0.98973028  0.49263597  1
  O2-  O260  1  0.62637935  0.47924767  -0.01991624  1
  O2-  O261  1  0.63480646  0.47101493  0.48326790  1
  O2-  O262  1  0.63711820  0.98642013  -0.02494393  1
  O2-  O263  1  0.63796111  0.97047507  0.48337503  1
  O2-  O264  1  0.36111390  0.03735924  0.00374776  1
  O2-  O265  1  0.36594954  0.02911902  0.51356169  1
  O2-  O266  1  0.38139294  0.51400083  0.01770870  1
  O2-  O267  1  0.36419224  0.51251513  0.52998587  1
  O2-  O268  1  0.86417458  0.03667091  0.00900402  1
  O2-  O269  1  0.87681940  0.02695822  0.50986232  1
  O2-  O270  1  0.87850328  0.50478908  0.01924172  1
  O2-  O271  1  0.87201271  0.52287836  0.51643087  1
  O2-  O272  1  0.48397577  0.37419363  0.01356882  1
  O2-  O273  1  0.46149671  0.36041151  0.50535340  1
  O2-  O274  1  0.47080658  0.86671130  0.00761523  1
  O2-  O275  1  0.46905009  0.86607857  0.51306894  1
  O2-  O276  1  0.99070071  0.37413669  -0.01523175  1
  O2-  O277  1  0.98809411  0.36362920  0.47054857  1
  O2-  O278  1  0.98121505  0.86841328  -0.02917597  1
  O2-  O279  1  0.97671641  0.88485295  0.48599414  1
  O2-  O280  1  0.01825813  0.13578872  0.02570305  1
  O2-  O281  1  0.01567571  0.12277654  0.51716815  1
  O2-  O282  1  0.01782814  0.61425441  0.01746843  1
  O2-  O283  1  0.03598548  0.63462697  0.51510209  1
  O2-  O284  1  0.51122517  0.13906954  -0.00725802  1
  O2-  O285  1  0.51596531  0.13717903  0.49145836  1
  O2-  O286  1  0.52083929  0.61475961  -0.01387126  1
  O2-  O287  1  0.51739918  0.62886347  0.48592914  1
  O2-  O288  1  0.12347075  0.26879584  0.02403258  1
  O2-  O289  1  0.13179774  0.25843490  0.51970758  1
  O2-  O290  1  0.11378062  0.76405967  0.02594899  1
  O2-  O291  1  0.11209813  0.78832328  0.52271768  1
  O2-  O292  1  0.61924105  0.26874791  0.01223427  1
  O2-  O293  1  0.61371272  0.27868626  0.51375854  1
  O2-  O294  1  0.61362686  0.76362229  0.03109407  1
  O2-  O295  1  0.61437614  0.76749550  0.52649635  1
  O2-  O296  1  0.37033502  0.23986276  -0.01207361  1
  O2-  O297  1  0.36881553  0.22268558  0.48470760  1
  O2-  O298  1  0.38399300  0.72256276  -0.02574178  1
  O2-  O299  1  0.37739016  0.72989716  0.48150339  1
  O2-  O300  1  0.86832419  0.23640002  -0.01747393  1
  O2-  O301  1  0.88532013  0.22246142  0.47585919  1
  O2-  O302  1  0.88343358  0.72131856  -0.02056449  1
  O2-  O303  1  0.88495166  0.72886710  0.47954400  1
  O2-  O304  1  0.25905194  0.36795215  0.02334235  1
  O2-  O305  1  0.26844649  0.36044550  0.52339320  1
  O2-  O306  1  0.27376044  0.88830655  0.01309276  1
  O2-  O307  1  0.26136234  0.89067479  0.53340709  1
  O2-  O308  1  0.75471869  0.36495273  -0.02149011  1
  O2-  O309  1  0.78213975  0.38022833  0.48583294  1
  O2-  O310  1  0.77792742  0.88790488  -0.00647981  1
  O2-  O311  1  0.78316066  0.88749978  0.50195726  1
  O2-  O312  1  0.22491832  0.13759671  -0.00607845  1
  O2-  O313  1  0.22795378  0.12539370  0.48999328  1
  O2-  O314  1  0.22974079  0.61268708  -0.01714796  1
  O2-  O315  1  0.22208548  0.61574085  0.48539368  1
  O2-  O316  1  0.72489733  0.13065471  0.00602000  1
  O2-  O317  1  0.72472145  0.11541962  0.50301099  1
  O2-  O318  1  0.72713767  0.61157956  0.02305001  1
  O2-  O319  1  0.72578528  0.61546407  0.51716665  1
