# generated using pymatgen
data_Sr64Ca21Nb43O192
_symmetry_space_group_name_H-M   'P 1'
_cell_length_a   16.58925275
_cell_length_b   16.57305150
_cell_length_c   16.73495229
_cell_angle_alpha   90.01910700
_cell_angle_beta   89.99646969
_cell_angle_gamma   89.91469027
_symmetry_Int_Tables_number   1
_chemical_formula_structural   Sr64Ca21Nb43O192
_chemical_formula_sum   'Sr64 Ca21 Nb43 O192'
_cell_volume   4601.01104590
_cell_formula_units_Z   1
loop_
 _symmetry_equiv_pos_site_id
 _symmetry_equiv_pos_as_xyz
  1  'x, y, z'
loop_
 _atom_type_symbol
 _atom_type_oxidation_number
  Sr2+  2.0
  Ca2+  2.0
  Nb5+  5.0
  O2-  -2.0
loop_
 _atom_site_type_symbol
 _atom_site_label
 _atom_site_symmetry_multiplicity
 _atom_site_fract_x
 _atom_site_fract_y
 _atom_site_fract_z
 _atom_site_occupancy
  Sr2+  Sr0  1  0.12996392  0.11639060  0.12875118  1
  Sr2+  Sr1  1  0.13654678  0.11679512  0.62483830  1
  Sr2+  Sr2  1  0.13137442  0.62276100  0.11481555  1
  Sr2+  Sr3  1  0.12991979  0.63105291  0.62422353  1
  Sr2+  Sr4  1  0.63158788  0.12136267  0.12201143  1
  Sr2+  Sr5  1  0.62813888  0.12902648  0.63152232  1
  Sr2+  Sr6  1  0.62965056  0.63101046  0.11998671  1
  Sr2+  Sr7  1  0.63189321  0.62028547  0.62788065  1
  Sr2+  Sr8  1  0.38563326  0.37635470  0.13102700  1
  Sr2+  Sr9  1  0.38855941  0.38319109  0.61603518  1
  Sr2+  Sr10  1  0.37745368  0.87629518  0.12230441  1
  Sr2+  Sr11  1  0.37660345  0.87462781  0.62229293  1
  Sr2+  Sr12  1  0.88701019  0.37761373  0.12408758  1
  Sr2+  Sr13  1  0.87881472  0.37987114  0.63453591  1
  Sr2+  Sr14  1  0.88223289  0.86959545  0.13363098  1
  Sr2+  Sr15  1  0.88134255  0.87269068  0.61715334  1
  Sr2+  Sr16  1  0.11425472  0.36694954  0.37250752  1
  Sr2+  Sr17  1  0.11390489  0.37229836  0.87394183  1
  Sr2+  Sr18  1  0.11564068  0.86552732  0.37956235  1
  Sr2+  Sr19  1  0.11977421  0.87304165  0.86821171  1
  Sr2+  Sr20  1  0.61050023  0.38719722  0.37381626  1
  Sr2+  Sr21  1  0.64310699  0.37256413  0.87342979  1
  Sr2+  Sr22  1  0.63699845  0.87601123  0.37352793  1
  Sr2+  Sr23  1  0.61724858  0.87409441  0.87181069  1
  Sr2+  Sr24  1  0.37572814  0.12765390  0.37622495  1
  Sr2+  Sr25  1  0.37828791  0.12634559  0.87447760  1
  Sr2+  Sr26  1  0.37640988  0.61428654  0.37715630  1
  Sr2+  Sr27  1  0.37425946  0.62779757  0.86779000  1
  Sr2+  Sr28  1  0.86346984  0.12987705  0.37657596  1
  Sr2+  Sr29  1  0.86643161  0.13499140  0.87262625  1
  Sr2+  Sr30  1  0.85696238  0.61763059  0.38120338  1
  Sr2+  Sr31  1  0.86451675  0.60831582  0.87763584  1
  Sr2+  Sr32  1  0.11913510  0.13353491  0.37626026  1
  Sr2+  Sr33  1  0.12203122  0.12503918  0.86783436  1
  Sr2+  Sr34  1  0.11747224  0.61503171  0.38316851  1
  Sr2+  Sr35  1  0.12157374  0.60606918  0.87079106  1
  Sr2+  Sr36  1  0.61882206  0.13093032  0.37565462  1
  Sr2+  Sr37  1  0.61661295  0.13970425  0.87925367  1
  Sr2+  Sr38  1  0.61640505  0.62063820  0.36970804  1
  Sr2+  Sr39  1  0.61414561  0.62268323  0.87103430  1
  Sr2+  Sr40  1  0.36667386  0.36537663  0.37522061  1
  Sr2+  Sr41  1  0.35995391  0.37550868  0.87442086  1
  Sr2+  Sr42  1  0.36899654  0.85973189  0.36957375  1
  Sr2+  Sr43  1  0.37148504  0.87397725  0.86947200  1
  Sr2+  Sr44  1  0.86905610  0.37391779  0.37307578  1
  Sr2+  Sr45  1  0.87349774  0.36580188  0.87659779  1
  Sr2+  Sr46  1  0.86914524  0.87868862  0.38275613  1
  Sr2+  Sr47  1  0.86948507  0.86432883  0.87461786  1
  Sr2+  Sr48  1  0.12867781  0.37267546  0.12974101  1
  Sr2+  Sr49  1  0.13169094  0.37096133  0.62804059  1
  Sr2+  Sr50  1  0.13134815  0.87327317  0.12327633  1
  Sr2+  Sr51  1  0.11550565  0.87610307  0.62457321  1
  Sr2+  Sr52  1  0.62081530  0.37877930  0.12474071  1
  Sr2+  Sr53  1  0.63699034  0.38325411  0.63130630  1
  Sr2+  Sr54  1  0.64901613  0.87335697  0.12835403  1
  Sr2+  Sr55  1  0.64893023  0.87348997  0.62435948  1
  Sr2+  Sr56  1  0.39161202  0.12043223  0.12381769  1
  Sr2+  Sr57  1  0.38643669  0.12852956  0.61474473  1
  Sr2+  Sr58  1  0.38318439  0.62879729  0.11962440  1
  Sr2+  Sr59  1  0.39230618  0.63243104  0.62453640  1
  Sr2+  Sr60  1  0.88104423  0.12515753  0.12541233  1
  Sr2+  Sr61  1  0.86368657  0.12666214  0.62703343  1
  Sr2+  Sr62  1  0.87043383  0.62431595  0.12720546  1
  Sr2+  Sr63  1  0.86751871  0.62075035  0.62202065  1
  Ca2+  Ca64  1  0.50012644  -0.00121564  0.50008625  1
  Ca2+  Ca65  1  0.49610461  0.50123948  -0.00484238  1
  Ca2+  Ca66  1  0.00024870  0.49771135  0.49653211  1
  Ca2+  Ca67  1  0.50046041  0.50157711  0.50227017  1
  Ca2+  Ca68  1  0.00087411  0.00609091  0.49974703  1
  Ca2+  Ca69  1  0.75151639  0.25286445  0.49911574  1
  Ca2+  Ca70  1  0.74897297  0.75031906  -0.00396687  1
  Ca2+  Ca71  1  0.74940701  0.25068444  0.00699148  1
  Ca2+  Ca72  1  0.24996536  0.24565522  0.00260617  1
  Ca2+  Ca73  1  0.74811189  0.74688662  0.49906415  1
  Ca2+  Ca74  1  0.00188091  0.24755862  0.74799850  1
  Ca2+  Ca75  1  0.00374202  0.75031992  0.25035730  1
  Ca2+  Ca76  1  0.25053307  0.50052440  0.25137423  1
  Ca2+  Ca77  1  0.25064836  0.50005693  0.74449621  1
  Ca2+  Ca78  1  0.74875536  0.49568762  0.24544861  1
  Ca2+  Ca79  1  0.49775940  0.25074679  0.25024933  1
  Ca2+  Ca80  1  0.49995197  0.75149141  0.24846410  1
  Ca2+  Ca81  1  0.00383792  0.74653266  0.75339824  1
  Ca2+  Ca82  1  0.74823921  -0.00181660  0.75437707  1
  Ca2+  Ca83  1  0.75169688  0.50116000  0.75403765  1
  Ca2+  Ca84  1  0.49676588  0.25271553  0.75017863  1
  Nb5+  Nb85  1  0.00229553  -0.00513458  -0.00064229  1
  Nb5+  Nb86  1  0.50849061  -0.00298330  0.00123991  1
  Nb5+  Nb87  1  -0.00111115  0.49437170  -0.00094072  1
  Nb5+  Nb88  1  0.24928041  0.74292227  0.49489418  1
  Nb5+  Nb89  1  0.24751814  0.74998619  -0.00876391  1
  Nb5+  Nb90  1  0.24714707  0.24224379  0.49947369  1
  Nb5+  Nb91  1  0.75761546  0.00317165  0.24993479  1
  Nb5+  Nb92  1  0.50339006  0.75490409  0.74668051  1
  Nb5+  Nb93  1  0.25285930  -0.00112041  0.74589865  1
  Nb5+  Nb94  1  0.25545264  0.00011407  0.24623991  1
  Nb5+  Nb95  1  -0.00354966  0.24841373  0.25030554  1
  Nb5+  Nb96  1  0.00460663  0.00193530  0.25104554  1
  Nb5+  Nb97  1  -0.00471855  0.00194010  0.75025387  1
  Nb5+  Nb98  1  0.00256874  0.50710005  0.24661946  1
  Nb5+  Nb99  1  0.00328157  0.49798592  0.74413615  1
  Nb5+  Nb100  1  0.50718462  -0.00068615  0.25102170  1
  Nb5+  Nb101  1  0.50006587  -0.00091601  0.74874177  1
  Nb5+  Nb102  1  0.49750422  0.50338422  0.24601060  1
  Nb5+  Nb103  1  0.49597720  0.49414635  0.75411695  1
  Nb5+  Nb104  1  0.24891756  0.24541299  0.24738465  1
  Nb5+  Nb105  1  0.25681928  0.25106853  0.74834378  1
  Nb5+  Nb106  1  0.24518201  0.74416422  0.24624922  1
  Nb5+  Nb107  1  0.25172438  0.75162912  0.74325841  1
  Nb5+  Nb108  1  0.74758073  0.25235484  0.24744837  1
  Nb5+  Nb109  1  0.74927744  0.24747929  0.75076223  1
  Nb5+  Nb110  1  0.75007205  0.74589157  0.25310772  1
  Nb5+  Nb111  1  0.75632638  0.74842493  0.75305800  1
  Nb5+  Nb112  1  -0.00233851  0.25036491  0.50465022  1
  Nb5+  Nb113  1  0.00597460  0.24159799  1.00249130  1
  Nb5+  Nb114  1  -0.00188768  0.74629629  0.50001167  1
  Nb5+  Nb115  1  0.00153674  0.74202473  0.99850079  1
  Nb5+  Nb116  1  0.50612019  0.25458827  0.49895017  1
  Nb5+  Nb117  1  0.49252593  0.25853343  0.99742687  1
  Nb5+  Nb118  1  0.50309552  0.75481684  0.49734625  1
  Nb5+  Nb119  1  0.50055788  0.75475803  1.00023265  1
  Nb5+  Nb120  1  0.25231915  -0.00178749  -0.00473388  1
  Nb5+  Nb121  1  0.25187008  -0.00810923  0.49122024  1
  Nb5+  Nb122  1  0.25281851  0.49572848  0.00119208  1
  Nb5+  Nb123  1  0.24955107  0.48931061  0.50057088  1
  Nb5+  Nb124  1  0.75943132  -0.00089683  -0.00135667  1
  Nb5+  Nb125  1  0.74824446  0.00411950  0.50329005  1
  Nb5+  Nb126  1  0.74467919  0.49880743  0.00307143  1
  Nb5+  Nb127  1  0.75009146  0.49564837  0.49892368  1
  O2-  O128  1  -0.01263208  -0.01030460  0.11978923  1
  O2-  O129  1  -0.00654835  -0.02115602  0.63751070  1
  O2-  O130  1  0.01764886  0.47803822  0.11762815  1
  O2-  O131  1  0.00935411  0.47334142  0.63190744  1
  O2-  O132  1  0.48596960  -0.01696764  0.11888342  1
  O2-  O133  1  0.47286808  -0.00904384  0.63789058  1
  O2-  O134  1  0.49679008  0.47904642  0.12830701  1
  O2-  O135  1  0.51484492  0.48306862  0.63731244  1
  O2-  O136  1  0.01012224  0.02363901  0.36257207  1
  O2-  O137  1  0.00772915  0.02457487  0.88503635  1
  O2-  O138  1  -0.01421413  0.52730603  0.35866672  1
  O2-  O139  1  -0.00740000  0.52053908  0.88357767  1
  O2-  O140  1  0.50511898  0.02352932  0.36279748  1
  O2-  O141  1  0.50478290  0.01116935  0.88151847  1
  O2-  O142  1  0.50191661  0.52289069  0.36713395  1
  O2-  O143  1  0.48999849  0.53460113  0.86560960  1
  O2-  O144  1  0.23431024  0.22383513  0.13622290  1
  O2-  O145  1  0.24421050  0.22854650  0.61847099  1
  O2-  O146  1  0.25901719  0.73549654  0.12955636  1
  O2-  O147  1  0.26352985  0.73811209  0.62754199  1
  O2-  O148  1  0.74905258  0.21260513  0.13750243  1
  O2-  O149  1  0.74299109  0.22492672  0.63282729  1
  O2-  O150  1  0.74570342  0.73477223  0.13252095  1
  O2-  O151  1  0.75040028  0.72524164  0.63449231  1
  O2-  O152  1  0.24678860  0.25684437  0.37552756  1
  O2-  O153  1  0.25955874  0.25872426  0.86453806  1
  O2-  O154  1  0.23842878  0.76656954  0.38152658  1
  O2-  O155  1  0.24416006  0.77463622  0.87863931  1
  O2-  O156  1  0.77433106  0.25526650  0.36238761  1
  O2-  O157  1  0.76184869  0.26426637  0.87186775  1
  O2-  O158  1  0.75525727  0.78030751  0.36661445  1
  O2-  O159  1  0.73563040  0.78408324  0.86422160  1
  O2-  O160  1  0.00831191  0.26690492  0.12815200  1
  O2-  O161  1  0.00082114  0.28086583  0.61450574  1
  O2-  O162  1  -0.00026493  0.77578935  0.11110352  1
  O2-  O163  1  -0.00441036  0.77037174  0.61801126  1
  O2-  O164  1  0.50128303  0.27181901  0.11627173  1
  O2-  O165  1  0.49192007  0.27325868  0.61547380  1
  O2-  O166  1  0.47546263  0.76342603  0.11355655  1
  O2-  O167  1  0.48435435  0.77010661  0.63117279  1
  O2-  O168  1  0.24070012  -0.01888307  0.37548101  1
  O2-  O169  1  0.24219699  -0.02164218  0.88183229  1
  O2-  O170  1  0.28259199  0.49333621  0.38513081  1
  O2-  O171  1  0.25274774  0.48232400  0.88290241  1
  O2-  O172  1  0.75091986  -0.02001659  0.36672375  1
  O2-  O173  1  0.75182580  -0.03001912  0.88845605  1
  O2-  O174  1  0.75855306  0.47521357  0.37963608  1
  O2-  O175  1  0.77357879  0.47562753  0.88899142  1
  O2-  O176  1  -0.00266260  0.22446019  0.36667723  1
  O2-  O177  1  0.00397534  0.23086399  0.88655416  1
  O2-  O178  1  0.02867476  0.73839344  0.38461785  1
  O2-  O179  1  0.03742055  0.74323118  0.88822042  1
  O2-  O180  1  0.49349562  0.22248828  0.38368383  1
  O2-  O181  1  0.49000000  0.22511453  0.88346821  1
  O2-  O182  1  0.50494942  0.73356947  0.38514757  1
  O2-  O183  1  0.50365812  0.74391417  0.87390511  1
  O2-  O184  1  0.25148414  0.01002172  0.12854800  1
  O2-  O185  1  0.26456965  0.01026291  0.63143400  1
  O2-  O186  1  0.23387028  0.51845319  0.11536031  1
  O2-  O187  1  0.21173698  0.50489423  0.61239603  1
  O2-  O188  1  0.74859860  0.01957382  0.12895287  1
  O2-  O189  1  0.74571378  0.02541140  0.61737679  1
  O2-  O190  1  0.74477647  0.53713566  0.11510825  1
  O2-  O191  1  0.74204535  0.51687612  0.61901350  1
  O2-  O192  1  0.12168312  0.25639296  0.25821381  1
  O2-  O193  1  0.13850671  0.26526165  0.74612210  1
  O2-  O194  1  0.13709606  0.79071870  0.24772090  1
  O2-  O195  1  0.13960589  0.78017656  0.73924071  1
  O2-  O196  1  0.63408416  0.26952162  0.25968548  1
  O2-  O197  1  0.63112801  0.27440769  0.75679713  1
  O2-  O198  1  0.63401641  0.77983256  0.24922972  1
  O2-  O199  1  0.61783238  0.77800949  0.74241619  1
  O2-  O200  1  0.36110118  0.21718849  0.25064078  1
  O2-  O201  1  0.36524903  0.20699204  0.74048611  1
  O2-  O202  1  0.35933733  0.73640152  0.27286608  1
  O2-  O203  1  0.37485789  0.74004489  0.76108961  1
  O2-  O204  1  0.88162202  0.22372179  0.24053179  1
  O2-  O205  1  0.86917996  0.22052742  0.74602260  1
  O2-  O206  1  0.86896214  0.73706818  0.24524309  1
  O2-  O207  1  0.86864863  0.72821055  0.77225766  1
  O2-  O208  1  0.26568805  0.35973855  0.23467589  1
  O2-  O209  1  0.28251774  0.36153489  0.72714663  1
  O2-  O210  1  0.27176731  0.88261930  0.24038988  1
  O2-  O211  1  0.27656772  0.87644617  0.74214977  1
  O2-  O212  1  0.77482804  0.36071490  0.22388956  1
  O2-  O213  1  0.77084063  0.36583074  0.73428408  1
  O2-  O214  1  0.76766774  0.88487891  0.23029032  1
  O2-  O215  1  0.77315047  0.86583975  0.72044108  1
  O2-  O216  1  0.22308328  0.11433074  0.26803561  1
  O2-  O217  1  0.23036756  0.11404115  0.76400880  1
  O2-  O218  1  0.21246044  0.63637229  0.26393277  1
  O2-  O219  1  0.23428106  0.64002224  0.76915465  1
  O2-  O220  1  0.72674360  0.11710214  0.27015216  1
  O2-  O221  1  0.72380845  0.13033949  0.77480088  1
  O2-  O222  1  0.73474425  0.63343730  0.27617434  1
  O2-  O223  1  0.72198096  0.63645947  0.77136960  1
  O2-  O224  1  0.11393327  0.46739964  0.25714587  1
  O2-  O225  1  0.11828481  0.47420707  0.76910924  1
  O2-  O226  1  0.12039686  0.98333735  0.23692205  1
  O2-  O227  1  0.13582921  0.97423158  0.74886409  1
  O2-  O228  1  0.61552586  0.46875827  0.24800221  1
  O2-  O229  1  0.61545102  0.48196918  0.76893654  1
  O2-  O230  1  0.62227992  0.97928462  0.24329179  1
  O2-  O231  1  0.61188759  0.96885965  0.74418258  1
  O2-  O232  1  0.36748260  0.02435061  0.25463864  1
  O2-  O233  1  0.37116292  0.01020344  0.77483155  1
  O2-  O234  1  0.38209794  0.53984773  0.24005585  1
  O2-  O235  1  0.38332134  0.53367399  0.73632986  1
  O2-  O236  1  0.87302985  0.02563278  0.25007692  1
  O2-  O237  1  0.88470177  0.03016369  0.75875288  1
  O2-  O238  1  0.88727758  0.50420536  0.22183876  1
  O2-  O239  1  0.88710990  0.52925104  0.74311536  1
  O2-  O240  1  0.46462917  0.38558419  0.26654553  1
  O2-  O241  1  0.46505196  0.38550085  0.77189491  1
  O2-  O242  1  0.46888055  0.88885113  0.25818838  1
  O2-  O243  1  0.47820899  0.87524768  0.76856609  1
  O2-  O244  1  0.98128904  0.36440788  0.26398796  1
  O2-  O245  1  0.97859423  0.38326814  0.77525971  1
  O2-  O246  1  0.97401690  0.89042252  0.26311670  1
  O2-  O247  1  0.98927427  0.88799669  0.78317752  1
  O2-  O248  1  0.01357130  0.12238517  0.22358419  1
  O2-  O249  1  0.03775952  0.11132672  0.74067789  1
  O2-  O250  1  0.02259575  0.61636202  0.21869543  1
  O2-  O251  1  0.03536001  0.61429232  0.73977036  1
  O2-  O252  1  0.51242606  0.11322110  0.21846340  1
  O2-  O253  1  0.52169144  0.11287092  0.74345060  1
  O2-  O254  1  0.53215215  0.61901906  0.22868574  1
  O2-  O255  1  0.51963806  0.63876575  0.73411708  1
  O2-  O256  1  0.12303875  0.49321820  -0.01264128  1
  O2-  O257  1  0.13601376  0.48537141  0.46367426  1
  O2-  O258  1  0.11877087  0.97796958  0.00955197  1
  O2-  O259  1  0.13910941  0.98845709  0.52123240  1
  O2-  O260  1  0.63138423  0.47681689  -0.00718008  1
  O2-  O261  1  0.63364519  0.46825776  0.49845383  1
  O2-  O262  1  0.62143254  0.97332334  0.00738092  1
  O2-  O263  1  0.63336409  0.97157388  0.49599979  1
  O2-  O264  1  0.36695482  0.01607391  -0.00338225  1
  O2-  O265  1  0.36188972  0.02968648  0.49428501  1
  O2-  O266  1  0.36144493  0.53543021  0.00161144  1
  O2-  O267  1  0.36189050  0.51988466  0.52918363  1
  O2-  O268  1  0.87496265  0.02641453  -0.00320964  1
  O2-  O269  1  0.86685767  0.02334347  0.49070032  1
  O2-  O270  1  0.88401749  0.52002040  0.01503470  1
  O2-  O271  1  0.86869273  0.53106372  0.50388449  1
  O2-  O272  1  0.46107555  0.36760672  -0.01880756  1
  O2-  O273  1  0.47030146  0.36731061  0.47777935  1
  O2-  O274  1  0.47223654  0.87906459  -0.01582863  1
  O2-  O275  1  0.46167771  0.86599065  0.49070834  1
  O2-  O276  1  0.98383582  0.37949951  -0.01635849  1
  O2-  O277  1  0.98876725  0.36122923  0.46260530  1
  O2-  O278  1  0.98026754  0.88299634  -0.01852080  1
  O2-  O279  1  0.99020706  0.86811079  0.48105375  1
  O2-  O280  1  0.02134360  0.12652490  0.02145897  1
  O2-  O281  1  0.03875672  0.13960217  0.51197564  1
  O2-  O282  1  0.01607319  0.62811771  0.01759050  1
  O2-  O283  1  0.03237117  0.63367174  0.51648113  1
  O2-  O284  1  0.51857551  0.11321754  0.01692788  1
  O2-  O285  1  0.51757202  0.13556339  0.52612322  1
  O2-  O286  1  0.51733014  0.63987793  0.01099635  1
  O2-  O287  1  0.51281950  0.63990297  0.52811353  1
  O2-  O288  1  0.11698423  0.28131797  0.00147207  1
  O2-  O289  1  0.13116698  0.27561274  0.49679601  1
  O2-  O290  1  0.13254632  0.76815425  0.01719428  1
  O2-  O291  1  0.13689501  0.77295247  0.51861312  1
  O2-  O292  1  0.61198937  0.26821144  -0.01006375  1
  O2-  O293  1  0.61756545  0.27827114  0.49018007  1
  O2-  O294  1  0.61199867  0.78192307  0.00619854  1
  O2-  O295  1  0.61410885  0.78237814  0.50710472  1
  O2-  O296  1  0.38169637  0.21356779  0.00939285  1
  O2-  O297  1  0.36518902  0.23172525  0.49674261  1
  O2-  O298  1  0.36695832  0.73902306  -0.01053423  1
  O2-  O299  1  0.36755794  0.73029833  0.49470614  1
  O2-  O300  1  0.88824560  0.23946141  0.01089292  1
  O2-  O301  1  0.88740181  0.21754892  0.50432763  1
  O2-  O302  1  0.88782947  0.73636431  -0.02248936  1
  O2-  O303  1  0.88561661  0.72472527  0.49129013  1
  O2-  O304  1  0.27328647  0.38392863  0.02141056  1
  O2-  O305  1  0.26741800  0.37274680  0.51349609  1
  O2-  O306  1  0.25927535  0.87671818  0.02125081  1
  O2-  O307  1  0.27233972  0.87787382  0.50838212  1
  O2-  O308  1  0.76567588  0.38540917  0.03512368  1
  O2-  O309  1  0.78699472  0.38222332  0.51938875  1
  O2-  O310  1  0.77208967  0.88603948  0.03188627  1
  O2-  O311  1  0.77538122  0.88454458  0.51572382  1
  O2-  O312  1  0.21816154  0.10861541  -0.00969966  1
  O2-  O313  1  0.22819172  0.12620548  0.48493337  1
  O2-  O314  1  0.22746576  0.63534838  -0.01708386  1
  O2-  O315  1  0.22984305  0.62968168  0.48884686  1
  O2-  O316  1  0.72287149  0.11062252  -0.01303190  1
  O2-  O317  1  0.72590068  0.11676884  0.47406472  1
  O2-  O318  1  0.73365461  0.61689446  -0.02950320  1
  O2-  O319  1  0.72437691  0.61468145  0.47443792  1
