# generated using pymatgen
data_Sr64Ca21Nb43O192
_symmetry_space_group_name_H-M   'P 1'
_cell_length_a   16.54149902
_cell_length_b   16.52775205
_cell_length_c   16.71188635
_cell_angle_alpha   89.99622994
_cell_angle_beta   90.03419902
_cell_angle_gamma   90.03769047
_symmetry_Int_Tables_number   1
_chemical_formula_structural   Sr64Ca21Nb43O192
_chemical_formula_sum   'Sr64 Ca21 Nb43 O192'
_cell_volume   4568.92420558
_cell_formula_units_Z   1
loop_
 _symmetry_equiv_pos_site_id
 _symmetry_equiv_pos_as_xyz
  1  'x, y, z'
loop_
 _atom_type_symbol
 _atom_type_oxidation_number
  Sr2+  2.0
  Ca2+  2.0
  Nb5+  5.0
  O2-  -2.0
loop_
 _atom_site_type_symbol
 _atom_site_label
 _atom_site_symmetry_multiplicity
 _atom_site_fract_x
 _atom_site_fract_y
 _atom_site_fract_z
 _atom_site_occupancy
  Sr2+  Sr0  1  0.12598568  0.10968519  0.12580596  1
  Sr2+  Sr1  1  0.12047215  0.12818565  0.62817680  1
  Sr2+  Sr2  1  0.11808145  0.61724329  0.12977797  1
  Sr2+  Sr3  1  0.12508370  0.64620038  0.62146199  1
  Sr2+  Sr4  1  0.62309681  0.12466180  0.13013805  1
  Sr2+  Sr5  1  0.62629240  0.11907714  0.62912828  1
  Sr2+  Sr6  1  0.62429975  0.63679415  0.12446701  1
  Sr2+  Sr7  1  0.62217029  0.61646185  0.62523867  1
  Sr2+  Sr8  1  0.36432908  0.37030273  0.12499157  1
  Sr2+  Sr9  1  0.36856778  0.35945721  0.62011478  1
  Sr2+  Sr10  1  0.37504964  0.85432014  0.12035328  1
  Sr2+  Sr11  1  0.37434934  0.85562865  0.62907340  1
  Sr2+  Sr12  1  0.87916397  0.37086200  0.12835106  1
  Sr2+  Sr13  1  0.87908678  0.36585633  0.62748426  1
  Sr2+  Sr14  1  0.87890703  0.85690833  0.12537687  1
  Sr2+  Sr15  1  0.87379439  0.87122834  0.62280898  1
  Sr2+  Sr16  1  0.12910828  0.37974514  0.37359726  1
  Sr2+  Sr17  1  0.11622995  0.38372628  0.87612786  1
  Sr2+  Sr18  1  0.12106234  0.87486920  0.36499464  1
  Sr2+  Sr19  1  0.12395294  0.86294395  0.87394695  1
  Sr2+  Sr20  1  0.61798137  0.37545086  0.37438232  1
  Sr2+  Sr21  1  0.62534341  0.38278904  0.87507137  1
  Sr2+  Sr22  1  0.63111198  0.86942036  0.37939167  1
  Sr2+  Sr23  1  0.61850908  0.87782851  0.87434413  1
  Sr2+  Sr24  1  0.37271640  0.12274856  0.38023381  1
  Sr2+  Sr25  1  0.37522166  0.12974714  0.88261153  1
  Sr2+  Sr26  1  0.37703236  0.62218204  0.37255977  1
  Sr2+  Sr27  1  0.36063380  0.63018873  0.87782978  1
  Sr2+  Sr28  1  0.87692239  0.13122816  0.37561115  1
  Sr2+  Sr29  1  0.87231955  0.12673236  0.87123661  1
  Sr2+  Sr30  1  0.88151994  0.63880115  0.38124124  1
  Sr2+  Sr31  1  0.88336495  0.63014126  0.87120552  1
  Sr2+  Sr32  1  0.12540420  0.10868127  0.37262257  1
  Sr2+  Sr33  1  0.11954504  0.13159458  0.87468226  1
  Sr2+  Sr34  1  0.12339675  0.61131578  0.37930887  1
  Sr2+  Sr35  1  0.12104114  0.63028367  0.87421674  1
  Sr2+  Sr36  1  0.62689793  0.11127157  0.36790583  1
  Sr2+  Sr37  1  0.62368290  0.13435574  0.87952687  1
  Sr2+  Sr38  1  0.63130846  0.61743505  0.37911245  1
  Sr2+  Sr39  1  0.63519131  0.63235299  0.86885436  1
  Sr2+  Sr40  1  0.37884133  0.38026150  0.37112504  1
  Sr2+  Sr41  1  0.37362851  0.38059323  0.88070160  1
  Sr2+  Sr42  1  0.37313089  0.86652054  0.37038812  1
  Sr2+  Sr43  1  0.38138597  0.87393131  0.87600697  1
  Sr2+  Sr44  1  0.88110748  0.37771763  0.37295407  1
  Sr2+  Sr45  1  0.87166668  0.39058535  0.87372706  1
  Sr2+  Sr46  1  0.87593897  0.87078908  0.37628436  1
  Sr2+  Sr47  1  0.87426533  0.88959393  0.87764322  1
  Sr2+  Sr48  1  0.12309467  0.37333682  0.13278746  1
  Sr2+  Sr49  1  0.11822147  0.36152848  0.62288511  1
  Sr2+  Sr50  1  0.10481200  0.87350910  0.12710952  1
  Sr2+  Sr51  1  0.13603057  0.87589366  0.62804968  1
  Sr2+  Sr52  1  0.63370595  0.36316296  0.13097862  1
  Sr2+  Sr53  1  0.61296152  0.36756708  0.62306329  1
  Sr2+  Sr54  1  0.61340197  0.87180417  0.12539730  1
  Sr2+  Sr55  1  0.62152742  0.86755925  0.62656970  1
  Sr2+  Sr56  1  0.37340744  0.11804400  0.12687498  1
  Sr2+  Sr57  1  0.37659052  0.11969636  0.62139019  1
  Sr2+  Sr58  1  0.36714480  0.62379192  0.12301180  1
  Sr2+  Sr59  1  0.36648789  0.62057494  0.62547589  1
  Sr2+  Sr60  1  0.85378943  0.12206677  0.12362193  1
  Sr2+  Sr61  1  0.88364554  0.12048668  0.63137150  1
  Sr2+  Sr62  1  0.88139403  0.62519008  0.12570091  1
  Sr2+  Sr63  1  0.87803320  0.62223620  0.62147571  1
  Ca2+  Ca64  1  0.00150410  -0.00008551  0.49992027  1
  Ca2+  Ca65  1  -0.00082221  0.49954949  -0.00056825  1
  Ca2+  Ca66  1  -0.00254218  0.00133041  -0.00073434  1
  Ca2+  Ca67  1  0.50400813  0.50081754  0.00241932  1
  Ca2+  Ca68  1  -0.00169268  0.49762298  0.50339639  1
  Ca2+  Ca69  1  0.75011891  0.24595192  0.50284790  1
  Ca2+  Ca70  1  0.25119744  0.75271654  0.49528857  1
  Ca2+  Ca71  1  0.24499473  0.75282437  0.00294586  1
  Ca2+  Ca72  1  0.75208945  0.75004766  -0.00218579  1
  Ca2+  Ca73  1  0.24850652  0.24961150  0.49524583  1
  Ca2+  Ca74  1  0.50189663  0.74945819  0.25494915  1
  Ca2+  Ca75  1  0.75015463  0.50230832  0.25156404  1
  Ca2+  Ca76  1  0.25157650  0.00251421  0.75376041  1
  Ca2+  Ca77  1  0.74983595  -0.00668558  0.24895427  1
  Ca2+  Ca78  1  -0.00262182  0.75226191  0.74848035  1
  Ca2+  Ca79  1  0.49839578  0.25338475  0.24895979  1
  Ca2+  Ca80  1  0.24589711  0.49786498  0.74757827  1
  Ca2+  Ca81  1  -0.00009011  0.74728796  0.25243400  1
  Ca2+  Ca82  1  0.50038832  0.24941513  0.74943244  1
  Ca2+  Ca83  1  0.00318516  0.24674560  0.24550190  1
  Ca2+  Ca84  1  0.50055801  0.74535564  0.75024268  1
  Nb5+  Nb85  1  0.49747245  -0.00660150  0.50544943  1
  Nb5+  Nb86  1  0.49733781  0.49537394  0.50437287  1
  Nb5+  Nb87  1  0.49978654  0.00256237  0.00555428  1
  Nb5+  Nb88  1  0.74586047  0.25131738  -0.00339161  1
  Nb5+  Nb89  1  0.74753690  0.74698777  0.50303340  1
  Nb5+  Nb90  1  0.24179714  0.25130833  0.00010645  1
  Nb5+  Nb91  1  0.25031440  0.49624803  0.25087983  1
  Nb5+  Nb92  1  0.25601539  -0.00883978  0.24755123  1
  Nb5+  Nb93  1  0.74698949  0.00333780  0.75070305  1
  Nb5+  Nb94  1  0.00006963  0.24951370  0.75388654  1
  Nb5+  Nb95  1  0.74711896  0.50512376  0.74861567  1
  Nb5+  Nb96  1  -0.00743488  0.00461705  0.24874053  1
  Nb5+  Nb97  1  0.00221804  -0.00411388  0.75100625  1
  Nb5+  Nb98  1  -0.00603660  0.50153743  0.25626477  1
  Nb5+  Nb99  1  0.00318635  0.50115197  0.74520684  1
  Nb5+  Nb100  1  0.49905243  -0.00250186  0.25768784  1
  Nb5+  Nb101  1  0.49714630  0.00420261  0.75472280  1
  Nb5+  Nb102  1  0.50284054  0.50487328  0.24520806  1
  Nb5+  Nb103  1  0.49507338  0.50056857  0.75123221  1
  Nb5+  Nb104  1  0.25236507  0.24404696  0.25024307  1
  Nb5+  Nb105  1  0.25192493  0.24673909  0.75074236  1
  Nb5+  Nb106  1  0.24748168  0.74285030  0.25091114  1
  Nb5+  Nb107  1  0.24891272  0.74964660  0.75042443  1
  Nb5+  Nb108  1  0.75410293  0.25026117  0.25640955  1
  Nb5+  Nb109  1  0.75112041  0.25587757  0.75182483  1
  Nb5+  Nb110  1  0.74936199  0.74863296  0.24705629  1
  Nb5+  Nb111  1  0.75359184  0.75649477  0.75033661  1
  Nb5+  Nb112  1  -0.00186922  0.24811762  0.49292018  1
  Nb5+  Nb113  1  -0.00695626  0.24787516  0.99989962  1
  Nb5+  Nb114  1  0.00363849  0.75737942  0.50044711  1
  Nb5+  Nb115  1  -0.00007383  0.74696466  0.99947292  1
  Nb5+  Nb116  1  0.50390305  0.24008667  0.49838116  1
  Nb5+  Nb117  1  0.49196309  0.25267669  1.00380469  1
  Nb5+  Nb118  1  0.50068759  0.74151751  0.49812363  1
  Nb5+  Nb119  1  0.50443047  0.74485552  0.99536411  1
  Nb5+  Nb120  1  0.25133990  -0.00073566  -0.00034868  1
  Nb5+  Nb121  1  0.25053996  -0.00304250  0.50112161  1
  Nb5+  Nb122  1  0.24551199  0.50375416  -0.00038662  1
  Nb5+  Nb123  1  0.24886547  0.49538890  0.50593909  1
  Nb5+  Nb124  1  0.74884650  -0.00074446  0.00006594  1
  Nb5+  Nb125  1  0.74969748  0.00082239  0.49933030  1
  Nb5+  Nb126  1  0.74913670  0.50346714  0.00419483  1
  Nb5+  Nb127  1  0.75091107  0.49522885  0.50181573  1
  O2-  O128  1  0.00755901  -0.00122262  0.13180511  1
  O2-  O129  1  -0.00475730  0.00827479  0.63417696  1
  O2-  O130  1  -0.01756400  0.50537897  0.13576344  1
  O2-  O131  1  -0.03539671  0.49006486  0.63466036  1
  O2-  O132  1  0.50650804  0.01200668  0.12187228  1
  O2-  O133  1  0.50031545  0.01996285  0.62080828  1
  O2-  O134  1  0.49833811  0.54032128  0.13613826  1
  O2-  O135  1  0.49054497  0.52785211  0.62134585  1
  O2-  O136  1  0.01361710  -0.00178998  0.36585017  1
  O2-  O137  1  -0.00906256  0.01650631  0.86588084  1
  O2-  O138  1  0.02668705  0.48971174  0.37120629  1
  O2-  O139  1  0.01192862  0.50758156  0.86277479  1
  O2-  O140  1  0.49648109  -0.01111611  0.37600130  1
  O2-  O141  1  0.49826792  -0.00972186  0.87274672  1
  O2-  O142  1  0.50883021  0.48090449  0.38601064  1
  O2-  O143  1  0.50654814  0.47438940  0.86405412  1
  O2-  O144  1  0.22897028  0.26218162  0.11900474  1
  O2-  O145  1  0.23063127  0.25854269  0.63555154  1
  O2-  O146  1  0.26524464  0.74515300  0.13459920  1
  O2-  O147  1  0.24741805  0.76163751  0.62913594  1
  O2-  O148  1  0.73698024  0.24203322  0.11383461  1
  O2-  O149  1  0.73891876  0.23681585  0.63942158  1
  O2-  O150  1  0.74854593  0.74851405  0.13156544  1
  O2-  O151  1  0.74152833  0.75231379  0.62446917  1
  O2-  O152  1  0.28310555  0.24885386  0.36018334  1
  O2-  O153  1  0.26677106  0.23627680  0.88165970  1
  O2-  O154  1  0.24304591  0.77311422  0.36490497  1
  O2-  O155  1  0.24137204  0.73806003  0.86926115  1
  O2-  O156  1  0.77826121  0.25333565  0.36862900  1
  O2-  O157  1  0.77233681  0.24762888  0.87556067  1
  O2-  O158  1  0.75195020  0.75052796  0.38241774  1
  O2-  O159  1  0.75896235  0.74079599  0.86442854  1
  O2-  O160  1  0.01195378  0.27251233  0.11031268  1
  O2-  O161  1  0.01032020  0.25305015  0.63297578  1
  O2-  O162  1  -0.00643513  0.75175418  0.11956323  1
  O2-  O163  1  -0.00479793  0.74784037  0.61649614  1
  O2-  O164  1  0.53318952  0.24405362  0.11338566  1
  O2-  O165  1  0.52492497  0.23275952  0.61669358  1
  O2-  O166  1  0.50648707  0.74507772  0.11664296  1
  O2-  O167  1  0.50628494  0.75056102  0.61462580  1
  O2-  O168  1  0.25514715  -0.00710105  0.36664632  1
  O2-  O169  1  0.25534407  0.02250494  0.88790897  1
  O2-  O170  1  0.24008017  0.50086946  0.37175667  1
  O2-  O171  1  0.23897131  0.50489786  0.88391568  1
  O2-  O172  1  0.73928691  -0.01112461  0.38494832  1
  O2-  O173  1  0.74464754  -0.01029807  0.87081258  1
  O2-  O174  1  0.72312268  0.49116701  0.38893865  1
  O2-  O175  1  0.72852234  0.49572677  0.86798212  1
  O2-  O176  1  -0.02133446  0.24587081  0.37983757  1
  O2-  O177  1  -0.01133912  0.22808749  0.87167297  1
  O2-  O178  1  -0.01879530  0.75833291  0.38389630  1
  O2-  O179  1  0.00642994  0.73759651  0.87979750  1
  O2-  O180  1  0.48121902  0.26855492  0.38531349  1
  O2-  O181  1  0.48404331  0.25583617  0.88531255  1
  O2-  O182  1  0.50278699  0.78110574  0.38824493  1
  O2-  O183  1  0.49660059  0.77615123  0.88143899  1
  O2-  O184  1  0.26283193  0.00774059  0.12535802  1
  O2-  O185  1  0.24896974  0.01065228  0.61613202  1
  O2-  O186  1  0.25917267  0.50104322  0.12961479  1
  O2-  O187  1  0.27901711  0.49083563  0.61638420  1
  O2-  O188  1  0.73609219  0.00962890  0.11408378  1
  O2-  O189  1  0.74797966  -0.00112580  0.62838250  1
  O2-  O190  1  0.77748569  0.50455971  0.11533799  1
  O2-  O191  1  0.76194340  0.50866393  0.62768377  1
  O2-  O192  1  0.14015482  0.27809160  0.26140013  1
  O2-  O193  1  0.11675159  0.27234993  0.76885887  1
  O2-  O194  1  0.13502933  0.78074440  0.24118834  1
  O2-  O195  1  0.13113239  0.78316119  0.74619326  1
  O2-  O196  1  0.63590016  0.27713874  0.26081534  1
  O2-  O197  1  0.63788849  0.26849453  0.77398953  1
  O2-  O198  1  0.63451746  0.78771797  0.25239569  1
  O2-  O199  1  0.63598098  0.77023423  0.75395290  1
  O2-  O200  1  0.36449260  0.24200169  0.21034779  1
  O2-  O201  1  0.36389349  0.22066375  0.73578116  1
  O2-  O202  1  0.36678274  0.73067884  0.26396152  1
  O2-  O203  1  0.36661012  0.71864684  0.74700043  1
  O2-  O204  1  0.86731591  0.22466055  0.22589632  1
  O2-  O205  1  0.87469924  0.22713370  0.74261841  1
  O2-  O206  1  0.86369579  0.71053972  0.25018634  1
  O2-  O207  1  0.86408990  0.71717539  0.73696470  1
  O2-  O208  1  0.27191546  0.38095423  0.25148680  1
  O2-  O209  1  0.26983385  0.36273960  0.76890199  1
  O2-  O210  1  0.28091838  0.87978219  0.23972751  1
  O2-  O211  1  0.28269153  0.86840811  0.75978243  1
  O2-  O212  1  0.77529740  0.36658129  0.23461772  1
  O2-  O213  1  0.77323272  0.37098322  0.74658926  1
  O2-  O214  1  0.78882944  0.86325828  0.25244083  1
  O2-  O215  1  0.77558322  0.87291839  0.74841190  1
  O2-  O216  1  0.23322013  0.12813843  0.24651048  1
  O2-  O217  1  0.21062502  0.13566378  0.75318888  1
  O2-  O218  1  0.22534951  0.62634582  0.25612719  1
  O2-  O219  1  0.21778625  0.63222362  0.73815726  1
  O2-  O220  1  0.72363892  0.13300076  0.25007292  1
  O2-  O221  1  0.72984649  0.11940124  0.76001340  1
  O2-  O222  1  0.70828590  0.63412470  0.25190650  1
  O2-  O223  1  0.72663451  0.62008623  0.74652955  1
  O2-  O224  1  0.13177730  0.48144054  0.23808961  1
  O2-  O225  1  0.11168878  0.46438065  0.73119593  1
  O2-  O226  1  0.13903873  0.97939705  0.24409962  1
  O2-  O227  1  0.11513177  0.97094061  0.75424834  1
  O2-  O228  1  0.61397627  0.47414428  0.24158399  1
  O2-  O229  1  0.63237610  0.47156670  0.73356266  1
  O2-  O230  1  0.61296450  0.97481268  0.25403038  1
  O2-  O231  1  0.62960674  0.97270237  0.74560701  1
  O2-  O232  1  0.37403840  0.03113473  0.25450104  1
  O2-  O233  1  0.38676126  0.03665196  0.75250328  1
  O2-  O234  1  0.36800620  0.52671240  0.25613402  1
  O2-  O235  1  0.38394986  0.52837400  0.76204012  1
  O2-  O236  1  0.88199391  0.03574346  0.25372259  1
  O2-  O237  1  0.86562506  0.02097964  0.75176589  1
  O2-  O238  1  0.88321553  0.52308207  0.28191215  1
  O2-  O239  1  0.86694889  0.51335412  0.76796586  1
  O2-  O240  1  0.46657346  0.39236543  0.24017503  1
  O2-  O241  1  0.48443397  0.38590873  0.71748573  1
  O2-  O242  1  0.46673006  0.88751946  0.23317305  1
  O2-  O243  1  0.48322709  0.88876664  0.73335752  1
  O2-  O244  1  0.97974587  0.38270838  0.25032623  1
  O2-  O245  1  0.97343504  0.36726204  0.75981588  1
  O2-  O246  1  0.97984012  0.88537150  0.24772315  1
  O2-  O247  1  0.96456797  0.88571039  0.75402536  1
  O2-  O248  1  0.03847843  0.11616107  0.24892644  1
  O2-  O249  1  0.01731379  0.12725837  0.74294709  1
  O2-  O250  1  0.03218943  0.61544442  0.25689037  1
  O2-  O251  1  0.02367172  0.61412474  0.73504353  1
  O2-  O252  1  0.51862584  0.11630669  0.25530314  1
  O2-  O253  1  0.53973518  0.11431672  0.75650162  1
  O2-  O254  1  0.51020298  0.61474746  0.28995750  1
  O2-  O255  1  0.53825379  0.61117271  0.75754005  1
  O2-  O256  1  0.13512506  0.46278155  0.01411980  1
  O2-  O257  1  0.13639498  0.47195923  0.51704870  1
  O2-  O258  1  0.13836503  0.98034286  0.00606311  1
  O2-  O259  1  0.13893021  0.96801764  0.49416180  1
  O2-  O260  1  0.63892112  0.45897189  0.01113596  1
  O2-  O261  1  0.62173565  0.48838229  0.52257442  1
  O2-  O262  1  0.62155207  0.98677731  -0.01017661  1
  O2-  O263  1  0.61642855  0.97578654  0.50420925  1
  O2-  O264  1  0.38329977  0.02922610  -0.00075925  1
  O2-  O265  1  0.38328291  0.02930495  0.49732825  1
  O2-  O266  1  0.36554935  0.52064097  -0.00227768  1
  O2-  O267  1  0.38270854  0.52471478  0.48914665  1
  O2-  O268  1  0.86087074  0.03128387  -0.00608946  1
  O2-  O269  1  0.86216411  0.02521091  0.49748433  1
  O2-  O270  1  0.86168780  0.51371871  -0.03142295  1
  O2-  O271  1  0.86032875  0.52902339  0.48513810  1
  O2-  O272  1  0.47578828  0.36684094  0.01426443  1
  O2-  O273  1  0.48328322  0.38213754  0.52366788  1
  O2-  O274  1  0.47958493  0.88599629  0.01014017  1
  O2-  O275  1  0.47667375  0.88154974  0.51600656  1
  O2-  O276  1  0.98540534  0.36237918  -0.02934189  1
  O2-  O277  1  0.96341809  0.36361840  0.50216672  1
  O2-  O278  1  0.96519295  0.86609621  -0.00597526  1
  O2-  O279  1  0.96184613  0.86967842  0.50388158  1
  O2-  O280  1  0.03381327  0.13709622  0.00506676  1
  O2-  O281  1  0.03808377  0.13407144  0.50021860  1
  O2-  O282  1  0.03698506  0.63114896  0.00497781  1
  O2-  O283  1  0.02035879  0.63581678  0.49434688  1
  O2-  O284  1  0.51987173  0.12493651  -0.00879355  1
  O2-  O285  1  0.52001177  0.12532212  0.47787029  1
  O2-  O286  1  0.53209904  0.63434003  -0.02032039  1
  O2-  O287  1  0.52546745  0.62787329  0.48707938  1
  O2-  O288  1  0.13030982  0.26839430  -0.02365031  1
  O2-  O289  1  0.11423097  0.28430708  0.49028278  1
  O2-  O290  1  0.11523336  0.78820446  0.00348803  1
  O2-  O291  1  0.11582725  0.78475751  0.50056682  1
  O2-  O292  1  0.63149006  0.26791578  -0.02253384  1
  O2-  O293  1  0.61628058  0.28013026  0.48848110  1
  O2-  O294  1  0.61825034  0.78504663  -0.00233585  1
  O2-  O295  1  0.62645604  0.77136400  0.49937513  1
  O2-  O296  1  0.37852906  0.22810926  0.01916759  1
  O2-  O297  1  0.38646952  0.23519589  0.52515836  1
  O2-  O298  1  0.38504396  0.72900624  -0.00021293  1
  O2-  O299  1  0.38575113  0.72306428  0.49805134  1
  O2-  O300  1  0.87776845  0.22432424  0.00979685  1
  O2-  O301  1  0.88509813  0.21240454  0.51691059  1
  O2-  O302  1  0.88335353  0.71091565  0.00105034  1
  O2-  O303  1  0.86461366  0.72860153  0.50863819  1
  O2-  O304  1  0.27720542  0.36776287  -0.00394450  1
  O2-  O305  1  0.28256423  0.38377007  0.48576772  1
  O2-  O306  1  0.28520070  0.88858611  -0.00542415  1
  O2-  O307  1  0.29397443  0.88766198  0.50048490  1
  O2-  O308  1  0.77784075  0.36596150  0.00083925  1
  O2-  O309  1  0.77125764  0.38325439  0.51411534  1
  O2-  O310  1  0.77444187  0.88664382  0.00149456  1
  O2-  O311  1  0.76291215  0.87425740  0.50747896  1
  O2-  O312  1  0.23837404  0.13101475  0.01466652  1
  O2-  O313  1  0.24013510  0.11427097  0.47770084  1
  O2-  O314  1  0.22091468  0.61561474  0.00897691  1
  O2-  O315  1  0.23050231  0.61444377  0.49983345  1
  O2-  O316  1  0.72905082  0.12824381  -0.01051385  1
  O2-  O317  1  0.71285017  0.11150966  0.49850494  1
  O2-  O318  1  0.71488232  0.61354748  0.00050058  1
  O2-  O319  1  0.72341174  0.62911617  0.50503935  1
