# generated using pymatgen
data_Sr64Ca21Nb43O192
_symmetry_space_group_name_H-M   'P 1'
_cell_length_a   16.56801433
_cell_length_b   16.57598835
_cell_length_c   16.69170202
_cell_angle_alpha   90.01991523
_cell_angle_beta   89.96161446
_cell_angle_gamma   89.97013685
_symmetry_Int_Tables_number   1
_chemical_formula_structural   Sr64Ca21Nb43O192
_chemical_formula_sum   'Sr64 Ca21 Nb43 O192'
_cell_volume   4584.06043632
_cell_formula_units_Z   1
loop_
 _symmetry_equiv_pos_site_id
 _symmetry_equiv_pos_as_xyz
  1  'x, y, z'
loop_
 _atom_type_symbol
 _atom_type_oxidation_number
  Sr2+  2.0
  Ca2+  2.0
  Nb5+  5.0
  O2-  -2.0
loop_
 _atom_site_type_symbol
 _atom_site_label
 _atom_site_symmetry_multiplicity
 _atom_site_fract_x
 _atom_site_fract_y
 _atom_site_fract_z
 _atom_site_occupancy
  Sr2+  Sr0  1  0.13732207  0.12758454  0.12111811  1
  Sr2+  Sr1  1  0.13091254  0.13828387  0.61918680  1
  Sr2+  Sr2  1  0.12932530  0.63646475  0.12760080  1
  Sr2+  Sr3  1  0.13078858  0.63236910  0.63363454  1
  Sr2+  Sr4  1  0.62879979  0.13738310  0.12496167  1
  Sr2+  Sr5  1  0.62880084  0.12971531  0.61773518  1
  Sr2+  Sr6  1  0.64140491  0.63140372  0.12430508  1
  Sr2+  Sr7  1  0.62388138  0.63919252  0.62663395  1
  Sr2+  Sr8  1  0.38555342  0.37687435  0.12444592  1
  Sr2+  Sr9  1  0.38021367  0.39316691  0.62411376  1
  Sr2+  Sr10  1  0.38033690  0.88162482  0.12182754  1
  Sr2+  Sr11  1  0.38107889  0.88249570  0.62303401  1
  Sr2+  Sr12  1  0.87749524  0.38739321  0.12560987  1
  Sr2+  Sr13  1  0.88444805  0.38495652  0.61614991  1
  Sr2+  Sr14  1  0.88608867  0.88815392  0.12513402  1
  Sr2+  Sr15  1  0.87819334  0.87603616  0.62168348  1
  Sr2+  Sr16  1  0.11325416  0.36448286  0.37363082  1
  Sr2+  Sr17  1  0.12095485  0.37462419  0.87104949  1
  Sr2+  Sr18  1  0.11170175  0.86812892  0.36798357  1
  Sr2+  Sr19  1  0.11423063  0.86975167  0.86935683  1
  Sr2+  Sr20  1  0.61026737  0.37395435  0.36888023  1
  Sr2+  Sr21  1  0.61275123  0.36532121  0.86780424  1
  Sr2+  Sr22  1  0.62182019  0.86542639  0.38557385  1
  Sr2+  Sr23  1  0.61704335  0.87257294  0.87795789  1
  Sr2+  Sr24  1  0.36770193  0.12064859  0.37055647  1
  Sr2+  Sr25  1  0.37340739  0.12198055  0.87857875  1
  Sr2+  Sr26  1  0.36973079  0.61283304  0.38055131  1
  Sr2+  Sr27  1  0.36469374  0.61812243  0.86941236  1
  Sr2+  Sr28  1  0.86775629  0.11467979  0.36793446  1
  Sr2+  Sr29  1  0.86697211  0.11747540  0.87322738  1
  Sr2+  Sr30  1  0.85673197  0.62229440  0.37659618  1
  Sr2+  Sr31  1  0.87053338  0.61838661  0.87052555  1
  Sr2+  Sr32  1  0.12123609  0.11260816  0.37643763  1
  Sr2+  Sr33  1  0.12017497  0.11449555  0.87693606  1
  Sr2+  Sr34  1  0.11664400  0.61792095  0.36974157  1
  Sr2+  Sr35  1  0.11630128  0.61418211  0.87224227  1
  Sr2+  Sr36  1  0.61489298  0.11432226  0.37230363  1
  Sr2+  Sr37  1  0.62632077  0.11714573  0.87011624  1
  Sr2+  Sr38  1  0.61894293  0.61600161  0.37325082  1
  Sr2+  Sr39  1  0.61095469  0.61172002  0.87104259  1
  Sr2+  Sr40  1  0.37004005  0.36995816  0.36906173  1
  Sr2+  Sr41  1  0.37082686  0.36988217  0.86537060  1
  Sr2+  Sr42  1  0.36788052  0.85949859  0.37930254  1
  Sr2+  Sr43  1  0.37151419  0.86357950  0.87897853  1
  Sr2+  Sr44  1  0.86389969  0.36864185  0.38152125  1
  Sr2+  Sr45  1  0.87439232  0.36107512  0.87956565  1
  Sr2+  Sr46  1  0.87077396  0.86538005  0.37032064  1
  Sr2+  Sr47  1  0.86616560  0.87703230  0.86665869  1
  Sr2+  Sr48  1  0.12658362  0.38759750  0.12062171  1
  Sr2+  Sr49  1  0.12937442  0.38047942  0.61117520  1
  Sr2+  Sr50  1  0.14080584  0.87684391  0.13174500  1
  Sr2+  Sr51  1  0.13693257  0.87889952  0.63082116  1
  Sr2+  Sr52  1  0.64011642  0.37840136  0.12643595  1
  Sr2+  Sr53  1  0.63467728  0.38366814  0.63200044  1
  Sr2+  Sr54  1  0.63286241  0.88333292  0.12222829  1
  Sr2+  Sr55  1  0.63725361  0.88168702  0.62241241  1
  Sr2+  Sr56  1  0.38354619  0.12958832  0.12358729  1
  Sr2+  Sr57  1  0.37102858  0.12957729  0.61541512  1
  Sr2+  Sr58  1  0.37979063  0.63608958  0.12129669  1
  Sr2+  Sr59  1  0.38279776  0.63111863  0.62690300  1
  Sr2+  Sr60  1  0.88349562  0.13774130  0.12531254  1
  Sr2+  Sr61  1  0.89134127  0.12851197  0.62727433  1
  Sr2+  Sr62  1  0.88554995  0.62441368  0.12120124  1
  Sr2+  Sr63  1  0.88799051  0.63126850  0.61706383  1
  Ca2+  Ca64  1  0.49993871  0.49505594  0.00061801  1
  Ca2+  Ca65  1  0.00090764  -0.00063763  0.00048765  1
  Ca2+  Ca66  1  0.50068344  0.49640304  0.49952237  1
  Ca2+  Ca67  1  0.00150634  0.50278945  0.49496826  1
  Ca2+  Ca68  1  -0.00063197  -0.00403305  0.49961322  1
  Ca2+  Ca69  1  0.24540646  0.75037771  0.50095384  1
  Ca2+  Ca70  1  0.75078383  0.74862350  0.50266173  1
  Ca2+  Ca71  1  0.74541013  0.24964438  0.49986025  1
  Ca2+  Ca72  1  0.75191363  0.74987179  -0.00104374  1
  Ca2+  Ca73  1  0.24796905  0.74832893  -0.00318048  1
  Ca2+  Ca74  1  0.24936517  0.49918694  0.24834869  1
  Ca2+  Ca75  1  0.00341109  0.25273502  0.74927428  1
  Ca2+  Ca76  1  0.24748839  0.49858573  0.74957883  1
  Ca2+  Ca77  1  0.49688007  0.24555394  0.74783577  1
  Ca2+  Ca78  1  -0.00030587  0.25228308  0.24902651  1
  Ca2+  Ca79  1  0.25487314  -0.00095306  0.25264531  1
  Ca2+  Ca80  1  0.74782751  0.00066134  0.24760754  1
  Ca2+  Ca81  1  0.75192849  0.50066864  0.75231714  1
  Ca2+  Ca82  1  0.50103801  0.75051729  0.24846577  1
  Ca2+  Ca83  1  0.50265532  0.75343973  0.75146617  1
  Ca2+  Ca84  1  0.25248348  0.00665699  0.74867021  1
  Nb5+  Nb85  1  0.49823159  -0.00123871  0.49361861  1
  Nb5+  Nb86  1  0.49999827  0.00161152  -0.00565734  1
  Nb5+  Nb87  1  -0.00074810  0.50021149  -0.00076208  1
  Nb5+  Nb88  1  0.75531251  0.24949724  -0.00133141  1
  Nb5+  Nb89  1  0.25406323  0.25200669  -0.00384111  1
  Nb5+  Nb90  1  0.25036281  0.25274047  0.49021215  1
  Nb5+  Nb91  1  -0.00404012  0.75072111  0.24161758  1
  Nb5+  Nb92  1  0.74995063  0.00187204  0.74688075  1
  Nb5+  Nb93  1  0.50046762  0.24716370  0.25177845  1
  Nb5+  Nb94  1  -0.00176694  0.75245300  0.74688382  1
  Nb5+  Nb95  1  0.75027404  0.49945366  0.25148616  1
  Nb5+  Nb96  1  0.00338366  0.00567460  0.24471355  1
  Nb5+  Nb97  1  0.00437167  0.00146659  0.74822573  1
  Nb5+  Nb98  1  -0.00384752  0.49926629  0.25330875  1
  Nb5+  Nb99  1  -0.00341678  0.49722912  0.74710921  1
  Nb5+  Nb100  1  0.49869700  -0.00448940  0.24530109  1
  Nb5+  Nb101  1  0.50229406  0.00272167  0.74196485  1
  Nb5+  Nb102  1  0.49941492  0.50469124  0.24125609  1
  Nb5+  Nb103  1  0.50009578  0.49944809  0.75033531  1
  Nb5+  Nb104  1  0.24790019  0.25193231  0.24249466  1
  Nb5+  Nb105  1  0.25039696  0.25195582  0.73868828  1
  Nb5+  Nb106  1  0.25504048  0.74561981  0.25234092  1
  Nb5+  Nb107  1  0.25458492  0.75189998  0.75273104  1
  Nb5+  Nb108  1  0.74759389  0.25018408  0.25429125  1
  Nb5+  Nb109  1  0.75566346  0.25055876  0.74234534  1
  Nb5+  Nb110  1  0.75041725  0.75504299  0.24449284  1
  Nb5+  Nb111  1  0.74880667  0.74934058  0.75426811  1
  Nb5+  Nb112  1  -0.00682837  0.24527179  0.49348648  1
  Nb5+  Nb113  1  0.01038025  0.25053025  1.00403418  1
  Nb5+  Nb114  1  0.00160769  0.74855087  0.49052171  1
  Nb5+  Nb115  1  -0.00264755  0.75178086  0.99347492  1
  Nb5+  Nb116  1  0.49594467  0.25147191  0.50400582  1
  Nb5+  Nb117  1  0.50535800  0.24818514  1.00093153  1
  Nb5+  Nb118  1  0.49987632  0.74499365  0.50048397  1
  Nb5+  Nb119  1  0.50446159  0.74177540  1.00235028  1
  Nb5+  Nb120  1  0.25161776  -0.00375132  -0.00193609  1
  Nb5+  Nb121  1  0.24890336  -0.00326938  0.49825050  1
  Nb5+  Nb122  1  0.25050388  0.50177822  0.00196635  1
  Nb5+  Nb123  1  0.24614746  0.50527797  0.49735861  1
  Nb5+  Nb124  1  0.75217906  0.00266121  0.00401010  1
  Nb5+  Nb125  1  0.75377280  0.00273941  0.49740307  1
  Nb5+  Nb126  1  0.74796107  0.49773931  -0.00452116  1
  Nb5+  Nb127  1  0.74484637  0.50224637  0.50743276  1
  O2-  O128  1  0.01821253  -0.03369037  0.13244212  1
  O2-  O129  1  0.00629747  -0.03513788  0.63593695  1
  O2-  O130  1  0.00522306  0.48412294  0.12500894  1
  O2-  O131  1  0.01228218  0.48218224  0.63382097  1
  O2-  O132  1  0.51401939  -0.01644634  0.12904742  1
  O2-  O133  1  0.51904575  -0.01778852  0.62830687  1
  O2-  O134  1  0.51662586  0.46231322  0.13328659  1
  O2-  O135  1  0.51722238  0.47522995  0.63330032  1
  O2-  O136  1  -0.01863046  0.01646377  0.36220168  1
  O2-  O137  1  -0.01553226  0.02095683  0.86527953  1
  O2-  O138  1  -0.01815334  0.53494382  0.36217074  1
  O2-  O139  1  -0.01664550  0.51731889  0.88323494  1
  O2-  O140  1  0.48713204  0.01879498  0.38002007  1
  O2-  O141  1  0.49279423  0.02466037  0.88127794  1
  O2-  O142  1  0.49124643  0.51252355  0.35985399  1
  O2-  O143  1  0.48002233  0.51999110  0.86972804  1
  O2-  O144  1  0.26161788  0.22553553  0.12934244  1
  O2-  O145  1  0.25883344  0.23206855  0.62374005  1
  O2-  O146  1  0.25813636  0.72401705  0.13248483  1
  O2-  O147  1  0.25637674  0.72068123  0.63603710  1
  O2-  O148  1  0.75653180  0.23271202  0.12282186  1
  O2-  O149  1  0.76783710  0.21677129  0.63403801  1
  O2-  O150  1  0.76944467  0.71646443  0.13461999  1
  O2-  O151  1  0.78048449  0.73701734  0.64084996  1
  O2-  O152  1  0.24191245  0.27390348  0.37587987  1
  O2-  O153  1  0.24109330  0.27390956  0.88499025  1
  O2-  O154  1  0.23107736  0.77786665  0.36439780  1
  O2-  O155  1  0.23456034  0.78675697  0.86586301  1
  O2-  O156  1  0.73081915  0.27901937  0.36472462  1
  O2-  O157  1  0.73436628  0.27003991  0.88428483  1
  O2-  O158  1  0.74197450  0.76819837  0.36326041  1
  O2-  O159  1  0.74257200  0.78787554  0.86685279  1
  O2-  O160  1  -0.02502622  0.27094529  0.11509794  1
  O2-  O161  1  -0.01886815  0.26685039  0.61213336  1
  O2-  O162  1  -0.02588883  0.76069729  0.12826007  1
  O2-  O163  1  -0.02191833  0.76124723  0.63443565  1
  O2-  O164  1  0.48472537  0.25422374  0.12747414  1
  O2-  O165  1  0.46303586  0.25726979  0.61386962  1
  O2-  O166  1  0.46918915  0.76424354  0.11536453  1
  O2-  O167  1  0.47147244  0.76284029  0.61597146  1
  O2-  O168  1  0.28946781  -0.00923894  0.38763558  1
  O2-  O169  1  0.28349465  0.00081581  0.88441697  1
  O2-  O170  1  0.27875059  0.48694616  0.38252854  1
  O2-  O171  1  0.25757770  0.46651377  0.88978875  1
  O2-  O172  1  0.77226155  -0.01343281  0.38451598  1
  O2-  O173  1  0.76328638  -0.00501104  0.87980744  1
  O2-  O174  1  0.77062566  0.48423709  0.36509682  1
  O2-  O175  1  0.78132672  0.47933682  0.88659543  1
  O2-  O176  1  0.03099474  0.23242401  0.38079033  1
  O2-  O177  1  0.02267125  0.23911858  0.88732127  1
  O2-  O178  1  0.01905099  0.73649913  0.37517320  1
  O2-  O179  1  0.02319554  0.73704121  0.88116322  1
  O2-  O180  1  0.51832656  0.23343603  0.37099836  1
  O2-  O181  1  0.51283138  0.22536791  0.88850153  1
  O2-  O182  1  0.52970815  0.74388242  0.38303639  1
  O2-  O183  1  0.53178798  0.74392207  0.88629878  1
  O2-  O184  1  0.24006628  0.01936459  0.11425434  1
  O2-  O185  1  0.23609213  0.02904571  0.61222453  1
  O2-  O186  1  0.21464235  0.50944209  0.11460142  1
  O2-  O187  1  0.21863997  0.50563610  0.61496430  1
  O2-  O188  1  0.71912810  0.01854159  0.11498441  1
  O2-  O189  1  0.72922280  0.01645855  0.63234884  1
  O2-  O190  1  0.73706496  0.50678417  0.12243612  1
  O2-  O191  1  0.71992113  0.52122402  0.61798013  1
  O2-  O192  1  0.13650020  0.28012609  0.23279669  1
  O2-  O193  1  0.13620860  0.29190739  0.73706617  1
  O2-  O194  1  0.11399761  0.76673790  0.23439922  1
  O2-  O195  1  0.11770585  0.77084630  0.73803433  1
  O2-  O196  1  0.62288392  0.26795469  0.23101453  1
  O2-  O197  1  0.63773632  0.26673576  0.74182446  1
  O2-  O198  1  0.63635065  0.76681284  0.22628240  1
  O2-  O199  1  0.63840224  0.76987087  0.72585590  1
  O2-  O200  1  0.38255805  0.22852811  0.26105395  1
  O2-  O201  1  0.36157704  0.21981381  0.76945925  1
  O2-  O202  1  0.36648518  0.72082731  0.27193267  1
  O2-  O203  1  0.36799355  0.73676397  0.77280534  1
  O2-  O204  1  0.86282822  0.23029455  0.26387144  1
  O2-  O205  1  0.86664258  0.23484511  0.78134185  1
  O2-  O206  1  0.87831310  0.73179782  0.27074467  1
  O2-  O207  1  0.88136989  0.74149532  0.77914235  1
  O2-  O208  1  0.28613890  0.36334098  0.23795602  1
  O2-  O209  1  0.28600210  0.36564015  0.73717927  1
  O2-  O210  1  0.26658356  0.86361860  0.22367046  1
  O2-  O211  1  0.26479160  0.86934861  0.72032271  1
  O2-  O212  1  0.76468875  0.37493239  0.22977376  1
  O2-  O213  1  0.77307792  0.36465817  0.72213157  1
  O2-  O214  1  0.77369150  0.86613542  0.22334074  1
  O2-  O215  1  0.77117888  0.88436215  0.73476547  1
  O2-  O216  1  0.23397569  0.13908023  0.27554490  1
  O2-  O217  1  0.21088039  0.14191935  0.76485195  1
  O2-  O218  1  0.21842708  0.63282534  0.26691551  1
  O2-  O219  1  0.23003036  0.63628948  0.77884918  1
  O2-  O220  1  0.72579936  0.13608896  0.26841057  1
  O2-  O221  1  0.74007019  0.12184865  0.77123203  1
  O2-  O222  1  0.73219283  0.61748719  0.26577505  1
  O2-  O223  1  0.73514599  0.63805086  0.78181992  1
  O2-  O224  1  0.11021138  0.47967359  0.26451569  1
  O2-  O225  1  0.11111298  0.49455296  0.77610754  1
  O2-  O226  1  0.11881659  0.98103264  0.26953604  1
  O2-  O227  1  0.11726840  0.98236829  0.76879773  1
  O2-  O228  1  0.63137919  0.47926499  0.25936507  1
  O2-  O229  1  0.61949257  0.48094005  0.77579654  1
  O2-  O230  1  0.61267087  0.97929856  0.27630699  1
  O2-  O231  1  0.63317499  0.98129863  0.76970859  1
  O2-  O232  1  0.38807702  0.03433883  0.23851686  1
  O2-  O233  1  0.39040314  0.02789504  0.73237238  1
  O2-  O234  1  0.38589966  0.52099279  0.22440629  1
  O2-  O235  1  0.38232187  0.52240754  0.73098009  1
  O2-  O236  1  0.88352383  0.01774043  0.22408455  1
  O2-  O237  1  0.87199998  0.01568521  0.73880961  1
  O2-  O238  1  0.86955884  0.51648659  0.22887100  1
  O2-  O239  1  0.88456924  0.53425682  0.73696225  1
  O2-  O240  1  0.48650838  0.36614447  0.26606667  1
  O2-  O241  1  0.48421971  0.37948140  0.77028110  1
  O2-  O242  1  0.46694936  0.88616749  0.26431246  1
  O2-  O243  1  0.48904454  0.89075102  0.77694964  1
  O2-  O244  1  0.96976247  0.38743959  0.27120436  1
  O2-  O245  1  0.97305017  0.38723714  0.76988465  1
  O2-  O246  1  0.98030421  0.86741472  0.26658259  1
  O2-  O247  1  0.98579206  0.87159251  0.77518282  1
  O2-  O248  1  0.02299088  0.11786317  0.22237437  1
  O2-  O249  1  0.01449635  0.11502938  0.72133971  1
  O2-  O250  1  0.01139609  0.62806057  0.22799626  1
  O2-  O251  1  0.01684274  0.63311572  0.74413834  1
  O2-  O252  1  0.52603339  0.12703661  0.23917096  1
  O2-  O253  1  0.53957163  0.11411553  0.74093070  1
  O2-  O254  1  0.52899895  0.61433518  0.22435825  1
  O2-  O255  1  0.52589407  0.61804103  0.73546889  1
  O2-  O256  1  0.11625228  0.47722614  -0.01345842  1
  O2-  O257  1  0.13476964  0.46731925  0.47485036  1
  O2-  O258  1  0.13771933  0.98461167  -0.02400739  1
  O2-  O259  1  0.13684267  0.98541822  0.47127677  1
  O2-  O260  1  0.63704634  0.46643313  -0.01732872  1
  O2-  O261  1  0.63426654  0.47565183  0.47290701  1
  O2-  O262  1  0.62091495  0.98988529  -0.01539952  1
  O2-  O263  1  0.61843541  0.98163644  0.49042141  1
  O2-  O264  1  0.38232547  0.02020838  0.01784602  1
  O2-  O265  1  0.38431663  0.01234974  0.52621776  1
  O2-  O266  1  0.36304213  0.51238795  0.02635186  1
  O2-  O267  1  0.36396852  0.51772992  0.52426219  1
  O2-  O268  1  0.86408099  0.02884619  0.01876145  1
  O2-  O269  1  0.86318543  0.02649527  0.52266560  1
  O2-  O270  1  0.87714091  0.50766185  0.01948696  1
  O2-  O271  1  0.86476573  0.51801394  0.51404113  1
  O2-  O272  1  0.47555262  0.35857338  -0.01404166  1
  O2-  O273  1  0.47928576  0.36143770  0.47463766  1
  O2-  O274  1  0.48315688  0.88540956  -0.01276590  1
  O2-  O275  1  0.48164957  0.88074664  0.48422952  1
  O2-  O276  1  0.98587438  0.37473552  -0.01525811  1
  O2-  O277  1  0.98509231  0.36516119  0.47660785  1
  O2-  O278  1  0.97046026  0.86356951  -0.01690610  1
  O2-  O279  1  0.96729152  0.86400097  0.48372275  1
  O2-  O280  1  0.01777265  0.13541286  0.02385873  1
  O2-  O281  1  0.01909953  0.13128975  0.52001917  1
  O2-  O282  1  0.01941550  0.61713671  0.01642321  1
  O2-  O283  1  0.02586249  0.63595236  0.52376351  1
  O2-  O284  1  0.51179699  0.12361004  0.02454738  1
  O2-  O285  1  0.51306909  0.12210672  0.51153696  1
  O2-  O286  1  0.52464184  0.62969012  0.02074056  1
  O2-  O287  1  0.51738383  0.63132334  0.51533847  1
  O2-  O288  1  0.12602188  0.26726555  0.02292350  1
  O2-  O289  1  0.13372555  0.26280430  0.51331463  1
  O2-  O290  1  0.11021000  0.76418177  0.02821386  1
  O2-  O291  1  0.11127580  0.78275309  0.51947883  1
  O2-  O292  1  0.62093876  0.26415579  0.01760026  1
  O2-  O293  1  0.60934410  0.26370005  0.52959878  1
  O2-  O294  1  0.61754992  0.77506419  0.02673210  1
  O2-  O295  1  0.61579830  0.77154716  0.52475370  1
  O2-  O296  1  0.37047836  0.22946353  -0.00578737  1
  O2-  O297  1  0.37244454  0.22670460  0.47996078  1
  O2-  O298  1  0.38644627  0.73130489  -0.02654120  1
  O2-  O299  1  0.38288792  0.73483622  0.47264355  1
  O2-  O300  1  0.87083054  0.23205861  -0.01526485  1
  O2-  O301  1  0.88094357  0.22654081  0.47021332  1
  O2-  O302  1  0.88630820  0.71310834  -0.01062916  1
  O2-  O303  1  0.88457454  0.72130583  0.48884314  1
  O2-  O304  1  0.26150001  0.36596332  0.03124304  1
  O2-  O305  1  0.27306519  0.36556354  0.51681044  1
  O2-  O306  1  0.27372228  0.88459402  0.01508788  1
  O2-  O307  1  0.26865456  0.88571148  0.52389543  1
  O2-  O308  1  0.76787243  0.36700540  0.02116628  1
  O2-  O309  1  0.76865661  0.38310758  0.52046225  1
  O2-  O310  1  0.76699451  0.88872600  0.02016994  1
  O2-  O311  1  0.75783874  0.88707089  0.52369011  1
  O2-  O312  1  0.22897309  0.13372756  -0.01259030  1
  O2-  O313  1  0.23935249  0.12971578  0.47966086  1
  O2-  O314  1  0.23294870  0.61228297  -0.02615281  1
  O2-  O315  1  0.22424655  0.61658754  0.47818317  1
  O2-  O316  1  0.72921795  0.13156388  -0.01409925  1
  O2-  O317  1  0.71707543  0.11480729  0.48568147  1
  O2-  O318  1  0.72726933  0.61079665  -0.01693353  1
  O2-  O319  1  0.72971446  0.61573756  0.47276342  1
