# generated using pymatgen
data_Sr64Ca21Nb43O192
_symmetry_space_group_name_H-M   'P 1'
_cell_length_a   16.54113758
_cell_length_b   16.56977476
_cell_length_c   16.74108722
_cell_angle_alpha   90.02884818
_cell_angle_beta   89.98937582
_cell_angle_gamma   90.00562904
_symmetry_Int_Tables_number   1
_chemical_formula_structural   Sr64Ca21Nb43O192
_chemical_formula_sum   'Sr64 Ca21 Nb43 O192'
_cell_volume   4588.44545482
_cell_formula_units_Z   1
loop_
 _symmetry_equiv_pos_site_id
 _symmetry_equiv_pos_as_xyz
  1  'x, y, z'
loop_
 _atom_type_symbol
 _atom_type_oxidation_number
  Sr2+  2.0
  Ca2+  2.0
  Nb5+  5.0
  O2-  -2.0
loop_
 _atom_site_type_symbol
 _atom_site_label
 _atom_site_symmetry_multiplicity
 _atom_site_fract_x
 _atom_site_fract_y
 _atom_site_fract_z
 _atom_site_occupancy
  Sr2+  Sr0  1  0.12545405  0.11696853  0.12820894  1
  Sr2+  Sr1  1  0.12850460  0.12077361  0.61695790  1
  Sr2+  Sr2  1  0.12320004  0.62205777  0.11831858  1
  Sr2+  Sr3  1  0.11652386  0.62884555  0.62790815  1
  Sr2+  Sr4  1  0.62652952  0.11530382  0.12220231  1
  Sr2+  Sr5  1  0.63713486  0.12043376  0.62322808  1
  Sr2+  Sr6  1  0.63766293  0.62932742  0.12733419  1
  Sr2+  Sr7  1  0.62833887  0.62166256  0.63017283  1
  Sr2+  Sr8  1  0.38325205  0.38210697  0.13265444  1
  Sr2+  Sr9  1  0.36098393  0.38374348  0.62107880  1
  Sr2+  Sr10  1  0.37121614  0.87593992  0.12910134  1
  Sr2+  Sr11  1  0.37686654  0.87202217  0.61236267  1
  Sr2+  Sr12  1  0.88207482  0.38500551  0.12538239  1
  Sr2+  Sr13  1  0.87548077  0.38346632  0.62934705  1
  Sr2+  Sr14  1  0.87555512  0.88802772  0.12465018  1
  Sr2+  Sr15  1  0.88365625  0.87154363  0.62877158  1
  Sr2+  Sr16  1  0.11557146  0.36714264  0.37604877  1
  Sr2+  Sr17  1  0.12682751  0.36789492  0.87972110  1
  Sr2+  Sr18  1  0.12865766  0.87147287  0.37921734  1
  Sr2+  Sr19  1  0.13194313  0.87534789  0.86923867  1
  Sr2+  Sr20  1  0.61009475  0.36793665  0.37264660  1
  Sr2+  Sr21  1  0.61885129  0.36567234  0.86875312  1
  Sr2+  Sr22  1  0.62925547  0.86719642  0.37732684  1
  Sr2+  Sr23  1  0.61449201  0.87532683  0.87038924  1
  Sr2+  Sr24  1  0.35825313  0.13315478  0.37116098  1
  Sr2+  Sr25  1  0.37198673  0.13128472  0.87399897  1
  Sr2+  Sr26  1  0.37573761  0.62752038  0.37958918  1
  Sr2+  Sr27  1  0.37625291  0.63175290  0.87706947  1
  Sr2+  Sr28  1  0.85978219  0.12763880  0.37538428  1
  Sr2+  Sr29  1  0.85908440  0.12741080  0.87515461  1
  Sr2+  Sr30  1  0.85861140  0.63266505  0.37114488  1
  Sr2+  Sr31  1  0.86824543  0.61371343  0.87703952  1
  Sr2+  Sr32  1  0.12423050  0.12500904  0.37604049  1
  Sr2+  Sr33  1  0.12977060  0.11837133  0.86850686  1
  Sr2+  Sr34  1  0.13001765  0.61063239  0.37700750  1
  Sr2+  Sr35  1  0.13502076  0.61756663  0.87470539  1
  Sr2+  Sr36  1  0.62123588  0.12281999  0.38445412  1
  Sr2+  Sr37  1  0.61771268  0.12175355  0.87676910  1
  Sr2+  Sr38  1  0.61767567  0.61504143  0.37363391  1
  Sr2+  Sr39  1  0.62064374  0.62339872  0.87173823  1
  Sr2+  Sr40  1  0.36979464  0.39597856  0.37036031  1
  Sr2+  Sr41  1  0.36914409  0.38894771  0.87342003  1
  Sr2+  Sr42  1  0.37911028  0.89490552  0.37450171  1
  Sr2+  Sr43  1  0.37139507  0.88524596  0.87464290  1
  Sr2+  Sr44  1  0.87423536  0.36852150  0.37113256  1
  Sr2+  Sr45  1  0.87344388  0.37169802  0.87945963  1
  Sr2+  Sr46  1  0.87110269  0.87873415  0.37330819  1
  Sr2+  Sr47  1  0.87123570  0.88094218  0.87722847  1
  Sr2+  Sr48  1  0.11699241  0.37845315  0.13083286  1
  Sr2+  Sr49  1  0.11877850  0.37378400  0.61690114  1
  Sr2+  Sr50  1  0.11908990  0.86635385  0.12204201  1
  Sr2+  Sr51  1  0.12721489  0.87089705  0.62843594  1
  Sr2+  Sr52  1  0.62439035  0.37197972  0.12977544  1
  Sr2+  Sr53  1  0.63506246  0.37818837  0.62421309  1
  Sr2+  Sr54  1  0.61199962  0.87295043  0.13051230  1
  Sr2+  Sr55  1  0.63193126  0.86958367  0.62423111  1
  Sr2+  Sr56  1  0.38006462  0.12086124  0.12928780  1
  Sr2+  Sr57  1  0.36556941  0.12319832  0.61388180  1
  Sr2+  Sr58  1  0.36733989  0.63622064  0.13193552  1
  Sr2+  Sr59  1  0.39107788  0.62776897  0.61997479  1
  Sr2+  Sr60  1  0.87877488  0.12417141  0.12546358  1
  Sr2+  Sr61  1  0.87286397  0.13196611  0.61803641  1
  Sr2+  Sr62  1  0.87169302  0.63260548  0.12143531  1
  Sr2+  Sr63  1  0.87337074  0.62682165  0.63183779  1
  Ca2+  Ca64  1  -0.00316382  0.50523028  0.49884318  1
  Ca2+  Ca65  1  0.50122485  0.50181576  0.00237514  1
  Ca2+  Ca66  1  0.50398335  0.49638993  0.50276856  1
  Ca2+  Ca67  1  -0.00111354  -0.00254712  0.50074271  1
  Ca2+  Ca68  1  0.49968870  0.00331733  0.50199559  1
  Ca2+  Ca69  1  0.75201677  0.74633192  0.50332697  1
  Ca2+  Ca70  1  0.75039662  0.24909705  0.00307631  1
  Ca2+  Ca71  1  0.24706170  0.74919262  0.50198581  1
  Ca2+  Ca72  1  0.74835146  0.75318014  -0.00198838  1
  Ca2+  Ca73  1  0.25220163  0.25071894  0.00228129  1
  Ca2+  Ca74  1  0.49562110  0.25011696  0.74377446  1
  Ca2+  Ca75  1  0.74946695  -0.00299916  0.75070140  1
  Ca2+  Ca76  1  0.00294962  0.25071086  0.74840641  1
  Ca2+  Ca77  1  0.24787671  0.49890212  0.74795822  1
  Ca2+  Ca78  1  0.24878913  -0.00279936  0.24908340  1
  Ca2+  Ca79  1  0.25193798  0.00027890  0.74788471  1
  Ca2+  Ca80  1  0.24595647  0.50172651  0.24748202  1
  Ca2+  Ca81  1  0.75150783  0.49840213  0.25007020  1
  Ca2+  Ca82  1  0.49840117  0.74999186  0.25048617  1
  Ca2+  Ca83  1  0.75065424  0.00154226  0.25034585  1
  Ca2+  Ca84  1  0.00127082  0.75014868  0.24724120  1
  Nb5+  Nb85  1  -0.00206892  -0.00265253  -0.00328916  1
  Nb5+  Nb86  1  0.49230112  0.00101268  -0.00167667  1
  Nb5+  Nb87  1  -0.00009377  0.49595860  -0.00223097  1
  Nb5+  Nb88  1  0.74262533  0.25397045  0.49854866  1
  Nb5+  Nb89  1  0.24527720  0.25432778  0.49758285  1
  Nb5+  Nb90  1  0.25089773  0.75203058  -0.00062675  1
  Nb5+  Nb91  1  0.00298661  0.75038328  0.75352881  1
  Nb5+  Nb92  1  0.49236431  0.24712182  0.25113881  1
  Nb5+  Nb93  1  0.50252473  0.75208828  0.74834626  1
  Nb5+  Nb94  1  0.74972570  0.49852507  0.75361750  1
  Nb5+  Nb95  1  -0.00562535  0.24701884  0.24887613  1
  Nb5+  Nb96  1  0.00307351  -0.00139526  0.25146117  1
  Nb5+  Nb97  1  -0.00082795  0.00313888  0.74899846  1
  Nb5+  Nb98  1  -0.00176479  0.50616873  0.25364024  1
  Nb5+  Nb99  1  0.00016457  0.49712238  0.75512254  1
  Nb5+  Nb100  1  0.50330882  0.00167468  0.25335570  1
  Nb5+  Nb101  1  0.49871801  0.00252666  0.74536667  1
  Nb5+  Nb102  1  0.50304337  0.50514840  0.24512218  1
  Nb5+  Nb103  1  0.49696560  0.49871308  0.75229599  1
  Nb5+  Nb104  1  0.24218913  0.25180520  0.24673750  1
  Nb5+  Nb105  1  0.25018267  0.24991836  0.74958176  1
  Nb5+  Nb106  1  0.24762597  0.74888501  0.25759025  1
  Nb5+  Nb107  1  0.25640633  0.74868555  0.74894889  1
  Nb5+  Nb108  1  0.74265286  0.24714578  0.24808197  1
  Nb5+  Nb109  1  0.74747163  0.24782123  0.75254823  1
  Nb5+  Nb110  1  0.75288693  0.75282219  0.24980844  1
  Nb5+  Nb111  1  0.75548280  0.74932913  0.75249223  1
  Nb5+  Nb112  1  -0.00725620  0.25007437  0.49852849  1
  Nb5+  Nb113  1  0.00629718  0.24143416  0.99811422  1
  Nb5+  Nb114  1  -0.00249363  0.74937443  0.49303308  1
  Nb5+  Nb115  1  0.00096267  0.74431427  0.99414852  1
  Nb5+  Nb116  1  0.49087056  0.25449762  0.50234548  1
  Nb5+  Nb117  1  0.49653772  0.25228848  0.99810434  1
  Nb5+  Nb118  1  0.50182332  0.74810912  0.49562171  1
  Nb5+  Nb119  1  0.50194500  0.75195483  1.00175611  1
  Nb5+  Nb120  1  0.24241559  0.00228853  0.00124185  1
  Nb5+  Nb121  1  0.24967553  -0.00366480  0.49772997  1
  Nb5+  Nb122  1  0.25438827  0.50130223  0.00326634  1
  Nb5+  Nb123  1  0.24603709  0.50507631  0.50387634  1
  Nb5+  Nb124  1  0.74079703  -0.00467466  -0.00126294  1
  Nb5+  Nb125  1  0.75258708  -0.00567709  0.50556988  1
  Nb5+  Nb126  1  0.74459440  0.49503022  -0.00088346  1
  Nb5+  Nb127  1  0.75295275  0.49850133  0.49616433  1
  O2-  O128  1  -0.01566111  0.01083318  0.11475850  1
  O2-  O129  1  -0.02929626  0.00179668  0.63805807  1
  O2-  O130  1  0.02137266  0.49852096  0.11534321  1
  O2-  O131  1  0.01899918  0.50296899  0.63963189  1
  O2-  O132  1  0.48168603  -0.00998927  0.11711775  1
  O2-  O133  1  0.46877875  -0.00708701  0.63576834  1
  O2-  O134  1  0.51412829  0.46664966  0.13267410  1
  O2-  O135  1  0.53172029  0.48865220  0.64073430  1
  O2-  O136  1  0.02697170  -0.00648728  0.36361327  1
  O2-  O137  1  0.03043365  -0.00191736  0.88294804  1
  O2-  O138  1  -0.03239884  0.51022585  0.36309216  1
  O2-  O139  1  -0.02500581  0.50168523  0.87847155  1
  O2-  O140  1  0.52757561  0.00455812  0.36548247  1
  O2-  O141  1  0.52343427  0.00398944  0.88230556  1
  O2-  O142  1  0.48626993  0.52125886  0.36453965  1
  O2-  O143  1  0.48787752  0.52889756  0.86805620  1
  O2-  O144  1  0.25403776  0.24327973  0.13502286  1
  O2-  O145  1  0.25403044  0.25686696  0.61605715  1
  O2-  O146  1  0.25747269  0.76326454  0.11728784  1
  O2-  O147  1  0.25352859  0.77304808  0.63665774  1
  O2-  O148  1  0.74921546  0.21683578  0.13787437  1
  O2-  O149  1  0.75067625  0.23658170  0.61905079  1
  O2-  O150  1  0.74921342  0.72913111  0.13106910  1
  O2-  O151  1  0.74784240  0.71891100  0.63838942  1
  O2-  O152  1  0.24492200  0.24813215  0.37675108  1
  O2-  O153  1  0.24733290  0.24440206  0.86578726  1
  O2-  O154  1  0.23211988  0.72779418  0.36905949  1
  O2-  O155  1  0.24772886  0.73545168  0.87740518  1
  O2-  O156  1  0.74995854  0.27376111  0.37964416  1
  O2-  O157  1  0.74873969  0.27155720  0.86579811  1
  O2-  O158  1  0.76236767  0.77158731  0.37033180  1
  O2-  O159  1  0.72947199  0.76242323  0.86404063  1
  O2-  O160  1  -0.00412825  0.24910119  0.12832525  1
  O2-  O161  1  -0.00666146  0.26374774  0.61248631  1
  O2-  O162  1  0.00532284  0.74890029  0.10982277  1
  O2-  O163  1  -0.00734760  0.74206744  0.63608518  1
  O2-  O164  1  0.49357098  0.26454581  0.13068979  1
  O2-  O165  1  0.48920577  0.28970841  0.61053484  1
  O2-  O166  1  0.48463394  0.76906142  0.11466020  1
  O2-  O167  1  0.49013494  0.76439470  0.63187361  1
  O2-  O168  1  0.21685608  0.00197275  0.38306135  1
  O2-  O169  1  0.23577402  0.00251906  0.88435452  1
  O2-  O170  1  0.26894925  0.51862831  0.38433058  1
  O2-  O171  1  0.26819785  0.51820767  0.88481585  1
  O2-  O172  1  0.73228482  -0.02206811  0.38805873  1
  O2-  O173  1  0.73507005  -0.02916350  0.88273339  1
  O2-  O174  1  0.78209306  0.48735882  0.38611266  1
  O2-  O175  1  0.77473651  0.48550023  0.87363278  1
  O2-  O176  1  0.00564195  0.24543617  0.36913467  1
  O2-  O177  1  0.01398526  0.25311647  0.88447795  1
  O2-  O178  1  -0.00525630  0.76134803  0.38064650  1
  O2-  O179  1  0.01247983  0.76469693  0.87565059  1
  O2-  O180  1  0.50647464  0.22458490  0.36867148  1
  O2-  O181  1  0.50676721  0.23073324  0.88407471  1
  O2-  O182  1  0.51029009  0.72719583  0.38311850  1
  O2-  O183  1  0.50186250  0.74016182  0.87283948  1
  O2-  O184  1  0.27863157  -0.00135732  0.11335442  1
  O2-  O185  1  0.27906297  -0.00100740  0.61522661  1
  O2-  O186  1  0.21413035  0.49418384  0.11272021  1
  O2-  O187  1  0.22647132  0.47397487  0.61702393  1
  O2-  O188  1  0.76973519  0.02108650  0.11187880  1
  O2-  O189  1  0.76682001  0.03243315  0.61966640  1
  O2-  O190  1  0.72957390  0.50789116  0.11371469  1
  O2-  O191  1  0.73052129  0.50706102  0.63614157  1
  O2-  O192  1  0.12528149  0.27314356  0.24737328  1
  O2-  O193  1  0.13648089  0.28964839  0.73989721  1
  O2-  O194  1  0.13512158  0.78937695  0.24722309  1
  O2-  O195  1  0.11972927  0.76506546  0.74746526  1
  O2-  O196  1  0.62657194  0.26837343  0.24774254  1
  O2-  O197  1  0.63291353  0.27561593  0.73621782  1
  O2-  O198  1  0.63395456  0.78053054  0.24983499  1
  O2-  O199  1  0.61992773  0.76348704  0.74293157  1
  O2-  O200  1  0.37709435  0.22777956  0.25207914  1
  O2-  O201  1  0.36464627  0.20870225  0.73992939  1
  O2-  O202  1  0.36567166  0.71696116  0.25761429  1
  O2-  O203  1  0.37282614  0.72624662  0.75337877  1
  O2-  O204  1  0.87891786  0.22717539  0.25525922  1
  O2-  O205  1  0.86520275  0.22857594  0.74421890  1
  O2-  O206  1  0.86941056  0.71596977  0.24756170  1
  O2-  O207  1  0.87261847  0.73079389  0.76615436  1
  O2-  O208  1  0.27549688  0.36513922  0.25321698  1
  O2-  O209  1  0.29002517  0.36429633  0.75147871  1
  O2-  O210  1  0.28583176  0.86404336  0.25904589  1
  O2-  O211  1  0.25796642  0.86368827  0.77436192  1
  O2-  O212  1  0.77592441  0.35967396  0.23550581  1
  O2-  O213  1  0.76852293  0.37916498  0.73701679  1
  O2-  O214  1  0.78250416  0.86871576  0.23606464  1
  O2-  O215  1  0.76732154  0.86154643  0.72740912  1
  O2-  O216  1  0.23179903  0.13421281  0.25991363  1
  O2-  O217  1  0.21361003  0.13411582  0.73929768  1
  O2-  O218  1  0.22374242  0.63631534  0.22517303  1
  O2-  O219  1  0.22289515  0.63522407  0.74078893  1
  O2-  O220  1  0.73571015  0.13603202  0.28735427  1
  O2-  O221  1  0.72639933  0.13403982  0.76817958  1
  O2-  O222  1  0.72446384  0.63264558  0.27258868  1
  O2-  O223  1  0.73792481  0.61994572  0.77031860  1
  O2-  O224  1  0.11098101  0.46895415  0.26649695  1
  O2-  O225  1  0.11261567  0.48609454  0.78164715  1
  O2-  O226  1  0.11565570  0.98969013  0.21322422  1
  O2-  O227  1  0.11248701  0.96845473  0.74095092  1
  O2-  O228  1  0.61715361  0.47355572  0.26747949  1
  O2-  O229  1  0.63227761  0.48903668  0.77823017  1
  O2-  O230  1  0.61711722  0.99371253  0.21831857  1
  O2-  O231  1  0.61205180  0.96506123  0.73931938  1
  O2-  O232  1  0.38718059  0.02880925  0.26321247  1
  O2-  O233  1  0.38741966  0.01127603  0.78486972  1
  O2-  O234  1  0.38368783  0.50763853  0.22867845  1
  O2-  O235  1  0.38569941  0.51546934  0.72666046  1
  O2-  O236  1  0.88929742  0.03347571  0.25703801  1
  O2-  O237  1  0.88713302  0.00664930  0.78929339  1
  O2-  O238  1  0.88699412  0.51206572  0.21307917  1
  O2-  O239  1  0.87262523  0.52029134  0.73991322  1
  O2-  O240  1  0.48305478  0.36448573  0.26795967  1
  O2-  O241  1  0.48957642  0.38599998  0.77959741  1
  O2-  O242  1  0.48121183  0.88715231  0.25432626  1
  O2-  O243  1  0.47808290  0.86776042  0.76410572  1
  O2-  O244  1  0.98032750  0.36824846  0.24930642  1
  O2-  O245  1  0.97162652  0.38556704  0.75576079  1
  O2-  O246  1  0.97555034  0.88736561  0.24002073  1
  O2-  O247  1  0.97648787  0.86743218  0.75155416  1
  O2-  O248  1  0.02804487  0.13132625  0.24634293  1
  O2-  O249  1  0.02452201  0.11555136  0.75052215  1
  O2-  O250  1  0.03247955  0.61554677  0.24657103  1
  O2-  O251  1  0.01019859  0.62833724  0.76438223  1
  O2-  O252  1  0.51898420  0.12877976  0.22874845  1
  O2-  O253  1  0.52991594  0.11367987  0.74145823  1
  O2-  O254  1  0.52409909  0.61597542  0.22278565  1
  O2-  O255  1  0.51577241  0.63024892  0.73790375  1
  O2-  O256  1  0.11919209  0.49127098  -0.02722783  1
  O2-  O257  1  0.13302677  0.47728441  0.47436005  1
  O2-  O258  1  0.12840638  0.97910199  0.02040252  1
  O2-  O259  1  0.13439823  0.98968977  0.53287263  1
  O2-  O260  1  0.63483437  0.46822121  -0.02198770  1
  O2-  O261  1  0.63990378  0.46313711  0.49088924  1
  O2-  O262  1  0.62640151  0.98014760  0.01944812  1
  O2-  O263  1  0.63388313  0.99586570  0.52754644  1
  O2-  O264  1  0.37827238  0.01867688  -0.01983046  1
  O2-  O265  1  0.36546427  0.02499255  0.47104866  1
  O2-  O266  1  0.36515537  0.52337050  0.02893980  1
  O2-  O267  1  0.36686981  0.50848299  0.52470260  1
  O2-  O268  1  0.88632279  0.01907861  -0.02257171  1
  O2-  O269  1  0.86567610  0.02320576  0.47973394  1
  O2-  O270  1  0.88398435  0.52499566  0.01380004  1
  O2-  O271  1  0.86390892  0.50932302  0.53788037  1
  O2-  O272  1  0.46873156  0.36379826  -0.01404266  1
  O2-  O273  1  0.48611630  0.36394080  0.45996113  1
  O2-  O274  1  0.47790918  0.87937906  -0.01420882  1
  O2-  O275  1  0.47377727  0.86591621  0.49107682  1
  O2-  O276  1  0.98205338  0.37977993  -0.00055714  1
  O2-  O277  1  0.98800469  0.36726923  0.47917911  1
  O2-  O278  1  0.98691670  0.87942464  0.00164406  1
  O2-  O279  1  0.96172751  0.86456170  0.50646206  1
  O2-  O280  1  0.03044093  0.12575053  0.00055670  1
  O2-  O281  1  0.02376391  0.13608310  0.49969006  1
  O2-  O282  1  0.02382884  0.62892805  -0.01106556  1
  O2-  O283  1  0.03930591  0.63595375  0.49718650  1
  O2-  O284  1  0.52381522  0.11651883  0.01161179  1
  O2-  O285  1  0.52132027  0.14156033  0.51970417  1
  O2-  O286  1  0.52698083  0.63869643  0.01219842  1
  O2-  O287  1  0.52305411  0.63251377  0.52492766  1
  O2-  O288  1  0.11641988  0.28114424  0.01457913  1
  O2-  O289  1  0.12714466  0.26929776  0.50015364  1
  O2-  O290  1  0.13001463  0.77043023  -0.00300504  1
  O2-  O291  1  0.11214508  0.78665528  0.50849174  1
  O2-  O292  1  0.61447656  0.26794338  0.01351399  1
  O2-  O293  1  0.62669191  0.27088121  0.50051247  1
  O2-  O294  1  0.61313318  0.78463863  0.00281797  1
  O2-  O295  1  0.61741193  0.77825605  0.50604425  1
  O2-  O296  1  0.38566480  0.21185885  0.00661188  1
  O2-  O297  1  0.37499360  0.23081603  0.49455972  1
  O2-  O298  1  0.37349496  0.73299795  -0.00771882  1
  O2-  O299  1  0.38283300  0.72241111  0.50194925  1
  O2-  O300  1  0.88850772  0.22777426  -0.00097829  1
  O2-  O301  1  0.87646839  0.23133808  0.49104486  1
  O2-  O302  1  0.88697614  0.73083195  -0.01481984  1
  O2-  O303  1  0.88530946  0.70777261  0.50441065  1
  O2-  O304  1  0.26969369  0.38688873  -0.00927164  1
  O2-  O305  1  0.27155229  0.36994460  0.48957451  1
  O2-  O306  1  0.26728837  0.87317594  -0.01027038  1
  O2-  O307  1  0.27283304  0.88305608  0.48644510  1
  O2-  O308  1  0.78570732  0.38366108  0.01031342  1
  O2-  O309  1  0.77495295  0.36851918  0.51816311  1
  O2-  O310  1  0.78425347  0.88535302  0.01089616  1
  O2-  O311  1  0.76748790  0.88299501  0.53123079  1
  O2-  O312  1  0.22360167  0.11603592  0.00235567  1
  O2-  O313  1  0.23467172  0.13155849  0.50219032  1
  O2-  O314  1  0.23181505  0.63143262  0.00935774  1
  O2-  O315  1  0.22565760  0.61636987  0.52275384  1
  O2-  O316  1  0.73783363  0.11275490  -0.02920238  1
  O2-  O317  1  0.73520921  0.13556067  0.48356729  1
  O2-  O318  1  0.73598327  0.61280232  -0.02001127  1
  O2-  O319  1  0.72430536  0.61037846  0.48588314  1
