# generated using pymatgen
data_Sr64Ca21Nb43O192
_symmetry_space_group_name_H-M   'P 1'
_cell_length_a   16.61704737
_cell_length_b   16.56099243
_cell_length_c   16.75231214
_cell_angle_alpha   89.94763589
_cell_angle_beta   89.96835533
_cell_angle_gamma   90.07494621
_symmetry_Int_Tables_number   1
_chemical_formula_structural   Sr64Ca21Nb43O192
_chemical_formula_sum   'Sr64 Ca21 Nb43 O192'
_cell_volume   4610.14254193
_cell_formula_units_Z   1
loop_
 _symmetry_equiv_pos_site_id
 _symmetry_equiv_pos_as_xyz
  1  'x, y, z'
loop_
 _atom_type_symbol
 _atom_type_oxidation_number
  Sr2+  2.0
  Ca2+  2.0
  Nb5+  5.0
  O2-  -2.0
loop_
 _atom_site_type_symbol
 _atom_site_label
 _atom_site_symmetry_multiplicity
 _atom_site_fract_x
 _atom_site_fract_y
 _atom_site_fract_z
 _atom_site_occupancy
  Sr2+  Sr0  1  0.11710733  0.11342355  0.12505467  1
  Sr2+  Sr1  1  0.12781481  0.11212793  0.62169956  1
  Sr2+  Sr2  1  0.12288709  0.62506326  0.12866380  1
  Sr2+  Sr3  1  0.11541096  0.62302800  0.63063221  1
  Sr2+  Sr4  1  0.63749897  0.11353144  0.12627238  1
  Sr2+  Sr5  1  0.62855792  0.10558613  0.62524129  1
  Sr2+  Sr6  1  0.62204419  0.62667341  0.12308758  1
  Sr2+  Sr7  1  0.63333393  0.61241211  0.62426622  1
  Sr2+  Sr8  1  0.37694290  0.37146233  0.12519084  1
  Sr2+  Sr9  1  0.37183228  0.36310355  0.61953833  1
  Sr2+  Sr10  1  0.37786921  0.87058290  0.11840624  1
  Sr2+  Sr11  1  0.37885552  0.86497202  0.64075278  1
  Sr2+  Sr12  1  0.86731523  0.36555713  0.12253168  1
  Sr2+  Sr13  1  0.86586663  0.37167247  0.62834401  1
  Sr2+  Sr14  1  0.87316884  0.86536025  0.12674038  1
  Sr2+  Sr15  1  0.87211818  0.86611386  0.62313926  1
  Sr2+  Sr16  1  0.13527758  0.37724986  0.37793646  1
  Sr2+  Sr17  1  0.12247599  0.38188183  0.87897080  1
  Sr2+  Sr18  1  0.13209562  0.88401272  0.37448495  1
  Sr2+  Sr19  1  0.14407836  0.88263084  0.88100008  1
  Sr2+  Sr20  1  0.60511196  0.38517444  0.37893012  1
  Sr2+  Sr21  1  0.61538089  0.38340639  0.87567896  1
  Sr2+  Sr22  1  0.60754022  0.88035776  0.37671000  1
  Sr2+  Sr23  1  0.61437648  0.88430948  0.87141701  1
  Sr2+  Sr24  1  0.37732026  0.13516894  0.37126969  1
  Sr2+  Sr25  1  0.38120660  0.13071320  0.86935019  1
  Sr2+  Sr26  1  0.37719897  0.62260959  0.37052581  1
  Sr2+  Sr27  1  0.37113303  0.62462902  0.88322738  1
  Sr2+  Sr28  1  0.88479770  0.13238877  0.37698830  1
  Sr2+  Sr29  1  0.88163479  0.13505744  0.87264702  1
  Sr2+  Sr30  1  0.87454847  0.63779398  0.37552448  1
  Sr2+  Sr31  1  0.88776030  0.62367868  0.86781485  1
  Sr2+  Sr32  1  0.12996449  0.13898254  0.37563796  1
  Sr2+  Sr33  1  0.13051843  0.13142343  0.88279214  1
  Sr2+  Sr34  1  0.13470838  0.63581711  0.37515822  1
  Sr2+  Sr35  1  0.13300263  0.63546889  0.86616524  1
  Sr2+  Sr36  1  0.61899445  0.13281453  0.36643074  1
  Sr2+  Sr37  1  0.62664843  0.13319687  0.87093607  1
  Sr2+  Sr38  1  0.62170738  0.63663396  0.38480487  1
  Sr2+  Sr39  1  0.61648632  0.62981990  0.87829794  1
  Sr2+  Sr40  1  0.36743101  0.38493398  0.37583954  1
  Sr2+  Sr41  1  0.37953015  0.36943151  0.87680002  1
  Sr2+  Sr42  1  0.37646276  0.89305550  0.36846630  1
  Sr2+  Sr43  1  0.37438630  0.84953420  0.87439762  1
  Sr2+  Sr44  1  0.88161596  0.38021890  0.36887311  1
  Sr2+  Sr45  1  0.87339962  0.38398080  0.87194088  1
  Sr2+  Sr46  1  0.87175916  0.87692033  0.38260884  1
  Sr2+  Sr47  1  0.87731412  0.88474017  0.87403371  1
  Sr2+  Sr48  1  0.11311820  0.37245410  0.13299223  1
  Sr2+  Sr49  1  0.12213716  0.36496835  0.62746822  1
  Sr2+  Sr50  1  0.11978215  0.87177284  0.11954233  1
  Sr2+  Sr51  1  0.12514655  0.87074259  0.61764381  1
  Sr2+  Sr52  1  0.63571950  0.37323752  0.11633680  1
  Sr2+  Sr53  1  0.61941944  0.37243394  0.63085148  1
  Sr2+  Sr54  1  0.62501543  0.87064816  0.11849759  1
  Sr2+  Sr55  1  0.62672076  0.86667527  0.63272191  1
  Sr2+  Sr56  1  0.38404674  0.11009991  0.13147166  1
  Sr2+  Sr57  1  0.38793768  0.11768975  0.62046336  1
  Sr2+  Sr58  1  0.37690658  0.61449222  0.12088677  1
  Sr2+  Sr59  1  0.35450724  0.62139100  0.63490727  1
  Sr2+  Sr60  1  0.87359979  0.12581125  0.12674885  1
  Sr2+  Sr61  1  0.87368682  0.12039127  0.63359458  1
  Sr2+  Sr62  1  0.86946715  0.62052344  0.13564139  1
  Sr2+  Sr63  1  0.86703648  0.62133027  0.61583753  1
  Ca2+  Ca64  1  -0.00090207  0.50093218  0.00220561  1
  Ca2+  Ca65  1  0.50293531  0.00235550  -0.00189608  1
  Ca2+  Ca66  1  0.49567728  0.50369935  0.50301271  1
  Ca2+  Ca67  1  -0.00099546  0.49855582  0.49915644  1
  Ca2+  Ca68  1  0.50170371  -0.00287511  0.49993679  1
  Ca2+  Ca69  1  0.25072626  0.24915254  0.00628482  1
  Ca2+  Ca70  1  0.24736526  0.74808573  0.00625219  1
  Ca2+  Ca71  1  0.25023617  0.75100008  0.49736056  1
  Ca2+  Ca72  1  0.75224827  0.24953963  0.49932297  1
  Ca2+  Ca73  1  0.75400855  0.74977364  -0.00261011  1
  Ca2+  Ca74  1  0.24871774  0.00353886  0.74979736  1
  Ca2+  Ca75  1  0.74824040  0.49854521  0.25226021  1
  Ca2+  Ca76  1  0.75120316  -0.00291405  0.25065506  1
  Ca2+  Ca77  1  -0.00197638  0.75444516  0.74983042  1
  Ca2+  Ca78  1  0.24755650  0.00351978  0.24796095  1
  Ca2+  Ca79  1  0.50227815  0.25328731  0.24623664  1
  Ca2+  Ca80  1  0.00432295  0.25225418  0.75067997  1
  Ca2+  Ca81  1  0.49822581  0.74833079  0.24892805  1
  Ca2+  Ca82  1  0.50026739  0.25007522  0.74873485  1
  Ca2+  Ca83  1  0.25136235  0.49381031  0.75102541  1
  Ca2+  Ca84  1  0.50343576  0.74420091  0.74869589  1
  Nb5+  Nb85  1  -0.00363453  -0.00105978  0.00485144  1
  Nb5+  Nb86  1  0.49869107  0.49828582  -0.00056707  1
  Nb5+  Nb87  1  -0.00234225  0.00129116  0.50524933  1
  Nb5+  Nb88  1  0.75042420  0.25005774  -0.00345320  1
  Nb5+  Nb89  1  0.74650780  0.75201602  0.50116174  1
  Nb5+  Nb90  1  0.25100671  0.24813344  0.50042677  1
  Nb5+  Nb91  1  -0.00008589  0.75757208  0.25287425  1
  Nb5+  Nb92  1  -0.00117702  0.25431188  0.24934307  1
  Nb5+  Nb93  1  0.24696832  0.50051727  0.25018686  1
  Nb5+  Nb94  1  0.75027821  0.49523680  0.75112346  1
  Nb5+  Nb95  1  0.75328326  -0.00512051  0.75010343  1
  Nb5+  Nb96  1  0.00045461  0.00437231  0.25911344  1
  Nb5+  Nb97  1  0.00348671  -0.00217132  0.75860472  1
  Nb5+  Nb98  1  0.00027189  0.50957797  0.25603105  1
  Nb5+  Nb99  1  0.00277669  0.49826501  0.74708293  1
  Nb5+  Nb100  1  0.50372627  0.00016581  0.24638580  1
  Nb5+  Nb101  1  0.49554245  0.00213613  0.75216358  1
  Nb5+  Nb102  1  0.50314065  0.49827812  0.24780385  1
  Nb5+  Nb103  1  0.49523255  0.50276347  0.74904682  1
  Nb5+  Nb104  1  0.24916125  0.25092804  0.24604836  1
  Nb5+  Nb105  1  0.25275640  0.24814434  0.75520441  1
  Nb5+  Nb106  1  0.25196957  0.75186244  0.24880708  1
  Nb5+  Nb107  1  0.24643717  0.75133779  0.74944435  1
  Nb5+  Nb108  1  0.75036866  0.25281303  0.25685748  1
  Nb5+  Nb109  1  0.74860362  0.24688333  0.74829796  1
  Nb5+  Nb110  1  0.74611734  0.75370342  0.25273957  1
  Nb5+  Nb111  1  0.75455017  0.74255399  0.75428387  1
  Nb5+  Nb112  1  -0.00003809  0.24802876  0.50524753  1
  Nb5+  Nb113  1  -0.00153253  0.25292718  0.99929200  1
  Nb5+  Nb114  1  0.00244856  0.74957515  0.49734984  1
  Nb5+  Nb115  1  -0.00233001  0.74822002  0.99591298  1
  Nb5+  Nb116  1  0.50683272  0.25231539  0.49907560  1
  Nb5+  Nb117  1  0.50042645  0.24555210  1.00597711  1
  Nb5+  Nb118  1  0.49138373  0.74522898  0.50170203  1
  Nb5+  Nb119  1  0.50240230  0.75109654  0.99949024  1
  Nb5+  Nb120  1  0.25911992  0.00605666  -0.00192593  1
  Nb5+  Nb121  1  0.25497881  0.00155053  0.49353943  1
  Nb5+  Nb122  1  0.24485485  0.49412938  0.00229586  1
  Nb5+  Nb123  1  0.24535958  0.50151100  0.50391206  1
  Nb5+  Nb124  1  0.75568290  -0.00200699  -0.00158650  1
  Nb5+  Nb125  1  0.74632840  -0.00155612  0.49748597  1
  Nb5+  Nb126  1  0.74971311  0.50439935  -0.00201617  1
  Nb5+  Nb127  1  0.74902812  0.49531497  0.49410061  1
  O2-  O128  1  -0.02123972  0.01365618  0.11886228  1
  O2-  O129  1  -0.01683210  0.01806190  0.61858128  1
  O2-  O130  1  -0.01270563  0.52162867  0.13859453  1
  O2-  O131  1  -0.01478642  0.53138916  0.63343829  1
  O2-  O132  1  0.47308540  -0.01423183  0.12998239  1
  O2-  O133  1  0.48325826  -0.02022944  0.63475723  1
  O2-  O134  1  0.48126552  0.48420998  0.11847085  1
  O2-  O135  1  0.48099265  0.48282734  0.63696014  1
  O2-  O136  1  0.01306684  -0.01545547  0.37125522  1
  O2-  O137  1  0.01500660  -0.01984656  0.87299937  1
  O2-  O138  1  0.01393436  0.46649996  0.36443729  1
  O2-  O139  1  0.00447714  0.47344890  0.86632538  1
  O2-  O140  1  0.53059489  0.01446740  0.36467572  1
  O2-  O141  1  0.52782314  0.01969662  0.86585320  1
  O2-  O142  1  0.51755085  0.51680227  0.36197345  1
  O2-  O143  1  0.51590080  0.51491870  0.88130266  1
  O2-  O144  1  0.23129517  0.27954639  0.13719050  1
  O2-  O145  1  0.23480333  0.26261485  0.61585476  1
  O2-  O146  1  0.21068463  0.75503398  0.13961120  1
  O2-  O147  1  0.23221002  0.76915071  0.63176794  1
  O2-  O148  1  0.73905684  0.25234191  0.11883723  1
  O2-  O149  1  0.73147029  0.26147113  0.63534254  1
  O2-  O150  1  0.73244618  0.75661539  0.13664503  1
  O2-  O151  1  0.73151370  0.74953079  0.62066334  1
  O2-  O152  1  0.25717514  0.23859524  0.37456555  1
  O2-  O153  1  0.27055065  0.23626485  0.86892796  1
  O2-  O154  1  0.26254048  0.72046183  0.36273401  1
  O2-  O155  1  0.26397942  0.72879081  0.87033195  1
  O2-  O156  1  0.78095378  0.24636144  0.36627879  1
  O2-  O157  1  0.77377976  0.24711283  0.87786789  1
  O2-  O158  1  0.77183661  0.75064944  0.38187111  1
  O2-  O159  1  0.78616515  0.74509577  0.86337723  1
  O2-  O160  1  0.01637504  0.23022235  0.12983147  1
  O2-  O161  1  0.02776092  0.22757526  0.61444299  1
  O2-  O162  1  0.02061244  0.74480944  0.13757808  1
  O2-  O163  1  0.02286600  0.75008405  0.61242366  1
  O2-  O164  1  0.52076482  0.28411100  0.11449642  1
  O2-  O165  1  0.50144990  0.27885105  0.61533041  1
  O2-  O166  1  0.53236057  0.75626410  0.11459977  1
  O2-  O167  1  0.51200006  0.77569402  0.61438723  1
  O2-  O168  1  0.21619663  0.01559025  0.38175600  1
  O2-  O169  1  0.22281912  0.01498944  0.88415237  1
  O2-  O170  1  0.22643386  0.50747489  0.37127171  1
  O2-  O171  1  0.22949082  0.50898627  0.88765479  1
  O2-  O172  1  0.72985762  -0.01514932  0.38591153  1
  O2-  O173  1  0.73573531  0.00033212  0.86955565  1
  O2-  O174  1  0.71551334  0.49761151  0.38529370  1
  O2-  O175  1  0.73121978  0.49531409  0.87260924  1
  O2-  O176  1  -0.01829116  0.25766141  0.36963790  1
  O2-  O177  1  -0.02556842  0.26562352  0.88731345  1
  O2-  O178  1  -0.02540616  0.76433499  0.37519279  1
  O2-  O179  1  -0.03233478  0.76065530  0.88720075  1
  O2-  O180  1  0.49391288  0.22587291  0.38209984  1
  O2-  O181  1  0.48638671  0.23801118  0.88745459  1
  O2-  O182  1  0.49221827  0.72000229  0.38247493  1
  O2-  O183  1  0.48136272  0.72403708  0.88431406  1
  O2-  O184  1  0.26750460  -0.01515074  0.11475139  1
  O2-  O185  1  0.26204881  -0.00437677  0.61057777  1
  O2-  O186  1  0.26563671  0.48194429  0.13356926  1
  O2-  O187  1  0.27449027  0.48686238  0.61401756  1
  O2-  O188  1  0.77746697  0.00783384  0.11104793  1
  O2-  O189  1  0.77287335  0.00475374  0.62973456  1
  O2-  O190  1  0.76512313  0.49659159  0.11307979  1
  O2-  O191  1  0.76716166  0.50204948  0.63177187  1
  O2-  O192  1  0.11676482  0.26880283  0.26689063  1
  O2-  O193  1  0.13807055  0.28848941  0.76495816  1
  O2-  O194  1  0.11602994  0.76088608  0.27964495  1
  O2-  O195  1  0.13049566  0.76948958  0.77595858  1
  O2-  O196  1  0.63865054  0.27851609  0.27335915  1
  O2-  O197  1  0.63704537  0.26868182  0.77759340  1
  O2-  O198  1  0.63586525  0.77010947  0.27759261  1
  O2-  O199  1  0.64201467  0.77449605  0.76491392  1
  O2-  O200  1  0.36259264  0.23182767  0.23535784  1
  O2-  O201  1  0.36544249  0.21510171  0.72892710  1
  O2-  O202  1  0.36140015  0.73845411  0.21771249  1
  O2-  O203  1  0.36737192  0.73497225  0.73119713  1
  O2-  O204  1  0.88196700  0.22870485  0.23369346  1
  O2-  O205  1  0.86656795  0.23506586  0.73426237  1
  O2-  O206  1  0.88459853  0.72599372  0.24032658  1
  O2-  O207  1  0.86491051  0.73623327  0.71423812  1
  O2-  O208  1  0.25429986  0.37622342  0.27120144  1
  O2-  O209  1  0.29127028  0.36341343  0.75004503  1
  O2-  O210  1  0.25711307  0.86562373  0.26986834  1
  O2-  O211  1  0.27121058  0.86893265  0.76682557  1
  O2-  O212  1  0.78360260  0.36598003  0.24408118  1
  O2-  O213  1  0.77064176  0.37694619  0.75405551  1
  O2-  O214  1  0.78841538  0.86408671  0.25387416  1
  O2-  O215  1  0.77279858  0.87890931  0.74891399  1
  O2-  O216  1  0.21877350  0.13903837  0.23736158  1
  O2-  O217  1  0.21158188  0.13749017  0.73956888  1
  O2-  O218  1  0.22740372  0.61801405  0.23861895  1
  O2-  O219  1  0.22667574  0.63100218  0.73167528  1
  O2-  O220  1  0.73156273  0.13552283  0.24505381  1
  O2-  O221  1  0.73289258  0.12784333  0.74860151  1
  O2-  O222  1  0.74211918  0.63480743  0.25470682  1
  O2-  O223  1  0.73444460  0.62483422  0.75179914  1
  O2-  O224  1  0.12284487  0.48528060  0.23327837  1
  O2-  O225  1  0.11618095  0.48059405  0.73192445  1
  O2-  O226  1  0.10996716  0.98461470  0.22052156  1
  O2-  O227  1  0.11107513  0.97882331  0.72472359  1
  O2-  O228  1  0.61366368  0.47561360  0.22707341  1
  O2-  O229  1  0.63284733  0.47872001  0.73676417  1
  O2-  O230  1  0.61986935  0.97845038  0.21892345  1
  O2-  O231  1  0.63610471  0.98334022  0.73178927  1
  O2-  O232  1  0.38348730  0.02356627  0.27052584  1
  O2-  O233  1  0.38369116  0.02554729  0.76421571  1
  O2-  O234  1  0.36415764  0.51607310  0.26435494  1
  O2-  O235  1  0.38535615  0.53263140  0.76673098  1
  O2-  O236  1  0.88572132  0.02181107  0.26178746  1
  O2-  O237  1  0.87086899  0.02448051  0.76622271  1
  O2-  O238  1  0.88484914  0.51640937  0.27378442  1
  O2-  O239  1  0.86816142  0.51522593  0.76757650  1
  O2-  O240  1  0.46698747  0.38611234  0.26112834  1
  O2-  O241  1  0.49364431  0.38772326  0.77723414  1
  O2-  O242  1  0.48261640  0.88229872  0.26567171  1
  O2-  O243  1  0.48996952  0.88318984  0.77394039  1
  O2-  O244  1  0.98273566  0.36881220  0.22958355  1
  O2-  O245  1  0.97514666  0.38449456  0.72381647  1
  O2-  O246  1  0.98310711  0.87441680  0.24168425  1
  O2-  O247  1  0.96421848  0.88887682  0.73866916  1
  O2-  O248  1  0.01871513  0.12249485  0.26377963  1
  O2-  O249  1  0.01096152  0.11576296  0.76934401  1
  O2-  O250  1  0.01913839  0.62384558  0.27407889  1
  O2-  O251  1  0.01288339  0.61731764  0.77545095  1
  O2-  O252  1  0.52277855  0.11944830  0.22629345  1
  O2-  O253  1  0.52719358  0.11628272  0.72988396  1
  O2-  O254  1  0.50095068  0.61281919  0.22076028  1
  O2-  O255  1  0.53942988  0.61240262  0.74266520  1
  O2-  O256  1  0.13414857  0.46852783  0.01951898  1
  O2-  O257  1  0.13278660  0.46598078  0.51355182  1
  O2-  O258  1  0.11138347  0.98324057  0.01351492  1
  O2-  O259  1  0.11521559  0.98514312  0.51619461  1
  O2-  O260  1  0.62470413  0.47916352  0.01016377  1
  O2-  O261  1  0.63576786  0.48222324  0.52989154  1
  O2-  O262  1  0.64120857  0.98162486  0.01306198  1
  O2-  O263  1  0.63706716  0.97517212  0.52879857  1
  O2-  O264  1  0.36843624  0.03621285  -0.01540120  1
  O2-  O265  1  0.36593106  0.02335233  0.47299828  1
  O2-  O266  1  0.38120895  0.51751217  -0.01083745  1
  O2-  O267  1  0.36020984  0.51296022  0.47134499  1
  O2-  O268  1  0.87820265  0.01928596  -0.03090945  1
  O2-  O269  1  0.87493236  0.01352823  0.48129586  1
  O2-  O270  1  0.86355595  0.51811841  -0.02366751  1
  O2-  O271  1  0.86285710  0.52891004  0.48317894  1
  O2-  O272  1  0.48986814  0.37861892  -0.01856376  1
  O2-  O273  1  0.47641734  0.36745370  0.47605232  1
  O2-  O274  1  0.48401277  0.86629794  -0.01432391  1
  O2-  O275  1  0.48287364  0.86196361  0.47080794  1
  O2-  O276  1  0.98486152  0.36413845  0.02881911  1
  O2-  O277  1  0.97812259  0.36019480  0.51726185  1
  O2-  O278  1  0.97264783  0.88172368  0.01191357  1
  O2-  O279  1  0.97916254  0.88226843  0.50569173  1
  O2-  O280  1  0.00943170  0.12323104  -0.01197783  1
  O2-  O281  1  0.01427272  0.11762916  0.47557707  1
  O2-  O282  1  0.02803468  0.63626707  -0.01273582  1
  O2-  O283  1  0.01717158  0.63628342  0.48116188  1
  O2-  O284  1  0.53313939  0.13643168  0.02066854  1
  O2-  O285  1  0.51417430  0.13487307  0.52544694  1
  O2-  O286  1  0.52016234  0.61804691  0.01458961  1
  O2-  O287  1  0.53711995  0.63533355  0.51513268  1
  O2-  O288  1  0.11322176  0.26355866  -0.01964806  1
  O2-  O289  1  0.12152778  0.25973379  0.47847042  1
  O2-  O290  1  0.10994070  0.78415727  -0.00830635  1
  O2-  O291  1  0.11398002  0.77666838  0.47510933  1
  O2-  O292  1  0.63434573  0.26795087  -0.01856736  1
  O2-  O293  1  0.61882237  0.27552999  0.48481886  1
  O2-  O294  1  0.61982886  0.76463887  -0.02979950  1
  O2-  O295  1  0.63468848  0.77222590  0.48106025  1
  O2-  O296  1  0.38799700  0.22889708  0.02715331  1
  O2-  O297  1  0.36663381  0.22964780  0.50915837  1
  O2-  O298  1  0.38488965  0.73549387  0.02540584  1
  O2-  O299  1  0.38175891  0.71751727  0.51915120  1
  O2-  O300  1  0.87406029  0.23353656  0.01945259  1
  O2-  O301  1  0.88778138  0.21672704  0.51475296  1
  O2-  O302  1  0.88799785  0.73264479  0.03806311  1
  O2-  O303  1  0.87744104  0.73885300  0.51513434  1
  O2-  O304  1  0.28502522  0.38325182  -0.00546893  1
  O2-  O305  1  0.26284636  0.36737134  0.48567203  1
  O2-  O306  1  0.26727429  0.88559017  -0.01783728  1
  O2-  O307  1  0.26123370  0.88645217  0.47626854  1
  O2-  O308  1  0.76834530  0.37186823  -0.00420821  1
  O2-  O309  1  0.78218063  0.38465574  0.49766244  1
  O2-  O310  1  0.77999442  0.88476632  -0.00511765  1
  O2-  O311  1  0.77362375  0.87260906  0.50777610  1
  O2-  O312  1  0.21795233  0.11679839  0.01695190  1
  O2-  O313  1  0.22671136  0.12826688  0.50600685  1
  O2-  O314  1  0.24127491  0.61012894  0.02693931  1
  O2-  O315  1  0.21868969  0.61419859  0.51508405  1
  O2-  O316  1  0.73770414  0.12782886  -0.00601520  1
  O2-  O317  1  0.72903765  0.11318959  0.49872481  1
  O2-  O318  1  0.72285539  0.61612431  -0.00081341  1
  O2-  O319  1  0.73488329  0.63060633  0.50209064  1
