# generated using pymatgen
data_Sr64Ca21Nb43O192
_symmetry_space_group_name_H-M   'P 1'
_cell_length_a   16.54867500
_cell_length_b   16.59421405
_cell_length_c   16.73142530
_cell_angle_alpha   89.95447129
_cell_angle_beta   90.03051231
_cell_angle_gamma   89.94979834
_symmetry_Int_Tables_number   1
_chemical_formula_structural   Sr64Ca21Nb43O192
_chemical_formula_sum   'Sr64 Ca21 Nb43 O192'
_cell_volume   4594.65056861
_cell_formula_units_Z   1
loop_
 _symmetry_equiv_pos_site_id
 _symmetry_equiv_pos_as_xyz
  1  'x, y, z'
loop_
 _atom_type_symbol
 _atom_type_oxidation_number
  Sr2+  2.0
  Ca2+  2.0
  Nb5+  5.0
  O2-  -2.0
loop_
 _atom_site_type_symbol
 _atom_site_label
 _atom_site_symmetry_multiplicity
 _atom_site_fract_x
 _atom_site_fract_y
 _atom_site_fract_z
 _atom_site_occupancy
  Sr2+  Sr0  1  0.12642596  0.13495838  0.12806282  1
  Sr2+  Sr1  1  0.12488724  0.12335063  0.62771988  1
  Sr2+  Sr2  1  0.13377945  0.60678735  0.13552406  1
  Sr2+  Sr3  1  0.13831120  0.62223397  0.61635724  1
  Sr2+  Sr4  1  0.62749277  0.13327552  0.12321820  1
  Sr2+  Sr5  1  0.63322289  0.12957297  0.62601287  1
  Sr2+  Sr6  1  0.62967410  0.60743141  0.13100340  1
  Sr2+  Sr7  1  0.62975126  0.61686232  0.62489644  1
  Sr2+  Sr8  1  0.37802212  0.37880231  0.11648941  1
  Sr2+  Sr9  1  0.38804339  0.37572661  0.62534747  1
  Sr2+  Sr10  1  0.38608989  0.87814032  0.12267312  1
  Sr2+  Sr11  1  0.37859355  0.87593304  0.62748526  1
  Sr2+  Sr12  1  0.87680345  0.37909448  0.12227075  1
  Sr2+  Sr13  1  0.87870226  0.37465715  0.61797408  1
  Sr2+  Sr14  1  0.88727186  0.87665968  0.12508033  1
  Sr2+  Sr15  1  0.87518077  0.88515754  0.62149449  1
  Sr2+  Sr16  1  0.12070211  0.37962979  0.37130718  1
  Sr2+  Sr17  1  0.11480357  0.37895428  0.87150418  1
  Sr2+  Sr18  1  0.11489012  0.86883741  0.37654998  1
  Sr2+  Sr19  1  0.12766115  0.87628576  0.87506643  1
  Sr2+  Sr20  1  0.61045237  0.37353301  0.38003801  1
  Sr2+  Sr21  1  0.62041948  0.37419005  0.88899919  1
  Sr2+  Sr22  1  0.62815528  0.86977668  0.37088614  1
  Sr2+  Sr23  1  0.63692006  0.87092197  0.87455711  1
  Sr2+  Sr24  1  0.36692904  0.12978824  0.38313815  1
  Sr2+  Sr25  1  0.36884184  0.11897700  0.87340938  1
  Sr2+  Sr26  1  0.35866099  0.62889620  0.38023956  1
  Sr2+  Sr27  1  0.36565649  0.63517898  0.87348607  1
  Sr2+  Sr28  1  0.86692134  0.12492814  0.38723741  1
  Sr2+  Sr29  1  0.87301252  0.12555093  0.87516173  1
  Sr2+  Sr30  1  0.87340760  0.63480991  0.37281398  1
  Sr2+  Sr31  1  0.86818185  0.62983028  0.87778221  1
  Sr2+  Sr32  1  0.11881452  0.11023275  0.37591184  1
  Sr2+  Sr33  1  0.11990790  0.12290441  0.87155219  1
  Sr2+  Sr34  1  0.11887704  0.63612901  0.37950374  1
  Sr2+  Sr35  1  0.11656789  0.62789137  0.87555703  1
  Sr2+  Sr36  1  0.61977781  0.12109111  0.38157315  1
  Sr2+  Sr37  1  0.62644531  0.11117245  0.87596611  1
  Sr2+  Sr38  1  0.61497852  0.62374350  0.36888485  1
  Sr2+  Sr39  1  0.62244567  0.63652570  0.86645586  1
  Sr2+  Sr40  1  0.37116585  0.38508432  0.38656325  1
  Sr2+  Sr41  1  0.35950899  0.38164825  0.87717481  1
  Sr2+  Sr42  1  0.37187770  0.87352366  0.36381377  1
  Sr2+  Sr43  1  0.37332462  0.87788491  0.87279919  1
  Sr2+  Sr44  1  0.86115398  0.38459949  0.37870142  1
  Sr2+  Sr45  1  0.86873038  0.39261254  0.87352592  1
  Sr2+  Sr46  1  0.87027709  0.87640602  0.36781704  1
  Sr2+  Sr47  1  0.86766572  0.87503051  0.87737011  1
  Sr2+  Sr48  1  0.14337240  0.37026602  0.12743888  1
  Sr2+  Sr49  1  0.13160744  0.36481550  0.62924005  1
  Sr2+  Sr50  1  0.13017468  0.87464303  0.13000470  1
  Sr2+  Sr51  1  0.13881385  0.87586844  0.61846630  1
  Sr2+  Sr52  1  0.63921883  0.37017462  0.13241678  1
  Sr2+  Sr53  1  0.63100905  0.37430749  0.61961779  1
  Sr2+  Sr54  1  0.63333913  0.87734865  0.12864745  1
  Sr2+  Sr55  1  0.63347663  0.86651818  0.62542220  1
  Sr2+  Sr56  1  0.38179161  0.12682645  0.12358019  1
  Sr2+  Sr57  1  0.36723507  0.12378064  0.63264425  1
  Sr2+  Sr58  1  0.37847605  0.62429711  0.13151872  1
  Sr2+  Sr59  1  0.38122754  0.62568696  0.62983383  1
  Sr2+  Sr60  1  0.88678648  0.12929493  0.12826063  1
  Sr2+  Sr61  1  0.88294047  0.13580396  0.62645923  1
  Sr2+  Sr62  1  0.88206488  0.61663434  0.13166186  1
  Sr2+  Sr63  1  0.88307348  0.61636828  0.61953705  1
  Ca2+  Ca64  1  0.49918646  -0.00196352  0.50065251  1
  Ca2+  Ca65  1  -0.00024459  0.50019545  0.49862442  1
  Ca2+  Ca66  1  0.00264929  0.49936287  0.00185709  1
  Ca2+  Ca67  1  0.50175346  0.50135659  -0.00227489  1
  Ca2+  Ca68  1  -0.00332914  -0.00082535  0.50299803  1
  Ca2+  Ca69  1  0.25140002  0.75227453  0.49943988  1
  Ca2+  Ca70  1  0.24852972  0.75209343  0.00468880  1
  Ca2+  Ca71  1  0.24840062  0.25143252  0.50389319  1
  Ca2+  Ca72  1  0.74807458  0.74852960  0.49650406  1
  Ca2+  Ca73  1  0.74863011  0.74877672  0.00600627  1
  Ca2+  Ca74  1  0.74896661  0.00222299  0.24620500  1
  Ca2+  Ca75  1  -0.00166492  0.24877359  0.25279297  1
  Ca2+  Ca76  1  0.00001686  0.75389237  0.75125539  1
  Ca2+  Ca77  1  0.74960025  0.00160004  0.74526714  1
  Ca2+  Ca78  1  0.50366443  0.25054485  0.75330343  1
  Ca2+  Ca79  1  0.74940953  0.49834163  0.74842512  1
  Ca2+  Ca80  1  0.25284002  0.49666736  0.25259696  1
  Ca2+  Ca81  1  0.49802571  0.24946669  0.25054043  1
  Ca2+  Ca82  1  0.24971414  0.50084863  0.74897906  1
  Ca2+  Ca83  1  0.75089124  0.49809900  0.25348309  1
  Ca2+  Ca84  1  0.24942299  0.00040357  0.24408109  1
  Nb5+  Nb85  1  0.00715743  -0.00045828  -0.00150774  1
  Nb5+  Nb86  1  0.50587849  -0.00269717  -0.00214187  1
  Nb5+  Nb87  1  0.49880813  0.50337071  0.50032364  1
  Nb5+  Nb88  1  0.75067681  0.24880945  0.00467226  1
  Nb5+  Nb89  1  0.74937608  0.25097377  0.50579296  1
  Nb5+  Nb90  1  0.24619298  0.24697594  -0.00191893  1
  Nb5+  Nb91  1  -0.00183782  0.25166662  0.75353690  1
  Nb5+  Nb92  1  0.50366468  0.75119104  0.24437506  1
  Nb5+  Nb93  1  0.50072485  0.75364769  0.74490658  1
  Nb5+  Nb94  1  0.00450342  0.74991803  0.24801989  1
  Nb5+  Nb95  1  0.24835606  0.00041125  0.75097219  1
  Nb5+  Nb96  1  -0.00141647  0.00133785  0.25078693  1
  Nb5+  Nb97  1  -0.00096194  -0.00041593  0.75003781  1
  Nb5+  Nb98  1  -0.00165404  0.49334308  0.25378338  1
  Nb5+  Nb99  1  0.00449189  0.50877477  0.74843009  1
  Nb5+  Nb100  1  0.49922440  0.00361501  0.24983609  1
  Nb5+  Nb101  1  0.50288196  -0.00198626  0.74805482  1
  Nb5+  Nb102  1  0.49363777  0.49550655  0.24962629  1
  Nb5+  Nb103  1  0.50122131  0.49953174  0.75513994  1
  Nb5+  Nb104  1  0.25269061  0.24977518  0.25824935  1
  Nb5+  Nb105  1  0.25299263  0.24983795  0.75203980  1
  Nb5+  Nb106  1  0.25354983  0.74805521  0.24790019  1
  Nb5+  Nb107  1  0.24584383  0.75002407  0.75363677  1
  Nb5+  Nb108  1  0.75047954  0.24774508  0.26115944  1
  Nb5+  Nb109  1  0.74845971  0.25674533  0.75894520  1
  Nb5+  Nb110  1  0.75497173  0.74758073  0.24607267  1
  Nb5+  Nb111  1  0.75728309  0.74521548  0.74606292  1
  Nb5+  Nb112  1  0.00190764  0.24987160  0.49575110  1
  Nb5+  Nb113  1  -0.00450986  0.24935088  0.99807492  1
  Nb5+  Nb114  1  -0.00402148  0.75433461  0.50838229  1
  Nb5+  Nb115  1  0.00382864  0.74502838  1.00413966  1
  Nb5+  Nb116  1  0.49968444  0.24456974  0.50549227  1
  Nb5+  Nb117  1  0.49443591  0.24815204  0.99495454  1
  Nb5+  Nb118  1  0.49515632  0.75274076  0.49183299  1
  Nb5+  Nb119  1  0.50334913  0.74801132  0.99692206  1
  Nb5+  Nb120  1  0.25510049  0.00249629  0.00095930  1
  Nb5+  Nb121  1  0.25292400  -0.00000564  0.49279359  1
  Nb5+  Nb122  1  0.24935081  0.50586662  -0.00545925  1
  Nb5+  Nb123  1  0.24496476  0.49604879  0.50339755  1
  Nb5+  Nb124  1  0.76066814  0.00223251  0.00195029  1
  Nb5+  Nb125  1  0.74807986  -0.00361627  0.49892568  1
  Nb5+  Nb126  1  0.74679436  0.50387686  -0.00325967  1
  Nb5+  Nb127  1  0.74702238  0.50483781  0.49415586  1
  O2-  O128  1  0.01806451  -0.01845701  0.11494285  1
  O2-  O129  1  0.02220418  -0.02329668  0.63962438  1
  O2-  O130  1  -0.02639803  0.49233863  0.13553672  1
  O2-  O131  1  -0.02795553  0.48817679  0.63519246  1
  O2-  O132  1  0.51475131  -0.02253915  0.11409976  1
  O2-  O133  1  0.50814875  -0.03270340  0.63703190  1
  O2-  O134  1  0.47514792  0.49617652  0.13385914  1
  O2-  O135  1  0.47745729  0.49895921  0.61817247  1
  O2-  O136  1  -0.01892978  0.01937000  0.36349604  1
  O2-  O137  1  -0.01143129  0.02568179  0.87991899  1
  O2-  O138  1  0.03254270  0.51541637  0.36579129  1
  O2-  O139  1  0.02723576  0.50987514  0.86716038  1
  O2-  O140  1  0.47579037  0.02122583  0.36133986  1
  O2-  O141  1  0.48218348  0.01505290  0.87717101  1
  O2-  O142  1  0.51912278  0.50692259  0.37718195  1
  O2-  O143  1  0.53431292  0.51360463  0.86362349  1
  O2-  O144  1  0.25103233  0.22497436  0.11264549  1
  O2-  O145  1  0.23800136  0.22454290  0.63917161  1
  O2-  O146  1  0.24263084  0.71401310  0.13494664  1
  O2-  O147  1  0.24868920  0.73594801  0.63684938  1
  O2-  O148  1  0.75310787  0.23249013  0.12007054  1
  O2-  O149  1  0.74659017  0.24049590  0.62429387  1
  O2-  O150  1  0.73078548  0.71769956  0.13550819  1
  O2-  O151  1  0.73057032  0.74227360  0.63195386  1
  O2-  O152  1  0.26222526  0.27321863  0.36916499  1
  O2-  O153  1  0.24768485  0.26580489  0.87467245  1
  O2-  O154  1  0.25356891  0.77914945  0.36448409  1
  O2-  O155  1  0.26258635  0.77584438  0.86893325  1
  O2-  O156  1  0.75711225  0.26166912  0.37754605  1
  O2-  O157  1  0.75742619  0.26318872  0.87566341  1
  O2-  O158  1  0.75330803  0.77865972  0.36240319  1
  O2-  O159  1  0.75512185  0.76026515  0.86699882  1
  O2-  O160  1  -0.00466527  0.26309665  0.11362240  1
  O2-  O161  1  -0.00249616  0.26709677  0.63552855  1
  O2-  O162  1  0.00486640  0.77517955  0.12841132  1
  O2-  O163  1  -0.00595691  0.78317309  0.61891238  1
  O2-  O164  1  0.50215143  0.26470426  0.11129827  1
  O2-  O165  1  0.51261643  0.27645134  0.61916000  1
  O2-  O166  1  0.50151513  0.76745179  0.12889911  1
  O2-  O167  1  0.49876734  0.76583798  0.62865682  1
  O2-  O168  1  0.27586007  -0.01179040  0.38074237  1
  O2-  O169  1  0.26223769  -0.01448061  0.87608743  1
  O2-  O170  1  0.24253123  0.46717947  0.38605168  1
  O2-  O171  1  0.23382127  0.46864554  0.88183827  1
  O2-  O172  1  0.77955040  -0.00036776  0.38156569  1
  O2-  O173  1  0.76448140  -0.00515031  0.88312049  1
  O2-  O174  1  0.72788201  0.46598302  0.38412715  1
  O2-  O175  1  0.73316333  0.47014855  0.88266983  1
  O2-  O176  1  0.00296635  0.21775124  0.38665507  1
  O2-  O177  1  0.00341382  0.22478503  0.87646828  1
  O2-  O178  1  -0.00415130  0.73628324  0.36625059  1
  O2-  O179  1  -0.00600170  0.72840043  0.88815943  1
  O2-  O180  1  0.50105189  0.23626042  0.38735865  1
  O2-  O181  1  0.52223576  0.22017567  0.88502971  1
  O2-  O182  1  0.49597082  0.73690642  0.37493590  1
  O2-  O183  1  0.49770235  0.73799800  0.87907052  1
  O2-  O184  1  0.22776446  0.02730834  0.10914049  1
  O2-  O185  1  0.23438303  0.01866196  0.63578521  1
  O2-  O186  1  0.27540106  0.51283162  0.11167348  1
  O2-  O187  1  0.26606912  0.53046239  0.61636298  1
  O2-  O188  1  0.72084809  0.01753025  0.10961089  1
  O2-  O189  1  0.71115040  0.00423899  0.61362517  1
  O2-  O190  1  0.76760658  0.50910420  0.11518087  1
  O2-  O191  1  0.76548764  0.51116831  0.61137280  1
  O2-  O192  1  0.13408404  0.27624928  0.24682415  1
  O2-  O193  1  0.12251090  0.26131005  0.75773727  1
  O2-  O194  1  0.12173166  0.76754162  0.25338212  1
  O2-  O195  1  0.13398824  0.78080525  0.75487698  1
  O2-  O196  1  0.63389525  0.28154603  0.25333546  1
  O2-  O197  1  0.63847551  0.29004698  0.75545175  1
  O2-  O198  1  0.61924353  0.76672844  0.25643718  1
  O2-  O199  1  0.61740017  0.77630075  0.75759387  1
  O2-  O200  1  0.36531017  0.21059153  0.24736471  1
  O2-  O201  1  0.36715225  0.22472975  0.75640810  1
  O2-  O202  1  0.37489113  0.73351583  0.24868005  1
  O2-  O203  1  0.37832656  0.73835986  0.75029812  1
  O2-  O204  1  0.86398775  0.20987490  0.25481855  1
  O2-  O205  1  0.88109034  0.22216129  0.75509302  1
  O2-  O206  1  0.87411554  0.73326790  0.24022276  1
  O2-  O207  1  0.86820609  0.71400966  0.74055270  1
  O2-  O208  1  0.27528416  0.36078234  0.21892561  1
  O2-  O209  1  0.27111762  0.36254693  0.73215022  1
  O2-  O210  1  0.26200782  0.86309777  0.21549071  1
  O2-  O211  1  0.26587578  0.88282794  0.73445344  1
  O2-  O212  1  0.77946550  0.36083540  0.23199303  1
  O2-  O213  1  0.78982264  0.36372923  0.73593217  1
  O2-  O214  1  0.76109478  0.86410884  0.21752368  1
  O2-  O215  1  0.77558698  0.86586798  0.73832164  1
  O2-  O216  1  0.21771627  0.13390906  0.26647399  1
  O2-  O217  1  0.23838900  0.12084870  0.77295656  1
  O2-  O218  1  0.23034175  0.63374230  0.27801745  1
  O2-  O219  1  0.23129120  0.63713903  0.77662745  1
  O2-  O220  1  0.71164249  0.13534915  0.25963134  1
  O2-  O221  1  0.72719002  0.13911090  0.75672832  1
  O2-  O222  1  0.73513640  0.63361848  0.27908946  1
  O2-  O223  1  0.71927970  0.63265064  0.75862613  1
  O2-  O224  1  0.11677386  0.48230365  0.22507989  1
  O2-  O225  1  0.11549137  0.46668877  0.73169830  1
  O2-  O226  1  0.11359603  0.97162156  0.26106858  1
  O2-  O227  1  0.12909932  0.99062127  0.77144589  1
  O2-  O228  1  0.61290224  0.48958478  0.23218776  1
  O2-  O229  1  0.61172905  0.48981081  0.71424775  1
  O2-  O230  1  0.61194343  0.96943499  0.25819658  1
  O2-  O231  1  0.61407217  0.98295746  0.77584668  1
  O2-  O232  1  0.38513289  0.00230434  0.21439427  1
  O2-  O233  1  0.37243892  0.01386101  0.74488513  1
  O2-  O234  1  0.38453161  0.53356829  0.27112290  1
  O2-  O235  1  0.38752459  0.53487655  0.76217446  1
  O2-  O236  1  0.88502223  0.00399481  0.21515519  1
  O2-  O237  1  0.88627274  0.02061613  0.73213054  1
  O2-  O238  1  0.88506828  0.52598371  0.27343218  1
  O2-  O239  1  0.88709606  0.52055974  0.77586498  1
  O2-  O240  1  0.47145220  0.38429603  0.26658222  1
  O2-  O241  1  0.47229268  0.38794523  0.76458984  1
  O2-  O242  1  0.47968158  0.86847385  0.26197156  1
  O2-  O243  1  0.47851760  0.87290129  0.76804716  1
  O2-  O244  1  0.97721329  0.38181529  0.27475260  1
  O2-  O245  1  0.98359349  0.36467541  0.77421616  1
  O2-  O246  1  0.97932160  0.87113732  0.26084294  1
  O2-  O247  1  0.98597298  0.88906029  0.78411682  1
  O2-  O248  1  0.01913780  0.11299324  0.22690872  1
  O2-  O249  1  0.02203762  0.12345435  0.74001992  1
  O2-  O250  1  0.01430829  0.63322408  0.22998982  1
  O2-  O251  1  0.03340189  0.61907378  0.73134161  1
  O2-  O252  1  0.51994434  0.11357432  0.22432105  1
  O2-  O253  1  0.51399490  0.11204398  0.72712367  1
  O2-  O254  1  0.51733200  0.63258988  0.23740906  1
  O2-  O255  1  0.51986102  0.63610209  0.73872629  1
  O2-  O256  1  0.13727370  0.47721605  0.02260176  1
  O2-  O257  1  0.13314708  0.47454724  0.52296618  1
  O2-  O258  1  0.12315736  0.99091559  -0.02167445  1
  O2-  O259  1  0.13251211  0.97981853  0.48378997  1
  O2-  O260  1  0.63412683  0.46786788  0.02079626  1
  O2-  O261  1  0.62033497  0.48178929  0.51648655  1
  O2-  O262  1  0.62037188  0.98855780  -0.02362778  1
  O2-  O263  1  0.63236938  0.98914582  0.46312782  1
  O2-  O264  1  0.37160330  0.02113885  0.00890479  1
  O2-  O265  1  0.36555861  0.02922024  0.52091687  1
  O2-  O266  1  0.36854665  0.50777732  -0.03030230  1
  O2-  O267  1  0.38184736  0.51589036  0.47959965  1
  O2-  O268  1  0.87530186  0.02372405  0.01562709  1
  O2-  O269  1  0.86190567  0.02465729  0.52948286  1
  O2-  O270  1  0.86615021  0.51391111  -0.02216630  1
  O2-  O271  1  0.86219645  0.51754893  0.47322735  1
  O2-  O272  1  0.48330192  0.36125899  -0.02832237  1
  O2-  O273  1  0.48616525  0.37931778  0.48876675  1
  O2-  O274  1  0.47331642  0.88223554  -0.01385800  1
  O2-  O275  1  0.46356794  0.86416089  0.48478111  1
  O2-  O276  1  0.98556509  0.36163647  -0.02428866  1
  O2-  O277  1  0.96782997  0.36281948  0.48568729  1
  O2-  O278  1  0.97514150  0.88644182  -0.01616905  1
  O2-  O279  1  0.97013860  0.86689287  0.47550227  1
  O2-  O280  1  0.01533572  0.12276011  0.01695900  1
  O2-  O281  1  0.00984413  0.13597756  0.53222759  1
  O2-  O282  1  0.03346508  0.63614067  0.02360798  1
  O2-  O283  1  0.02383022  0.63578958  0.51894440  1
  O2-  O284  1  0.51115697  0.11828384  0.01810195  1
  O2-  O285  1  0.52826248  0.13333407  0.52004186  1
  O2-  O286  1  0.53139875  0.63792148  0.01516384  1
  O2-  O287  1  0.52308487  0.62283345  0.50690355  1
  O2-  O288  1  0.12674738  0.25733970  -0.00061744  1
  O2-  O289  1  0.11373866  0.27951656  0.50119184  1
  O2-  O290  1  0.11379980  0.78954083  -0.00127289  1
  O2-  O291  1  0.11456855  0.77317906  0.49424563  1
  O2-  O292  1  0.63270662  0.26306682  0.00420575  1
  O2-  O293  1  0.63022927  0.27026587  0.49573621  1
  O2-  O294  1  0.61364705  0.79080428  0.00039872  1
  O2-  O295  1  0.61047452  0.77635048  0.49984178  1
  O2-  O296  1  0.37749359  0.22755058  -0.00928088  1
  O2-  O297  1  0.38499952  0.22819301  0.51365485  1
  O2-  O298  1  0.38680216  0.73422862  0.01208430  1
  O2-  O299  1  0.38427739  0.71688323  0.50872871  1
  O2-  O300  1  0.87785338  0.22498100  -0.00329795  1
  O2-  O301  1  0.86984133  0.23112431  0.50488394  1
  O2-  O302  1  0.88577904  0.73357300  0.01870622  1
  O2-  O303  1  0.88156955  0.71760951  0.50189762  1
  O2-  O304  1  0.27048893  0.36175819  0.01258458  1
  O2-  O305  1  0.27995706  0.38367494  0.52800318  1
  O2-  O306  1  0.26543722  0.88953677  0.01930119  1
  O2-  O307  1  0.26674520  0.88748049  0.52916465  1
  O2-  O308  1  0.77517675  0.36356349  0.01141652  1
  O2-  O309  1  0.76557508  0.36988887  0.51426502  1
  O2-  O310  1  0.77138621  0.88724394  0.01214873  1
  O2-  O311  1  0.76912381  0.88367743  0.51123420  1
  O2-  O312  1  0.24057792  0.12704643  -0.02960567  1
  O2-  O313  1  0.22493150  0.11742933  0.48443889  1
  O2-  O314  1  0.23212513  0.61740864  -0.02801378  1
  O2-  O315  1  0.23118747  0.61396296  0.47656060  1
  O2-  O316  1  0.73825962  0.12884678  -0.01946242  1
  O2-  O317  1  0.73000241  0.13240456  0.48912776  1
  O2-  O318  1  0.72300653  0.61466651  -0.02086068  1
  O2-  O319  1  0.71849640  0.61502208  0.47922472  1
