# generated using pymatgen
data_Sr64Ca21Nb43O192
_symmetry_space_group_name_H-M   'P 1'
_cell_length_a   16.57736390
_cell_length_b   16.57908031
_cell_length_c   16.74701942
_cell_angle_alpha   90.00578237
_cell_angle_beta   89.95835998
_cell_angle_gamma   89.87069971
_symmetry_Int_Tables_number   1
_chemical_formula_structural   Sr64Ca21Nb43O192
_chemical_formula_sum   'Sr64 Ca21 Nb43 O192'
_cell_volume   4602.69511225
_cell_formula_units_Z   1
loop_
 _symmetry_equiv_pos_site_id
 _symmetry_equiv_pos_as_xyz
  1  'x, y, z'
loop_
 _atom_type_symbol
 _atom_type_oxidation_number
  Sr2+  2.0
  Ca2+  2.0
  Nb5+  5.0
  O2-  -2.0
loop_
 _atom_site_type_symbol
 _atom_site_label
 _atom_site_symmetry_multiplicity
 _atom_site_fract_x
 _atom_site_fract_y
 _atom_site_fract_z
 _atom_site_occupancy
  Sr2+  Sr0  1  0.12799071  0.13154777  0.12493986  1
  Sr2+  Sr1  1  0.12410530  0.13436691  0.62621736  1
  Sr2+  Sr2  1  0.12248837  0.61974566  0.12652654  1
  Sr2+  Sr3  1  0.13010236  0.63049943  0.62857033  1
  Sr2+  Sr4  1  0.62757867  0.13062122  0.13463303  1
  Sr2+  Sr5  1  0.62199868  0.12981115  0.62851736  1
  Sr2+  Sr6  1  0.62046049  0.62154002  0.12393480  1
  Sr2+  Sr7  1  0.62366325  0.62496238  0.62592605  1
  Sr2+  Sr8  1  0.36991704  0.38514153  0.12400237  1
  Sr2+  Sr9  1  0.37097148  0.38811421  0.62933533  1
  Sr2+  Sr10  1  0.36654420  0.85541973  0.12686214  1
  Sr2+  Sr11  1  0.37235693  0.85856596  0.62530458  1
  Sr2+  Sr12  1  0.88580834  0.39181414  0.12825597  1
  Sr2+  Sr13  1  0.87789298  0.38426365  0.61594882  1
  Sr2+  Sr14  1  0.88668152  0.86332721  0.12767418  1
  Sr2+  Sr15  1  0.87848854  0.86231219  0.62025993  1
  Sr2+  Sr16  1  0.10469051  0.36723402  0.37298290  1
  Sr2+  Sr17  1  0.12460033  0.36857542  0.87263918  1
  Sr2+  Sr18  1  0.14404724  0.88288554  0.37602645  1
  Sr2+  Sr19  1  0.11397418  0.88334418  0.87227562  1
  Sr2+  Sr20  1  0.62356482  0.37275087  0.37205224  1
  Sr2+  Sr21  1  0.61600422  0.37232886  0.87383807  1
  Sr2+  Sr22  1  0.61847747  0.87718655  0.38162212  1
  Sr2+  Sr23  1  0.62428358  0.88442820  0.87842899  1
  Sr2+  Sr24  1  0.38361837  0.11325689  0.37663313  1
  Sr2+  Sr25  1  0.39184633  0.12944495  0.87415862  1
  Sr2+  Sr26  1  0.38081425  0.61824498  0.36219856  1
  Sr2+  Sr27  1  0.38262615  0.62628535  0.87001042  1
  Sr2+  Sr28  1  0.89438122  0.12404064  0.38158802  1
  Sr2+  Sr29  1  0.87123573  0.11788913  0.87608453  1
  Sr2+  Sr30  1  0.86677362  0.63206613  0.38272160  1
  Sr2+  Sr31  1  0.86867667  0.61739792  0.88166455  1
  Sr2+  Sr32  1  0.13419770  0.12389095  0.38127137  1
  Sr2+  Sr33  1  0.12641913  0.12719869  0.87519720  1
  Sr2+  Sr34  1  0.11524317  0.63652039  0.37232953  1
  Sr2+  Sr35  1  0.12083879  0.62132109  0.86964628  1
  Sr2+  Sr36  1  0.62560325  0.13709387  0.37873201  1
  Sr2+  Sr37  1  0.62552875  0.13206866  0.86862571  1
  Sr2+  Sr38  1  0.61792744  0.61189941  0.37406527  1
  Sr2+  Sr39  1  0.62435902  0.64965162  0.88376303  1
  Sr2+  Sr40  1  0.37597108  0.37925929  0.37023045  1
  Sr2+  Sr41  1  0.37327419  0.36755128  0.87466046  1
  Sr2+  Sr42  1  0.37653093  0.87130068  0.36787832  1
  Sr2+  Sr43  1  0.37528728  0.86234566  0.88694899  1
  Sr2+  Sr44  1  0.86679549  0.36054360  0.37509739  1
  Sr2+  Sr45  1  0.87293374  0.36949487  0.88155039  1
  Sr2+  Sr46  1  0.87039604  0.87951516  0.37312184  1
  Sr2+  Sr47  1  0.87306265  0.87257320  0.88288368  1
  Sr2+  Sr48  1  0.11948754  0.37391123  0.12407724  1
  Sr2+  Sr49  1  0.13723504  0.38572068  0.62406058  1
  Sr2+  Sr50  1  0.13048215  0.87652643  0.11806385  1
  Sr2+  Sr51  1  0.13088805  0.86583384  0.62724238  1
  Sr2+  Sr52  1  0.63190225  0.38854336  0.13215868  1
  Sr2+  Sr53  1  0.62428992  0.38121139  0.62343423  1
  Sr2+  Sr54  1  0.62952497  0.86196605  0.12896078  1
  Sr2+  Sr55  1  0.62198085  0.87313038  0.62863250  1
  Sr2+  Sr56  1  0.36465677  0.12726834  0.12459201  1
  Sr2+  Sr57  1  0.37478831  0.12495596  0.62279503  1
  Sr2+  Sr58  1  0.40231698  0.62624470  0.12405628  1
  Sr2+  Sr59  1  0.36410022  0.61872159  0.63071424  1
  Sr2+  Sr60  1  0.88661501  0.11936347  0.13002208  1
  Sr2+  Sr61  1  0.88180982  0.13007433  0.63067478  1
  Sr2+  Sr62  1  0.86159510  0.62464650  0.12385395  1
  Sr2+  Sr63  1  0.88385972  0.62882580  0.62074842  1
  Ca2+  Ca64  1  0.49896058  0.49662941  -0.00372284  1
  Ca2+  Ca65  1  -0.00057661  -0.00536934  0.50098397  1
  Ca2+  Ca66  1  0.00321541  0.50015417  0.50225409  1
  Ca2+  Ca67  1  0.49524950  0.49879178  0.50082951  1
  Ca2+  Ca68  1  0.50005309  0.00368676  0.00251046  1
  Ca2+  Ca69  1  0.75207046  0.25089848  0.00016114  1
  Ca2+  Ca70  1  0.75366458  0.75314954  0.00242718  1
  Ca2+  Ca71  1  0.25395772  0.74325539  0.49608208  1
  Ca2+  Ca72  1  0.24616367  0.74634432  0.00077674  1
  Ca2+  Ca73  1  0.25510849  0.25411823  0.50036515  1
  Ca2+  Ca74  1  0.00223063  0.75216621  0.25138135  1
  Ca2+  Ca75  1  0.75400686  0.49936568  0.25313524  1
  Ca2+  Ca76  1  0.50181054  0.75327628  0.25333905  1
  Ca2+  Ca77  1  -0.00195406  0.75141643  0.75455386  1
  Ca2+  Ca78  1  0.25226473  0.00003428  0.75209744  1
  Ca2+  Ca79  1  0.49378804  0.24556615  0.25184430  1
  Ca2+  Ca80  1  0.74833564  0.49931858  0.74881521  1
  Ca2+  Ca81  1  -0.00272525  0.24910354  0.24970072  1
  Ca2+  Ca82  1  -0.00086984  0.25454361  0.75156386  1
  Ca2+  Ca83  1  0.50247012  0.75266896  0.74897029  1
  Ca2+  Ca84  1  0.24568298  0.49694570  0.24481352  1
  Nb5+  Nb85  1  0.50023489  -0.00145613  0.50212510  1
  Nb5+  Nb86  1  -0.00056135  -0.00154031  0.00057509  1
  Nb5+  Nb87  1  0.00214057  0.49665321  -0.00351361  1
  Nb5+  Nb88  1  0.25083242  0.25124898  -0.00037783  1
  Nb5+  Nb89  1  0.74858536  0.25110898  0.50228602  1
  Nb5+  Nb90  1  0.74728796  0.75659728  0.50016326  1
  Nb5+  Nb91  1  0.75119014  -0.00082814  0.75202284  1
  Nb5+  Nb92  1  0.50009557  0.25106085  0.74640124  1
  Nb5+  Nb93  1  0.25551881  0.00250535  0.24867007  1
  Nb5+  Nb94  1  0.24989887  0.50058680  0.75391025  1
  Nb5+  Nb95  1  0.75269237  0.00125927  0.25603699  1
  Nb5+  Nb96  1  0.00955734  -0.00122924  0.24993387  1
  Nb5+  Nb97  1  0.00020831  -0.00187108  0.74387991  1
  Nb5+  Nb98  1  -0.00176090  0.50432822  0.25959951  1
  Nb5+  Nb99  1  -0.00326524  0.50096137  0.74948767  1
  Nb5+  Nb100  1  0.50483193  0.00227410  0.24441834  1
  Nb5+  Nb101  1  0.49837539  0.00175513  0.74757386  1
  Nb5+  Nb102  1  0.49852660  0.49499113  0.24793389  1
  Nb5+  Nb103  1  0.50424106  0.50158313  0.75323578  1
  Nb5+  Nb104  1  0.24797227  0.25145845  0.25422285  1
  Nb5+  Nb105  1  0.25010518  0.25045226  0.74626396  1
  Nb5+  Nb106  1  0.24699045  0.74164949  0.25104383  1
  Nb5+  Nb107  1  0.25446864  0.75385365  0.75640931  1
  Nb5+  Nb108  1  0.75134803  0.24680661  0.24308057  1
  Nb5+  Nb109  1  0.75085675  0.25076957  0.74734217  1
  Nb5+  Nb110  1  0.74624053  0.74729345  0.25211567  1
  Nb5+  Nb111  1  0.74959861  0.75015894  0.75104071  1
  Nb5+  Nb112  1  0.00352781  0.25039754  0.50669753  1
  Nb5+  Nb113  1  -0.00050688  0.24592726  0.99833055  1
  Nb5+  Nb114  1  0.00486522  0.75310554  0.49889839  1
  Nb5+  Nb115  1  0.00374513  0.74125524  1.00062873  1
  Nb5+  Nb116  1  0.49815486  0.24885396  0.50224630  1
  Nb5+  Nb117  1  0.50165506  0.24911534  1.00754447  1
  Nb5+  Nb118  1  0.50105514  0.74412003  0.50393508  1
  Nb5+  Nb119  1  0.50086290  0.75424502  1.00277881  1
  Nb5+  Nb120  1  0.25056695  0.00348996  -0.00297763  1
  Nb5+  Nb121  1  0.25083246  -0.00528624  0.50735152  1
  Nb5+  Nb122  1  0.24696921  0.50346048  -0.00094474  1
  Nb5+  Nb123  1  0.25118021  0.50094866  0.48777968  1
  Nb5+  Nb124  1  0.75011976  0.00414253  0.01161785  1
  Nb5+  Nb125  1  0.74903282  0.00526683  0.50428799  1
  Nb5+  Nb126  1  0.74692444  0.49613712  -0.00308151  1
  Nb5+  Nb127  1  0.74753143  0.50687409  0.49892362  1
  O2-  O128  1  -0.01194041  -0.01347965  0.12220643  1
  O2-  O129  1  -0.02609524  -0.01821486  0.63490828  1
  O2-  O130  1  0.01911308  0.48798092  0.11297302  1
  O2-  O131  1  0.01437466  0.47299097  0.63835566  1
  O2-  O132  1  0.49719351  0.03669440  0.13622997  1
  O2-  O133  1  0.50465138  0.02224020  0.62296967  1
  O2-  O134  1  0.52263672  0.50146890  0.12985298  1
  O2-  O135  1  0.50422980  0.51163176  0.63578146  1
  O2-  O136  1  0.01732750  0.01931078  0.36390994  1
  O2-  O137  1  0.00926227  0.02276521  0.88376514  1
  O2-  O138  1  -0.01388187  0.52922427  0.36994091  1
  O2-  O139  1  -0.00819550  0.52549622  0.87793655  1
  O2-  O140  1  0.49963777  -0.02070780  0.38363067  1
  O2-  O141  1  0.51458182  -0.00910686  0.86213053  1
  O2-  O142  1  0.47792481  0.48979310  0.36687896  1
  O2-  O143  1  0.47898877  0.47409220  0.86453108  1
  O2-  O144  1  0.26800001  0.25218222  0.11735800  1
  O2-  O145  1  0.27971360  0.25808141  0.63516173  1
  O2-  O146  1  0.22590459  0.76438513  0.13608278  1
  O2-  O147  1  0.23221681  0.75142974  0.63517453  1
  O2-  O148  1  0.76593654  0.21832754  0.13320848  1
  O2-  O149  1  0.75750764  0.22336444  0.62051272  1
  O2-  O150  1  0.72671425  0.73501086  0.13664059  1
  O2-  O151  1  0.72700469  0.74354823  0.61626861  1
  O2-  O152  1  0.22193239  0.25192196  0.36651604  1
  O2-  O153  1  0.23817465  0.24620725  0.87377321  1
  O2-  O154  1  0.28549295  0.74164975  0.36451881  1
  O2-  O155  1  0.28140409  0.73717770  0.86989869  1
  O2-  O156  1  0.72854258  0.25988896  0.38254422  1
  O2-  O157  1  0.72606011  0.26528192  0.86014410  1
  O2-  O158  1  0.76817529  0.76857458  0.37702612  1
  O2-  O159  1  0.77259622  0.76055726  0.86306528  1
  O2-  O160  1  -0.01687864  0.27181772  0.11220783  1
  O2-  O161  1  -0.03245540  0.26371991  0.61875892  1
  O2-  O162  1  0.02723597  0.76879687  0.11519737  1
  O2-  O163  1  0.01068843  0.77784740  0.61897756  1
  O2-  O164  1  0.48342416  0.22351674  0.11642952  1
  O2-  O165  1  0.48915848  0.22447227  0.62690334  1
  O2-  O166  1  0.52665574  0.74609613  0.11956476  1
  O2-  O167  1  0.53564182  0.74793032  0.61661534  1
  O2-  O168  1  0.24522381  0.01006400  0.37005610  1
  O2-  O169  1  0.22405727  0.00526860  0.88535726  1
  O2-  O170  1  0.27275261  0.50162068  0.37667422  1
  O2-  O171  1  0.26575865  0.50113376  0.87490467  1
  O2-  O172  1  0.73497350  -0.01836582  0.36834879  1
  O2-  O173  1  0.74686603  -0.01790169  0.86585528  1
  O2-  O174  1  0.77794840  0.48363290  0.38645186  1
  O2-  O175  1  0.77444325  0.48233949  0.88159539  1
  O2-  O176  1  0.01823087  0.22660107  0.38762098  1
  O2-  O177  1  0.03181779  0.24437995  0.88484743  1
  O2-  O178  1  -0.01633387  0.72265036  0.38638958  1
  O2-  O179  1  -0.03340964  0.73663803  0.88803557  1
  O2-  O180  1  0.51625676  0.26425172  0.38866523  1
  O2-  O181  1  0.51297698  0.26309437  0.86507989  1
  O2-  O182  1  0.48622577  0.76940308  0.38947111  1
  O2-  O183  1  0.48166992  0.75526302  0.88281875  1
  O2-  O184  1  0.25321785  0.00311745  0.12679391  1
  O2-  O185  1  0.26843284  -0.01987396  0.61826246  1
  O2-  O186  1  0.22532981  0.48091875  0.11021779  1
  O2-  O187  1  0.24264789  0.49848551  0.63346222  1
  O2-  O188  1  0.75630552  0.02806699  0.12396264  1
  O2-  O189  1  0.76151430  0.01648609  0.61739580  1
  O2-  O190  1  0.73769964  0.51910527  0.11554681  1
  O2-  O191  1  0.71883578  0.50628353  0.61430339  1
  O2-  O192  1  0.13380454  0.26041395  0.22196887  1
  O2-  O193  1  0.13699008  0.27336802  0.72939191  1
  O2-  O194  1  0.13568010  0.77008217  0.28631510  1
  O2-  O195  1  0.13654629  0.76737504  0.77408426  1
  O2-  O196  1  0.63193035  0.25894445  0.23588913  1
  O2-  O197  1  0.62204520  0.26266442  0.72789617  1
  O2-  O198  1  0.63574511  0.78695050  0.26666005  1
  O2-  O199  1  0.63705531  0.78765796  0.76307677  1
  O2-  O200  1  0.35811840  0.20936066  0.25968241  1
  O2-  O201  1  0.37974680  0.23498438  0.76584706  1
  O2-  O202  1  0.36595807  0.73525330  0.22332849  1
  O2-  O203  1  0.37039491  0.72776452  0.72854153  1
  O2-  O204  1  0.86115699  0.22246668  0.27791686  1
  O2-  O205  1  0.86249013  0.22509557  0.76553321  1
  O2-  O206  1  0.86349170  0.74420408  0.23441014  1
  O2-  O207  1  0.86255828  0.74291343  0.71796825  1
  O2-  O208  1  0.27983891  0.36164604  0.24952488  1
  O2-  O209  1  0.26989023  0.37616758  0.75762032  1
  O2-  O210  1  0.26412136  0.88403401  0.25659571  1
  O2-  O211  1  0.27980929  0.86697954  0.76124479  1
  O2-  O212  1  0.76893132  0.36082508  0.23334284  1
  O2-  O213  1  0.76747351  0.36158913  0.72041388  1
  O2-  O214  1  0.76465096  0.88794356  0.22447231  1
  O2-  O215  1  0.76886615  0.88481321  0.72649807  1
  O2-  O216  1  0.21920138  0.11842990  0.24591461  1
  O2-  O217  1  0.23018846  0.13534191  0.74102627  1
  O2-  O218  1  0.21954969  0.63038285  0.24763688  1
  O2-  O219  1  0.23493728  0.61922715  0.75335223  1
  O2-  O220  1  0.71845573  0.11712796  0.25955713  1
  O2-  O221  1  0.72783146  0.12172630  0.75402678  1
  O2-  O222  1  0.73320077  0.63550269  0.27679584  1
  O2-  O223  1  0.72186659  0.63785314  0.75550631  1
  O2-  O224  1  0.11240416  0.46848103  0.25967487  1
  O2-  O225  1  0.13246238  0.48026245  0.76601958  1
  O2-  O226  1  0.12302511  0.97654588  0.23875304  1
  O2-  O227  1  0.11466677  0.97531731  0.73426278  1
  O2-  O228  1  0.61861462  0.47535534  0.26540409  1
  O2-  O229  1  0.61484134  0.46705508  0.75964733  1
  O2-  O230  1  0.62014364  0.98121616  0.23762072  1
  O2-  O231  1  0.63062081  0.98850116  0.73527975  1
  O2-  O232  1  0.36955313  0.02229863  0.25196418  1
  O2-  O233  1  0.38715380  0.03314591  0.75246248  1
  O2-  O234  1  0.38139142  0.52022660  0.22656370  1
  O2-  O235  1  0.37319804  0.51300992  0.74186696  1
  O2-  O236  1  0.86639137  0.02333750  0.26159712  1
  O2-  O237  1  0.86941110  0.02595515  0.75633183  1
  O2-  O238  1  0.88633150  0.51517674  0.22081024  1
  O2-  O239  1  0.88440510  0.52572694  0.73636132  1
  O2-  O240  1  0.47288900  0.37773110  0.23922535  1
  O2-  O241  1  0.48397886  0.36682291  0.72926618  1
  O2-  O242  1  0.47055147  0.89062480  0.23896508  1
  O2-  O243  1  0.48209962  0.88929109  0.72761071  1
  O2-  O244  1  0.97434643  0.38238787  0.27190447  1
  O2-  O245  1  0.98519694  0.38783456  0.78328732  1
  O2-  O246  1  0.97025647  0.88925114  0.25861055  1
  O2-  O247  1  0.98071043  0.88922285  0.78420527  1
  O2-  O248  1  0.00650213  0.11389037  0.22260267  1
  O2-  O249  1  0.01982461  0.11621884  0.73939470  1
  O2-  O250  1  0.02494254  0.61698614  0.23400634  1
  O2-  O251  1  0.03047129  0.61566199  0.74143906  1
  O2-  O252  1  0.51024541  0.11158834  0.28749258  1
  O2-  O253  1  0.52219978  0.12879760  0.75875164  1
  O2-  O254  1  0.51802010  0.61723163  0.25885094  1
  O2-  O255  1  0.52201529  0.61438009  0.77205329  1
  O2-  O256  1  0.12241077  0.48020614  -0.02657275  1
  O2-  O257  1  0.13721854  0.45858636  0.48885058  1
  O2-  O258  1  0.11970742  0.99305529  0.01535602  1
  O2-  O259  1  0.13575176  0.97316953  0.51020431  1
  O2-  O260  1  0.63533522  0.46918234  -0.01304577  1
  O2-  O261  1  0.63276341  0.48054227  0.47454331  1
  O2-  O262  1  0.63733751  0.98013186  0.01228879  1
  O2-  O263  1  0.62858943  0.98118303  0.50343201  1
  O2-  O264  1  0.36209566  0.03077100  -0.00931712  1
  O2-  O265  1  0.38213905  0.01841276  0.49960090  1
  O2-  O266  1  0.36104507  0.51893110  0.01563207  1
  O2-  O267  1  0.36287688  0.53915138  0.50964809  1
  O2-  O268  1  0.88134086  0.02690965  -0.00141521  1
  O2-  O269  1  0.86055640  0.00719057  0.47360548  1
  O2-  O270  1  0.88568769  0.52199706  0.01022068  1
  O2-  O271  1  0.86369127  0.50951871  0.52880688  1
  O2-  O272  1  0.46581923  0.36057639  0.00370846  1
  O2-  O273  1  0.48538262  0.36117272  0.52504036  1
  O2-  O274  1  0.47469184  0.87186196  0.01109790  1
  O2-  O275  1  0.49406997  0.88112832  0.52368657  1
  O2-  O276  1  0.98624424  0.38032035  -0.01656141  1
  O2-  O277  1  0.97598171  0.36290944  0.47855409  1
  O2-  O278  1  0.98591698  0.88467242  -0.01452476  1
  O2-  O279  1  0.96527437  0.86400929  0.48387077  1
  O2-  O280  1  0.01485016  0.13083620  0.01854128  1
  O2-  O281  1  0.00328709  0.13014190  0.52504655  1
  O2-  O282  1  0.02476762  0.62617355  0.00957031  1
  O2-  O283  1  0.00977210  0.63619847  0.53140113  1
  O2-  O284  1  0.51381674  0.13738067  -0.02970578  1
  O2-  O285  1  0.52396353  0.11811018  0.48969843  1
  O2-  O286  1  0.52214902  0.63221851  -0.00440545  1
  O2-  O287  1  0.52547334  0.63281792  0.49084546  1
  O2-  O288  1  0.12839690  0.26654255  0.01518062  1
  O2-  O289  1  0.11650306  0.26363755  0.52931677  1
  O2-  O290  1  0.11354289  0.77306855  -0.02982651  1
  O2-  O291  1  0.11709547  0.77408906  0.48151175  1
  O2-  O292  1  0.61486182  0.27261325  0.01914758  1
  O2-  O293  1  0.62510378  0.25312512  0.52054853  1
  O2-  O294  1  0.62016667  0.77641013  -0.02060616  1
  O2-  O295  1  0.63089363  0.76242902  0.47675666  1
  O2-  O296  1  0.36773857  0.22873140  -0.01604567  1
  O2-  O297  1  0.38751273  0.21722002  0.48837661  1
  O2-  O298  1  0.38274531  0.73433797  0.02283590  1
  O2-  O299  1  0.38879193  0.73658513  0.53055598  1
  O2-  O300  1  0.88727984  0.23788865  -0.03033112  1
  O2-  O301  1  0.86397633  0.23121809  0.48516996  1
  O2-  O302  1  0.88715253  0.74252012  0.03255567  1
  O2-  O303  1  0.86372682  0.73088323  0.51238463  1
  O2-  O304  1  0.26335384  0.36991789  -0.01219670  1
  O2-  O305  1  0.28980691  0.38639656  0.50267139  1
  O2-  O306  1  0.26588979  0.88813684  0.00153785  1
  O2-  O307  1  0.27540407  0.88243028  0.47847977  1
  O2-  O308  1  0.78287648  0.38383680  0.01987076  1
  O2-  O309  1  0.75901505  0.36597241  0.51654439  1
  O2-  O310  1  0.78257570  0.89118142  0.00911639  1
  O2-  O311  1  0.75995655  0.87441237  0.51187641  1
  O2-  O312  1  0.22522105  0.12942961  0.00542242  1
  O2-  O313  1  0.23280027  0.11329334  0.50756882  1
  O2-  O314  1  0.21571236  0.61354173  -0.00035544  1
  O2-  O315  1  0.20721202  0.61249286  0.49795402  1
  O2-  O316  1  0.74061908  0.11390424  -0.03083089  1
  O2-  O317  1  0.73133684  0.11942267  0.48600231  1
  O2-  O318  1  0.74185459  0.61638813  -0.02191976  1
  O2-  O319  1  0.73518253  0.62408995  0.48332993  1
