# generated using pymatgen
data_Sr64Ca21Nb43O192
_symmetry_space_group_name_H-M   'P 1'
_cell_length_a   16.55345303
_cell_length_b   16.53651654
_cell_length_c   16.70710535
_cell_angle_alpha   90.02754055
_cell_angle_beta   90.01484275
_cell_angle_gamma   90.04434313
_symmetry_Int_Tables_number   1
_chemical_formula_structural   Sr64Ca21Nb43O192
_chemical_formula_sum   'Sr64 Ca21 Nb43 O192'
_cell_volume   4573.34165239
_cell_formula_units_Z   1
loop_
 _symmetry_equiv_pos_site_id
 _symmetry_equiv_pos_as_xyz
  1  'x, y, z'
loop_
 _atom_type_symbol
 _atom_type_oxidation_number
  Sr2+  2.0
  Ca2+  2.0
  Nb5+  5.0
  O2-  -2.0
loop_
 _atom_site_type_symbol
 _atom_site_label
 _atom_site_symmetry_multiplicity
 _atom_site_fract_x
 _atom_site_fract_y
 _atom_site_fract_z
 _atom_site_occupancy
  Sr2+  Sr0  1  0.12762726  0.13377477  0.12182255  1
  Sr2+  Sr1  1  0.12916440  0.13250398  0.62098613  1
  Sr2+  Sr2  1  0.12649085  0.63268569  0.12652764  1
  Sr2+  Sr3  1  0.12921822  0.62331016  0.62673921  1
  Sr2+  Sr4  1  0.62532775  0.12235443  0.12276804  1
  Sr2+  Sr5  1  0.62807564  0.12144480  0.62700483  1
  Sr2+  Sr6  1  0.62605920  0.62770221  0.11780266  1
  Sr2+  Sr7  1  0.63194831  0.63240229  0.62603829  1
  Sr2+  Sr8  1  0.37657955  0.38143770  0.12294627  1
  Sr2+  Sr9  1  0.38167872  0.38257363  0.62680293  1
  Sr2+  Sr10  1  0.38250422  0.84798786  0.12830114  1
  Sr2+  Sr11  1  0.38441300  0.86675652  0.62872568  1
  Sr2+  Sr12  1  0.88621686  0.37064745  0.12745909  1
  Sr2+  Sr13  1  0.88086823  0.39117442  0.63189748  1
  Sr2+  Sr14  1  0.87750482  0.85115855  0.12316824  1
  Sr2+  Sr15  1  0.88546419  0.87011002  0.62877282  1
  Sr2+  Sr16  1  0.13692499  0.37115275  0.38048747  1
  Sr2+  Sr17  1  0.10296282  0.36810471  0.87121424  1
  Sr2+  Sr18  1  0.12585282  0.87446161  0.37698377  1
  Sr2+  Sr19  1  0.11845903  0.87589423  0.87086448  1
  Sr2+  Sr20  1  0.62625705  0.37464170  0.37179234  1
  Sr2+  Sr21  1  0.62694700  0.37249348  0.87589150  1
  Sr2+  Sr22  1  0.64280722  0.88059314  0.37588108  1
  Sr2+  Sr23  1  0.64189736  0.87425696  0.87549863  1
  Sr2+  Sr24  1  0.37651027  0.12782587  0.37271454  1
  Sr2+  Sr25  1  0.36794639  0.12458339  0.87368550  1
  Sr2+  Sr26  1  0.36107712  0.63355062  0.37263971  1
  Sr2+  Sr27  1  0.37164503  0.61334853  0.88370194  1
  Sr2+  Sr28  1  0.89079250  0.11822200  0.36915895  1
  Sr2+  Sr29  1  0.86517863  0.11997943  0.87997374  1
  Sr2+  Sr30  1  0.86036389  0.61758324  0.37486030  1
  Sr2+  Sr31  1  0.87845137  0.63065425  0.87147635  1
  Sr2+  Sr32  1  0.12621383  0.13139442  0.37637597  1
  Sr2+  Sr33  1  0.11962799  0.11659661  0.87743360  1
  Sr2+  Sr34  1  0.11471783  0.64419785  0.36910760  1
  Sr2+  Sr35  1  0.10975749  0.62606791  0.87898889  1
  Sr2+  Sr36  1  0.61555123  0.11641817  0.37346678  1
  Sr2+  Sr37  1  0.61445485  0.13475776  0.87853174  1
  Sr2+  Sr38  1  0.62162394  0.60026537  0.37504840  1
  Sr2+  Sr39  1  0.61439348  0.63541438  0.87723750  1
  Sr2+  Sr40  1  0.37608720  0.38105680  0.37050315  1
  Sr2+  Sr41  1  0.37276534  0.37541070  0.87625146  1
  Sr2+  Sr42  1  0.37457651  0.87292392  0.37311914  1
  Sr2+  Sr43  1  0.36794198  0.88345231  0.87080655  1
  Sr2+  Sr44  1  0.86789113  0.38755111  0.38452840  1
  Sr2+  Sr45  1  0.86931551  0.37428641  0.86896150  1
  Sr2+  Sr46  1  0.87898875  0.87851193  0.37557361  1
  Sr2+  Sr47  1  0.87690036  0.87257362  0.87409569  1
  Sr2+  Sr48  1  0.12218882  0.37687367  0.11914498  1
  Sr2+  Sr49  1  0.11948068  0.38324298  0.62553429  1
  Sr2+  Sr50  1  0.13144460  0.86777650  0.11974093  1
  Sr2+  Sr51  1  0.13324591  0.87382306  0.63035832  1
  Sr2+  Sr52  1  0.63499989  0.37276511  0.12522608  1
  Sr2+  Sr53  1  0.63934654  0.37157368  0.63323602  1
  Sr2+  Sr54  1  0.63569079  0.86964313  0.12191919  1
  Sr2+  Sr55  1  0.64365040  0.86866766  0.62665616  1
  Sr2+  Sr56  1  0.38041135  0.12704799  0.12088814  1
  Sr2+  Sr57  1  0.38377211  0.12493224  0.62712841  1
  Sr2+  Sr58  1  0.38754186  0.61565557  0.12484500  1
  Sr2+  Sr59  1  0.37136905  0.62436149  0.62571763  1
  Sr2+  Sr60  1  0.88060168  0.11838755  0.12617751  1
  Sr2+  Sr61  1  0.88644886  0.12753054  0.61957968  1
  Sr2+  Sr62  1  0.89989649  0.61799072  0.12584568  1
  Sr2+  Sr63  1  0.86654690  0.62245080  0.62923671  1
  Ca2+  Ca64  1  0.49969356  -0.00224197  -0.00172340  1
  Ca2+  Ca65  1  -0.00079707  -0.00017300  0.00183210  1
  Ca2+  Ca66  1  0.49953727  0.49665478  0.50050573  1
  Ca2+  Ca67  1  0.00198661  0.50511746  0.49823070  1
  Ca2+  Ca68  1  -0.00006644  0.49794807  -0.00088798  1
  Ca2+  Ca69  1  0.75119855  0.74415669  0.00118292  1
  Ca2+  Ca70  1  0.75045823  0.25006513  0.49653407  1
  Ca2+  Ca71  1  0.75095297  0.74930814  0.49500596  1
  Ca2+  Ca72  1  0.25134086  0.74880230  -0.00287578  1
  Ca2+  Ca73  1  0.74733995  0.24971977  0.00194384  1
  Ca2+  Ca74  1  0.75047755  0.00297197  0.74886674  1
  Ca2+  Ca75  1  0.00041244  0.24650764  0.74884001  1
  Ca2+  Ca76  1  0.00251706  0.75014576  0.74775898  1
  Ca2+  Ca77  1  0.00248378  0.25473067  0.25307956  1
  Ca2+  Ca78  1  0.49968276  0.75271718  0.75168002  1
  Ca2+  Ca79  1  -0.00344992  0.75272799  0.25049215  1
  Ca2+  Ca80  1  0.24879393  0.49886630  0.25234688  1
  Ca2+  Ca81  1  0.24876525  0.49750688  0.75375945  1
  Ca2+  Ca82  1  0.74554279  0.50185998  0.75706291  1
  Ca2+  Ca83  1  0.50497323  0.74758015  0.25418675  1
  Ca2+  Ca84  1  0.25273959  -0.00065312  0.25022445  1
  Nb5+  Nb85  1  0.00779530  -0.00383369  0.50067055  1
  Nb5+  Nb86  1  0.50227269  -0.00334306  0.50069203  1
  Nb5+  Nb87  1  0.50204233  0.49623704  -0.00042340  1
  Nb5+  Nb88  1  0.25511853  0.25485634  0.50133299  1
  Nb5+  Nb89  1  0.24936255  0.25128995  -0.00833512  1
  Nb5+  Nb90  1  0.25098283  0.75741512  0.50313754  1
  Nb5+  Nb91  1  0.75261643  -0.00150081  0.24811038  1
  Nb5+  Nb92  1  0.49638048  0.25117585  0.75337145  1
  Nb5+  Nb93  1  0.75176232  0.49382178  0.24377041  1
  Nb5+  Nb94  1  0.50013090  0.24951971  0.25358236  1
  Nb5+  Nb95  1  0.24952644  0.00112557  0.74919105  1
  Nb5+  Nb96  1  0.00752680  -0.00325097  0.24805599  1
  Nb5+  Nb97  1  -0.00508417  0.00779088  0.75206908  1
  Nb5+  Nb98  1  0.00417320  0.49392348  0.25416718  1
  Nb5+  Nb99  1  0.00082376  0.50322084  0.75089721  1
  Nb5+  Nb100  1  0.49854837  -0.00179746  0.24770866  1
  Nb5+  Nb101  1  0.49939638  0.00124308  0.75014598  1
  Nb5+  Nb102  1  0.50225544  0.49864541  0.24815926  1
  Nb5+  Nb103  1  0.50336490  0.50368879  0.74658703  1
  Nb5+  Nb104  1  0.25280660  0.25012272  0.24147674  1
  Nb5+  Nb105  1  0.25194025  0.25048946  0.74385702  1
  Nb5+  Nb106  1  0.25030793  0.75008498  0.24712422  1
  Nb5+  Nb107  1  0.24993566  0.74749758  0.75461838  1
  Nb5+  Nb108  1  0.75136083  0.24260942  0.25184070  1
  Nb5+  Nb109  1  0.75328819  0.24468230  0.74842017  1
  Nb5+  Nb110  1  0.74581573  0.73972233  0.25047133  1
  Nb5+  Nb111  1  0.75133625  0.75095301  0.75092910  1
  Nb5+  Nb112  1  -0.00253231  0.25228730  0.49738951  1
  Nb5+  Nb113  1  -0.00514689  0.24502419  0.99807108  1
  Nb5+  Nb114  1  -0.00089596  0.74779953  0.50316768  1
  Nb5+  Nb115  1  0.00298753  0.75047136  1.00091804  1
  Nb5+  Nb116  1  0.49821221  0.25136566  0.50396643  1
  Nb5+  Nb117  1  0.49791714  0.25107687  1.00512528  1
  Nb5+  Nb118  1  0.50481684  0.74758454  0.49842881  1
  Nb5+  Nb119  1  0.49565429  0.75375314  0.99531260  1
  Nb5+  Nb120  1  0.25109366  -0.00084289  0.00557512  1
  Nb5+  Nb121  1  0.25438201  0.00386756  0.50173447  1
  Nb5+  Nb122  1  0.24505064  0.49732695  -0.00140943  1
  Nb5+  Nb123  1  0.24797480  0.51174310  0.49751805  1
  Nb5+  Nb124  1  0.74998011  -0.00170617  -0.00155037  1
  Nb5+  Nb125  1  0.75959046  0.00741045  0.50035991  1
  Nb5+  Nb126  1  0.75301876  0.49942694  0.00044267  1
  Nb5+  Nb127  1  0.74686876  0.50081886  0.50673824  1
  O2-  O128  1  0.00697502  0.01600861  0.13567604  1
  O2-  O129  1  -0.00475826  -0.00272928  0.61943392  1
  O2-  O130  1  -0.00359774  0.47921598  0.13397772  1
  O2-  O131  1  0.00166552  0.48779317  0.63099455  1
  O2-  O132  1  0.50977437  -0.00196040  0.13465570  1
  O2-  O133  1  0.48918361  -0.00055881  0.61918257  1
  O2-  O134  1  0.50142439  0.47933907  0.12524063  1
  O2-  O135  1  0.50149712  0.47987330  0.63417954  1
  O2-  O136  1  -0.00161839  -0.00655732  0.37967894  1
  O2-  O137  1  -0.00923375  0.01852332  0.86666985  1
  O2-  O138  1  -0.01722950  0.51984124  0.36641728  1
  O2-  O139  1  -0.00385067  0.52363022  0.86846398  1
  O2-  O140  1  0.49541800  0.01377927  0.38035187  1
  O2-  O141  1  0.49827222  0.02523521  0.86242600  1
  O2-  O142  1  0.50602327  0.49200398  0.36451490  1
  O2-  O143  1  0.49723829  0.50548351  0.88036871  1
  O2-  O144  1  0.25776299  0.23585344  0.12475742  1
  O2-  O145  1  0.25974014  0.22891267  0.62672378  1
  O2-  O146  1  0.22921582  0.74550636  0.13363397  1
  O2-  O147  1  0.23417205  0.73462163  0.62009746  1
  O2-  O148  1  0.72753863  0.23811723  0.13739403  1
  O2-  O149  1  0.73233829  0.23025898  0.63135670  1
  O2-  O150  1  0.72051180  0.74481826  0.13440195  1
  O2-  O151  1  0.73723601  0.73626307  0.62927732  1
  O2-  O152  1  0.25070079  0.25956021  0.38332838  1
  O2-  O153  1  0.25504983  0.25670173  0.87368084  1
  O2-  O154  1  0.26611243  0.76391476  0.38404830  1
  O2-  O155  1  0.26693957  0.77445078  0.86478608  1
  O2-  O156  1  0.74958760  0.28444200  0.36135828  1
  O2-  O157  1  0.74867187  0.27200221  0.86596039  1
  O2-  O158  1  0.77759129  0.76713997  0.36208073  1
  O2-  O159  1  0.76659578  0.77059477  0.86847180  1
  O2-  O160  1  0.00656587  0.26691655  0.11605977  1
  O2-  O161  1  0.00144712  0.23761023  0.61322204  1
  O2-  O162  1  0.02199053  0.76494109  0.11985087  1
  O2-  O163  1  0.01509911  0.77680805  0.61502450  1
  O2-  O164  1  0.49468649  0.25731683  0.12461108  1
  O2-  O165  1  0.49132664  0.25643223  0.62332992  1
  O2-  O166  1  0.51782434  0.76170677  0.11417039  1
  O2-  O167  1  0.50448976  0.76900205  0.61407639  1
  O2-  O168  1  0.24703121  -0.02008375  0.38900547  1
  O2-  O169  1  0.26180135  -0.00640412  0.86743921  1
  O2-  O170  1  0.25830041  0.47556394  0.38608922  1
  O2-  O171  1  0.27426884  0.48633021  0.88583277  1
  O2-  O172  1  0.75586946  -0.01250346  0.37174494  1
  O2-  O173  1  0.76366832  -0.01973373  0.88387226  1
  O2-  O174  1  0.75113732  0.48805968  0.36565479  1
  O2-  O175  1  0.75090457  0.46941807  0.88912296  1
  O2-  O176  1  0.03390442  0.24990821  0.38610525  1
  O2-  O177  1  0.01531229  0.23231535  0.88166942  1
  O2-  O178  1  -0.00084689  0.76124125  0.38585306  1
  O2-  O179  1  -0.00625241  0.73200943  0.88217231  1
  O2-  O180  1  0.49272016  0.24141783  0.37389101  1
  O2-  O181  1  0.49379069  0.23960715  0.87298854  1
  O2-  O182  1  0.46833515  0.74647921  0.38668961  1
  O2-  O183  1  0.48023582  0.71759800  0.88253860  1
  O2-  O184  1  0.23211838  0.02063480  0.11658772  1
  O2-  O185  1  0.24145311  0.01480724  0.62358036  1
  O2-  O186  1  0.24739789  0.49565306  0.11741043  1
  O2-  O187  1  0.24767144  0.51715027  0.61718258  1
  O2-  O188  1  0.74053380  0.02523334  0.13390635  1
  O2-  O189  1  0.74776123  0.02357491  0.61326349  1
  O2-  O190  1  0.73514534  0.52173952  0.12989025  1
  O2-  O191  1  0.73845474  0.52129791  0.61988129  1
  O2-  O192  1  0.14004732  0.27621290  0.24126570  1
  O2-  O193  1  0.13903029  0.27322537  0.74183083  1
  O2-  O194  1  0.13455725  0.77197656  0.26920191  1
  O2-  O195  1  0.13765905  0.78362610  0.75087351  1
  O2-  O196  1  0.61733356  0.27171650  0.25515709  1
  O2-  O197  1  0.61222760  0.27105540  0.75182213  1
  O2-  O198  1  0.63523347  0.77956673  0.27119965  1
  O2-  O199  1  0.63252759  0.78334339  0.75719553  1
  O2-  O200  1  0.38014856  0.22295011  0.24807337  1
  O2-  O201  1  0.37585011  0.22080174  0.75145934  1
  O2-  O202  1  0.36841069  0.72178441  0.23415749  1
  O2-  O203  1  0.36362904  0.73897560  0.72406628  1
  O2-  O204  1  0.86485993  0.22495621  0.24303226  1
  O2-  O205  1  0.86505030  0.21692615  0.74811070  1
  O2-  O206  1  0.86215084  0.73104960  0.22198168  1
  O2-  O207  1  0.86853070  0.72318656  0.73929999  1
  O2-  O208  1  0.28694964  0.36187400  0.24875471  1
  O2-  O209  1  0.28321043  0.36162412  0.73883616  1
  O2-  O210  1  0.28313742  0.86551115  0.24438928  1
  O2-  O211  1  0.27238532  0.88515685  0.73175462  1
  O2-  O212  1  0.76777216  0.37975109  0.22620195  1
  O2-  O213  1  0.76501722  0.36394896  0.72622520  1
  O2-  O214  1  0.76375992  0.88549347  0.23198508  1
  O2-  O215  1  0.77554303  0.87040553  0.72865920  1
  O2-  O216  1  0.23423319  0.13583976  0.26958419  1
  O2-  O217  1  0.23203470  0.12479239  0.76034803  1
  O2-  O218  1  0.23124211  0.63361433  0.27559179  1
  O2-  O219  1  0.22723924  0.63580257  0.77021670  1
  O2-  O220  1  0.72664458  0.13025194  0.27246376  1
  O2-  O221  1  0.71337523  0.13398361  0.76989971  1
  O2-  O222  1  0.72533772  0.62559294  0.26796831  1
  O2-  O223  1  0.71959751  0.63554500  0.76809245  1
  O2-  O224  1  0.11470795  0.46196313  0.26099815  1
  O2-  O225  1  0.11727792  0.46622475  0.75614376  1
  O2-  O226  1  0.11730082  0.96510265  0.25332720  1
  O2-  O227  1  0.13131974  0.97909187  0.75326189  1
  O2-  O228  1  0.62675683  0.47177632  0.25054931  1
  O2-  O229  1  0.61306210  0.46259562  0.75976800  1
  O2-  O230  1  0.62453388  0.99121685  0.26413751  1
  O2-  O231  1  0.61217963  0.98005251  0.73666205  1
  O2-  O232  1  0.38756369  0.03333496  0.25039525  1
  O2-  O233  1  0.37129406  0.02606434  0.74201575  1
  O2-  O234  1  0.38717575  0.51890862  0.24822780  1
  O2-  O235  1  0.38650195  0.52427402  0.75282759  1
  O2-  O236  1  0.86678753  0.02858196  0.25024982  1
  O2-  O237  1  0.88401713  0.03692233  0.74037372  1
  O2-  O238  1  0.86445266  0.52624682  0.24372615  1
  O2-  O239  1  0.88050096  0.52435352  0.74530407  1
  O2-  O240  1  0.47861093  0.36832412  0.25299330  1
  O2-  O241  1  0.46944919  0.36646808  0.75706495  1
  O2-  O242  1  0.47603924  0.88599025  0.25823831  1
  O2-  O243  1  0.46785631  0.88982991  0.75886933  1
  O2-  O244  1  0.95809329  0.38384564  0.26556491  1
  O2-  O245  1  0.97324966  0.38071599  0.76367328  1
  O2-  O246  1  0.96032080  0.88910602  0.24938509  1
  O2-  O247  1  0.98066375  0.88899141  0.75719882  1
  O2-  O248  1  0.01529270  0.11555823  0.26930765  1
  O2-  O249  1  0.04034785  0.11482532  0.73658366  1
  O2-  O250  1  0.02221962  0.61392612  0.23506524  1
  O2-  O251  1  0.03416472  0.61781502  0.73664799  1
  O2-  O252  1  0.52485873  0.13120808  0.24418195  1
  O2-  O253  1  0.51440552  0.12885391  0.73156684  1
  O2-  O254  1  0.53076006  0.61116041  0.23830300  1
  O2-  O255  1  0.53111363  0.61503694  0.73755366  1
  O2-  O256  1  0.13535578  0.46274784  -0.01127695  1
  O2-  O257  1  0.13629746  0.46851869  0.49948806  1
  O2-  O258  1  0.13722888  0.98367187  -0.02335474  1
  O2-  O259  1  0.12325689  0.97498358  0.50407155  1
  O2-  O260  1  0.61665303  0.46731761  0.00147402  1
  O2-  O261  1  0.63331978  0.46861875  0.49073120  1
  O2-  O262  1  0.63225820  0.96737580  0.00005623  1
  O2-  O263  1  0.61717936  0.98136742  0.50012249  1
  O2-  O264  1  0.36417955  0.03382031  -0.00275455  1
  O2-  O265  1  0.36915632  0.02197895  0.50035546  1
  O2-  O266  1  0.37968672  0.51308642  0.01004161  1
  O2-  O267  1  0.36666073  0.52719937  0.50092569  1
  O2-  O268  1  0.86430085  0.03310171  0.00813825  1
  O2-  O269  1  0.87495831  0.02711502  0.49587607  1
  O2-  O270  1  0.86361817  0.52883427  0.00399079  1
  O2-  O271  1  0.86430890  0.52693874  0.49792497  1
  O2-  O272  1  0.47163869  0.37214032  -0.00761729  1
  O2-  O273  1  0.46121160  0.36042986  0.49385380  1
  O2-  O274  1  0.46572767  0.86449088  -0.01653219  1
  O2-  O275  1  0.47001766  0.88431217  0.49266463  1
  O2-  O276  1  0.97797519  0.36340438  -0.02309131  1
  O2-  O277  1  0.97715264  0.36529599  0.49962051  1
  O2-  O278  1  0.97074911  0.86740092  -0.00900155  1
  O2-  O279  1  0.97151809  0.88202112  0.49758597  1
  O2-  O280  1  0.03472175  0.13426178  0.01115329  1
  O2-  O281  1  0.02265126  0.11606002  0.49538660  1
  O2-  O282  1  0.03167568  0.63139661  0.01680982  1
  O2-  O283  1  0.03736614  0.63876138  0.50667057  1
  O2-  O284  1  0.51767688  0.13588603  0.01056291  1
  O2-  O285  1  0.51203596  0.12535448  0.50617840  1
  O2-  O286  1  0.51798106  0.61232239  0.01494914  1
  O2-  O287  1  0.52818516  0.63463207  0.50685797  1
  O2-  O288  1  0.13540786  0.27550932  0.00307773  1
  O2-  O289  1  0.13616384  0.26238720  0.51560965  1
  O2-  O290  1  0.12033576  0.78108820  -0.01392377  1
  O2-  O291  1  0.13281122  0.77633240  0.49084505  1
  O2-  O292  1  0.61060942  0.27568712  -0.00571423  1
  O2-  O293  1  0.61014418  0.27271355  0.49608219  1
  O2-  O294  1  0.61297641  0.76297970  -0.02623991  1
  O2-  O295  1  0.61340676  0.78360839  0.48563199  1
  O2-  O296  1  0.37420117  0.22898922  -0.00207005  1
  O2-  O297  1  0.36973466  0.21702266  0.49972623  1
  O2-  O298  1  0.38258740  0.71871943  0.02150356  1
  O2-  O299  1  0.36806197  0.72976319  0.51630638  1
  O2-  O300  1  0.88203881  0.21892383  0.00130936  1
  O2-  O301  1  0.88717553  0.21956389  0.48357770  1
  O2-  O302  1  0.88539818  0.72272870  0.01840890  1
  O2-  O303  1  0.88687930  0.72344248  0.51271551  1
  O2-  O304  1  0.27788969  0.36664734  0.00817648  1
  O2-  O305  1  0.27483833  0.36653887  0.51796484  1
  O2-  O306  1  0.27774032  0.88717678  0.01882405  1
  O2-  O307  1  0.26955350  0.87505249  0.52132485  1
  O2-  O308  1  0.76551071  0.38550976  0.03584299  1
  O2-  O309  1  0.77871612  0.38470514  0.51741655  1
  O2-  O310  1  0.77037012  0.88426571  0.02811146  1
  O2-  O311  1  0.76421238  0.88900906  0.50890482  1
  O2-  O312  1  0.22884458  0.13267875  -0.01096906  1
  O2-  O313  1  0.22839236  0.11861557  0.49080307  1
  O2-  O314  1  0.22514258  0.61188164  -0.01011299  1
  O2-  O315  1  0.22641428  0.62683736  0.48086977  1
  O2-  O316  1  0.71482049  0.11479748  -0.01249548  1
  O2-  O317  1  0.72000325  0.11587483  0.47685969  1
  O2-  O318  1  0.71133747  0.60964874  -0.01184155  1
  O2-  O319  1  0.72287858  0.61633224  0.47812686  1
