# generated using pymatgen
data_Sr64Ca21Nb43O192
_symmetry_space_group_name_H-M   'P 1'
_cell_length_a   16.60210795
_cell_length_b   16.57078774
_cell_length_c   16.71458128
_cell_angle_alpha   90.01065015
_cell_angle_beta   90.01656572
_cell_angle_gamma   90.07643333
_symmetry_Int_Tables_number   1
_chemical_formula_structural   Sr64Ca21Nb43O192
_chemical_formula_sum   'Sr64 Ca21 Nb43 O192'
_cell_volume   4598.34420614
_cell_formula_units_Z   1
loop_
 _symmetry_equiv_pos_site_id
 _symmetry_equiv_pos_as_xyz
  1  'x, y, z'
loop_
 _atom_type_symbol
 _atom_type_oxidation_number
  Sr2+  2.0
  Ca2+  2.0
  Nb5+  5.0
  O2-  -2.0
loop_
 _atom_site_type_symbol
 _atom_site_label
 _atom_site_symmetry_multiplicity
 _atom_site_fract_x
 _atom_site_fract_y
 _atom_site_fract_z
 _atom_site_occupancy
  Sr2+  Sr0  1  0.13150067  0.11831915  0.13023604  1
  Sr2+  Sr1  1  0.13018888  0.11416629  0.62364205  1
  Sr2+  Sr2  1  0.13490993  0.61377273  0.12844298  1
  Sr2+  Sr3  1  0.13258982  0.61012600  0.62422512  1
  Sr2+  Sr4  1  0.63075559  0.12463664  0.12206855  1
  Sr2+  Sr5  1  0.62950449  0.12329088  0.61973607  1
  Sr2+  Sr6  1  0.62677278  0.61114177  0.12503126  1
  Sr2+  Sr7  1  0.63697648  0.61187630  0.62475369  1
  Sr2+  Sr8  1  0.37585470  0.38184525  0.12139835  1
  Sr2+  Sr9  1  0.37803056  0.35849425  0.62455919  1
  Sr2+  Sr10  1  0.38357842  0.86114018  0.12494987  1
  Sr2+  Sr11  1  0.38390041  0.86262574  0.62180520  1
  Sr2+  Sr12  1  0.88175093  0.36609539  0.12461674  1
  Sr2+  Sr13  1  0.88623333  0.37225638  0.62974631  1
  Sr2+  Sr14  1  0.88055179  0.86695712  0.11961245  1
  Sr2+  Sr15  1  0.87967169  0.86322456  0.61933832  1
  Sr2+  Sr16  1  0.11361598  0.38342698  0.37548940  1
  Sr2+  Sr17  1  0.11222609  0.38580029  0.87113661  1
  Sr2+  Sr18  1  0.11446728  0.88923596  0.37610223  1
  Sr2+  Sr19  1  0.10728901  0.88300062  0.88041327  1
  Sr2+  Sr20  1  0.61909507  0.38123614  0.38240331  1
  Sr2+  Sr21  1  0.61549614  0.38158318  0.87677811  1
  Sr2+  Sr22  1  0.62137112  0.87741112  0.37330857  1
  Sr2+  Sr23  1  0.62190956  0.87808423  0.86838868  1
  Sr2+  Sr24  1  0.36254113  0.12830566  0.38206700  1
  Sr2+  Sr25  1  0.35640049  0.12883809  0.87042210  1
  Sr2+  Sr26  1  0.35643446  0.63114691  0.37124862  1
  Sr2+  Sr27  1  0.36300427  0.63419680  0.87445637  1
  Sr2+  Sr28  1  0.88044142  0.12994399  0.37504084  1
  Sr2+  Sr29  1  0.87806152  0.12846718  0.86760998  1
  Sr2+  Sr30  1  0.86390640  0.63220418  0.37552345  1
  Sr2+  Sr31  1  0.88318432  0.63121612  0.87482910  1
  Sr2+  Sr32  1  0.11681666  0.13998576  0.37836111  1
  Sr2+  Sr33  1  0.12257562  0.13693158  0.87624343  1
  Sr2+  Sr34  1  0.11799373  0.62978518  0.37444301  1
  Sr2+  Sr35  1  0.11497785  0.63245917  0.87047626  1
  Sr2+  Sr36  1  0.61928594  0.13689013  0.37206553  1
  Sr2+  Sr37  1  0.62194429  0.13651680  0.87314069  1
  Sr2+  Sr38  1  0.62188389  0.62564063  0.37551093  1
  Sr2+  Sr39  1  0.61672118  0.63283167  0.86622261  1
  Sr2+  Sr40  1  0.36210439  0.38750030  0.38171880  1
  Sr2+  Sr41  1  0.36331235  0.38090818  0.87365703  1
  Sr2+  Sr42  1  0.37230372  0.88359778  0.37358779  1
  Sr2+  Sr43  1  0.37116471  0.88755062  0.86765596  1
  Sr2+  Sr44  1  0.87274486  0.38861822  0.37130610  1
  Sr2+  Sr45  1  0.86835999  0.38689120  0.87649127  1
  Sr2+  Sr46  1  0.86358868  0.88140303  0.37208784  1
  Sr2+  Sr47  1  0.87053137  0.88425569  0.87181813  1
  Sr2+  Sr48  1  0.13615948  0.36492198  0.12794926  1
  Sr2+  Sr49  1  0.13202480  0.37637095  0.62610737  1
  Sr2+  Sr50  1  0.13484990  0.86268414  0.12314356  1
  Sr2+  Sr51  1  0.14381320  0.86323944  0.62361098  1
  Sr2+  Sr52  1  0.63752824  0.37012783  0.12281580  1
  Sr2+  Sr53  1  0.62861244  0.36835302  0.62420188  1
  Sr2+  Sr54  1  0.63235797  0.87175274  0.12215779  1
  Sr2+  Sr55  1  0.63592258  0.87063556  0.62231231  1
  Sr2+  Sr56  1  0.38843721  0.11978027  0.11690206  1
  Sr2+  Sr57  1  0.38808746  0.11792946  0.62029019  1
  Sr2+  Sr58  1  0.37463160  0.62330605  0.13127684  1
  Sr2+  Sr59  1  0.37291983  0.61934857  0.62862161  1
  Sr2+  Sr60  1  0.88615468  0.12163155  0.12648042  1
  Sr2+  Sr61  1  0.88996293  0.11708844  0.62416514  1
  Sr2+  Sr62  1  0.88905348  0.62065641  0.12563552  1
  Sr2+  Sr63  1  0.89203300  0.61674488  0.62253559  1
  Ca2+  Ca64  1  -0.00262469  -0.00139272  0.50112053  1
  Ca2+  Ca65  1  0.49759813  0.50211822  0.50200372  1
  Ca2+  Ca66  1  -0.00041007  0.50163122  0.49773625  1
  Ca2+  Ca67  1  -0.00333288  0.00225165  0.00174718  1
  Ca2+  Ca68  1  -0.00145580  0.50121430  0.00396692  1
  Ca2+  Ca69  1  0.25346668  0.74898088  0.49944156  1
  Ca2+  Ca70  1  0.24774936  0.25054924  0.49883739  1
  Ca2+  Ca71  1  0.75368776  0.24714989  0.49972092  1
  Ca2+  Ca72  1  0.75081135  0.74828943  -0.00158715  1
  Ca2+  Ca73  1  0.25109836  0.75122337  -0.00114192  1
  Ca2+  Ca74  1  0.00038742  0.25044889  0.75205875  1
  Ca2+  Ca75  1  0.74931572  0.50060441  0.25019799  1
  Ca2+  Ca76  1  0.24828834  0.49799082  0.24939693  1
  Ca2+  Ca77  1  -0.00187016  0.75360703  0.25260988  1
  Ca2+  Ca78  1  0.25276625  0.00003182  0.74754014  1
  Ca2+  Ca79  1  0.49799618  0.24520996  0.75221797  1
  Ca2+  Ca80  1  0.25234834  0.49919255  0.75150813  1
  Ca2+  Ca81  1  0.25285963  0.00085213  0.24902586  1
  Ca2+  Ca82  1  0.00270117  0.75300525  0.74639775  1
  Ca2+  Ca83  1  0.75142809  0.50095731  0.75002256  1
  Ca2+  Ca84  1  0.49847497  0.24909320  0.25096820  1
  Nb5+  Nb85  1  0.50278337  0.00284959  -0.00634609  1
  Nb5+  Nb86  1  0.50371535  -0.00124427  0.49208984  1
  Nb5+  Nb87  1  0.49973082  0.50825545  -0.00327763  1
  Nb5+  Nb88  1  0.75585570  0.24767219  0.00101544  1
  Nb5+  Nb89  1  0.25640591  0.24910127  0.00188959  1
  Nb5+  Nb90  1  0.74856013  0.74894523  0.50054871  1
  Nb5+  Nb91  1  0.74930089  0.00165228  0.74315589  1
  Nb5+  Nb92  1  0.50414959  0.74893882  0.24497161  1
  Nb5+  Nb93  1  0.00103906  0.25256181  0.24996266  1
  Nb5+  Nb94  1  0.50439780  0.74886171  0.74041550  1
  Nb5+  Nb95  1  0.74920725  0.00213144  0.24426298  1
  Nb5+  Nb96  1  0.00189635  -0.00131263  0.24896492  1
  Nb5+  Nb97  1  0.00740574  -0.00289067  0.74564360  1
  Nb5+  Nb98  1  -0.00023325  0.50606823  0.24688106  1
  Nb5+  Nb99  1  -0.00031351  0.50138738  0.75097824  1
  Nb5+  Nb100  1  0.50262480  -0.00113640  0.24448267  1
  Nb5+  Nb101  1  0.50415468  -0.00309211  0.74247945  1
  Nb5+  Nb102  1  0.49885495  0.49657681  0.25267119  1
  Nb5+  Nb103  1  0.49603637  0.49360966  0.74820653  1
  Nb5+  Nb104  1  0.25704548  0.24595482  0.24864822  1
  Nb5+  Nb105  1  0.24598992  0.24786294  0.74505149  1
  Nb5+  Nb106  1  0.24464644  0.75513460  0.25307667  1
  Nb5+  Nb107  1  0.24755451  0.75337784  0.75496872  1
  Nb5+  Nb108  1  0.75302658  0.25298560  0.25200181  1
  Nb5+  Nb109  1  0.74967614  0.25091042  0.74766433  1
  Nb5+  Nb110  1  0.74520741  0.74857493  0.24678034  1
  Nb5+  Nb111  1  0.75296604  0.74823216  0.74863321  1
  Nb5+  Nb112  1  0.00067117  0.25314499  0.50520580  1
  Nb5+  Nb113  1  0.00788947  0.25092216  1.00108895  1
  Nb5+  Nb114  1  0.00801745  0.75447907  0.49743073  1
  Nb5+  Nb115  1  0.00105027  0.75154979  1.00298048  1
  Nb5+  Nb116  1  0.49821322  0.25266684  0.49606462  1
  Nb5+  Nb117  1  0.50269639  0.25616796  0.99791485  1
  Nb5+  Nb118  1  0.50404895  0.74686861  0.49398001  1
  Nb5+  Nb119  1  0.49988529  0.75427321  0.99036287  1
  Nb5+  Nb120  1  0.24755906  -0.00351484  0.00580667  1
  Nb5+  Nb121  1  0.24595753  -0.00295673  0.50089935  1
  Nb5+  Nb122  1  0.24453200  0.49967626  -0.00214182  1
  Nb5+  Nb123  1  0.24975972  0.50028788  0.49903056  1
  Nb5+  Nb124  1  0.74800347  0.00233790  -0.00619596  1
  Nb5+  Nb125  1  0.74645120  0.00083687  0.49240941  1
  Nb5+  Nb126  1  0.74638635  0.50605544  -0.00453999  1
  Nb5+  Nb127  1  0.75294679  0.49389109  0.50341358  1
  O2-  O128  1  -0.03687543  -0.00828320  0.13772836  1
  O2-  O129  1  -0.03564384  -0.01525159  0.63561359  1
  O2-  O130  1  -0.03690957  0.48738785  0.13458056  1
  O2-  O131  1  -0.02019197  0.48464083  0.63325486  1
  O2-  O132  1  0.48715551  -0.01791789  0.12901405  1
  O2-  O133  1  0.48879376  -0.01917442  0.62863646  1
  O2-  O134  1  0.47900346  0.49996804  0.11513720  1
  O2-  O135  1  0.46838976  0.48656565  0.63625205  1
  O2-  O136  1  0.01196141  0.02783847  0.36392512  1
  O2-  O137  1  0.01555553  0.02399668  0.86422266  1
  O2-  O138  1  0.02771241  0.50817646  0.36297068  1
  O2-  O139  1  0.01778791  0.51826245  0.87099879  1
  O2-  O140  1  0.52658414  0.00686260  0.37842240  1
  O2-  O141  1  0.52564533  0.00541459  0.88097154  1
  O2-  O142  1  0.52651145  0.50664299  0.36344003  1
  O2-  O143  1  0.52577742  0.51204374  0.87787767  1
  O2-  O144  1  0.22749630  0.23400353  0.11861378  1
  O2-  O145  1  0.21696370  0.23945326  0.63402540  1
  O2-  O146  1  0.23904178  0.72753547  0.13562220  1
  O2-  O147  1  0.23567901  0.72895517  0.63748152  1
  O2-  O148  1  0.73108788  0.23686317  0.12285750  1
  O2-  O149  1  0.72315542  0.24083796  0.63640455  1
  O2-  O150  1  0.71972047  0.74284195  0.13529026  1
  O2-  O151  1  0.72498451  0.74621016  0.62152587  1
  O2-  O152  1  0.27372192  0.26380842  0.36117741  1
  O2-  O153  1  0.27013882  0.26060232  0.88516322  1
  O2-  O154  1  0.28259485  0.76580202  0.36480900  1
  O2-  O155  1  0.28665379  0.76823834  0.86767227  1
  O2-  O156  1  0.77834481  0.25402763  0.36379010  1
  O2-  O157  1  0.76972014  0.24843945  0.88347798  1
  O2-  O158  1  0.75828909  0.76785392  0.38012902  1
  O2-  O159  1  0.77095050  0.76539937  0.86206682  1
  O2-  O160  1  0.00728480  0.27279091  0.12641619  1
  O2-  O161  1  0.01101563  0.27989884  0.61685292  1
  O2-  O162  1  0.00663304  0.78441695  0.11990319  1
  O2-  O163  1  0.01127380  0.78615845  0.61333914  1
  O2-  O164  1  0.51758427  0.25738261  0.11399895  1
  O2-  O165  1  0.51729846  0.26339250  0.61544485  1
  O2-  O166  1  0.51923585  0.76616414  0.13022814  1
  O2-  O167  1  0.51911451  0.77094104  0.62816291  1
  O2-  O168  1  0.24545342  -0.03115790  0.38341050  1
  O2-  O169  1  0.24527816  -0.01702331  0.88797246  1
  O2-  O170  1  0.23721005  0.47053530  0.38043353  1
  O2-  O171  1  0.24071412  0.46618455  0.88599494  1
  O2-  O172  1  0.73325081  -0.01715161  0.37741115  1
  O2-  O173  1  0.73070288  -0.01199477  0.87958629  1
  O2-  O174  1  0.72575232  0.48745999  0.38599224  1
  O2-  O175  1  0.73144593  0.47010551  0.88388194  1
  O2-  O176  1  -0.01289601  0.23145358  0.36469550  1
  O2-  O177  1  -0.00983394  0.22564692  0.88929881  1
  O2-  O178  1  -0.01479929  0.71851790  0.38510816  1
  O2-  O179  1  -0.00553764  0.72724612  0.88427358  1
  O2-  O180  1  0.48679534  0.21436975  0.38371568  1
  O2-  O181  1  0.48326834  0.21725370  0.88939784  1
  O2-  O182  1  0.49222966  0.73480691  0.37839797  1
  O2-  O183  1  0.48866566  0.73506916  0.87688555  1
  O2-  O184  1  0.27049804  0.03426836  0.11526612  1
  O2-  O185  1  0.26641616  0.03284250  0.61370241  1
  O2-  O186  1  0.27794089  0.51095915  0.11118909  1
  O2-  O187  1  0.26192610  0.52447739  0.61707909  1
  O2-  O188  1  0.75533814  0.01600358  0.12895195  1
  O2-  O189  1  0.75475335  0.01531951  0.62812850  1
  O2-  O190  1  0.75409448  0.51070044  0.11264459  1
  O2-  O191  1  0.76626724  0.52902532  0.61579588  1
  O2-  O192  1  0.11746624  0.26938370  0.25916801  1
  O2-  O193  1  0.13435690  0.27182979  0.77978929  1
  O2-  O194  1  0.13400868  0.78102132  0.27022091  1
  O2-  O195  1  0.13747262  0.77920336  0.77407401  1
  O2-  O196  1  0.63667245  0.26751478  0.26966095  1
  O2-  O197  1  0.63569056  0.26349731  0.78154015  1
  O2-  O198  1  0.62288945  0.77148822  0.27116536  1
  O2-  O199  1  0.62343690  0.76875464  0.76715226  1
  O2-  O200  1  0.36572736  0.21758844  0.22640232  1
  O2-  O201  1  0.36452620  0.21800224  0.73395909  1
  O2-  O202  1  0.38823351  0.73532471  0.23614501  1
  O2-  O203  1  0.38868575  0.73330454  0.73259160  1
  O2-  O204  1  0.87354342  0.23011138  0.22860272  1
  O2-  O205  1  0.86153378  0.21408765  0.74094958  1
  O2-  O206  1  0.86010896  0.73575077  0.23598121  1
  O2-  O207  1  0.86412022  0.73525911  0.72185263  1
  O2-  O208  1  0.26354361  0.36164175  0.22116762  1
  O2-  O209  1  0.28086725  0.36254622  0.73940167  1
  O2-  O210  1  0.27453100  0.86708485  0.22346837  1
  O2-  O211  1  0.27973268  0.86666652  0.72813762  1
  O2-  O212  1  0.76958095  0.36507258  0.23159103  1
  O2-  O213  1  0.77622042  0.36298520  0.74070998  1
  O2-  O214  1  0.76284802  0.87819041  0.23831920  1
  O2-  O215  1  0.76043896  0.87779824  0.73435778  1
  O2-  O216  1  0.21695872  0.13489524  0.26254818  1
  O2-  O217  1  0.22866669  0.13213007  0.77523040  1
  O2-  O218  1  0.23181432  0.63475168  0.27062810  1
  O2-  O219  1  0.23973058  0.63573608  0.77836756  1
  O2-  O220  1  0.72829820  0.11996963  0.25979770  1
  O2-  O221  1  0.72301464  0.11603884  0.76193170  1
  O2-  O222  1  0.72632084  0.63644723  0.26882888  1
  O2-  O223  1  0.72435105  0.63699777  0.76045924  1
  O2-  O224  1  0.11406959  0.47962949  0.21964122  1
  O2-  O225  1  0.11799986  0.47424832  0.73799348  1
  O2-  O226  1  0.11332217  0.98200699  0.22596156  1
  O2-  O227  1  0.11787812  0.97717325  0.72270557  1
  O2-  O228  1  0.61143475  0.48455141  0.21825584  1
  O2-  O229  1  0.61382351  0.48391451  0.72819322  1
  O2-  O230  1  0.62759632  0.97542637  0.24176186  1
  O2-  O231  1  0.62604686  0.97254778  0.74389662  1
  O2-  O232  1  0.39217581  0.01590829  0.27346616  1
  O2-  O233  1  0.39300384  0.01304681  0.77157242  1
  O2-  O234  1  0.38739577  0.53479062  0.25807879  1
  O2-  O235  1  0.38842749  0.53060533  0.77504717  1
  O2-  O236  1  0.86224568  0.01610697  0.27137032  1
  O2-  O237  1  0.86120363  0.01277668  0.77094984  1
  O2-  O238  1  0.88252208  0.51858756  0.27747704  1
  O2-  O239  1  0.88246798  0.52924841  0.76761658  1
  O2-  O240  1  0.46832898  0.38491151  0.25664973  1
  O2-  O241  1  0.48106119  0.38190048  0.77428614  1
  O2-  O242  1  0.49013763  0.87330158  0.26647475  1
  O2-  O243  1  0.49080497  0.87183061  0.76800026  1
  O2-  O244  1  0.97686625  0.36926288  0.26311782  1
  O2-  O245  1  0.97356154  0.38319616  0.77312121  1
  O2-  O246  1  0.97873536  0.88847043  0.27672686  1
  O2-  O247  1  0.98045837  0.88547201  0.77675167  1
  O2-  O248  1  0.00978756  0.12966981  0.22932908  1
  O2-  O249  1  0.01230355  0.11605645  0.72432257  1
  O2-  O250  1  0.01814744  0.61950707  0.22704769  1
  O2-  O251  1  0.02625425  0.61908381  0.73181038  1
  O2-  O252  1  0.52893430  0.11097916  0.23486597  1
  O2-  O253  1  0.52871347  0.10966241  0.73526235  1
  O2-  O254  1  0.52696012  0.63281599  0.23978424  1
  O2-  O255  1  0.52520199  0.63184828  0.73676841  1
  O2-  O256  1  0.13435374  0.47988453  0.02266203  1
  O2-  O257  1  0.13268132  0.47790170  0.51784611  1
  O2-  O258  1  0.13376688  0.98565761  0.02237629  1
  O2-  O259  1  0.13292453  0.97617118  0.51782491  1
  O2-  O260  1  0.61514817  0.47369560  0.01435728  1
  O2-  O261  1  0.63303737  0.48033897  0.52450004  1
  O2-  O262  1  0.62154959  0.98448229  0.02025990  1
  O2-  O263  1  0.62250345  0.97727541  0.51790733  1
  O2-  O264  1  0.38582238  0.01598320  -0.01448270  1
  O2-  O265  1  0.38679743  0.01373601  0.48432786  1
  O2-  O266  1  0.38340124  0.50755404  -0.02536182  1
  O2-  O267  1  0.36794837  0.52548189  0.47620650  1
  O2-  O268  1  0.85893430  0.02971577  -0.01443908  1
  O2-  O269  1  0.85943265  0.02102429  0.48714009  1
  O2-  O270  1  0.85987365  0.52033673  -0.02095109  1
  O2-  O271  1  0.86406821  0.52748071  0.47823985  1
  O2-  O272  1  0.48295091  0.37023664  -0.01717715  1
  O2-  O273  1  0.48042331  0.36508045  0.47547562  1
  O2-  O274  1  0.48319650  0.87430274  -0.01222881  1
  O2-  O275  1  0.48664711  0.87594263  0.48666121  1
  O2-  O276  1  0.97129669  0.36336991  -0.01115045  1
  O2-  O277  1  0.97293481  0.36528720  0.47538723  1
  O2-  O278  1  0.96950292  0.87002100  -0.02059809  1
  O2-  O279  1  0.96922841  0.86606957  0.47243922  1
  O2-  O280  1  0.01406105  0.13684304  0.03090410  1
  O2-  O281  1  0.02532763  0.13336983  0.51767176  1
  O2-  O282  1  0.02575912  0.63620099  0.02906198  1
  O2-  O283  1  0.01559372  0.63911578  0.52887704  1
  O2-  O284  1  0.51576396  0.11718851  0.01893905  1
  O2-  O285  1  0.51872914  0.11316056  0.51953995  1
  O2-  O286  1  0.51897040  0.62502878  0.00688571  1
  O2-  O287  1  0.53250391  0.63729463  0.51466315  1
  O2-  O288  1  0.12383530  0.26869596  -0.01196882  1
  O2-  O289  1  0.11449512  0.26793183  0.47160450  1
  O2-  O290  1  0.11847159  0.78194821  -0.00999067  1
  O2-  O291  1  0.11905378  0.77777507  0.47800453  1
  O2-  O292  1  0.62075609  0.26335805  -0.01841505  1
  O2-  O293  1  0.61766436  0.26362638  0.47840793  1
  O2-  O294  1  0.61517474  0.77178345  -0.01314301  1
  O2-  O295  1  0.62388373  0.77815238  0.48956800  1
  O2-  O296  1  0.37432034  0.23678340  0.02086534  1
  O2-  O297  1  0.38385739  0.22544906  0.51908518  1
  O2-  O298  1  0.39014157  0.73430411  0.02609455  1
  O2-  O299  1  0.39241360  0.73512204  0.52325096  1
  O2-  O300  1  0.86791166  0.22860382  0.01871383  1
  O2-  O301  1  0.88552261  0.21819430  0.51062249  1
  O2-  O302  1  0.88143859  0.72385500  0.01782355  1
  O2-  O303  1  0.86279056  0.73534892  0.51707052  1
  O2-  O304  1  0.26639640  0.36797627  0.01840620  1
  O2-  O305  1  0.27927401  0.38286362  0.51942513  1
  O2-  O306  1  0.27331317  0.88637046  0.02787882  1
  O2-  O307  1  0.27592676  0.88382130  0.52660447  1
  O2-  O308  1  0.75979258  0.36474952  0.01474950  1
  O2-  O309  1  0.77638238  0.38227988  0.51980806  1
  O2-  O310  1  0.76354429  0.88903950  0.01656197  1
  O2-  O311  1  0.76144533  0.87875104  0.51542924  1
  O2-  O312  1  0.23807232  0.12959785  -0.01831898  1
  O2-  O313  1  0.23722540  0.11333530  0.46951762  1
  O2-  O314  1  0.23702313  0.61323927  -0.02400353  1
  O2-  O315  1  0.22670491  0.61749842  0.47419624  1
  O2-  O316  1  0.71909406  0.12541189  -0.00498887  1
  O2-  O317  1  0.71604667  0.11252751  0.49038147  1
  O2-  O318  1  0.71256227  0.61467489  -0.01769659  1
  O2-  O319  1  0.72478642  0.63591117  0.48577763  1
