# generated using pymatgen
data_Sr64Ca21Nb43O192
_symmetry_space_group_name_H-M   'P 1'
_cell_length_a   16.57151169
_cell_length_b   16.58893471
_cell_length_c   16.73120216
_cell_angle_alpha   89.95504685
_cell_angle_beta   89.97466997
_cell_angle_gamma   90.03577603
_symmetry_Int_Tables_number   1
_chemical_formula_structural   Sr64Ca21Nb43O192
_chemical_formula_sum   'Sr64 Ca21 Nb43 O192'
_cell_volume   4599.46704302
_cell_formula_units_Z   1
loop_
 _symmetry_equiv_pos_site_id
 _symmetry_equiv_pos_as_xyz
  1  'x, y, z'
loop_
 _atom_type_symbol
 _atom_type_oxidation_number
  Sr2+  2.0
  Ca2+  2.0
  Nb5+  5.0
  O2-  -2.0
loop_
 _atom_site_type_symbol
 _atom_site_label
 _atom_site_symmetry_multiplicity
 _atom_site_fract_x
 _atom_site_fract_y
 _atom_site_fract_z
 _atom_site_occupancy
  Sr2+  Sr0  1  0.11386943  0.12177902  0.12959476  1
  Sr2+  Sr1  1  0.12157339  0.10943039  0.62485856  1
  Sr2+  Sr2  1  0.12145124  0.61830189  0.12138939  1
  Sr2+  Sr3  1  0.12103143  0.62507870  0.61868511  1
  Sr2+  Sr4  1  0.61600299  0.10478658  0.12891800  1
  Sr2+  Sr5  1  0.61607874  0.12449842  0.62417462  1
  Sr2+  Sr6  1  0.62542362  0.62817420  0.12734696  1
  Sr2+  Sr7  1  0.61978871  0.62381782  0.62056062  1
  Sr2+  Sr8  1  0.37598390  0.37720610  0.12912180  1
  Sr2+  Sr9  1  0.37602213  0.37557855  0.62088242  1
  Sr2+  Sr10  1  0.36663199  0.86124799  0.12825799  1
  Sr2+  Sr11  1  0.36708542  0.86352646  0.62503036  1
  Sr2+  Sr12  1  0.87397986  0.37766435  0.12333860  1
  Sr2+  Sr13  1  0.86425445  0.38342436  0.62160397  1
  Sr2+  Sr14  1  0.86404058  0.85962540  0.12290730  1
  Sr2+  Sr15  1  0.87237729  0.88089177  0.62217497  1
  Sr2+  Sr16  1  0.13840466  0.36387391  0.37225808  1
  Sr2+  Sr17  1  0.13307847  0.36883610  0.87850749  1
  Sr2+  Sr18  1  0.13821656  0.88532077  0.37686676  1
  Sr2+  Sr19  1  0.13356179  0.88039961  0.88177272  1
  Sr2+  Sr20  1  0.63193376  0.37591364  0.37524982  1
  Sr2+  Sr21  1  0.63027603  0.37284623  0.87696102  1
  Sr2+  Sr22  1  0.63007664  0.87895654  0.36064331  1
  Sr2+  Sr23  1  0.63104511  0.88620151  0.87820858  1
  Sr2+  Sr24  1  0.35097035  0.12317368  0.37830142  1
  Sr2+  Sr25  1  0.36398557  0.12810511  0.87268639  1
  Sr2+  Sr26  1  0.38471697  0.62454120  0.38790379  1
  Sr2+  Sr27  1  0.37580691  0.62806045  0.86942913  1
  Sr2+  Sr28  1  0.88851525  0.13358847  0.37553273  1
  Sr2+  Sr29  1  0.88655221  0.12528616  0.87317254  1
  Sr2+  Sr30  1  0.89125056  0.62423306  0.38399739  1
  Sr2+  Sr31  1  0.88505987  0.62796843  0.87028452  1
  Sr2+  Sr32  1  0.12306040  0.11570969  0.36705381  1
  Sr2+  Sr33  1  0.12664896  0.12153883  0.87114087  1
  Sr2+  Sr34  1  0.13297226  0.63903677  0.37851696  1
  Sr2+  Sr35  1  0.12739551  0.63756444  0.87008356  1
  Sr2+  Sr36  1  0.62929720  0.12949559  0.37193617  1
  Sr2+  Sr37  1  0.62389218  0.12151492  0.87190082  1
  Sr2+  Sr38  1  0.63364473  0.63592102  0.37565520  1
  Sr2+  Sr39  1  0.62718777  0.63904781  0.87559351  1
  Sr2+  Sr40  1  0.38527786  0.37209874  0.37232500  1
  Sr2+  Sr41  1  0.38670462  0.36564861  0.87096724  1
  Sr2+  Sr42  1  0.38321008  0.88962809  0.37067659  1
  Sr2+  Sr43  1  0.37904464  0.88103163  0.87944858  1
  Sr2+  Sr44  1  0.87707716  0.36352836  0.37788066  1
  Sr2+  Sr45  1  0.88308600  0.37823834  0.87708173  1
  Sr2+  Sr46  1  0.88650335  0.88700318  0.38008582  1
  Sr2+  Sr47  1  0.88294072  0.88745251  0.87228136  1
  Sr2+  Sr48  1  0.13001162  0.37660619  0.12639021  1
  Sr2+  Sr49  1  0.14220314  0.37629983  0.62586380  1
  Sr2+  Sr50  1  0.11625252  0.86613666  0.13184137  1
  Sr2+  Sr51  1  0.11466466  0.86752160  0.61382025  1
  Sr2+  Sr52  1  0.62488428  0.38088834  0.12663489  1
  Sr2+  Sr53  1  0.61901949  0.37481526  0.62197126  1
  Sr2+  Sr54  1  0.60987794  0.86516334  0.12538172  1
  Sr2+  Sr55  1  0.61548807  0.87661023  0.62575028  1
  Sr2+  Sr56  1  0.36796772  0.11530003  0.13891792  1
  Sr2+  Sr57  1  0.36056515  0.11933484  0.62430929  1
  Sr2+  Sr58  1  0.35718167  0.62041074  0.12555150  1
  Sr2+  Sr59  1  0.35391589  0.61462501  0.62753283  1
  Sr2+  Sr60  1  0.87378880  0.13262905  0.13471873  1
  Sr2+  Sr61  1  0.86544921  0.12464544  0.62150477  1
  Sr2+  Sr62  1  0.86810252  0.61565137  0.12146169  1
  Sr2+  Sr63  1  0.89061553  0.62587797  0.62979883  1
  Ca2+  Ca64  1  -0.00195823  0.00511018  0.49981673  1
  Ca2+  Ca65  1  0.00147532  0.49450206  0.49833123  1
  Ca2+  Ca66  1  0.50118749  0.00593454  0.49897043  1
  Ca2+  Ca67  1  0.49662478  0.00073170  -0.00110252  1
  Ca2+  Ca68  1  0.00052945  -0.00148818  0.00247780  1
  Ca2+  Ca69  1  0.25151085  0.25166242  0.00145716  1
  Ca2+  Ca70  1  0.25514711  0.74975426  0.49864109  1
  Ca2+  Ca71  1  0.74609008  0.25012933  0.00130147  1
  Ca2+  Ca72  1  0.75028319  0.74992968  0.50074923  1
  Ca2+  Ca73  1  0.24880329  0.24881036  0.50103298  1
  Ca2+  Ca74  1  0.24983464  0.50244500  0.25403560  1
  Ca2+  Ca75  1  0.50052189  0.74671127  0.74732329  1
  Ca2+  Ca76  1  0.75223293  -0.00046086  0.24827103  1
  Ca2+  Ca77  1  0.50305704  0.24819285  0.25147092  1
  Ca2+  Ca78  1  0.25012777  0.49819483  0.75498903  1
  Ca2+  Ca79  1  0.24867671  -0.00614327  0.75037539  1
  Ca2+  Ca80  1  -0.00115343  0.74826145  0.25010070  1
  Ca2+  Ca81  1  0.25006295  -0.00235040  0.24601878  1
  Ca2+  Ca82  1  -0.00011337  0.75255352  0.75150838  1
  Ca2+  Ca83  1  -0.00473256  0.25052428  0.74760954  1
  Ca2+  Ca84  1  0.49599624  0.74711574  0.25106511  1
  Nb5+  Nb85  1  0.00467534  0.49855993  -0.00029062  1
  Nb5+  Nb86  1  0.50392300  0.49913600  0.49532822  1
  Nb5+  Nb87  1  0.50446141  0.49911466  -0.00433144  1
  Nb5+  Nb88  1  0.24209470  0.74944017  -0.00090679  1
  Nb5+  Nb89  1  0.74493213  0.75129504  -0.00241999  1
  Nb5+  Nb90  1  0.74951373  0.25013113  0.50132296  1
  Nb5+  Nb91  1  0.74768293  0.00782256  0.75002720  1
  Nb5+  Nb92  1  0.74488067  0.50718009  0.74666962  1
  Nb5+  Nb93  1  0.75172439  0.49966387  0.24658744  1
  Nb5+  Nb94  1  0.50137502  0.24781143  0.74843678  1
  Nb5+  Nb95  1  0.00282003  0.25579994  0.24949291  1
  Nb5+  Nb96  1  -0.00548205  -0.00357237  0.24456205  1
  Nb5+  Nb97  1  0.00142987  -0.00289722  0.74840744  1
  Nb5+  Nb98  1  0.00050136  0.49733261  0.25441874  1
  Nb5+  Nb99  1  0.00457032  0.49352789  0.74960169  1
  Nb5+  Nb100  1  0.50171492  0.00048199  0.24921778  1
  Nb5+  Nb101  1  0.49497029  -0.00078269  0.74815971  1
  Nb5+  Nb102  1  0.50031565  0.50397138  0.24524561  1
  Nb5+  Nb103  1  0.50487691  0.49905705  0.74600882  1
  Nb5+  Nb104  1  0.25478509  0.25046647  0.24990978  1
  Nb5+  Nb105  1  0.24392105  0.25099418  0.74963251  1
  Nb5+  Nb106  1  0.25191366  0.74686175  0.25545892  1
  Nb5+  Nb107  1  0.24797055  0.75009205  0.74768447  1
  Nb5+  Nb108  1  0.74844344  0.25419555  0.24694322  1
  Nb5+  Nb109  1  0.74809560  0.25568090  0.75193400  1
  Nb5+  Nb110  1  0.75684750  0.74881055  0.25586537  1
  Nb5+  Nb111  1  0.74890000  0.75912793  0.75057380  1
  Nb5+  Nb112  1  0.00355360  0.25278189  0.50533654  1
  Nb5+  Nb113  1  0.00127932  0.24881441  0.99793807  1
  Nb5+  Nb114  1  -0.00239289  0.75082302  0.49730271  1
  Nb5+  Nb115  1  -0.00897781  0.74912463  1.00387579  1
  Nb5+  Nb116  1  0.50114613  0.25004075  0.49732213  1
  Nb5+  Nb117  1  0.50091392  0.24773027  1.00420278  1
  Nb5+  Nb118  1  0.50030270  0.75795440  0.50014529  1
  Nb5+  Nb119  1  0.48968464  0.74672658  1.00146233  1
  Nb5+  Nb120  1  0.24818454  0.00336012  0.00304784  1
  Nb5+  Nb121  1  0.25183821  -0.00237491  0.50326308  1
  Nb5+  Nb122  1  0.25768165  0.50109218  -0.00439667  1
  Nb5+  Nb123  1  0.24803278  0.49600255  0.49738307  1
  Nb5+  Nb124  1  0.75182790  0.00289670  0.00376459  1
  Nb5+  Nb125  1  0.74689922  -0.00076246  0.49643319  1
  Nb5+  Nb126  1  0.75162449  0.50235516  -0.00720379  1
  Nb5+  Nb127  1  0.74952016  0.50323910  0.49435126  1
  O2-  O128  1  -0.01573188  0.03574590  0.13246860  1
  O2-  O129  1  -0.02627245  0.02196815  0.63482828  1
  O2-  O130  1  -0.00519818  0.51365897  0.12133606  1
  O2-  O131  1  0.00409046  0.51433204  0.63557740  1
  O2-  O132  1  0.48693459  0.02570087  0.13019670  1
  O2-  O133  1  0.49341066  0.03168203  0.63601557  1
  O2-  O134  1  0.50773607  0.51165901  0.12688353  1
  O2-  O135  1  0.51349460  0.50574980  0.62857957  1
  O2-  O136  1  0.01333425  -0.01613580  0.36328798  1
  O2-  O137  1  0.01346316  -0.02486574  0.86689351  1
  O2-  O138  1  -0.02250941  0.47879815  0.36439038  1
  O2-  O139  1  -0.00338125  0.48178275  0.88102845  1
  O2-  O140  1  0.52058128  -0.02115450  0.36590161  1
  O2-  O141  1  0.52391456  -0.00649056  0.86308827  1
  O2-  O142  1  0.50076967  0.48311346  0.37903631  1
  O2-  O143  1  0.50474691  0.48290372  0.87921433  1
  O2-  O144  1  0.25931082  0.28321392  0.13497652  1
  O2-  O145  1  0.26437376  0.27651553  0.63494787  1
  O2-  O146  1  0.23365830  0.77212886  0.11569715  1
  O2-  O147  1  0.23525259  0.77522855  0.63505823  1
  O2-  O148  1  0.75982126  0.27822372  0.13513269  1
  O2-  O149  1  0.76105814  0.26659813  0.62177402  1
  O2-  O150  1  0.73174659  0.76123185  0.11645241  1
  O2-  O151  1  0.72882851  0.76827793  0.63864654  1
  O2-  O152  1  0.22577202  0.22764526  0.36524611  1
  O2-  O153  1  0.24018590  0.22151841  0.86667587  1
  O2-  O154  1  0.26818015  0.71742258  0.36499335  1
  O2-  O155  1  0.26285762  0.72314690  0.88333185  1
  O2-  O156  1  0.74282699  0.24511693  0.37825739  1
  O2-  O157  1  0.72807292  0.23890907  0.86401047  1
  O2-  O158  1  0.77214894  0.71800988  0.36438817  1
  O2-  O159  1  0.76614967  0.72439396  0.88303068  1
  O2-  O160  1  -0.00877062  0.23925618  0.12745919  1
  O2-  O161  1  -0.00446234  0.22076534  0.61424197  1
  O2-  O162  1  0.02650606  0.73032415  0.11470006  1
  O2-  O163  1  0.02143332  0.73516222  0.61747585  1
  O2-  O164  1  0.47657581  0.24091266  0.11511516  1
  O2-  O165  1  0.49795816  0.24330101  0.62515317  1
  O2-  O166  1  0.52351473  0.73437219  0.11308903  1
  O2-  O167  1  0.53775767  0.74337932  0.61444750  1
  O2-  O168  1  0.23343508  0.01805325  0.38214810  1
  O2-  O169  1  0.21965237  0.00797082  0.88363337  1
  O2-  O170  1  0.25847188  0.52980026  0.38608584  1
  O2-  O171  1  0.24153594  0.53614599  0.88632630  1
  O2-  O172  1  0.72111073  0.01035074  0.38513563  1
  O2-  O173  1  0.72670586  0.00793975  0.87087846  1
  O2-  O174  1  0.75090897  0.51367622  0.37674100  1
  O2-  O175  1  0.74074539  0.51687811  0.87660724  1
  O2-  O176  1  0.00372568  0.27666322  0.36705499  1
  O2-  O177  1  0.00090616  0.27540926  0.88463683  1
  O2-  O178  1  -0.03358438  0.76057778  0.38148356  1
  O2-  O179  1  -0.01982241  0.75602520  0.88799641  1
  O2-  O180  1  0.51316983  0.27818652  0.38602300  1
  O2-  O181  1  0.51981470  0.26904431  0.86441091  1
  O2-  O182  1  0.46643108  0.75676190  0.38505948  1
  O2-  O183  1  0.48346548  0.74183022  0.88474042  1
  O2-  O184  1  0.28436211  -0.01722594  0.11335217  1
  O2-  O185  1  0.27267478  -0.02337160  0.61847607  1
  O2-  O186  1  0.25557812  0.48120549  0.11383343  1
  O2-  O187  1  0.25933665  0.47638228  0.61870068  1
  O2-  O188  1  0.78023040  -0.01466311  0.11352889  1
  O2-  O189  1  0.77007627  -0.00676068  0.63326255  1
  O2-  O190  1  0.75074944  0.48595642  0.12532004  1
  O2-  O191  1  0.74162767  0.48464086  0.63104085  1
  O2-  O192  1  0.11874700  0.27383285  0.23899342  1
  O2-  O193  1  0.13053060  0.27233543  0.74305866  1
  O2-  O194  1  0.13397617  0.77333532  0.26828147  1
  O2-  O195  1  0.13411234  0.76697962  0.78017510  1
  O2-  O196  1  0.63648421  0.28455391  0.24974943  1
  O2-  O197  1  0.62822545  0.26329314  0.72774396  1
  O2-  O198  1  0.63853874  0.76303658  0.25907647  1
  O2-  O199  1  0.63617221  0.76266590  0.78505116  1
  O2-  O200  1  0.36756589  0.23049626  0.26536567  1
  O2-  O201  1  0.38515182  0.23467557  0.75799290  1
  O2-  O202  1  0.36443453  0.73291001  0.21701406  1
  O2-  O203  1  0.36531303  0.71725258  0.74003030  1
  O2-  O204  1  0.87321263  0.24149089  0.25960337  1
  O2-  O205  1  0.85914171  0.22233074  0.75281827  1
  O2-  O206  1  0.86474370  0.73045874  0.21274520  1
  O2-  O207  1  0.85977588  0.72065086  0.74363657  1
  O2-  O208  1  0.26499606  0.36795228  0.27988651  1
  O2-  O209  1  0.27024078  0.36415871  0.78038639  1
  O2-  O210  1  0.27366742  0.86486349  0.26675285  1
  O2-  O211  1  0.27930271  0.86174677  0.77458833  1
  O2-  O212  1  0.77174756  0.38280245  0.26921205  1
  O2-  O213  1  0.76546622  0.37144345  0.76456939  1
  O2-  O214  1  0.77612276  0.86282107  0.27166654  1
  O2-  O215  1  0.76789086  0.87287559  0.76805990  1
  O2-  O216  1  0.23245296  0.13641601  0.22129720  1
  O2-  O217  1  0.23879239  0.13286807  0.72520689  1
  O2-  O218  1  0.22545655  0.63405355  0.22187040  1
  O2-  O219  1  0.22171524  0.63106781  0.73052260  1
  O2-  O220  1  0.73223982  0.14019241  0.23383756  1
  O2-  O221  1  0.72645144  0.12237797  0.73712184  1
  O2-  O222  1  0.73358002  0.61790629  0.23526854  1
  O2-  O223  1  0.72112117  0.61889420  0.73944498  1
  O2-  O224  1  0.11298297  0.47117133  0.25111066  1
  O2-  O225  1  0.11437211  0.46292553  0.75511783  1
  O2-  O226  1  0.11389994  0.99353126  0.22995947  1
  O2-  O227  1  0.11299199  0.98093024  0.72159596  1
  O2-  O228  1  0.63178355  0.47818137  0.25090717  1
  O2-  O229  1  0.62863892  0.46885218  0.75750831  1
  O2-  O230  1  0.62146852  0.97561706  0.22404908  1
  O2-  O231  1  0.63010861  0.97907071  0.73528853  1
  O2-  O232  1  0.38610115  0.02754931  0.26905389  1
  O2-  O233  1  0.38439685  0.02328306  0.76759539  1
  O2-  O234  1  0.38790065  0.52874389  0.25112884  1
  O2-  O235  1  0.39031787  0.51473511  0.75492074  1
  O2-  O236  1  0.88244093  0.02977138  0.26914521  1
  O2-  O237  1  0.86413683  0.01605193  0.77234607  1
  O2-  O238  1  0.87062902  0.51767524  0.24189443  1
  O2-  O239  1  0.86137775  0.51845245  0.75421684  1
  O2-  O240  1  0.48216098  0.38658011  0.23967375  1
  O2-  O241  1  0.48942563  0.37388083  0.73644360  1
  O2-  O242  1  0.48027326  0.88295513  0.22867865  1
  O2-  O243  1  0.48180570  0.88500835  0.72990439  1
  O2-  O244  1  0.97671569  0.37543675  0.22853820  1
  O2-  O245  1  0.95782635  0.38532167  0.74217125  1
  O2-  O246  1  0.97455376  0.88507718  0.22368173  1
  O2-  O247  1  0.96572084  0.88345549  0.73595750  1
  O2-  O248  1  0.01348147  0.13878611  0.26419512  1
  O2-  O249  1  0.00968027  0.11479977  0.77602375  1
  O2-  O250  1  0.01755817  0.61155540  0.26806321  1
  O2-  O251  1  0.00764334  0.61020953  0.77165537  1
  O2-  O252  1  0.53741139  0.11808827  0.25970943  1
  O2-  O253  1  0.52446169  0.13248877  0.76091268  1
  O2-  O254  1  0.53366162  0.61384397  0.26802883  1
  O2-  O255  1  0.53287513  0.60985466  0.76029478  1
  O2-  O256  1  0.12145257  0.48790755  0.00485461  1
  O2-  O257  1  0.13551482  0.46953565  0.49516925  1
  O2-  O258  1  0.13593141  0.96702344  0.02286879  1
  O2-  O259  1  0.13162335  0.98139250  0.51798053  1
  O2-  O260  1  0.62421742  0.48434334  0.00296304  1
  O2-  O261  1  0.62675595  0.47492494  0.50026898  1
  O2-  O262  1  0.63784355  0.96756666  0.01276821  1
  O2-  O263  1  0.63608850  0.99274636  0.53364711  1
  O2-  O264  1  0.36374514  0.00941441  -0.03427668  1
  O2-  O265  1  0.36880392  0.02790812  0.48785874  1
  O2-  O266  1  0.37664838  0.51988673  -0.00318163  1
  O2-  O267  1  0.38793594  0.51660167  0.50705307  1
  O2-  O268  1  0.86420275  0.00980128  -0.03237554  1
  O2-  O269  1  0.86080374  0.03186377  0.48922694  1
  O2-  O270  1  0.86951910  0.51835469  -0.00454787  1
  O2-  O271  1  0.86228808  0.51949686  0.51431002  1
  O2-  O272  1  0.47786103  0.38541510  0.01615744  1
  O2-  O273  1  0.49018178  0.37784660  0.51912429  1
  O2-  O274  1  0.48293793  0.86192297  0.00822616  1
  O2-  O275  1  0.48106141  0.86941497  0.51952666  1
  O2-  O276  1  0.97602529  0.38319397  0.01427775  1
  O2-  O277  1  0.96315906  0.36339283  0.51179090  1
  O2-  O278  1  0.98224030  0.86238869  0.02323237  1
  O2-  O279  1  0.97702810  0.86870575  0.51511795  1
  O2-  O280  1  0.02517526  0.13643598  -0.01672214  1
  O2-  O281  1  0.01366532  0.14110131  0.46683629  1
  O2-  O282  1  0.00770977  0.61839174  -0.01466351  1
  O2-  O283  1  0.02017918  0.62957334  0.47910532  1
  O2-  O284  1  0.52868826  0.13773139  -0.01161444  1
  O2-  O285  1  0.53553347  0.14083502  0.48872732  1
  O2-  O286  1  0.51670790  0.61767787  -0.00822730  1
  O2-  O287  1  0.52661796  0.61456649  0.48833976  1
  O2-  O288  1  0.11496026  0.28219903  0.01147708  1
  O2-  O289  1  0.11456518  0.28422275  0.50664622  1
  O2-  O290  1  0.12540632  0.75579564  -0.01957785  1
  O2-  O291  1  0.11699994  0.77006077  0.47618191  1
  O2-  O292  1  0.61172157  0.28813694  0.00765680  1
  O2-  O293  1  0.63181266  0.27640924  0.50775484  1
  O2-  O294  1  0.62903044  0.75994758  -0.01970676  1
  O2-  O295  1  0.61567937  0.76497847  0.46278812  1
  O2-  O296  1  0.38867554  0.24724673  -0.03247405  1
  O2-  O297  1  0.38770800  0.23131653  0.49125444  1
  O2-  O298  1  0.37516130  0.72899526  0.01798834  1
  O2-  O299  1  0.39003747  0.72017658  0.52883873  1
  O2-  O300  1  0.88249257  0.23308338  -0.00061721  1
  O2-  O301  1  0.86839065  0.23380363  0.49071230  1
  O2-  O302  1  0.87446724  0.72946170  0.02058175  1
  O2-  O303  1  0.88164216  0.72309337  0.52228951  1
  O2-  O304  1  0.26207387  0.38934961  -0.03195281  1
  O2-  O305  1  0.28237348  0.38352884  0.47883487  1
  O2-  O306  1  0.26772782  0.86296725  -0.02110906  1
  O2-  O307  1  0.27403566  0.88220147  0.47537886  1
  O2-  O308  1  0.76514072  0.38749362  -0.01786260  1
  O2-  O309  1  0.76630798  0.37840729  0.48943769  1
  O2-  O310  1  0.77119353  0.86433825  -0.01707091  1
  O2-  O311  1  0.77196555  0.88632140  0.49015603  1
  O2-  O312  1  0.23071077  0.11603506  0.02189171  1
  O2-  O313  1  0.23303439  0.11753109  0.52733468  1
  O2-  O314  1  0.23814789  0.62666476  0.02521591  1
  O2-  O315  1  0.23653501  0.61381855  0.52623883  1
  O2-  O316  1  0.72713584  0.11455101  0.01659168  1
  O2-  O317  1  0.72989009  0.13460474  0.51519643  1
  O2-  O318  1  0.73398872  0.62194644  0.01664424  1
  O2-  O319  1  0.72106350  0.61380890  0.51224558  1
