# generated using pymatgen
data_Sr64Ca21Nb43O192
_symmetry_space_group_name_H-M   'P 1'
_cell_length_a   16.60545521
_cell_length_b   16.62764892
_cell_length_c   16.74310048
_cell_angle_alpha   90.04126431
_cell_angle_beta   89.95986625
_cell_angle_gamma   90.00406283
_symmetry_Int_Tables_number   1
_chemical_formula_structural   Sr64Ca21Nb43O192
_chemical_formula_sum   'Sr64 Ca21 Nb43 O192'
_cell_volume   4622.92976161
_cell_formula_units_Z   1
loop_
 _symmetry_equiv_pos_site_id
 _symmetry_equiv_pos_as_xyz
  1  'x, y, z'
loop_
 _atom_type_symbol
 _atom_type_oxidation_number
  Sr2+  2.0
  Ca2+  2.0
  Nb5+  5.0
  O2-  -2.0
loop_
 _atom_site_type_symbol
 _atom_site_label
 _atom_site_symmetry_multiplicity
 _atom_site_fract_x
 _atom_site_fract_y
 _atom_site_fract_z
 _atom_site_occupancy
  Sr2+  Sr0  1  0.13062850  0.14137739  0.12382037  1
  Sr2+  Sr1  1  0.13400239  0.12712824  0.62748178  1
  Sr2+  Sr2  1  0.13010970  0.62759577  0.12947088  1
  Sr2+  Sr3  1  0.13082542  0.64029227  0.62504577  1
  Sr2+  Sr4  1  0.63077903  0.14180709  0.12041178  1
  Sr2+  Sr5  1  0.63138113  0.13850453  0.62421528  1
  Sr2+  Sr6  1  0.63226229  0.62404986  0.12845987  1
  Sr2+  Sr7  1  0.63009082  0.61206985  0.62952952  1
  Sr2+  Sr8  1  0.36956832  0.37178046  0.12232606  1
  Sr2+  Sr9  1  0.38911378  0.38651165  0.63232922  1
  Sr2+  Sr10  1  0.38431406  0.88125319  0.12160516  1
  Sr2+  Sr11  1  0.37557403  0.88992661  0.62313485  1
  Sr2+  Sr12  1  0.87787913  0.38914395  0.12434985  1
  Sr2+  Sr13  1  0.88020265  0.38907508  0.62536032  1
  Sr2+  Sr14  1  0.88507937  0.88484353  0.12513066  1
  Sr2+  Sr15  1  0.88077410  0.86955771  0.64654264  1
  Sr2+  Sr16  1  0.10908204  0.37020285  0.37426918  1
  Sr2+  Sr17  1  0.11055731  0.36231070  0.87095314  1
  Sr2+  Sr18  1  0.12231210  0.85539831  0.37780901  1
  Sr2+  Sr19  1  0.09940456  0.86665845  0.88321233  1
  Sr2+  Sr20  1  0.61861402  0.35991037  0.37342488  1
  Sr2+  Sr21  1  0.60525089  0.37166669  0.87241236  1
  Sr2+  Sr22  1  0.61412589  0.87165616  0.37517476  1
  Sr2+  Sr23  1  0.62568644  0.87008173  0.87973893  1
  Sr2+  Sr24  1  0.37182420  0.11528042  0.37587960  1
  Sr2+  Sr25  1  0.36720939  0.12308961  0.88196114  1
  Sr2+  Sr26  1  0.36389417  0.62556480  0.37283291  1
  Sr2+  Sr27  1  0.37006072  0.61926664  0.86315537  1
  Sr2+  Sr28  1  0.87001610  0.12519895  0.37881172  1
  Sr2+  Sr29  1  0.86806837  0.11745305  0.87287959  1
  Sr2+  Sr30  1  0.87385223  0.61402616  0.38003881  1
  Sr2+  Sr31  1  0.87493194  0.63536738  0.87265496  1
  Sr2+  Sr32  1  0.10767704  0.11396763  0.37655931  1
  Sr2+  Sr33  1  0.11956069  0.11821141  0.88006039  1
  Sr2+  Sr34  1  0.12419074  0.60902072  0.37573169  1
  Sr2+  Sr35  1  0.11797366  0.61788759  0.88376524  1
  Sr2+  Sr36  1  0.62461083  0.12004599  0.38134372  1
  Sr2+  Sr37  1  0.62027569  0.11586015  0.87655656  1
  Sr2+  Sr38  1  0.61797492  0.62953279  0.37378281  1
  Sr2+  Sr39  1  0.61825345  0.61028308  0.87136909  1
  Sr2+  Sr40  1  0.36025926  0.36702636  0.37270438  1
  Sr2+  Sr41  1  0.36750264  0.35804421  0.86588882  1
  Sr2+  Sr42  1  0.37264477  0.86143739  0.37350905  1
  Sr2+  Sr43  1  0.37105367  0.87186017  0.87781286  1
  Sr2+  Sr44  1  0.87278195  0.36686640  0.38102536  1
  Sr2+  Sr45  1  0.87256447  0.36492144  0.87356503  1
  Sr2+  Sr46  1  0.87027745  0.89020452  0.37259948  1
  Sr2+  Sr47  1  0.86395123  0.86910235  0.87972932  1
  Sr2+  Sr48  1  0.13076482  0.37916251  0.11453712  1
  Sr2+  Sr49  1  0.13225222  0.38549194  0.63332802  1
  Sr2+  Sr50  1  0.12000820  0.87301163  0.12416015  1
  Sr2+  Sr51  1  0.13940794  0.87683710  0.62354153  1
  Sr2+  Sr52  1  0.63818182  0.38413994  0.11779945  1
  Sr2+  Sr53  1  0.62994701  0.37492243  0.62215398  1
  Sr2+  Sr54  1  0.63013967  0.87341359  0.13170407  1
  Sr2+  Sr55  1  0.63449184  0.87584071  0.63887341  1
  Sr2+  Sr56  1  0.37238113  0.13306644  0.11755901  1
  Sr2+  Sr57  1  0.39146148  0.13048514  0.62328868  1
  Sr2+  Sr58  1  0.38199965  0.62892301  0.12701965  1
  Sr2+  Sr59  1  0.38805229  0.63634932  0.63144256  1
  Sr2+  Sr60  1  0.89101139  0.13478518  0.13134764  1
  Sr2+  Sr61  1  0.88139334  0.13385167  0.62934173  1
  Sr2+  Sr62  1  0.88160594  0.63763845  0.12793595  1
  Sr2+  Sr63  1  0.89489938  0.62928648  0.62530388  1
  Ca2+  Ca64  1  -0.00360303  0.00275985  -0.00035577  1
  Ca2+  Ca65  1  -0.00278174  -0.00423936  0.50359891  1
  Ca2+  Ca66  1  0.50199258  0.50214393  0.49560385  1
  Ca2+  Ca67  1  -0.00149722  0.50064927  0.00258313  1
  Ca2+  Ca68  1  0.49932093  0.49942224  0.00313809  1
  Ca2+  Ca69  1  0.24975317  0.25085555  0.49940628  1
  Ca2+  Ca70  1  0.74853785  0.75315830  0.50024609  1
  Ca2+  Ca71  1  0.24809947  0.75155927  0.00307522  1
  Ca2+  Ca72  1  0.74668054  0.74713762  0.00375615  1
  Ca2+  Ca73  1  0.74901541  0.25215596  -0.00088932  1
  Ca2+  Ca74  1  -0.00137912  0.74818535  0.25602286  1
  Ca2+  Ca75  1  0.24832087  0.50093395  0.74945976  1
  Ca2+  Ca76  1  0.25175909  -0.00016584  0.75246714  1
  Ca2+  Ca77  1  0.49939036  0.75264302  0.75086729  1
  Ca2+  Ca78  1  0.75425086  0.49778570  0.75088550  1
  Ca2+  Ca79  1  0.49985962  0.24564854  0.74951139  1
  Ca2+  Ca80  1  0.00364452  0.74825281  0.74989039  1
  Ca2+  Ca81  1  0.25163921  -0.00001739  0.24824343  1
  Ca2+  Ca82  1  0.00033682  0.25240938  0.24924614  1
  Ca2+  Ca83  1  0.49950823  0.24748767  0.24809065  1
  Ca2+  Ca84  1  -0.00165504  0.24690143  0.74693351  1
  Nb5+  Nb85  1  0.00435487  0.49741094  0.50146102  1
  Nb5+  Nb86  1  0.50323736  -0.00078351  0.50626448  1
  Nb5+  Nb87  1  0.50215207  -0.00059657  0.00714306  1
  Nb5+  Nb88  1  0.24686435  0.25162841  -0.00387615  1
  Nb5+  Nb89  1  0.25378735  0.74798746  0.50159764  1
  Nb5+  Nb90  1  0.75172904  0.25009919  0.50020767  1
  Nb5+  Nb91  1  0.74972039  0.00186308  0.75602007  1
  Nb5+  Nb92  1  0.74384234  0.50279179  0.25688721  1
  Nb5+  Nb93  1  0.50157277  0.75067270  0.24813606  1
  Nb5+  Nb94  1  0.74598083  0.00946785  0.25145685  1
  Nb5+  Nb95  1  0.24432378  0.49781083  0.25063134  1
  Nb5+  Nb96  1  0.00635189  -0.00489120  0.25087420  1
  Nb5+  Nb97  1  0.00545095  -0.00464701  0.74954634  1
  Nb5+  Nb98  1  -0.00699210  0.49892532  0.25081586  1
  Nb5+  Nb99  1  -0.00189059  0.50189943  0.75672866  1
  Nb5+  Nb100  1  0.50251971  0.00305277  0.25272126  1
  Nb5+  Nb101  1  0.49766101  0.00313452  0.75818313  1
  Nb5+  Nb102  1  0.49260522  0.49765343  0.25395677  1
  Nb5+  Nb103  1  0.50070888  0.50125968  0.74972550  1
  Nb5+  Nb104  1  0.24443600  0.24689692  0.25507108  1
  Nb5+  Nb105  1  0.25007389  0.24489748  0.74124500  1
  Nb5+  Nb106  1  0.25124434  0.75199850  0.24688466  1
  Nb5+  Nb107  1  0.24698107  0.75502101  0.76026185  1
  Nb5+  Nb108  1  0.75304542  0.25773601  0.24773226  1
  Nb5+  Nb109  1  0.74807721  0.25301913  0.75338103  1
  Nb5+  Nb110  1  0.75343819  0.75514027  0.25521046  1
  Nb5+  Nb111  1  0.74463238  0.74435260  0.75155804  1
  Nb5+  Nb112  1  0.00611502  0.24917279  0.50522169  1
  Nb5+  Nb113  1  -0.00716082  0.24809980  0.99664048  1
  Nb5+  Nb114  1  -0.00488964  0.75010131  0.49436236  1
  Nb5+  Nb115  1  -0.00239844  0.74698594  1.00479742  1
  Nb5+  Nb116  1  0.49590570  0.25228959  0.49318035  1
  Nb5+  Nb117  1  0.49834059  0.25338476  1.00009336  1
  Nb5+  Nb118  1  0.50321222  0.75459134  0.50253305  1
  Nb5+  Nb119  1  0.50200156  0.74558746  0.99862431  1
  Nb5+  Nb120  1  0.24677070  -0.00258691  0.00233388  1
  Nb5+  Nb121  1  0.24496473  0.00047811  0.49073882  1
  Nb5+  Nb122  1  0.25634369  0.49914973  -0.00747243  1
  Nb5+  Nb123  1  0.25689994  0.50184991  0.50352463  1
  Nb5+  Nb124  1  0.74705277  0.00525736  0.01018965  1
  Nb5+  Nb125  1  0.74979734  0.00271337  0.50807499  1
  Nb5+  Nb126  1  0.75542031  0.50067978  -0.00609381  1
  Nb5+  Nb127  1  0.74745673  0.49933602  0.49737596  1
  O2-  O128  1  0.00742934  -0.02577548  0.13362340  1
  O2-  O129  1  0.00708940  -0.04001387  0.63353360  1
  O2-  O130  1  0.01356201  0.47249556  0.14002660  1
  O2-  O131  1  0.01165877  0.47362251  0.61505964  1
  O2-  O132  1  0.51698471  -0.02536386  0.11992688  1
  O2-  O133  1  0.51779909  -0.02539000  0.61635964  1
  O2-  O134  1  0.52855154  0.48793200  0.14344066  1
  O2-  O135  1  0.52138756  0.47895184  0.62960436  1
  O2-  O136  1  -0.02534314  0.01939047  0.36425328  1
  O2-  O137  1  -0.01683781  0.02632537  0.86349905  1
  O2-  O138  1  -0.00864419  0.51899025  0.37781565  1
  O2-  O139  1  -0.01420347  0.53068961  0.86720218  1
  O2-  O140  1  0.49638722  0.02044581  0.36750742  1
  O2-  O141  1  0.48864339  0.02656502  0.87111548  1
  O2-  O142  1  0.49391088  0.53975217  0.36335994  1
  O2-  O143  1  0.48819565  0.52791476  0.86741886  1
  O2-  O144  1  0.26323928  0.24077798  0.12534172  1
  O2-  O145  1  0.26515747  0.21706689  0.63075614  1
  O2-  O146  1  0.25922306  0.71679334  0.13708322  1
  O2-  O147  1  0.26763821  0.72866608  0.61374221  1
  O2-  O148  1  0.76701477  0.23420945  0.13538847  1
  O2-  O149  1  0.76210124  0.23511068  0.61616485  1
  O2-  O150  1  0.74980471  0.72705201  0.14128265  1
  O2-  O151  1  0.74786183  0.75414009  0.63345301  1
  O2-  O152  1  0.23250933  0.27940474  0.36611583  1
  O2-  O153  1  0.23587883  0.26982384  0.88085563  1
  O2-  O154  1  0.24688230  0.76060021  0.37059175  1
  O2-  O155  1  0.23304958  0.78554324  0.86891403  1
  O2-  O156  1  0.73434975  0.25597657  0.37380965  1
  O2-  O157  1  0.72558819  0.26758946  0.86447391  1
  O2-  O158  1  0.72156207  0.75806366  0.36695110  1
  O2-  O159  1  0.75199488  0.76491786  0.86864162  1
  O2-  O160  1  -0.02315898  0.27119652  0.11373091  1
  O2-  O161  1  -0.03551560  0.26504214  0.61299724  1
  O2-  O162  1  -0.01842487  0.76666390  0.12257082  1
  O2-  O163  1  -0.01070840  0.75913195  0.61078366  1
  O2-  O164  1  0.46905312  0.25506321  0.11516396  1
  O2-  O165  1  0.48461493  0.26077390  0.61073624  1
  O2-  O166  1  0.48999851  0.77485971  0.13339576  1
  O2-  O167  1  0.47456199  0.77397122  0.61185859  1
  O2-  O168  1  0.28854413  -0.01407131  0.38153848  1
  O2-  O169  1  0.28314290  -0.00494329  0.88912097  1
  O2-  O170  1  0.26842739  0.49279714  0.37731243  1
  O2-  O171  1  0.28782795  0.48580774  0.88435795  1
  O2-  O172  1  0.76261073  0.00226295  0.36755929  1
  O2-  O173  1  0.76405420  -0.00262415  0.87158592  1
  O2-  O174  1  0.77920143  0.48886079  0.37383629  1
  O2-  O175  1  0.78850432  0.49774340  0.88501845  1
  O2-  O176  1  0.01567932  0.23553596  0.38663188  1
  O2-  O177  1  0.02485845  0.23250464  0.88152723  1
  O2-  O178  1  0.03068511  0.72195472  0.38615493  1
  O2-  O179  1  0.01340029  0.72793880  0.88447493  1
  O2-  O180  1  0.52714800  0.22974109  0.38143140  1
  O2-  O181  1  0.51468955  0.22536886  0.88597735  1
  O2-  O182  1  0.51149487  0.74551890  0.37251854  1
  O2-  O183  1  0.51098021  0.72334562  0.88729071  1
  O2-  O184  1  0.23853652  0.03204342  0.11519778  1
  O2-  O185  1  0.23289507  0.00513955  0.60837574  1
  O2-  O186  1  0.22609348  0.50729662  0.13603871  1
  O2-  O187  1  0.22073218  0.51621833  0.61203693  1
  O2-  O188  1  0.71983343  0.00848339  0.12427002  1
  O2-  O189  1  0.72490569  0.00643574  0.62103039  1
  O2-  O190  1  0.73195254  0.50324954  0.14146850  1
  O2-  O191  1  0.73242665  0.49571226  0.61190663  1
  O2-  O192  1  0.13438998  0.27985102  0.22629307  1
  O2-  O193  1  0.13353632  0.27299751  0.73270689  1
  O2-  O194  1  0.13659428  0.76959962  0.24013209  1
  O2-  O195  1  0.13589627  0.76663990  0.72050563  1
  O2-  O196  1  0.63583945  0.27443744  0.23234065  1
  O2-  O197  1  0.63428998  0.26320299  0.72121726  1
  O2-  O198  1  0.62056073  0.76600045  0.24141384  1
  O2-  O199  1  0.63114892  0.78159434  0.75308738  1
  O2-  O200  1  0.36273430  0.23099017  0.26720758  1
  O2-  O201  1  0.36466233  0.22533965  0.77218876  1
  O2-  O202  1  0.38036944  0.73369540  0.26224239  1
  O2-  O203  1  0.36419618  0.72859617  0.76288977  1
  O2-  O204  1  0.86473235  0.22535235  0.26916333  1
  O2-  O205  1  0.86106609  0.21774188  0.76345734  1
  O2-  O206  1  0.86284829  0.72411051  0.27218749  1
  O2-  O207  1  0.86533834  0.73071592  0.74988547  1
  O2-  O208  1  0.27736965  0.38420954  0.24207859  1
  O2-  O209  1  0.27545806  0.36316174  0.73074147  1
  O2-  O210  1  0.27730434  0.86324257  0.23025996  1
  O2-  O211  1  0.27171421  0.86613638  0.72374989  1
  O2-  O212  1  0.77474532  0.37420632  0.24607133  1
  O2-  O213  1  0.77671969  0.36293097  0.73544780  1
  O2-  O214  1  0.76761088  0.87093323  0.24048784  1
  O2-  O215  1  0.76391100  0.88473580  0.74238457  1
  O2-  O216  1  0.21834516  0.13573200  0.26983118  1
  O2-  O217  1  0.21889052  0.13233748  0.76974747  1
  O2-  O218  1  0.24182829  0.61869101  0.26897172  1
  O2-  O219  1  0.22697397  0.63587996  0.77476572  1
  O2-  O220  1  0.72396603  0.12206551  0.25582579  1
  O2-  O221  1  0.72470790  0.12088933  0.75541585  1
  O2-  O222  1  0.73082794  0.61771464  0.26918747  1
  O2-  O223  1  0.71908985  0.63201107  0.75701465  1
  O2-  O224  1  0.13123036  0.48277928  0.27285556  1
  O2-  O225  1  0.11417417  0.47270497  0.76375522  1
  O2-  O226  1  0.11672269  0.97176693  0.27195926  1
  O2-  O227  1  0.11621069  0.97426279  0.76984455  1
  O2-  O228  1  0.63199510  0.48169128  0.27781577  1
  O2-  O229  1  0.61960209  0.48265472  0.77182943  1
  O2-  O230  1  0.62966857  0.97159193  0.25919239  1
  O2-  O231  1  0.62491680  0.98196683  0.76475719  1
  O2-  O232  1  0.39099759  0.01927501  0.22882540  1
  O2-  O233  1  0.38702151  0.01841447  0.72425819  1
  O2-  O234  1  0.37925203  0.51902957  0.23531617  1
  O2-  O235  1  0.38342683  0.52042759  0.72655240  1
  O2-  O236  1  0.85956003  0.01455160  0.22534962  1
  O2-  O237  1  0.86291037  0.01881286  0.72944173  1
  O2-  O238  1  0.87715616  0.51837568  0.23907758  1
  O2-  O239  1  0.88473671  0.51888347  0.72095550  1
  O2-  O240  1  0.48219503  0.38683460  0.27915968  1
  O2-  O241  1  0.48021873  0.38223312  0.76773418  1
  O2-  O242  1  0.48827805  0.87811489  0.26548164  1
  O2-  O243  1  0.48095097  0.88722453  0.76843813  1
  O2-  O244  1  0.98482995  0.38526540  0.28093598  1
  O2-  O245  1  0.97312567  0.38338020  0.76614354  1
  O2-  O246  1  0.96757959  0.88261357  0.26484486  1
  O2-  O247  1  0.96839896  0.88236648  0.77418177  1
  O2-  O248  1  0.01577925  0.11328639  0.22945667  1
  O2-  O249  1  0.01336248  0.10964170  0.71568620  1
  O2-  O250  1  0.02430520  0.61224870  0.23796424  1
  O2-  O251  1  0.02124508  0.61308806  0.72051948  1
  O2-  O252  1  0.53397069  0.11107545  0.22898997  1
  O2-  O253  1  0.52277973  0.11248373  0.72115038  1
  O2-  O254  1  0.51602959  0.63441447  0.23134335  1
  O2-  O255  1  0.52033461  0.61936848  0.72481501  1
  O2-  O256  1  0.13974592  0.47826379  -0.01534200  1
  O2-  O257  1  0.12287062  0.48364582  0.47895870  1
  O2-  O258  1  0.13452787  0.98496225  -0.02169577  1
  O2-  O259  1  0.13461137  0.97602121  0.46825449  1
  O2-  O260  1  0.63639747  0.46907046  -0.01576263  1
  O2-  O261  1  0.63759627  0.47239013  0.47371119  1
  O2-  O262  1  0.62062737  0.98849553  -0.02153047  1
  O2-  O263  1  0.62607917  0.98910927  0.47802633  1
  O2-  O264  1  0.38363674  0.01527131  0.01912135  1
  O2-  O265  1  0.38501386  0.01936353  0.51559231  1
  O2-  O266  1  0.36477502  0.50570712  0.04112559  1
  O2-  O267  1  0.36709273  0.53231179  0.51787648  1
  O2-  O268  1  0.85996736  0.02698556  0.02137605  1
  O2-  O269  1  0.86152977  0.03245622  0.51140177  1
  O2-  O270  1  0.86405889  0.52373954  0.03627970  1
  O2-  O271  1  0.87754459  0.51078311  0.51033333  1
  O2-  O272  1  0.47870383  0.36479353  -0.02353002  1
  O2-  O273  1  0.48137483  0.36552912  0.47414582  1
  O2-  O274  1  0.48570610  0.88550254  -0.02577698  1
  O2-  O275  1  0.48231901  0.88554494  0.47304170  1
  O2-  O276  1  0.98768488  0.36678779  -0.02609854  1
  O2-  O277  1  0.98549763  0.37666231  0.47968836  1
  O2-  O278  1  0.97426035  0.86640575  -0.01782673  1
  O2-  O279  1  0.98721069  0.86166975  0.46741215  1
  O2-  O280  1  0.02078632  0.13516504  0.02396593  1
  O2-  O281  1  0.02230217  0.13322570  0.51827793  1
  O2-  O282  1  0.02758636  0.63169665  0.02538870  1
  O2-  O283  1  0.01616448  0.61593231  0.51906054  1
  O2-  O284  1  0.51442440  0.11904521  0.01756719  1
  O2-  O285  1  0.52151876  0.11853224  0.51278371  1
  O2-  O286  1  0.51191544  0.63669309  0.03401022  1
  O2-  O287  1  0.52788736  0.64223108  0.51449786  1
  O2-  O288  1  0.13011403  0.26464471  0.01644951  1
  O2-  O289  1  0.11611162  0.27544178  0.52624619  1
  O2-  O290  1  0.11563750  0.77715959  0.01511823  1
  O2-  O291  1  0.13455208  0.76592621  0.51186769  1
  O2-  O292  1  0.61181851  0.26657321  0.02419791  1
  O2-  O293  1  0.62879571  0.26679646  0.51156561  1
  O2-  O294  1  0.61242306  0.78239555  0.01386779  1
  O2-  O295  1  0.61216612  0.79047973  0.50883169  1
  O2-  O296  1  0.36956311  0.23352188  -0.01508483  1
  O2-  O297  1  0.38474833  0.22275701  0.47743716  1
  O2-  O298  1  0.38489568  0.75445568  0.00021785  1
  O2-  O299  1  0.37622114  0.73765702  0.47868912  1
  O2-  O300  1  0.88134060  0.22773336  -0.02597818  1
  O2-  O301  1  0.86870887  0.23422536  0.47980744  1
  O2-  O302  1  0.88050435  0.71941374  -0.00466480  1
  O2-  O303  1  0.88380855  0.72343561  0.48251268  1
  O2-  O304  1  0.26602084  0.37084958  0.01537983  1
  O2-  O305  1  0.27877369  0.38832849  0.51461373  1
  O2-  O306  1  0.26528413  0.88778867  0.02991114  1
  O2-  O307  1  0.26943296  0.86935943  0.50713922  1
  O2-  O308  1  0.77341028  0.38413104  0.01979151  1
  O2-  O309  1  0.76978018  0.36890293  0.50414467  1
  O2-  O310  1  0.76181379  0.88843360  0.00651024  1
  O2-  O311  1  0.77464837  0.89089843  0.49995979  1
  O2-  O312  1  0.23684257  0.13171799  -0.01485618  1
  O2-  O313  1  0.22950459  0.11422538  0.47501895  1
  O2-  O314  1  0.24133153  0.61439484  -0.01747267  1
  O2-  O315  1  0.23504094  0.62918709  0.47915484  1
  O2-  O316  1  0.72163903  0.11784052  -0.01451973  1
  O2-  O317  1  0.72892627  0.12766724  0.48851837  1
  O2-  O318  1  0.71456072  0.61255182  -0.00458059  1
  O2-  O319  1  0.73010108  0.61316310  0.48763581  1
