# generated using pymatgen
data_Sr64Ca21Nb43O192
_symmetry_space_group_name_H-M   'P 1'
_cell_length_a   16.56513374
_cell_length_b   16.59251053
_cell_length_c   16.74176813
_cell_angle_alpha   90.06932247
_cell_angle_beta   90.02048822
_cell_angle_gamma   90.07070121
_symmetry_Int_Tables_number   1
_chemical_formula_structural   Sr64Ca21Nb43O192
_chemical_formula_sum   'Sr64 Ca21 Nb43 O192'
_cell_volume   4601.58760396
_cell_formula_units_Z   1
loop_
 _symmetry_equiv_pos_site_id
 _symmetry_equiv_pos_as_xyz
  1  'x, y, z'
loop_
 _atom_type_symbol
 _atom_type_oxidation_number
  Sr2+  2.0
  Ca2+  2.0
  Nb5+  5.0
  O2-  -2.0
loop_
 _atom_site_type_symbol
 _atom_site_label
 _atom_site_symmetry_multiplicity
 _atom_site_fract_x
 _atom_site_fract_y
 _atom_site_fract_z
 _atom_site_occupancy
  Sr2+  Sr0  1  0.12904132  0.12329967  0.12620938  1
  Sr2+  Sr1  1  0.13335211  0.11123333  0.62612103  1
  Sr2+  Sr2  1  0.13085051  0.61665986  0.14127114  1
  Sr2+  Sr3  1  0.12864164  0.62310298  0.62636024  1
  Sr2+  Sr4  1  0.62721366  0.10777620  0.12775241  1
  Sr2+  Sr5  1  0.62927322  0.11520916  0.62972046  1
  Sr2+  Sr6  1  0.61784302  0.64273995  0.12231630  1
  Sr2+  Sr7  1  0.63178073  0.64182237  0.62299528  1
  Sr2+  Sr8  1  0.38095897  0.38788757  0.13299511  1
  Sr2+  Sr9  1  0.38000924  0.37367245  0.62714901  1
  Sr2+  Sr10  1  0.38768796  0.85841892  0.12977075  1
  Sr2+  Sr11  1  0.38745744  0.87471891  0.62460976  1
  Sr2+  Sr12  1  0.88643603  0.38905991  0.12610413  1
  Sr2+  Sr13  1  0.88233201  0.38105087  0.62019325  1
  Sr2+  Sr14  1  0.88178848  0.86804100  0.12788039  1
  Sr2+  Sr15  1  0.88432898  0.86677683  0.62022793  1
  Sr2+  Sr16  1  0.10316063  0.37476200  0.36969196  1
  Sr2+  Sr17  1  0.10338540  0.36836651  0.87455610  1
  Sr2+  Sr18  1  0.12426063  0.87467569  0.37450866  1
  Sr2+  Sr19  1  0.10874925  0.87487607  0.87370362  1
  Sr2+  Sr20  1  0.62978958  0.37192750  0.38059046  1
  Sr2+  Sr21  1  0.61950736  0.37482943  0.87474400  1
  Sr2+  Sr22  1  0.61767942  0.88182050  0.36688385  1
  Sr2+  Sr23  1  0.62413797  0.87404948  0.87877603  1
  Sr2+  Sr24  1  0.36334389  0.13056493  0.37722102  1
  Sr2+  Sr25  1  0.36669892  0.13813317  0.87796078  1
  Sr2+  Sr26  1  0.36195036  0.63493409  0.37451622  1
  Sr2+  Sr27  1  0.36462795  0.63124313  0.87566243  1
  Sr2+  Sr28  1  0.87065878  0.13325064  0.36873281  1
  Sr2+  Sr29  1  0.88058895  0.12427728  0.87775659  1
  Sr2+  Sr30  1  0.88015388  0.63360990  0.36735686  1
  Sr2+  Sr31  1  0.86703116  0.63326157  0.87819894  1
  Sr2+  Sr32  1  0.12294982  0.12617915  0.38090017  1
  Sr2+  Sr33  1  0.11871664  0.12233603  0.88195917  1
  Sr2+  Sr34  1  0.11101820  0.61654875  0.37542109  1
  Sr2+  Sr35  1  0.11462401  0.62843694  0.86459447  1
  Sr2+  Sr36  1  0.62712787  0.13317050  0.37089686  1
  Sr2+  Sr37  1  0.62349868  0.14197742  0.87418016  1
  Sr2+  Sr38  1  0.61132811  0.62704841  0.38759729  1
  Sr2+  Sr39  1  0.61403534  0.62251074  0.87658027  1
  Sr2+  Sr40  1  0.37703479  0.36889503  0.38427425  1
  Sr2+  Sr41  1  0.37689172  0.37505070  0.87697446  1
  Sr2+  Sr42  1  0.36513724  0.89173932  0.36575773  1
  Sr2+  Sr43  1  0.36141540  0.88471207  0.87666904  1
  Sr2+  Sr44  1  0.87023165  0.37456399  0.36825310  1
  Sr2+  Sr45  1  0.86584345  0.37599114  0.87875359  1
  Sr2+  Sr46  1  0.86833243  0.88427425  0.37127697  1
  Sr2+  Sr47  1  0.87130362  0.87967204  0.88477188  1
  Sr2+  Sr48  1  0.13174552  0.37430625  0.13465884  1
  Sr2+  Sr49  1  0.12946356  0.37713907  0.62752822  1
  Sr2+  Sr50  1  0.13636501  0.86351393  0.12307521  1
  Sr2+  Sr51  1  0.12832148  0.86082937  0.62164648  1
  Sr2+  Sr52  1  0.63118381  0.38378107  0.12627906  1
  Sr2+  Sr53  1  0.63183692  0.37203856  0.62709139  1
  Sr2+  Sr54  1  0.62616590  0.86959144  0.13081328  1
  Sr2+  Sr55  1  0.62944748  0.87205021  0.62374326  1
  Sr2+  Sr56  1  0.38455261  0.12684737  0.12578047  1
  Sr2+  Sr57  1  0.38691530  0.12158297  0.62522457  1
  Sr2+  Sr58  1  0.36893941  0.62894162  0.12192731  1
  Sr2+  Sr59  1  0.35995283  0.62268207  0.62329052  1
  Sr2+  Sr60  1  0.88705950  0.11877003  0.12947989  1
  Sr2+  Sr61  1  0.88963126  0.11836936  0.62625455  1
  Sr2+  Sr62  1  0.88277694  0.63714372  0.13203250  1
  Sr2+  Sr63  1  0.87753761  0.63629913  0.62162932  1
  Ca2+  Ca64  1  -0.00252865  0.50043829  0.50156219  1
  Ca2+  Ca65  1  0.50211368  0.00084305  -0.00218702  1
  Ca2+  Ca66  1  0.00169862  0.50240063  -0.00012318  1
  Ca2+  Ca67  1  0.50177373  0.00381849  0.49613660  1
  Ca2+  Ca68  1  -0.00100389  -0.00122545  0.49875715  1
  Ca2+  Ca69  1  0.74880327  0.24837994  -0.00014780  1
  Ca2+  Ca70  1  0.24943139  0.75087007  0.49812381  1
  Ca2+  Ca71  1  0.75262661  0.74938323  0.00049578  1
  Ca2+  Ca72  1  0.24755851  0.74745942  -0.00023299  1
  Ca2+  Ca73  1  0.75169036  0.75222542  0.49397265  1
  Ca2+  Ca74  1  0.00055586  0.25000416  0.74787765  1
  Ca2+  Ca75  1  0.74261813  0.50386404  0.25178785  1
  Ca2+  Ca76  1  0.00272395  0.75553737  0.24982430  1
  Ca2+  Ca77  1  0.49985099  0.74507332  0.25466546  1
  Ca2+  Ca78  1  0.49748845  0.74669099  0.74867001  1
  Ca2+  Ca79  1  0.49902728  0.25142306  0.25102210  1
  Ca2+  Ca80  1  -0.00197419  0.74926386  0.75019008  1
  Ca2+  Ca81  1  0.24994779  0.00133241  0.75178405  1
  Ca2+  Ca82  1  0.24817590  0.00295896  0.24453453  1
  Ca2+  Ca83  1  -0.00036351  0.24844807  0.24880453  1
  Ca2+  Ca84  1  0.25402115  0.50088761  0.25603913  1
  Nb5+  Nb85  1  0.50129911  0.49901316  0.00430984  1
  Nb5+  Nb86  1  0.00156344  -0.00144202  0.00252023  1
  Nb5+  Nb87  1  0.50042234  0.49659047  0.51272427  1
  Nb5+  Nb88  1  0.75616535  0.24643952  0.50375995  1
  Nb5+  Nb89  1  0.25173937  0.24875597  0.50897000  1
  Nb5+  Nb90  1  0.24949513  0.25272547  0.00553731  1
  Nb5+  Nb91  1  0.75022805  -0.00027134  0.25486856  1
  Nb5+  Nb92  1  0.24299821  0.49573037  0.75304174  1
  Nb5+  Nb93  1  0.75020624  0.00434751  0.75607146  1
  Nb5+  Nb94  1  0.49961174  0.24982382  0.74877582  1
  Nb5+  Nb95  1  0.74141613  0.50455449  0.75012844  1
  Nb5+  Nb96  1  0.00527563  -0.00064764  0.24951674  1
  Nb5+  Nb97  1  0.00203893  -0.00445698  0.74654817  1
  Nb5+  Nb98  1  -0.00397432  0.50111845  0.24830894  1
  Nb5+  Nb99  1  -0.01365089  0.50165073  0.74976510  1
  Nb5+  Nb100  1  0.49537904  0.00319478  0.25026624  1
  Nb5+  Nb101  1  0.49888246  -0.00270831  0.75782980  1
  Nb5+  Nb102  1  0.49988378  0.49926146  0.26590018  1
  Nb5+  Nb103  1  0.49544804  0.49987616  0.75044911  1
  Nb5+  Nb104  1  0.24976530  0.25284156  0.26022852  1
  Nb5+  Nb105  1  0.24826831  0.25351445  0.75583176  1
  Nb5+  Nb106  1  0.25073355  0.75245377  0.25158063  1
  Nb5+  Nb107  1  0.25521814  0.75644189  0.74873983  1
  Nb5+  Nb108  1  0.74577735  0.24996913  0.23975456  1
  Nb5+  Nb109  1  0.75377961  0.25194786  0.74616766  1
  Nb5+  Nb110  1  0.74574312  0.74632122  0.25673447  1
  Nb5+  Nb111  1  0.75353031  0.76342756  0.74826056  1
  Nb5+  Nb112  1  0.00768563  0.25140298  0.50305683  1
  Nb5+  Nb113  1  -0.00484712  0.24963667  1.00159340  1
  Nb5+  Nb114  1  0.00112615  0.74929440  0.49541108  1
  Nb5+  Nb115  1  0.00914776  0.74212983  1.00202059  1
  Nb5+  Nb116  1  0.50587748  0.24837948  0.50276646  1
  Nb5+  Nb117  1  0.50121748  0.25468131  1.00582884  1
  Nb5+  Nb118  1  0.49391916  0.75774387  0.49636303  1
  Nb5+  Nb119  1  0.49712035  0.75399282  0.99243356  1
  Nb5+  Nb120  1  0.25513686  -0.00020238  0.00123568  1
  Nb5+  Nb121  1  0.25280518  -0.00450507  0.50528427  1
  Nb5+  Nb122  1  0.24714072  0.49725272  -0.00376424  1
  Nb5+  Nb123  1  0.24847187  0.49482170  0.49744977  1
  Nb5+  Nb124  1  0.75347424  0.00130940  0.00846393  1
  Nb5+  Nb125  1  0.75360767  0.00109213  0.50897070  1
  Nb5+  Nb126  1  0.74849461  0.50626345  0.00670231  1
  Nb5+  Nb127  1  0.74716344  0.49900925  0.50294322  1
  O2-  O128  1  -0.02434979  -0.01076350  0.11722857  1
  O2-  O129  1  -0.02709153  -0.01436994  0.63471718  1
  O2-  O130  1  0.01699147  0.47388835  0.13202165  1
  O2-  O131  1  0.01097208  0.47237572  0.63731351  1
  O2-  O132  1  0.48715670  -0.02311500  0.13251140  1
  O2-  O133  1  0.48872534  -0.01106530  0.63902566  1
  O2-  O134  1  0.51059532  0.47943422  0.11593761  1
  O2-  O135  1  0.50976804  0.46844196  0.62693043  1
  O2-  O136  1  0.02303967  0.01361021  0.36274808  1
  O2-  O137  1  0.01034496  0.01592955  0.87705929  1
  O2-  O138  1  -0.01897149  0.52192717  0.36708046  1
  O2-  O139  1  -0.01513649  0.53042796  0.86609836  1
  O2-  O140  1  0.53163305  0.02025851  0.36259507  1
  O2-  O141  1  0.54225038  0.01941763  0.86428127  1
  O2-  O142  1  0.49130929  0.51164147  0.38261954  1
  O2-  O143  1  0.49108718  0.51310850  0.86594720  1
  O2-  O144  1  0.24192222  0.23756367  0.11809424  1
  O2-  O145  1  0.23874883  0.23618058  0.62367867  1
  O2-  O146  1  0.23680044  0.72162372  0.13293221  1
  O2-  O147  1  0.23564353  0.73002486  0.63348200  1
  O2-  O148  1  0.72000030  0.23053278  0.13120354  1
  O2-  O149  1  0.73112132  0.23085963  0.62659833  1
  O2-  O150  1  0.74376738  0.72928443  0.13642246  1
  O2-  O151  1  0.75134645  0.73692397  0.63046937  1
  O2-  O152  1  0.26108737  0.26509926  0.37764428  1
  O2-  O153  1  0.26633345  0.26976440  0.86892029  1
  O2-  O154  1  0.26824617  0.77890971  0.36734438  1
  O2-  O155  1  0.26950602  0.76079803  0.86620844  1
  O2-  O156  1  0.76195876  0.26211999  0.38728778  1
  O2-  O157  1  0.75579836  0.26426595  0.86130726  1
  O2-  O158  1  0.75098020  0.79227142  0.36538574  1
  O2-  O159  1  0.75710535  0.77642930  0.86456668  1
  O2-  O160  1  0.01857905  0.26920868  0.11360116  1
  O2-  O161  1  0.00324830  0.28487225  0.61619184  1
  O2-  O162  1  0.00186657  0.77515558  0.11532616  1
  O2-  O163  1  -0.00157025  0.76901777  0.61667084  1
  O2-  O164  1  0.50588297  0.28687187  0.11478695  1
  O2-  O165  1  0.50243786  0.27325591  0.62858469  1
  O2-  O166  1  0.50819215  0.75833275  0.11329760  1
  O2-  O167  1  0.50514428  0.77765853  0.61531464  1
  O2-  O168  1  0.23220965  -0.01396260  0.38665466  1
  O2-  O169  1  0.22379855  -0.01736714  0.88709333  1
  O2-  O170  1  0.28141666  0.48197010  0.38880285  1
  O2-  O171  1  0.27176035  0.48076195  0.86686284  1
  O2-  O172  1  0.73728860  -0.01365680  0.36959116  1
  O2-  O173  1  0.74309462  -0.02467399  0.86622308  1
  O2-  O174  1  0.75370736  0.47075416  0.39061542  1
  O2-  O175  1  0.76218927  0.48042652  0.86318656  1
  O2-  O176  1  -0.00168905  0.21993236  0.38680451  1
  O2-  O177  1  0.00561701  0.22741310  0.88397331  1
  O2-  O178  1  0.00468544  0.72430009  0.37989605  1
  O2-  O179  1  0.00304282  0.73305973  0.88376711  1
  O2-  O180  1  0.48857570  0.22782717  0.39057053  1
  O2-  O181  1  0.48775565  0.23716630  0.86701340  1
  O2-  O182  1  0.49161581  0.71351010  0.38652790  1
  O2-  O183  1  0.49541423  0.71557866  0.88077418  1
  O2-  O184  1  0.25924474  0.04192283  0.11061328  1
  O2-  O185  1  0.26735898  0.03212623  0.61945670  1
  O2-  O186  1  0.24299880  0.51036617  0.11116890  1
  O2-  O187  1  0.23854055  0.50685720  0.62847539  1
  O2-  O188  1  0.76536705  0.02617214  0.12075516  1
  O2-  O189  1  0.76437419  0.02438574  0.62273755  1
  O2-  O190  1  0.71469632  0.52224056  0.11434881  1
  O2-  O191  1  0.72580128  0.50410513  0.62922426  1
  O2-  O192  1  0.13291438  0.28016926  0.25578388  1
  O2-  O193  1  0.13632395  0.28037726  0.75298843  1
  O2-  O194  1  0.13480252  0.78334214  0.25526160  1
  O2-  O195  1  0.13658348  0.76797095  0.76122185  1
  O2-  O196  1  0.63471646  0.26020472  0.28003160  1
  O2-  O197  1  0.62151707  0.26298723  0.75562622  1
  O2-  O198  1  0.63173008  0.77968748  0.25047319  1
  O2-  O199  1  0.63513645  0.76558631  0.74871834  1
  O2-  O200  1  0.36296599  0.22084656  0.24339547  1
  O2-  O201  1  0.37564513  0.23864860  0.73563553  1
  O2-  O202  1  0.36868418  0.72493921  0.23691859  1
  O2-  O203  1  0.36649514  0.71210830  0.73989634  1
  O2-  O204  1  0.86115946  0.22669557  0.24718692  1
  O2-  O205  1  0.86431741  0.22302538  0.73747854  1
  O2-  O206  1  0.86507072  0.73743427  0.24977334  1
  O2-  O207  1  0.86332616  0.71747648  0.75010298  1
  O2-  O208  1  0.27085841  0.36610401  0.22990466  1
  O2-  O209  1  0.27119391  0.37559598  0.73062870  1
  O2-  O210  1  0.27637886  0.86962299  0.22315285  1
  O2-  O211  1  0.28425236  0.86761089  0.73281239  1
  O2-  O212  1  0.76571583  0.36444184  0.22695717  1
  O2-  O213  1  0.76596472  0.36766512  0.72782422  1
  O2-  O214  1  0.76667922  0.88708413  0.22482499  1
  O2-  O215  1  0.77035702  0.87890044  0.72574361  1
  O2-  O216  1  0.21660525  0.13739336  0.26506816  1
  O2-  O217  1  0.23195716  0.13909972  0.76762011  1
  O2-  O218  1  0.22834521  0.63546365  0.28226138  1
  O2-  O219  1  0.23277477  0.61211236  0.76418527  1
  O2-  O220  1  0.73066621  0.12199017  0.26240824  1
  O2-  O221  1  0.72671088  0.12124324  0.76338878  1
  O2-  O222  1  0.73109639  0.63653527  0.29103350  1
  O2-  O223  1  0.72655990  0.61666474  0.76238477  1
  O2-  O224  1  0.11685502  0.48808259  0.26855463  1
  O2-  O225  1  0.12992313  0.47585926  0.76476109  1
  O2-  O226  1  0.11425766  0.97790154  0.22149620  1
  O2-  O227  1  0.11469342  0.97114194  0.73287908  1
  O2-  O228  1  0.61147406  0.45705507  0.25764158  1
  O2-  O229  1  0.62635840  0.47383089  0.75957985  1
  O2-  O230  1  0.63222440  0.98736974  0.22864218  1
  O2-  O231  1  0.63387986  0.98359059  0.72741998  1
  O2-  O232  1  0.38253500  0.02271430  0.27238287  1
  O2-  O233  1  0.38787818  0.02327594  0.77861347  1
  O2-  O234  1  0.38997959  0.52611209  0.23024614  1
  O2-  O235  1  0.37988008  0.50864653  0.73353746  1
  O2-  O236  1  0.86889107  0.02308023  0.26151811  1
  O2-  O237  1  0.86768083  0.02479774  0.76059322  1
  O2-  O238  1  0.87660782  0.51592727  0.22610248  1
  O2-  O239  1  0.86946507  0.51449602  0.73004697  1
  O2-  O240  1  0.46431210  0.38304651  0.26675564  1
  O2-  O241  1  0.48817159  0.37309250  0.76499544  1
  O2-  O242  1  0.48599567  0.88421518  0.27145608  1
  O2-  O243  1  0.48471898  0.88430291  0.77645885  1
  O2-  O244  1  0.97661367  0.38194778  0.26829035  1
  O2-  O245  1  0.97931700  0.38579017  0.78050193  1
  O2-  O246  1  0.96769805  0.88890591  0.25840405  1
  O2-  O247  1  0.97138149  0.88468985  0.77365092  1
  O2-  O248  1  0.00814678  0.11482690  0.22150242  1
  O2-  O249  1  0.01972505  0.11398101  0.73568916  1
  O2-  O250  1  0.01080058  0.61906264  0.22724022  1
  O2-  O251  1  0.02494995  0.61226611  0.73083758  1
  O2-  O252  1  0.51514342  0.11834465  0.21969159  1
  O2-  O253  1  0.51458046  0.13245458  0.73294455  1
  O2-  O254  1  0.54054832  0.60853459  0.24500187  1
  O2-  O255  1  0.52602073  0.60741895  0.72663050  1
  O2-  O256  1  0.13768034  0.46802061  -0.01925517  1
  O2-  O257  1  0.13605443  0.47187201  0.48661453  1
  O2-  O258  1  0.12114426  0.99255313  0.01827508  1
  O2-  O259  1  0.13430359  0.99022402  0.52614212  1
  O2-  O260  1  0.62028923  0.48242115  -0.02118661  1
  O2-  O261  1  0.61945167  0.47126838  0.49755545  1
  O2-  O262  1  0.63920913  0.97811887  0.01679158  1
  O2-  O263  1  0.63640777  0.98355559  0.51261961  1
  O2-  O264  1  0.36611452  0.02089766  -0.02729827  1
  O2-  O265  1  0.36719000  0.02661004  0.48273296  1
  O2-  O266  1  0.38056946  0.50900136  0.00280978  1
  O2-  O267  1  0.38040143  0.50126505  0.52342111  1
  O2-  O268  1  0.87966086  0.02172282  -0.01506143  1
  O2-  O269  1  0.86348098  0.03068633  0.47752201  1
  O2-  O270  1  0.86337779  0.52193518  0.02219133  1
  O2-  O271  1  0.86002135  0.50768450  0.52640630  1
  O2-  O272  1  0.48810879  0.37740153  -0.02563247  1
  O2-  O273  1  0.48392234  0.36957483  0.48936110  1
  O2-  O274  1  0.47858155  0.86596985  -0.02936839  1
  O2-  O275  1  0.47593556  0.86772321  0.47078335  1
  O2-  O276  1  0.97765819  0.36447598  -0.02163410  1
  O2-  O277  1  0.97618683  0.36332312  0.47205194  1
  O2-  O278  1  0.98529615  0.88453116  -0.01848816  1
  O2-  O279  1  0.96830367  0.86590493  0.47954356  1
  O2-  O280  1  0.01997073  0.12473233  0.01493663  1
  O2-  O281  1  0.01549044  0.13677036  0.53281063  1
  O2-  O282  1  0.04216185  0.63338833  0.02039493  1
  O2-  O283  1  0.03174705  0.63194545  0.51753236  1
  O2-  O284  1  0.51194259  0.13895349  0.02283479  1
  O2-  O285  1  0.51242588  0.13686299  0.53365936  1
  O2-  O286  1  0.51937102  0.61433187  0.00999814  1
  O2-  O287  1  0.51955955  0.60888098  0.52456464  1
  O2-  O288  1  0.13445443  0.26981613  -0.01116328  1
  O2-  O289  1  0.12623102  0.27024282  0.49335315  1
  O2-  O290  1  0.11950126  0.78745536  -0.00781387  1
  O2-  O291  1  0.11766698  0.78441510  0.49287736  1
  O2-  O292  1  0.61352804  0.26409288  -0.02323021  1
  O2-  O293  1  0.62139403  0.26578300  0.49597474  1
  O2-  O294  1  0.61743667  0.76404219  -0.00995156  1
  O2-  O295  1  0.61410633  0.75443897  0.49409900  1
  O2-  O296  1  0.37732531  0.23751019  0.00094927  1
  O2-  O297  1  0.37059096  0.23660791  0.51192744  1
  O2-  O298  1  0.38264159  0.72484208  0.00791493  1
  O2-  O299  1  0.38363885  0.71850409  0.51219408  1
  O2-  O300  1  0.88316289  0.22493537  0.01219696  1
  O2-  O301  1  0.87017229  0.23077456  0.51610594  1
  O2-  O302  1  0.88880104  0.72564067  0.00233116  1
  O2-  O303  1  0.88263337  0.71546032  0.49600044  1
  O2-  O304  1  0.27738660  0.37156204  0.00776889  1
  O2-  O305  1  0.26677151  0.36951154  0.52042655  1
  O2-  O306  1  0.27313557  0.88910680  0.02604115  1
  O2-  O307  1  0.27531353  0.88524959  0.52654289  1
  O2-  O308  1  0.76371577  0.38718206  0.01138615  1
  O2-  O309  1  0.75694535  0.36514106  0.52609238  1
  O2-  O310  1  0.78202610  0.88691776  0.01107035  1
  O2-  O311  1  0.77499345  0.88867880  0.51850564  1
  O2-  O312  1  0.24003161  0.13788443  -0.02685740  1
  O2-  O313  1  0.23174542  0.13552946  0.48395256  1
  O2-  O314  1  0.23770616  0.60887956  -0.03033415  1
  O2-  O315  1  0.23879479  0.60987896  0.48939160  1
  O2-  O316  1  0.73851655  0.11142620  -0.03209840  1
  O2-  O317  1  0.72493003  0.13051372  0.48966052  1
  O2-  O318  1  0.73395259  0.61421880  -0.03686316  1
  O2-  O319  1  0.72405943  0.61007543  0.49183151  1
