# generated using pymatgen
data_Sr64Ca21Nb43O192
_symmetry_space_group_name_H-M   'P 1'
_cell_length_a   16.58191574
_cell_length_b   16.58136715
_cell_length_c   16.76749952
_cell_angle_alpha   89.97165860
_cell_angle_beta   89.96688831
_cell_angle_gamma   89.94610855
_symmetry_Int_Tables_number   1
_chemical_formula_structural   Sr64Ca21Nb43O192
_chemical_formula_sum   'Sr64 Ca21 Nb43 O192'
_cell_volume   4610.23458639
_cell_formula_units_Z   1
loop_
 _symmetry_equiv_pos_site_id
 _symmetry_equiv_pos_as_xyz
  1  'x, y, z'
loop_
 _atom_type_symbol
 _atom_type_oxidation_number
  Sr2+  2.0
  Ca2+  2.0
  Nb5+  5.0
  O2-  -2.0
loop_
 _atom_site_type_symbol
 _atom_site_label
 _atom_site_symmetry_multiplicity
 _atom_site_fract_x
 _atom_site_fract_y
 _atom_site_fract_z
 _atom_site_occupancy
  Sr2+  Sr0  1  0.11413342  0.12172437  0.12700915  1
  Sr2+  Sr1  1  0.12530218  0.11820547  0.62887016  1
  Sr2+  Sr2  1  0.11837879  0.61831981  0.12853815  1
  Sr2+  Sr3  1  0.11746928  0.62879797  0.62807163  1
  Sr2+  Sr4  1  0.62546870  0.10239594  0.11768076  1
  Sr2+  Sr5  1  0.62345715  0.12092944  0.62556725  1
  Sr2+  Sr6  1  0.62026542  0.62513859  0.13290777  1
  Sr2+  Sr7  1  0.62013571  0.62128580  0.61901740  1
  Sr2+  Sr8  1  0.37808119  0.38698015  0.12228979  1
  Sr2+  Sr9  1  0.37248863  0.38142437  0.62918294  1
  Sr2+  Sr10  1  0.37245666  0.86383108  0.12593729  1
  Sr2+  Sr11  1  0.37248362  0.86822157  0.63094944  1
  Sr2+  Sr12  1  0.87486415  0.38211137  0.12105500  1
  Sr2+  Sr13  1  0.86313552  0.38291800  0.62321232  1
  Sr2+  Sr14  1  0.86561046  0.88186398  0.11936214  1
  Sr2+  Sr15  1  0.87028567  0.86932774  0.63132561  1
  Sr2+  Sr16  1  0.13439030  0.36329771  0.37350616  1
  Sr2+  Sr17  1  0.13493434  0.37831217  0.88050785  1
  Sr2+  Sr18  1  0.13959038  0.88326770  0.36961483  1
  Sr2+  Sr19  1  0.13839065  0.88460655  0.87593976  1
  Sr2+  Sr20  1  0.62965072  0.37229744  0.37349001  1
  Sr2+  Sr21  1  0.62022750  0.36712684  0.87615589  1
  Sr2+  Sr22  1  0.62713269  0.88098276  0.37171153  1
  Sr2+  Sr23  1  0.63261278  0.87981097  0.88198438  1
  Sr2+  Sr24  1  0.36386613  0.12374472  0.38715601  1
  Sr2+  Sr25  1  0.35294275  0.12114885  0.86921768  1
  Sr2+  Sr26  1  0.38370094  0.62488249  0.35750264  1
  Sr2+  Sr27  1  0.37548272  0.62248386  0.88695570  1
  Sr2+  Sr28  1  0.88562198  0.13049536  0.37008154  1
  Sr2+  Sr29  1  0.86489282  0.12458088  0.87936661  1
  Sr2+  Sr30  1  0.87919900  0.62656108  0.37371538  1
  Sr2+  Sr31  1  0.88794176  0.62385880  0.87626094  1
  Sr2+  Sr32  1  0.12282224  0.12251853  0.36197144  1
  Sr2+  Sr33  1  0.12536720  0.12168600  0.89001741  1
  Sr2+  Sr34  1  0.13766277  0.63737053  0.36897471  1
  Sr2+  Sr35  1  0.13222281  0.62771469  0.87831859  1
  Sr2+  Sr36  1  0.62296224  0.12275129  0.37695177  1
  Sr2+  Sr37  1  0.62187472  0.12531567  0.88036067  1
  Sr2+  Sr38  1  0.63519992  0.62559766  0.37042453  1
  Sr2+  Sr39  1  0.61997715  0.63387124  0.87634777  1
  Sr2+  Sr40  1  0.38001587  0.37290867  0.37776727  1
  Sr2+  Sr41  1  0.37989686  0.35440616  0.87683755  1
  Sr2+  Sr42  1  0.38001948  0.88602702  0.37243214  1
  Sr2+  Sr43  1  0.37751780  0.85504189  0.87672765  1
  Sr2+  Sr44  1  0.87977064  0.36784072  0.37667835  1
  Sr2+  Sr45  1  0.88488136  0.36720543  0.87736054  1
  Sr2+  Sr46  1  0.88143052  0.88951040  0.38029769  1
  Sr2+  Sr47  1  0.88377216  0.89110546  0.87434291  1
  Sr2+  Sr48  1  0.11372062  0.38230572  0.12688034  1
  Sr2+  Sr49  1  0.12946993  0.38125799  0.61873376  1
  Sr2+  Sr50  1  0.12847580  0.87434713  0.13505102  1
  Sr2+  Sr51  1  0.10635701  0.87034269  0.62614884  1
  Sr2+  Sr52  1  0.62573236  0.37814053  0.12536878  1
  Sr2+  Sr53  1  0.62034351  0.37740261  0.62621890  1
  Sr2+  Sr54  1  0.62850016  0.87030334  0.11871144  1
  Sr2+  Sr55  1  0.62307565  0.87381747  0.61772063  1
  Sr2+  Sr56  1  0.36586014  0.11564443  0.11189381  1
  Sr2+  Sr57  1  0.37397008  0.11839282  0.63125275  1
  Sr2+  Sr58  1  0.34670491  0.62812474  0.12443855  1
  Sr2+  Sr59  1  0.35691813  0.62173335  0.62358138  1
  Sr2+  Sr60  1  0.86743637  0.12693950  0.11013937  1
  Sr2+  Sr61  1  0.86531524  0.12131298  0.63646922  1
  Sr2+  Sr62  1  0.86703312  0.61763289  0.12413228  1
  Sr2+  Sr63  1  0.87729125  0.62777017  0.62437366  1
  Ca2+  Ca64  1  -0.00050582  0.00324625  0.50069633  1
  Ca2+  Ca65  1  0.00180520  -0.00221673  0.00221897  1
  Ca2+  Ca66  1  -0.00055382  0.49871779  0.49856586  1
  Ca2+  Ca67  1  0.50110805  0.49882053  0.00040887  1
  Ca2+  Ca68  1  0.49595333  -0.00109199  -0.00659591  1
  Ca2+  Ca69  1  0.24453576  0.74889794  -0.00139949  1
  Ca2+  Ca70  1  0.25210720  0.75174277  0.49984168  1
  Ca2+  Ca71  1  0.24934557  0.25040897  0.00557453  1
  Ca2+  Ca72  1  0.75428786  0.74340608  -0.00221733  1
  Ca2+  Ca73  1  0.74559415  0.25625039  0.00139006  1
  Ca2+  Ca74  1  0.75021893  0.50534836  0.74968737  1
  Ca2+  Ca75  1  0.50254302  0.24329056  0.25193771  1
  Ca2+  Ca76  1  0.74791441  -0.00233767  0.74758401  1
  Ca2+  Ca77  1  0.25166862  -0.00248368  0.74729413  1
  Ca2+  Ca78  1  -0.00020250  0.25128658  0.74880672  1
  Ca2+  Ca79  1  0.25166377  0.50053372  0.75206205  1
  Ca2+  Ca80  1  0.74932648  -0.00049557  0.25154110  1
  Ca2+  Ca81  1  0.25538133  0.00577836  0.24937558  1
  Ca2+  Ca82  1  -0.00213555  0.74999721  0.24976884  1
  Ca2+  Ca83  1  0.50157569  0.75304997  0.25324553  1
  Ca2+  Ca84  1  0.24893117  0.49664438  0.25203217  1
  Nb5+  Nb85  1  -0.00044359  0.50120771  -0.00116117  1
  Nb5+  Nb86  1  0.49812703  0.49759503  0.49921662  1
  Nb5+  Nb87  1  0.50014240  -0.00384300  0.50104210  1
  Nb5+  Nb88  1  0.25629448  0.25057835  0.50159868  1
  Nb5+  Nb89  1  0.75048258  0.75492518  0.49904416  1
  Nb5+  Nb90  1  0.75403045  0.25315334  0.49878944  1
  Nb5+  Nb91  1  -0.00100963  0.25445920  0.24923477  1
  Nb5+  Nb92  1  0.49839956  0.74172514  0.74572419  1
  Nb5+  Nb93  1  -0.00743235  0.75022522  0.75179373  1
  Nb5+  Nb94  1  0.50075488  0.24362674  0.74851964  1
  Nb5+  Nb95  1  0.75004632  0.49700389  0.25103933  1
  Nb5+  Nb96  1  -0.00387112  -0.00528650  0.24593506  1
  Nb5+  Nb97  1  0.00437641  0.00797263  0.75221552  1
  Nb5+  Nb98  1  -0.00076977  0.49900163  0.25617437  1
  Nb5+  Nb99  1  -0.00067214  0.49705492  0.74754364  1
  Nb5+  Nb100  1  0.49990581  0.00152909  0.24297398  1
  Nb5+  Nb101  1  0.50234654  -0.00887482  0.74888313  1
  Nb5+  Nb102  1  0.50082948  0.49919919  0.24770754  1
  Nb5+  Nb103  1  0.49904919  0.49499358  0.75213462  1
  Nb5+  Nb104  1  0.26027886  0.25134594  0.24964098  1
  Nb5+  Nb105  1  0.24330979  0.25254047  0.74763820  1
  Nb5+  Nb106  1  0.25154043  0.75149499  0.25302831  1
  Nb5+  Nb107  1  0.23970101  0.75277067  0.74858490  1
  Nb5+  Nb108  1  0.74976938  0.25277894  0.24823963  1
  Nb5+  Nb109  1  0.74914165  0.25074869  0.75238884  1
  Nb5+  Nb110  1  0.75575179  0.75243029  0.25120791  1
  Nb5+  Nb111  1  0.74476334  0.74645795  0.75178279  1
  Nb5+  Nb112  1  0.00525562  0.24707516  0.50450357  1
  Nb5+  Nb113  1  0.00228758  0.25245571  0.99848785  1
  Nb5+  Nb114  1  0.00021954  0.75423191  0.49444940  1
  Nb5+  Nb115  1  -0.00021625  0.75216879  1.00247783  1
  Nb5+  Nb116  1  0.50480714  0.24823073  0.50359122  1
  Nb5+  Nb117  1  0.49548237  0.24761643  1.00901352  1
  Nb5+  Nb118  1  0.49874320  0.74648602  0.50038579  1
  Nb5+  Nb119  1  0.50379759  0.74737517  1.00532360  1
  Nb5+  Nb120  1  0.25146600  -0.00356158  0.00242974  1
  Nb5+  Nb121  1  0.24912063  -0.00314354  0.50355964  1
  Nb5+  Nb122  1  0.25171814  0.49827033  0.00141316  1
  Nb5+  Nb123  1  0.24528980  0.50117337  0.49736057  1
  Nb5+  Nb124  1  0.74928707  -0.00119319  -0.00368873  1
  Nb5+  Nb125  1  0.75104673  0.00780306  0.49751143  1
  Nb5+  Nb126  1  0.74806464  0.50228629  -0.00809710  1
  Nb5+  Nb127  1  0.74735398  0.50670059  0.50001445  1
  O2-  O128  1  -0.02289477  0.02948187  0.13442982  1
  O2-  O129  1  -0.02080768  0.02067822  0.63574039  1
  O2-  O130  1  0.00307151  0.51110792  0.12436793  1
  O2-  O131  1  0.01708603  0.51458455  0.63485887  1
  O2-  O132  1  0.48245549  0.00995668  0.13089989  1
  O2-  O133  1  0.47865815  -0.00024718  0.61955173  1
  O2-  O134  1  0.52883262  0.49826894  0.13620481  1
  O2-  O135  1  0.52094923  0.49889550  0.61811403  1
  O2-  O136  1  0.02199835  -0.02106087  0.36432329  1
  O2-  O137  1  0.02017351  -0.02461050  0.86603254  1
  O2-  O138  1  -0.02718497  0.48673307  0.36641560  1
  O2-  O139  1  -0.01344416  0.48613909  0.88024083  1
  O2-  O140  1  0.52160249  -0.00461704  0.38433725  1
  O2-  O141  1  0.53045602  -0.00350118  0.85918594  1
  O2-  O142  1  0.48225012  0.49513119  0.38177512  1
  O2-  O143  1  0.48217140  0.50515102  0.86395706  1
  O2-  O144  1  0.28201102  0.27036677  0.13966684  1
  O2-  O145  1  0.26215644  0.27446579  0.61786198  1
  O2-  O146  1  0.24139376  0.77333178  0.13371546  1
  O2-  O147  1  0.23735493  0.77953385  0.63287619  1
  O2-  O148  1  0.76962677  0.27287403  0.13757595  1
  O2-  O149  1  0.76732109  0.26287553  0.61679581  1
  O2-  O150  1  0.74462711  0.76791345  0.13685816  1
  O2-  O151  1  0.73701860  0.77283017  0.61693673  1
  O2-  O152  1  0.22809073  0.23124703  0.38749279  1
  O2-  O153  1  0.22937203  0.23207351  0.86114435  1
  O2-  O154  1  0.26772269  0.72235297  0.36899827  1
  O2-  O155  1  0.26762081  0.72606041  0.86119271  1
  O2-  O156  1  0.72852814  0.23856008  0.38318925  1
  O2-  O157  1  0.72099056  0.24326727  0.86328230  1
  O2-  O158  1  0.76185880  0.72744989  0.38317215  1
  O2-  O159  1  0.75713400  0.71546728  0.86040857  1
  O2-  O160  1  -0.02300773  0.24223009  0.13255796  1
  O2-  O161  1  -0.01458658  0.21587963  0.61298609  1
  O2-  O162  1  0.02721282  0.73777792  0.11261466  1
  O2-  O163  1  0.01172833  0.73604841  0.62813593  1
  O2-  O164  1  0.47024484  0.24168810  0.11918355  1
  O2-  O165  1  0.48320046  0.25515003  0.62417738  1
  O2-  O166  1  0.52421287  0.75366432  0.11800906  1
  O2-  O167  1  0.52865696  0.75065147  0.62797192  1
  O2-  O168  1  0.23781140  0.02746500  0.38861850  1
  O2-  O169  1  0.22929165  0.01849844  0.88204848  1
  O2-  O170  1  0.27658008  0.51939704  0.38645369  1
  O2-  O171  1  0.25062579  0.52854764  0.88527160  1
  O2-  O172  1  0.71716078  0.00413489  0.38557266  1
  O2-  O173  1  0.72384449  0.01132028  0.87952549  1
  O2-  O174  1  0.76065780  0.51815179  0.37938215  1
  O2-  O175  1  0.75368691  0.53665992  0.88446803  1
  O2-  O176  1  0.00859031  0.27580263  0.37181373  1
  O2-  O177  1  0.02024675  0.27476494  0.88622762  1
  O2-  O178  1  -0.03041363  0.76562508  0.38483150  1
  O2-  O179  1  -0.02641120  0.75975162  0.86668427  1
  O2-  O180  1  0.52016294  0.25210131  0.39008900  1
  O2-  O181  1  0.51796180  0.25525356  0.86268525  1
  O2-  O182  1  0.47649198  0.75678128  0.38986433  1
  O2-  O183  1  0.48850726  0.74153796  0.86273373  1
  O2-  O184  1  0.28053489  -0.01789333  0.11819634  1
  O2-  O185  1  0.28673674  -0.00988144  0.61323290  1
  O2-  O186  1  0.24077512  0.46771862  0.11753835  1
  O2-  O187  1  0.24603336  0.47515092  0.61370649  1
  O2-  O188  1  0.76783404  -0.00664996  0.11709643  1
  O2-  O189  1  0.76884750  -0.01735832  0.61024785  1
  O2-  O190  1  0.74385739  0.47330303  0.13713998  1
  O2-  O191  1  0.72962162  0.48048908  0.61209641  1
  O2-  O192  1  0.11564947  0.27060497  0.23890191  1
  O2-  O193  1  0.13311203  0.27477236  0.72446489  1
  O2-  O194  1  0.13160593  0.76825814  0.27446328  1
  O2-  O195  1  0.12462386  0.77016485  0.76343711  1
  O2-  O196  1  0.63701837  0.28176450  0.24383920  1
  O2-  O197  1  0.62147933  0.26721477  0.72724668  1
  O2-  O198  1  0.63921854  0.75940562  0.27459332  1
  O2-  O199  1  0.62797327  0.76707542  0.76351887  1
  O2-  O200  1  0.36708621  0.23428711  0.28542270  1
  O2-  O201  1  0.38259359  0.23232638  0.75849479  1
  O2-  O202  1  0.36854789  0.72743627  0.23313273  1
  O2-  O203  1  0.38488171  0.73487441  0.72713453  1
  O2-  O204  1  0.87165166  0.24852537  0.27589517  1
  O2-  O205  1  0.86433576  0.23031725  0.76915209  1
  O2-  O206  1  0.86520312  0.70888645  0.24624647  1
  O2-  O207  1  0.87767408  0.73266196  0.73181408  1
  O2-  O208  1  0.25622210  0.36377399  0.28490818  1
  O2-  O209  1  0.27960656  0.36404728  0.76168853  1
  O2-  O210  1  0.26663646  0.86962390  0.27480082  1
  O2-  O211  1  0.27571566  0.86480182  0.76875643  1
  O2-  O212  1  0.76498418  0.38025824  0.28147088  1
  O2-  O213  1  0.76862774  0.36769048  0.75160725  1
  O2-  O214  1  0.78358387  0.86203809  0.27006308  1
  O2-  O215  1  0.77369821  0.86106803  0.76125376  1
  O2-  O216  1  0.22399204  0.14076965  0.23827315  1
  O2-  O217  1  0.24657229  0.13720747  0.71950861  1
  O2-  O218  1  0.22494484  0.63104863  0.23300648  1
  O2-  O219  1  0.23553757  0.63633881  0.72099508  1
  O2-  O220  1  0.73903091  0.13853272  0.24069529  1
  O2-  O221  1  0.73608435  0.13528171  0.72352018  1
  O2-  O222  1  0.72750716  0.61532454  0.24127381  1
  O2-  O223  1  0.73790931  0.63748679  0.70888178  1
  O2-  O224  1  0.11144227  0.47188589  0.26075067  1
  O2-  O225  1  0.11493509  0.47819608  0.76725973  1
  O2-  O226  1  0.11650522  0.99760635  0.22931309  1
  O2-  O227  1  0.11818007  0.98128770  0.72259574  1
  O2-  O228  1  0.62899022  0.48122677  0.26976324  1
  O2-  O229  1  0.61613500  0.48080863  0.75982091  1
  O2-  O230  1  0.61613818  0.96046034  0.23593869  1
  O2-  O231  1  0.61469963  0.98960186  0.71218525  1
  O2-  O232  1  0.39007131  0.03530006  0.27377082  1
  O2-  O233  1  0.39024943  0.02299345  0.75937006  1
  O2-  O234  1  0.38654934  0.51994694  0.22973318  1
  O2-  O235  1  0.38735760  0.51872971  0.72320068  1
  O2-  O236  1  0.88339498  0.01256484  0.27882978  1
  O2-  O237  1  0.88454124  0.01640317  0.77207384  1
  O2-  O238  1  0.86973284  0.51444893  0.24002140  1
  O2-  O239  1  0.88648764  0.53531234  0.74779739  1
  O2-  O240  1  0.48157837  0.38268390  0.25580865  1
  O2-  O241  1  0.48347030  0.37648684  0.74607599  1
  O2-  O242  1  0.46710447  0.88578396  0.25170124  1
  O2-  O243  1  0.48586284  0.87312288  0.74539359  1
  O2-  O244  1  0.97661393  0.37640327  0.23376209  1
  O2-  O245  1  0.96757916  0.38612701  0.73642032  1
  O2-  O246  1  0.98390229  0.88311813  0.21888668  1
  O2-  O247  1  0.98591948  0.86823290  0.73299322  1
  O2-  O248  1  0.00625780  0.13683817  0.26581508  1
  O2-  O249  1  0.02949672  0.11933573  0.77138334  1
  O2-  O250  1  0.02039163  0.61339567  0.26432083  1
  O2-  O251  1  0.02442110  0.63216544  0.76518982  1
  O2-  O252  1  0.54622080  0.11259416  0.25253982  1
  O2-  O253  1  0.52095707  0.12864970  0.74146788  1
  O2-  O254  1  0.52252714  0.61474364  0.26955680  1
  O2-  O255  1  0.52418954  0.62596973  0.74513967  1
  O2-  O256  1  0.11782048  0.47728450  -0.00388864  1
  O2-  O257  1  0.13377646  0.47725419  0.47975791  1
  O2-  O258  1  0.13377265  0.97195535  0.02190447  1
  O2-  O259  1  0.13636214  0.99677335  0.52976285  1
  O2-  O260  1  0.63649643  0.47183503  -0.01038805  1
  O2-  O261  1  0.62218591  0.49398607  0.47985915  1
  O2-  O262  1  0.63144626  0.97782044  0.01885006  1
  O2-  O263  1  0.62147767  0.99941420  0.52195230  1
  O2-  O264  1  0.36604220  0.03105297  -0.01684691  1
  O2-  O265  1  0.38327697  0.00459980  0.47822768  1
  O2-  O266  1  0.36533508  0.51972126  0.01656579  1
  O2-  O267  1  0.38125579  0.50447009  0.51866868  1
  O2-  O268  1  0.86770245  0.01715553  -0.02140143  1
  O2-  O269  1  0.86316367  0.01308445  0.47182999  1
  O2-  O270  1  0.87910711  0.51915249  0.00871892  1
  O2-  O271  1  0.86231364  0.50832955  0.51811459  1
  O2-  O272  1  0.46826653  0.36643966  -0.00082485  1
  O2-  O273  1  0.49586796  0.37519154  0.50372966  1
  O2-  O274  1  0.47716933  0.86294003  -0.00851331  1
  O2-  O275  1  0.50087349  0.87527012  0.50694704  1
  O2-  O276  1  0.98158014  0.37837050  0.01543916  1
  O2-  O277  1  0.98038876  0.36170648  0.51997289  1
  O2-  O278  1  0.96979761  0.86274352  0.01116528  1
  O2-  O279  1  0.97710303  0.86744132  0.52486158  1
  O2-  O280  1  0.01778648  0.13631647  -0.00646653  1
  O2-  O281  1  0.00802088  0.13689474  0.46364150  1
  O2-  O282  1  0.02185903  0.61709213  -0.01593276  1
  O2-  O283  1  0.00718670  0.63551770  0.48970683  1
  O2-  O284  1  0.53214817  0.13472776  -0.00164594  1
  O2-  O285  1  0.50305067  0.12729579  0.50551007  1
  O2-  O286  1  0.52927217  0.63100825  -0.00686522  1
  O2-  O287  1  0.50849451  0.62540914  0.49788104  1
  O2-  O288  1  0.11480118  0.26932443  0.03125308  1
  O2-  O289  1  0.12308373  0.26025718  0.51712997  1
  O2-  O290  1  0.11070614  0.76192328  -0.03754421  1
  O2-  O291  1  0.11361011  0.77101202  0.48058358  1
  O2-  O292  1  0.61107536  0.28365873  0.00954137  1
  O2-  O293  1  0.62324389  0.25430911  0.52305951  1
  O2-  O294  1  0.61955197  0.76771621  -0.02436339  1
  O2-  O295  1  0.62460967  0.75460425  0.48716473  1
  O2-  O296  1  0.38421387  0.22625434  -0.03029188  1
  O2-  O297  1  0.37612486  0.24808974  0.48651195  1
  O2-  O298  1  0.38566860  0.72194661  0.00653091  1
  O2-  O299  1  0.38847254  0.74557664  0.53496555  1
  O2-  O300  1  0.88334318  0.23766942  -0.01452652  1
  O2-  O301  1  0.86898996  0.24047790  0.48177015  1
  O2-  O302  1  0.88835670  0.71220567  0.00542808  1
  O2-  O303  1  0.86587490  0.73667941  0.51759301  1
  O2-  O304  1  0.26166483  0.38311950  -0.03119658  1
  O2-  O305  1  0.26111837  0.37068076  0.47978691  1
  O2-  O306  1  0.27181328  0.88119732  -0.02321110  1
  O2-  O307  1  0.26014662  0.88609127  0.47434699  1
  O2-  O308  1  0.78193155  0.38932961  -0.01511768  1
  O2-  O309  1  0.75326411  0.37207860  0.48419945  1
  O2-  O310  1  0.77035660  0.87967494  -0.01715370  1
  O2-  O311  1  0.75415889  0.87156094  0.47976789  1
  O2-  O312  1  0.22526152  0.11695019  0.02349193  1
  O2-  O313  1  0.25592310  0.13147224  0.52323777  1
  O2-  O314  1  0.22316591  0.61419506  0.02552883  1
  O2-  O315  1  0.23049076  0.61480458  0.52170628  1
  O2-  O316  1  0.73419014  0.12045548  0.00949545  1
  O2-  O317  1  0.73960823  0.12560419  0.51323057  1
  O2-  O318  1  0.73577561  0.60961728  0.04029148  1
  O2-  O319  1  0.73357250  0.62353596  0.51384587  1
