# generated using pymatgen
data_Sr64Ca21Nb43O192
_symmetry_space_group_name_H-M   'P 1'
_cell_length_a   16.59089654
_cell_length_b   16.59083059
_cell_length_c   16.72078236
_cell_angle_alpha   90.03434252
_cell_angle_beta   90.05900334
_cell_angle_gamma   89.96112232
_symmetry_Int_Tables_number   1
_chemical_formula_structural   Sr64Ca21Nb43O192
_chemical_formula_sum   'Sr64 Ca21 Nb43 O192'
_cell_volume   4602.50394926
_cell_formula_units_Z   1
loop_
 _symmetry_equiv_pos_site_id
 _symmetry_equiv_pos_as_xyz
  1  'x, y, z'
loop_
 _atom_type_symbol
 _atom_type_oxidation_number
  Sr2+  2.0
  Ca2+  2.0
  Nb5+  5.0
  O2-  -2.0
loop_
 _atom_site_type_symbol
 _atom_site_label
 _atom_site_symmetry_multiplicity
 _atom_site_fract_x
 _atom_site_fract_y
 _atom_site_fract_z
 _atom_site_occupancy
  Sr2+  Sr0  1  0.13444738  0.11671268  0.13193846  1
  Sr2+  Sr1  1  0.13070372  0.11101227  0.62279417  1
  Sr2+  Sr2  1  0.13332148  0.61758347  0.12907577  1
  Sr2+  Sr3  1  0.13026510  0.62125307  0.61591698  1
  Sr2+  Sr4  1  0.62637365  0.11367163  0.12188826  1
  Sr2+  Sr5  1  0.63334761  0.11841376  0.62645905  1
  Sr2+  Sr6  1  0.63074645  0.60623556  0.12775869  1
  Sr2+  Sr7  1  0.63611554  0.61160847  0.62806759  1
  Sr2+  Sr8  1  0.37947800  0.36180627  0.12748956  1
  Sr2+  Sr9  1  0.38442367  0.36818832  0.62885603  1
  Sr2+  Sr10  1  0.38786827  0.85601743  0.12556765  1
  Sr2+  Sr11  1  0.37996908  0.86529069  0.62987787  1
  Sr2+  Sr12  1  0.88001219  0.37285004  0.12993952  1
  Sr2+  Sr13  1  0.88235725  0.36666961  0.62645790  1
  Sr2+  Sr14  1  0.87972942  0.86366513  0.12902999  1
  Sr2+  Sr15  1  0.88499174  0.86237778  0.62400238  1
  Sr2+  Sr16  1  0.11413960  0.38315948  0.37589405  1
  Sr2+  Sr17  1  0.11538108  0.37814399  0.87802812  1
  Sr2+  Sr18  1  0.11395483  0.88209686  0.36804622  1
  Sr2+  Sr19  1  0.13810077  0.87806838  0.87803550  1
  Sr2+  Sr20  1  0.60960785  0.37913869  0.37265693  1
  Sr2+  Sr21  1  0.61612860  0.38807194  0.87007821  1
  Sr2+  Sr22  1  0.61430572  0.88134712  0.38093386  1
  Sr2+  Sr23  1  0.61330055  0.88095351  0.87639577  1
  Sr2+  Sr24  1  0.35984922  0.13281855  0.38118680  1
  Sr2+  Sr25  1  0.36140177  0.12791003  0.87870055  1
  Sr2+  Sr26  1  0.36708014  0.63709830  0.36931616  1
  Sr2+  Sr27  1  0.36217978  0.64066673  0.88103451  1
  Sr2+  Sr28  1  0.86974854  0.12769056  0.36748850  1
  Sr2+  Sr29  1  0.87581079  0.13168842  0.87439561  1
  Sr2+  Sr30  1  0.86197522  0.62666336  0.37751300  1
  Sr2+  Sr31  1  0.86891282  0.62359547  0.88192169  1
  Sr2+  Sr32  1  0.11499279  0.13781716  0.37194652  1
  Sr2+  Sr33  1  0.12071271  0.13887540  0.87639907  1
  Sr2+  Sr34  1  0.11917560  0.63965333  0.37117815  1
  Sr2+  Sr35  1  0.11109943  0.63459864  0.88195182  1
  Sr2+  Sr36  1  0.62299408  0.13939933  0.38195098  1
  Sr2+  Sr37  1  0.61400109  0.12809555  0.87642505  1
  Sr2+  Sr38  1  0.61257149  0.63144252  0.37947061  1
  Sr2+  Sr39  1  0.61884194  0.63613479  0.87019838  1
  Sr2+  Sr40  1  0.37669361  0.39543864  0.37421205  1
  Sr2+  Sr41  1  0.36054330  0.37412849  0.87854804  1
  Sr2+  Sr42  1  0.37103215  0.87859752  0.36578112  1
  Sr2+  Sr43  1  0.37659186  0.87943292  0.87515037  1
  Sr2+  Sr44  1  0.86809852  0.37356924  0.37784779  1
  Sr2+  Sr45  1  0.87464521  0.37945270  0.87867277  1
  Sr2+  Sr46  1  0.86632936  0.87870580  0.36845186  1
  Sr2+  Sr47  1  0.86510187  0.88768458  0.87724847  1
  Sr2+  Sr48  1  0.14125562  0.37428896  0.12813767  1
  Sr2+  Sr49  1  0.13308534  0.36908255  0.62250661  1
  Sr2+  Sr50  1  0.13557629  0.85757380  0.12769420  1
  Sr2+  Sr51  1  0.14059395  0.87000114  0.63029833  1
  Sr2+  Sr52  1  0.61273932  0.36537050  0.12726885  1
  Sr2+  Sr53  1  0.62768506  0.36650634  0.62534879  1
  Sr2+  Sr54  1  0.63156827  0.87304766  0.12568184  1
  Sr2+  Sr55  1  0.63635735  0.86398781  0.62492315  1
  Sr2+  Sr56  1  0.39230258  0.12268266  0.12018517  1
  Sr2+  Sr57  1  0.38722006  0.11394000  0.62202714  1
  Sr2+  Sr58  1  0.37716268  0.61343802  0.13239974  1
  Sr2+  Sr59  1  0.37818067  0.62119065  0.62936562  1
  Sr2+  Sr60  1  0.88602611  0.11322016  0.13043600  1
  Sr2+  Sr61  1  0.88558572  0.12124921  0.62672651  1
  Sr2+  Sr62  1  0.89366950  0.62253175  0.13057058  1
  Sr2+  Sr63  1  0.88486473  0.62181579  0.62378947  1
  Ca2+  Ca64  1  0.49849868  0.49884029  -0.00181825  1
  Ca2+  Ca65  1  0.50359145  0.50327511  0.50337066  1
  Ca2+  Ca66  1  0.00019599  0.00090781  0.49888111  1
  Ca2+  Ca67  1  0.49964203  0.00031247  0.49915291  1
  Ca2+  Ca68  1  0.00200927  0.00165891  -0.00039233  1
  Ca2+  Ca69  1  0.24819168  0.75237878  0.49885950  1
  Ca2+  Ca70  1  0.74953800  0.74595470  -0.00219951  1
  Ca2+  Ca71  1  0.74987983  0.25009983  -0.00112989  1
  Ca2+  Ca72  1  0.25204864  0.74936833  0.00171527  1
  Ca2+  Ca73  1  0.24671347  0.25369050  0.50340816  1
  Ca2+  Ca74  1  0.74933066  0.49778170  0.25186335  1
  Ca2+  Ca75  1  0.49537127  0.24384314  0.25365222  1
  Ca2+  Ca76  1  0.24766693  0.49803483  0.25461298  1
  Ca2+  Ca77  1  0.50151165  0.75029007  0.74770705  1
  Ca2+  Ca78  1  0.24720578  0.49987450  0.75096772  1
  Ca2+  Ca79  1  0.50524684  0.74856015  0.24820873  1
  Ca2+  Ca80  1  -0.00262519  0.25239436  0.24977795  1
  Ca2+  Ca81  1  0.00175283  0.75152139  0.75113363  1
  Ca2+  Ca82  1  0.25402936  0.00069184  0.24783504  1
  Ca2+  Ca83  1  -0.00094484  0.74919111  0.25076243  1
  Ca2+  Ca84  1  0.49906474  0.25119221  0.75178547  1
  Nb5+  Nb85  1  0.49885363  -0.00301862  0.00032431  1
  Nb5+  Nb86  1  -0.00103357  0.50019102  0.50723669  1
  Nb5+  Nb87  1  0.00084977  0.49762815  0.00722846  1
  Nb5+  Nb88  1  0.75041118  0.24499797  0.50143425  1
  Nb5+  Nb89  1  0.75047261  0.74340856  0.49896809  1
  Nb5+  Nb90  1  0.24639262  0.24736180  0.00306987  1
  Nb5+  Nb91  1  0.25881666  0.00431748  0.75096945  1
  Nb5+  Nb92  1  0.00064931  0.25204987  0.74956392  1
  Nb5+  Nb93  1  0.75537767  0.49044594  0.74886077  1
  Nb5+  Nb94  1  0.74692851  -0.00113963  0.25693932  1
  Nb5+  Nb95  1  0.75298079  -0.00301685  0.75180552  1
  Nb5+  Nb96  1  0.00488054  -0.00250323  0.24512609  1
  Nb5+  Nb97  1  0.00514639  -0.00123941  0.75276028  1
  Nb5+  Nb98  1  -0.00178434  0.50135162  0.26159876  1
  Nb5+  Nb99  1  0.00270379  0.50053472  0.75269742  1
  Nb5+  Nb100  1  0.50009449  0.00419443  0.25714199  1
  Nb5+  Nb101  1  0.50652166  -0.00023212  0.74782628  1
  Nb5+  Nb102  1  0.50058060  0.49930223  0.24941133  1
  Nb5+  Nb103  1  0.49190492  0.50624755  0.75568713  1
  Nb5+  Nb104  1  0.25120679  0.25280425  0.26045931  1
  Nb5+  Nb105  1  0.25195258  0.24758628  0.74729497  1
  Nb5+  Nb106  1  0.25210606  0.75028467  0.24938007  1
  Nb5+  Nb107  1  0.24539376  0.74513672  0.75227197  1
  Nb5+  Nb108  1  0.74602431  0.24857295  0.24481134  1
  Nb5+  Nb109  1  0.75142030  0.24656064  0.75126769  1
  Nb5+  Nb110  1  0.74315821  0.74467077  0.24606060  1
  Nb5+  Nb111  1  0.75578205  0.74181236  0.75069664  1
  Nb5+  Nb112  1  -0.00140259  0.25133865  0.50166982  1
  Nb5+  Nb113  1  0.00170119  0.25093314  1.00712880  1
  Nb5+  Nb114  1  -0.00078283  0.75583282  0.49408627  1
  Nb5+  Nb115  1  -0.00412619  0.75743448  0.99601936  1
  Nb5+  Nb116  1  0.49290396  0.24775731  0.50279543  1
  Nb5+  Nb117  1  0.50072291  0.25134484  0.99287297  1
  Nb5+  Nb118  1  0.49495756  0.74951826  0.50143666  1
  Nb5+  Nb119  1  0.50598584  0.74080172  1.00035170  1
  Nb5+  Nb120  1  0.25333580  -0.00143448  0.00452556  1
  Nb5+  Nb121  1  0.24733681  -0.00208470  0.49467233  1
  Nb5+  Nb122  1  0.24980676  0.50261038  -0.00532279  1
  Nb5+  Nb123  1  0.25548346  0.50326400  0.50086827  1
  Nb5+  Nb124  1  0.75116684  0.00382136  0.00592271  1
  Nb5+  Nb125  1  0.75456520  -0.00621526  0.50784608  1
  Nb5+  Nb126  1  0.75182940  0.49666451  0.00432479  1
  Nb5+  Nb127  1  0.75282038  0.49082346  0.50332723  1
  O2-  O128  1  -0.03069922  -0.01499375  0.13127157  1
  O2-  O129  1  -0.02384502  -0.00600596  0.63865741  1
  O2-  O130  1  -0.01933276  0.48444417  0.11952228  1
  O2-  O131  1  -0.02213850  0.48815874  0.62298495  1
  O2-  O132  1  0.48298823  -0.01570513  0.11584505  1
  O2-  O133  1  0.47839738  -0.01441571  0.63644612  1
  O2-  O134  1  0.47308771  0.48343358  0.13169750  1
  O2-  O135  1  0.48197736  0.48465877  0.63853472  1
  O2-  O136  1  0.01726255  0.02085722  0.36293583  1
  O2-  O137  1  0.00556903  0.03645464  0.86363808  1
  O2-  O138  1  0.01472447  0.51144828  0.37813791  1
  O2-  O139  1  0.01557259  0.50814128  0.86902043  1
  O2-  O140  1  0.53552422  0.01742813  0.36462745  1
  O2-  O141  1  0.51717704  0.01398567  0.87463820  1
  O2-  O142  1  0.52813177  0.50853790  0.36782824  1
  O2-  O143  1  0.53525095  0.51430290  0.86650686  1
  O2-  O144  1  0.22067266  0.23715635  0.11491684  1
  O2-  O145  1  0.21562037  0.23441689  0.63831724  1
  O2-  O146  1  0.22654429  0.73408306  0.13156172  1
  O2-  O147  1  0.22144732  0.74041608  0.63474485  1
  O2-  O148  1  0.71580373  0.24205211  0.13419999  1
  O2-  O149  1  0.73442116  0.24214040  0.62541522  1
  O2-  O150  1  0.71757290  0.73540273  0.13410012  1
  O2-  O151  1  0.73073441  0.74010441  0.62055956  1
  O2-  O152  1  0.28117899  0.26919458  0.36948896  1
  O2-  O153  1  0.25805654  0.25667175  0.87176073  1
  O2-  O154  1  0.27746150  0.76388648  0.36672341  1
  O2-  O155  1  0.27186510  0.77325126  0.86639058  1
  O2-  O156  1  0.77372848  0.25245761  0.38571995  1
  O2-  O157  1  0.77815681  0.25672855  0.86233711  1
  O2-  O158  1  0.77333667  0.75998776  0.38272506  1
  O2-  O159  1  0.78504136  0.76010264  0.85998243  1
  O2-  O160  1  0.01200815  0.28343474  0.11540619  1
  O2-  O161  1  0.00823247  0.27553386  0.62731015  1
  O2-  O162  1  0.01348129  0.76674878  0.11387984  1
  O2-  O163  1  0.01673658  0.76775468  0.61101888  1
  O2-  O164  1  0.50377914  0.26009317  0.11150016  1
  O2-  O165  1  0.51072248  0.27765188  0.61873563  1
  O2-  O166  1  0.52027228  0.77799817  0.11145779  1
  O2-  O167  1  0.51416960  0.78448266  0.61410772  1
  O2-  O168  1  0.23715875  -0.02999190  0.38414011  1
  O2-  O169  1  0.24759434  -0.01193656  0.87461944  1
  O2-  O170  1  0.23508968  0.46634526  0.38975054  1
  O2-  O171  1  0.23437857  0.46597539  0.88322377  1
  O2-  O172  1  0.73794035  -0.01811933  0.37335424  1
  O2-  O173  1  0.73392171  -0.01405033  0.86574675  1
  O2-  O174  1  0.73865825  0.47971652  0.38983619  1
  O2-  O175  1  0.74784128  0.47449010  0.86557875  1
  O2-  O176  1  -0.02432619  0.23859353  0.38837086  1
  O2-  O177  1  -0.01426965  0.23837837  0.86793263  1
  O2-  O178  1  -0.02301582  0.71746065  0.38412225  1
  O2-  O179  1  -0.01487821  0.71767795  0.88320617  1
  O2-  O180  1  0.48927748  0.21614429  0.38760895  1
  O2-  O181  1  0.47794275  0.21869909  0.88258218  1
  O2-  O182  1  0.49328366  0.72308488  0.38372193  1
  O2-  O183  1  0.47896538  0.73309682  0.88280979  1
  O2-  O184  1  0.26760918  0.03262484  0.11316352  1
  O2-  O185  1  0.26118783  0.02809241  0.63658476  1
  O2-  O186  1  0.25159878  0.51152351  0.11280324  1
  O2-  O187  1  0.25556565  0.53364819  0.61902377  1
  O2-  O188  1  0.75884389  0.02000685  0.12096779  1
  O2-  O189  1  0.76381034  0.01723488  0.62393261  1
  O2-  O190  1  0.77148404  0.52482804  0.11370525  1
  O2-  O191  1  0.77444634  0.51504655  0.62816200  1
  O2-  O192  1  0.13104307  0.27183870  0.27425432  1
  O2-  O193  1  0.11667756  0.26777822  0.76696863  1
  O2-  O194  1  0.13315733  0.77608513  0.26852999  1
  O2-  O195  1  0.13294427  0.78297888  0.76825562  1
  O2-  O196  1  0.63452399  0.26066881  0.28277559  1
  O2-  O197  1  0.63924308  0.27552039  0.76397915  1
  O2-  O198  1  0.63749295  0.78482353  0.27449938  1
  O2-  O199  1  0.64296407  0.77301395  0.76201832  1
  O2-  O200  1  0.36043655  0.22439625  0.22388147  1
  O2-  O201  1  0.36215717  0.21989582  0.73111078  1
  O2-  O202  1  0.37001736  0.72581017  0.22948348  1
  O2-  O203  1  0.36297051  0.73992448  0.72512845  1
  O2-  O204  1  0.86046570  0.21704557  0.23621128  1
  O2-  O205  1  0.87533313  0.23440738  0.72904256  1
  O2-  O206  1  0.86097747  0.74082214  0.22946362  1
  O2-  O207  1  0.86808302  0.74229829  0.71434507  1
  O2-  O208  1  0.26513356  0.36428447  0.22287915  1
  O2-  O209  1  0.27276771  0.36192736  0.73755403  1
  O2-  O210  1  0.27550609  0.86764984  0.22651253  1
  O2-  O211  1  0.26379543  0.88814330  0.73470581  1
  O2-  O212  1  0.77439673  0.36113804  0.24376941  1
  O2-  O213  1  0.77496197  0.37484673  0.73236989  1
  O2-  O214  1  0.76777951  0.88252507  0.23267279  1
  O2-  O215  1  0.77038456  0.88370443  0.73116552  1
  O2-  O216  1  0.22255776  0.13489140  0.26786265  1
  O2-  O217  1  0.22698522  0.12219771  0.77113491  1
  O2-  O218  1  0.22750171  0.63187747  0.26717878  1
  O2-  O219  1  0.22584720  0.63505761  0.77745653  1
  O2-  O220  1  0.72718034  0.11925001  0.26654999  1
  O2-  O221  1  0.73268695  0.12769445  0.75608388  1
  O2-  O222  1  0.72576068  0.63461550  0.27446768  1
  O2-  O223  1  0.74109923  0.62470457  0.76070012  1
  O2-  O224  1  0.11061700  0.47174207  0.23879246  1
  O2-  O225  1  0.11217490  0.46913815  0.73246191  1
  O2-  O226  1  0.11676529  0.97565522  0.22536253  1
  O2-  O227  1  0.12182856  0.98825050  0.74077628  1
  O2-  O228  1  0.61899913  0.47278009  0.22444036  1
  O2-  O229  1  0.64055735  0.48015316  0.73151338  1
  O2-  O230  1  0.63017059  0.98490053  0.22742887  1
  O2-  O231  1  0.62783092  0.98500620  0.73098477  1
  O2-  O232  1  0.38725310  0.02311388  0.27874154  1
  O2-  O233  1  0.37516757  0.01961861  0.76533869  1
  O2-  O234  1  0.38367304  0.52195445  0.27355244  1
  O2-  O235  1  0.38275642  0.53683730  0.77131905  1
  O2-  O236  1  0.86452152  0.01965236  0.26119082  1
  O2-  O237  1  0.86703687  0.02259610  0.76451456  1
  O2-  O238  1  0.88199362  0.53142711  0.26277577  1
  O2-  O239  1  0.87781725  0.51634270  0.76299063  1
  O2-  O240  1  0.48119102  0.37843282  0.26633479  1
  O2-  O241  1  0.47986299  0.38712628  0.77637370  1
  O2-  O242  1  0.48365637  0.88723266  0.25808073  1
  O2-  O243  1  0.49011405  0.88593788  0.77439694  1
  O2-  O244  1  0.96484021  0.38636310  0.26402559  1
  O2-  O245  1  0.97533155  0.37323365  0.76024121  1
  O2-  O246  1  0.97604996  0.88453685  0.27025567  1
  O2-  O247  1  0.97991238  0.88957330  0.77533167  1
  O2-  O248  1  0.01340142  0.11719572  0.22611080  1
  O2-  O249  1  0.01219410  0.13459140  0.72794448  1
  O2-  O250  1  0.02105747  0.61379645  0.22793621  1
  O2-  O251  1  0.01949290  0.61279680  0.73018199  1
  O2-  O252  1  0.51643781  0.11311436  0.21625849  1
  O2-  O253  1  0.52471099  0.11631861  0.73662919  1
  O2-  O254  1  0.52702461  0.61486189  0.23051875  1
  O2-  O255  1  0.53259039  0.61695747  0.73355750  1
  O2-  O256  1  0.11914418  0.47426895  0.00917369  1
  O2-  O257  1  0.11315208  0.48021677  0.51797938  1
  O2-  O258  1  0.13878247  0.97723498  0.01098945  1
  O2-  O259  1  0.13279126  0.98197615  0.52871907  1
  O2-  O260  1  0.63929592  0.46983958  0.01669112  1
  O2-  O261  1  0.64056886  0.48708682  0.53072480  1
  O2-  O262  1  0.62199285  0.98176905  0.01054078  1
  O2-  O263  1  0.63806704  0.98376631  0.51486581  1
  O2-  O264  1  0.37999841  0.01973138  -0.01849998  1
  O2-  O265  1  0.36387142  0.02934948  0.49155476  1
  O2-  O266  1  0.36346245  0.51815966  -0.02092759  1
  O2-  O267  1  0.36737896  0.52444708  0.48237686  1
  O2-  O268  1  0.86239951  0.02297347  -0.02080970  1
  O2-  O269  1  0.86385697  0.02531057  0.48080003  1
  O2-  O270  1  0.88446397  0.51208372  -0.02029680  1
  O2-  O271  1  0.87380443  0.51802893  0.48755742  1
  O2-  O272  1  0.47262372  0.36297014  -0.02012190  1
  O2-  O273  1  0.48855960  0.36475410  0.47567587  1
  O2-  O274  1  0.48547037  0.88102140  -0.02080906  1
  O2-  O275  1  0.48582282  0.86598715  0.46779606  1
  O2-  O276  1  0.98762650  0.37415880  -0.02242840  1
  O2-  O277  1  0.97425469  0.38086414  0.48878615  1
  O2-  O278  1  0.97221205  0.86800344  -0.02364640  1
  O2-  O279  1  0.97308103  0.86673646  0.47548190  1
  O2-  O280  1  0.02909082  0.13793485  0.01959830  1
  O2-  O281  1  0.01470700  0.13907814  0.52229817  1
  O2-  O282  1  0.02200600  0.61291303  0.01482755  1
  O2-  O283  1  0.00939125  0.61913008  0.51794022  1
  O2-  O284  1  0.51682716  0.12034040  0.01318748  1
  O2-  O285  1  0.52885784  0.13553843  0.52649651  1
  O2-  O286  1  0.53361166  0.63020225  0.01748359  1
  O2-  O287  1  0.53585431  0.63853954  0.52086867  1
  O2-  O288  1  0.12454710  0.26578895  -0.02373842  1
  O2-  O289  1  0.11044804  0.27840936  0.48564673  1
  O2-  O290  1  0.11527423  0.76724717  -0.02088900  1
  O2-  O291  1  0.11216433  0.76595962  0.46917211  1
  O2-  O292  1  0.61338613  0.26900225  -0.02641775  1
  O2-  O293  1  0.63626009  0.27213170  0.48817643  1
  O2-  O294  1  0.61862530  0.76613999  -0.03390254  1
  O2-  O295  1  0.63777783  0.77455966  0.48546266  1
  O2-  O296  1  0.36438014  0.22876352  0.01017430  1
  O2-  O297  1  0.38091492  0.22917606  0.52262284  1
  O2-  O298  1  0.38697740  0.72435104  0.02132958  1
  O2-  O299  1  0.38386915  0.72609810  0.52069002  1
  O2-  O300  1  0.88781231  0.22622570  0.01126677  1
  O2-  O301  1  0.87205843  0.24103421  0.52573576  1
  O2-  O302  1  0.88334976  0.72294497  0.01984167  1
  O2-  O303  1  0.87089348  0.73608085  0.52164351  1
  O2-  O304  1  0.26496875  0.36623400  0.01353217  1
  O2-  O305  1  0.26475965  0.38798248  0.53754263  1
  O2-  O306  1  0.27972987  0.88678480  0.01580141  1
  O2-  O307  1  0.27137385  0.88694740  0.53140294  1
  O2-  O308  1  0.78595697  0.38291848  0.00850048  1
  O2-  O309  1  0.77184594  0.37572916  0.51815646  1
  O2-  O310  1  0.76519232  0.88570333  0.00915025  1
  O2-  O311  1  0.77444836  0.87856891  0.51601486  1
  O2-  O312  1  0.23202586  0.12676780  -0.02034206  1
  O2-  O313  1  0.22051319  0.11722567  0.48082413  1
  O2-  O314  1  0.22454237  0.61367447  -0.02379045  1
  O2-  O315  1  0.21705947  0.61473497  0.48023375  1
  O2-  O316  1  0.71998730  0.11549559  -0.01814987  1
  O2-  O317  1  0.73349424  0.12854998  0.49491842  1
  O2-  O318  1  0.73773975  0.60779742  -0.03436893  1
  O2-  O319  1  0.73859152  0.62644881  0.48880197  1
