# generated using pymatgen
data_Sr64Ca21Nb43O192
_symmetry_space_group_name_H-M   'P 1'
_cell_length_a   16.54953755
_cell_length_b   16.55591066
_cell_length_c   16.71347127
_cell_angle_alpha   89.94550304
_cell_angle_beta   89.93992311
_cell_angle_gamma   89.98906930
_symmetry_Int_Tables_number   1
_chemical_formula_structural   Sr64Ca21Nb43O192
_chemical_formula_sum   'Sr64 Ca21 Nb43 O192'
_cell_volume   4579.36386504
_cell_formula_units_Z   1
loop_
 _symmetry_equiv_pos_site_id
 _symmetry_equiv_pos_as_xyz
  1  'x, y, z'
loop_
 _atom_type_symbol
 _atom_type_oxidation_number
  Sr2+  2.0
  Ca2+  2.0
  Nb5+  5.0
  O2-  -2.0
loop_
 _atom_site_type_symbol
 _atom_site_label
 _atom_site_symmetry_multiplicity
 _atom_site_fract_x
 _atom_site_fract_y
 _atom_site_fract_z
 _atom_site_occupancy
  Sr2+  Sr0  1  0.12434945  0.14669363  0.12624944  1
  Sr2+  Sr1  1  0.10936222  0.12910182  0.62424288  1
  Sr2+  Sr2  1  0.12012517  0.61891016  0.12873794  1
  Sr2+  Sr3  1  0.12610579  0.63128326  0.62504503  1
  Sr2+  Sr4  1  0.61686420  0.13636934  0.13560500  1
  Sr2+  Sr5  1  0.62481514  0.13541040  0.62270618  1
  Sr2+  Sr6  1  0.62623390  0.62120281  0.12495821  1
  Sr2+  Sr7  1  0.61480235  0.62963771  0.62168907  1
  Sr2+  Sr8  1  0.36970469  0.38320450  0.12773983  1
  Sr2+  Sr9  1  0.37203712  0.39325392  0.62517688  1
  Sr2+  Sr10  1  0.36668714  0.88984763  0.12930704  1
  Sr2+  Sr11  1  0.36322303  0.87584076  0.62400075  1
  Sr2+  Sr12  1  0.87215507  0.39240947  0.12302647  1
  Sr2+  Sr13  1  0.85911881  0.38209375  0.62115936  1
  Sr2+  Sr14  1  0.86187272  0.86926921  0.13094393  1
  Sr2+  Sr15  1  0.87329168  0.88549051  0.62448713  1
  Sr2+  Sr16  1  0.13228279  0.36792947  0.36367914  1
  Sr2+  Sr17  1  0.13536414  0.37117561  0.87444417  1
  Sr2+  Sr18  1  0.13400464  0.87642353  0.37979751  1
  Sr2+  Sr19  1  0.14633455  0.87152888  0.87866565  1
  Sr2+  Sr20  1  0.64434361  0.36883859  0.37280915  1
  Sr2+  Sr21  1  0.63312140  0.36323979  0.87580642  1
  Sr2+  Sr22  1  0.60898925  0.87332596  0.37315307  1
  Sr2+  Sr23  1  0.63461651  0.87170993  0.87279976  1
  Sr2+  Sr24  1  0.38348736  0.11197560  0.36887388  1
  Sr2+  Sr25  1  0.37388414  0.12503721  0.88008434  1
  Sr2+  Sr26  1  0.38177511  0.63265317  0.37473315  1
  Sr2+  Sr27  1  0.38243504  0.62197704  0.87517237  1
  Sr2+  Sr28  1  0.89349879  0.12072248  0.37698853  1
  Sr2+  Sr29  1  0.88130958  0.11478983  0.87852351  1
  Sr2+  Sr30  1  0.87925889  0.62359972  0.36321579  1
  Sr2+  Sr31  1  0.88414386  0.62752656  0.87308522  1
  Sr2+  Sr32  1  0.13411100  0.11911730  0.37520474  1
  Sr2+  Sr33  1  0.13925761  0.12043027  0.88146964  1
  Sr2+  Sr34  1  0.13494290  0.63231674  0.36672780  1
  Sr2+  Sr35  1  0.12954506  0.61737721  0.87606468  1
  Sr2+  Sr36  1  0.63345070  0.11418456  0.37107699  1
  Sr2+  Sr37  1  0.63301605  0.11061802  0.87518873  1
  Sr2+  Sr38  1  0.63076983  0.60857496  0.37213087  1
  Sr2+  Sr39  1  0.63273526  0.63026710  0.87608992  1
  Sr2+  Sr40  1  0.37566881  0.35398144  0.37469692  1
  Sr2+  Sr41  1  0.37902892  0.36267495  0.87319956  1
  Sr2+  Sr42  1  0.37481431  0.87677653  0.38084080  1
  Sr2+  Sr43  1  0.38389180  0.87917143  0.87813110  1
  Sr2+  Sr44  1  0.87726949  0.35738099  0.37744845  1
  Sr2+  Sr45  1  0.88805015  0.36430610  0.87497356  1
  Sr2+  Sr46  1  0.88101527  0.88217679  0.36336501  1
  Sr2+  Sr47  1  0.87471945  0.87118796  0.87575154  1
  Sr2+  Sr48  1  0.10737052  0.38045421  0.12550268  1
  Sr2+  Sr49  1  0.11707790  0.39000959  0.62306855  1
  Sr2+  Sr50  1  0.12084245  0.88351047  0.12708613  1
  Sr2+  Sr51  1  0.11849478  0.87413484  0.62267833  1
  Sr2+  Sr52  1  0.61092184  0.38316309  0.13093353  1
  Sr2+  Sr53  1  0.61594348  0.37668126  0.62105399  1
  Sr2+  Sr54  1  0.61689679  0.87698801  0.13895686  1
  Sr2+  Sr55  1  0.62319880  0.88357930  0.62768245  1
  Sr2+  Sr56  1  0.35934585  0.13041571  0.12752553  1
  Sr2+  Sr57  1  0.36972878  0.13918388  0.62592123  1
  Sr2+  Sr58  1  0.39002959  0.62522313  0.12374862  1
  Sr2+  Sr59  1  0.36596981  0.62886676  0.62750940  1
  Sr2+  Sr60  1  0.87024822  0.12695904  0.12841817  1
  Sr2+  Sr61  1  0.86280128  0.12524345  0.62591249  1
  Sr2+  Sr62  1  0.87028995  0.62961463  0.12485205  1
  Sr2+  Sr63  1  0.88237670  0.62831267  0.62204771  1
  Ca2+  Ca64  1  0.50335868  0.00098283  0.00289579  1
  Ca2+  Ca65  1  0.00116924  0.50170474  0.49780682  1
  Ca2+  Ca66  1  0.50101130  0.00122332  0.50395290  1
  Ca2+  Ca67  1  0.49829232  0.49730251  0.49956842  1
  Ca2+  Ca68  1  -0.00097640  -0.00304869  -0.00033217  1
  Ca2+  Ca69  1  0.74995913  0.75455064  0.50153723  1
  Ca2+  Ca70  1  0.74887524  0.25121768  -0.00121272  1
  Ca2+  Ca71  1  0.25040276  0.25540102  0.00107697  1
  Ca2+  Ca72  1  0.25106643  0.74821007  0.00067468  1
  Ca2+  Ca73  1  0.24967256  0.25226471  0.50296495  1
  Ca2+  Ca74  1  0.24907242  -0.00067066  0.25186458  1
  Ca2+  Ca75  1  0.75135438  0.00008966  0.25247756  1
  Ca2+  Ca76  1  0.74787047  0.50251224  0.74994187  1
  Ca2+  Ca77  1  0.25075719  0.50208277  0.24741613  1
  Ca2+  Ca78  1  0.49717802  0.74876713  0.24852020  1
  Ca2+  Ca79  1  0.74924622  0.49850419  0.24906415  1
  Ca2+  Ca80  1  -0.00038196  0.24909762  0.74920721  1
  Ca2+  Ca81  1  0.25000546  0.00066704  0.74870725  1
  Ca2+  Ca82  1  0.50002298  0.25085178  0.25214177  1
  Ca2+  Ca83  1  -0.00076084  0.24928046  0.24985865  1
  Ca2+  Ca84  1  0.00182337  0.75233886  0.24827021  1
  Nb5+  Nb85  1  0.00121971  0.50044750  -0.00453732  1
  Nb5+  Nb86  1  0.50523032  0.49852288  -0.00674027  1
  Nb5+  Nb87  1  0.00251489  -0.00111305  0.50167964  1
  Nb5+  Nb88  1  0.25112779  0.74795293  0.49969985  1
  Nb5+  Nb89  1  0.74746380  0.75055459  0.00007480  1
  Nb5+  Nb90  1  0.75085120  0.24722131  0.49866797  1
  Nb5+  Nb91  1  0.50141361  0.25441126  0.74876359  1
  Nb5+  Nb92  1  0.00590639  0.75148417  0.75099731  1
  Nb5+  Nb93  1  0.24934224  0.50030745  0.75119570  1
  Nb5+  Nb94  1  0.50035020  0.75684670  0.74855887  1
  Nb5+  Nb95  1  0.75178013  -0.00024250  0.75073562  1
  Nb5+  Nb96  1  0.00519661  0.00486484  0.24093179  1
  Nb5+  Nb97  1  0.00461761  -0.00162721  0.75406465  1
  Nb5+  Nb98  1  -0.00472651  0.49640076  0.25688640  1
  Nb5+  Nb99  1  -0.00393584  0.50205983  0.74745207  1
  Nb5+  Nb100  1  0.50141351  0.00104109  0.24911051  1
  Nb5+  Nb101  1  0.50136365  0.01095693  0.74911540  1
  Nb5+  Nb102  1  0.49219253  0.49549810  0.25965827  1
  Nb5+  Nb103  1  0.50262258  0.50448027  0.75463510  1
  Nb5+  Nb104  1  0.25011212  0.25167708  0.25178349  1
  Nb5+  Nb105  1  0.24509983  0.24961909  0.74266687  1
  Nb5+  Nb106  1  0.24940795  0.75277074  0.24238651  1
  Nb5+  Nb107  1  0.25607423  0.74788640  0.75315111  1
  Nb5+  Nb108  1  0.75619303  0.25162390  0.24096008  1
  Nb5+  Nb109  1  0.75309534  0.24937394  0.75258812  1
  Nb5+  Nb110  1  0.74742142  0.74690398  0.25903907  1
  Nb5+  Nb111  1  0.75479166  0.74946429  0.74619464  1
  Nb5+  Nb112  1  0.00161263  0.25564766  0.50899814  1
  Nb5+  Nb113  1  0.00035129  0.24349472  0.99378574  1
  Nb5+  Nb114  1  -0.00115935  0.75139549  0.49604676  1
  Nb5+  Nb115  1  -0.00018732  0.74998724  1.00025411  1
  Nb5+  Nb116  1  0.50230201  0.24840982  0.49654362  1
  Nb5+  Nb117  1  0.50140399  0.24607342  1.00055907  1
  Nb5+  Nb118  1  0.49978238  0.75270470  0.50026261  1
  Nb5+  Nb119  1  0.49868739  0.74879460  0.99987350  1
  Nb5+  Nb120  1  0.24944651  -0.00039499  0.00173959  1
  Nb5+  Nb121  1  0.25077120  0.00574410  0.51005167  1
  Nb5+  Nb122  1  0.25414243  0.50153480  -0.00010837  1
  Nb5+  Nb123  1  0.25328455  0.50100622  0.49309066  1
  Nb5+  Nb124  1  0.74563744  0.00123386  0.00813957  1
  Nb5+  Nb125  1  0.75329073  -0.00249661  0.49738026  1
  Nb5+  Nb126  1  0.75415903  0.50096636  -0.00826257  1
  Nb5+  Nb127  1  0.74870342  0.50764353  0.50371829  1
  O2-  O128  1  0.02230209  0.03037480  0.13135670  1
  O2-  O129  1  0.01339004  0.00507569  0.63018130  1
  O2-  O130  1  0.01094885  0.51842885  0.11081799  1
  O2-  O131  1  0.02239700  0.52278010  0.63608129  1
  O2-  O132  1  0.53389793  0.01378798  0.13406645  1
  O2-  O133  1  0.53286735  0.00751188  0.63715409  1
  O2-  O134  1  0.51647509  0.51689978  0.10735637  1
  O2-  O135  1  0.51762527  0.51093192  0.63992104  1
  O2-  O136  1  -0.01012969  -0.02011305  0.38793323  1
  O2-  O137  1  -0.02667932  -0.01664059  0.86432178  1
  O2-  O138  1  -0.02449543  0.47430856  0.36696180  1
  O2-  O139  1  -0.02208758  0.49266450  0.87270995  1
  O2-  O140  1  0.47986321  -0.01849831  0.36992625  1
  O2-  O141  1  0.49523565  -0.02005245  0.86193799  1
  O2-  O142  1  0.45910683  0.48310595  0.36749738  1
  O2-  O143  1  0.46769042  0.48768006  0.87234791  1
  O2-  O144  1  0.27927849  0.26230923  0.13435097  1
  O2-  O145  1  0.28790646  0.27160557  0.63570585  1
  O2-  O146  1  0.23967047  0.77959869  0.13179854  1
  O2-  O147  1  0.25067403  0.76063938  0.63000558  1
  O2-  O148  1  0.78545146  0.26728862  0.13136292  1
  O2-  O149  1  0.76727005  0.25518924  0.62878704  1
  O2-  O150  1  0.73965716  0.76865231  0.11391470  1
  O2-  O151  1  0.74942473  0.78267153  0.63632082  1
  O2-  O152  1  0.22026437  0.24243858  0.37122767  1
  O2-  O153  1  0.24176102  0.23548820  0.85994621  1
  O2-  O154  1  0.25708993  0.72993837  0.38561326  1
  O2-  O155  1  0.24178309  0.72481977  0.86458047  1
  O2-  O156  1  0.72852140  0.23311353  0.38578739  1
  O2-  O157  1  0.72121045  0.23119372  0.86324115  1
  O2-  O158  1  0.74984682  0.72059537  0.37003871  1
  O2-  O159  1  0.74704927  0.74095692  0.86918204  1
  O2-  O160  1  -0.01653928  0.22668703  0.11108757  1
  O2-  O161  1  -0.01971051  0.21437881  0.61841521  1
  O2-  O162  1  0.00321255  0.72108372  0.11168785  1
  O2-  O163  1  0.00460291  0.73249142  0.63227777  1
  O2-  O164  1  0.48503321  0.22755368  0.11288116  1
  O2-  O165  1  0.49496693  0.22442444  0.63216521  1
  O2-  O166  1  0.51365846  0.72290754  0.11073244  1
  O2-  O167  1  0.49607204  0.72611765  0.63301906  1
  O2-  O168  1  0.25765673  0.01114643  0.39163166  1
  O2-  O169  1  0.25828986  0.02542358  0.88055814  1
  O2-  O170  1  0.26345437  0.53326167  0.38436661  1
  O2-  O171  1  0.25815174  0.52808647  0.86877161  1
  O2-  O172  1  0.77135706  0.02670747  0.38827536  1
  O2-  O173  1  0.76454596  0.01633796  0.86870416  1
  O2-  O174  1  0.76814026  0.52309789  0.38619899  1
  O2-  O175  1  0.75711901  0.54030984  0.88136396  1
  O2-  O176  1  0.01348729  0.26603218  0.39196032  1
  O2-  O177  1  0.01656760  0.28156325  0.87965189  1
  O2-  O178  1  -0.00607103  0.77928287  0.38599575  1
  O2-  O179  1  -0.01328381  0.76196879  0.87018377  1
  O2-  O180  1  0.51961623  0.28046354  0.38782659  1
  O2-  O181  1  0.51687966  0.26796885  0.86618468  1
  O2-  O182  1  0.48607425  0.76947581  0.38637137  1
  O2-  O183  1  0.49389870  0.76415759  0.86795964  1
  O2-  O184  1  0.24013287  -0.02684871  0.11755864  1
  O2-  O185  1  0.23779314  -0.03587537  0.61931019  1
  O2-  O186  1  0.23231501  0.47315914  0.10871396  1
  O2-  O187  1  0.23311946  0.48723604  0.63368171  1
  O2-  O188  1  0.73912600  -0.03160439  0.11688597  1
  O2-  O189  1  0.74549800  -0.01779630  0.62773258  1
  O2-  O190  1  0.72708607  0.48500404  0.10659934  1
  O2-  O191  1  0.73079125  0.47199338  0.61811385  1
  O2-  O192  1  0.13267533  0.27578164  0.22783951  1
  O2-  O193  1  0.13512892  0.27771985  0.72644532  1
  O2-  O194  1  0.13472582  0.77154724  0.27216906  1
  O2-  O195  1  0.12314709  0.76652610  0.75084018  1
  O2-  O196  1  0.63707523  0.26939359  0.23049735  1
  O2-  O197  1  0.62475981  0.26569003  0.72995280  1
  O2-  O198  1  0.63193825  0.77600154  0.25394994  1
  O2-  O199  1  0.61785928  0.76923044  0.74930312  1
  O2-  O200  1  0.36716240  0.22907975  0.28011627  1
  O2-  O201  1  0.38510573  0.23029598  0.76513213  1
  O2-  O202  1  0.36389672  0.71649294  0.24555771  1
  O2-  O203  1  0.37415445  0.72765971  0.75185351  1
  O2-  O204  1  0.86640248  0.22971906  0.28086837  1
  O2-  O205  1  0.86464936  0.22052212  0.76844860  1
  O2-  O206  1  0.86602827  0.72872395  0.23966891  1
  O2-  O207  1  0.87105534  0.73002186  0.74705518  1
  O2-  O208  1  0.27108047  0.36990825  0.27203083  1
  O2-  O209  1  0.26478702  0.38258077  0.76773958  1
  O2-  O210  1  0.27893327  0.86438685  0.27289375  1
  O2-  O211  1  0.27305578  0.86220135  0.76977367  1
  O2-  O212  1  0.76740767  0.36588312  0.27672595  1
  O2-  O213  1  0.77137052  0.36370403  0.76580134  1
  O2-  O214  1  0.77513096  0.86407579  0.26087257  1
  O2-  O215  1  0.76384533  0.87659016  0.76952244  1
  O2-  O216  1  0.22761577  0.13324659  0.23652341  1
  O2-  O217  1  0.23176608  0.13610033  0.72144999  1
  O2-  O218  1  0.21886756  0.63520409  0.23589956  1
  O2-  O219  1  0.23630919  0.62465013  0.73013837  1
  O2-  O220  1  0.73375758  0.13410555  0.22986962  1
  O2-  O221  1  0.73264647  0.11774321  0.73312300  1
  O2-  O222  1  0.72858136  0.63345961  0.22630114  1
  O2-  O223  1  0.72221769  0.63976399  0.72965710  1
  O2-  O224  1  0.11303905  0.47924709  0.25234375  1
  O2-  O225  1  0.12528587  0.49079360  0.77001666  1
  O2-  O226  1  0.11624882  0.97224821  0.26791243  1
  O2-  O227  1  0.11458629  0.96436043  0.76360408  1
  O2-  O228  1  0.61237914  0.47937773  0.26812396  1
  O2-  O229  1  0.61208166  0.48180693  0.77923757  1
  O2-  O230  1  0.61979739  0.97933052  0.27575096  1
  O2-  O231  1  0.63249682  0.98076040  0.76316479  1
  O2-  O232  1  0.38424431  0.02347769  0.23043196  1
  O2-  O233  1  0.38789857  0.02426692  0.73296958  1
  O2-  O234  1  0.38335876  0.51408511  0.21464154  1
  O2-  O235  1  0.37128757  0.51369499  0.73646764  1
  O2-  O236  1  0.88679345  0.02306365  0.24612672  1
  O2-  O237  1  0.87361920  0.01031474  0.73356994  1
  O2-  O238  1  0.88196882  0.52044638  0.22392096  1
  O2-  O239  1  0.88362315  0.53018575  0.73644582  1
  O2-  O240  1  0.48544528  0.38321353  0.21909472  1
  O2-  O241  1  0.48396275  0.37201414  0.73567867  1
  O2-  O242  1  0.48308840  0.88211455  0.22630903  1
  O2-  O243  1  0.47946484  0.86974222  0.73141383  1
  O2-  O244  1  0.97942639  0.38275986  0.22096643  1
  O2-  O245  1  0.97986641  0.38842468  0.73138768  1
  O2-  O246  1  0.97952903  0.88633754  0.22348923  1
  O2-  O247  1  0.97777278  0.86652793  0.73547832  1
  O2-  O248  1  0.02198251  0.11610584  0.28099071  1
  O2-  O249  1  0.02777229  0.11129565  0.76631145  1
  O2-  O250  1  0.01425808  0.61531440  0.27315245  1
  O2-  O251  1  0.01597081  0.63109390  0.76927110  1
  O2-  O252  1  0.52175006  0.11826455  0.27266059  1
  O2-  O253  1  0.52492330  0.12426242  0.76728145  1
  O2-  O254  1  0.51649366  0.61279683  0.26469979  1
  O2-  O255  1  0.51129196  0.62243990  0.76900752  1
  O2-  O256  1  0.11536316  0.48672280  -0.02390655  1
  O2-  O257  1  0.13677268  0.47544095  0.49034047  1
  O2-  O258  1  0.13155781  0.97218145  -0.01381667  1
  O2-  O259  1  0.12330667  0.97867900  0.49767871  1
  O2-  O260  1  0.61891751  0.48573615  -0.02828297  1
  O2-  O261  1  0.63387102  0.47985169  0.47614747  1
  O2-  O262  1  0.63611710  0.97849276  -0.02707517  1
  O2-  O263  1  0.64013860  0.97617572  0.48823321  1
  O2-  O264  1  0.36891731  0.02297006  0.01489492  1
  O2-  O265  1  0.36579514  0.02016381  0.52409802  1
  O2-  O266  1  0.36933581  0.52043080  0.00988545  1
  O2-  O267  1  0.36500383  0.52062454  0.53026911  1
  O2-  O268  1  0.86293759  0.02311143  0.00889391  1
  O2-  O269  1  0.88425792  0.01493005  0.52178710  1
  O2-  O270  1  0.86898895  0.51938488  0.01140003  1
  O2-  O271  1  0.86664417  0.51133559  0.52661256  1
  O2-  O272  1  0.47673966  0.38337139  0.00717698  1
  O2-  O273  1  0.48848841  0.36119815  0.53392384  1
  O2-  O274  1  0.47966570  0.86155006  0.01430192  1
  O2-  O275  1  0.47240038  0.86544923  0.52637687  1
  O2-  O276  1  0.97581429  0.38583164  0.01126957  1
  O2-  O277  1  0.97881782  0.36599376  0.53039118  1
  O2-  O278  1  0.96706515  0.86027262  0.01522573  1
  O2-  O279  1  0.99283901  0.87311032  0.52764172  1
  O2-  O280  1  0.01842213  0.13264365  -0.03174283  1
  O2-  O281  1  0.02137353  0.11563126  0.48830468  1
  O2-  O282  1  0.00363529  0.62454098  -0.02679741  1
  O2-  O283  1  0.02583387  0.63816555  0.48253384  1
  O2-  O284  1  0.52409359  0.13650500  -0.02476696  1
  O2-  O285  1  0.53662096  0.13464230  0.48851803  1
  O2-  O286  1  0.51221139  0.61901559  -0.03008237  1
  O2-  O287  1  0.52161255  0.63480517  0.48580339  1
  O2-  O288  1  0.11469713  0.27453797  0.01598538  1
  O2-  O289  1  0.11520023  0.26452686  0.53336694  1
  O2-  O290  1  0.11166657  0.76926169  -0.01119184  1
  O2-  O291  1  0.12993151  0.76808819  0.50476717  1
  O2-  O292  1  0.61340844  0.28568881  0.01204047  1
  O2-  O293  1  0.63371670  0.26384788  0.52352569  1
  O2-  O294  1  0.62264222  0.75820914  -0.01928011  1
  O2-  O295  1  0.61334029  0.77890829  0.50882538  1
  O2-  O296  1  0.38618033  0.24367532  -0.02752376  1
  O2-  O297  1  0.38910889  0.22197690  0.48425510  1
  O2-  O298  1  0.38544193  0.71945081  -0.00469165  1
  O2-  O299  1  0.37177650  0.72690867  0.50965607  1
  O2-  O300  1  0.88222604  0.23962211  -0.02945678  1
  O2-  O301  1  0.87281284  0.23094188  0.48745263  1
  O2-  O302  1  0.86477136  0.72755507  -0.00394228  1
  O2-  O303  1  0.88637140  0.72984005  0.50896389  1
  O2-  O304  1  0.25881810  0.38973034  -0.03680806  1
  O2-  O305  1  0.27936795  0.38710521  0.48476281  1
  O2-  O306  1  0.27436164  0.88190784  -0.02621784  1
  O2-  O307  1  0.26861017  0.86652581  0.48946741  1
  O2-  O308  1  0.76487544  0.38926524  -0.03511977  1
  O2-  O309  1  0.76957376  0.36520984  0.48754513  1
  O2-  O310  1  0.76478284  0.86919477  -0.02020143  1
  O2-  O311  1  0.78700248  0.88678736  0.48480739  1
  O2-  O312  1  0.22563909  0.11845029  0.01804015  1
  O2-  O313  1  0.22549082  0.11614063  0.52830566  1
  O2-  O314  1  0.21737423  0.61359290  0.01168152  1
  O2-  O315  1  0.23106365  0.62806186  0.52067637  1
  O2-  O316  1  0.72169470  0.11498865  0.02205311  1
  O2-  O317  1  0.74235527  0.12286449  0.52307281  1
  O2-  O318  1  0.72705770  0.63026149  0.01304261  1
  O2-  O319  1  0.72911867  0.61897976  0.52729854  1
