# generated using pymatgen
data_Sr64Ca21Nb43O192
_symmetry_space_group_name_H-M   'P 1'
_cell_length_a   16.57958506
_cell_length_b   16.57807971
_cell_length_c   16.72526720
_cell_angle_alpha   90.00753315
_cell_angle_beta   89.99782485
_cell_angle_gamma   90.09395736
_symmetry_Int_Tables_number   1
_chemical_formula_structural   Sr64Ca21Nb43O192
_chemical_formula_sum   'Sr64 Ca21 Nb43 O192'
_cell_volume   4597.06196014
_cell_formula_units_Z   1
loop_
 _symmetry_equiv_pos_site_id
 _symmetry_equiv_pos_as_xyz
  1  'x, y, z'
loop_
 _atom_type_symbol
 _atom_type_oxidation_number
  Sr2+  2.0
  Ca2+  2.0
  Nb5+  5.0
  O2-  -2.0
loop_
 _atom_site_type_symbol
 _atom_site_label
 _atom_site_symmetry_multiplicity
 _atom_site_fract_x
 _atom_site_fract_y
 _atom_site_fract_z
 _atom_site_occupancy
  Sr2+  Sr0  1  0.11821111  0.12953940  0.12087585  1
  Sr2+  Sr1  1  0.11800276  0.13026297  0.62749004  1
  Sr2+  Sr2  1  0.12028774  0.63752131  0.12949625  1
  Sr2+  Sr3  1  0.12289373  0.64799579  0.62790528  1
  Sr2+  Sr4  1  0.63287254  0.11870604  0.12981775  1
  Sr2+  Sr5  1  0.62154590  0.13467216  0.63122582  1
  Sr2+  Sr6  1  0.62294495  0.62326934  0.12343603  1
  Sr2+  Sr7  1  0.62253902  0.63537750  0.63194716  1
  Sr2+  Sr8  1  0.37311009  0.36716711  0.12323942  1
  Sr2+  Sr9  1  0.38217776  0.37540705  0.61120306  1
  Sr2+  Sr10  1  0.37938293  0.87527039  0.13299915  1
  Sr2+  Sr11  1  0.36869058  0.88644897  0.63119269  1
  Sr2+  Sr12  1  0.87865201  0.37233740  0.12912079  1
  Sr2+  Sr13  1  0.88085644  0.38302424  0.61999071  1
  Sr2+  Sr14  1  0.87268397  0.86697088  0.12199728  1
  Sr2+  Sr15  1  0.87354728  0.85497459  0.62368002  1
  Sr2+  Sr16  1  0.13578658  0.37689082  0.37938077  1
  Sr2+  Sr17  1  0.13223877  0.37127547  0.86836181  1
  Sr2+  Sr18  1  0.14251548  0.87115549  0.38162820  1
  Sr2+  Sr19  1  0.14043544  0.87198832  0.86991946  1
  Sr2+  Sr20  1  0.62681568  0.37227563  0.38347509  1
  Sr2+  Sr21  1  0.61825961  0.37915509  0.87537254  1
  Sr2+  Sr22  1  0.61978189  0.87323643  0.37431080  1
  Sr2+  Sr23  1  0.62363272  0.86688206  0.87114198  1
  Sr2+  Sr24  1  0.38633237  0.11397521  0.38006902  1
  Sr2+  Sr25  1  0.38204764  0.11830409  0.87310114  1
  Sr2+  Sr26  1  0.35066480  0.62606490  0.37034968  1
  Sr2+  Sr27  1  0.35440370  0.62311985  0.87796467  1
  Sr2+  Sr28  1  0.87215287  0.12275676  0.37826669  1
  Sr2+  Sr29  1  0.87687956  0.12029781  0.86786406  1
  Sr2+  Sr30  1  0.86897303  0.62234529  0.37885698  1
  Sr2+  Sr31  1  0.85516438  0.62229474  0.87719627  1
  Sr2+  Sr32  1  0.12763855  0.11374545  0.37944517  1
  Sr2+  Sr33  1  0.12850763  0.11898841  0.87295156  1
  Sr2+  Sr34  1  0.13050542  0.62375918  0.37830762  1
  Sr2+  Sr35  1  0.12915027  0.61522478  0.86868411  1
  Sr2+  Sr36  1  0.62581973  0.12191395  0.37933900  1
  Sr2+  Sr37  1  0.62531079  0.10137115  0.87008605  1
  Sr2+  Sr38  1  0.62311997  0.62121721  0.36909312  1
  Sr2+  Sr39  1  0.62086139  0.62276693  0.88001869  1
  Sr2+  Sr40  1  0.38117234  0.39661252  0.37643570  1
  Sr2+  Sr41  1  0.37817813  0.38520531  0.87908114  1
  Sr2+  Sr42  1  0.38291716  0.85937395  0.38007053  1
  Sr2+  Sr43  1  0.38077621  0.86879541  0.86816264  1
  Sr2+  Sr44  1  0.87705166  0.37809409  0.37600500  1
  Sr2+  Sr45  1  0.88122792  0.38353096  0.85929428  1
  Sr2+  Sr46  1  0.87762535  0.86886423  0.38216448  1
  Sr2+  Sr47  1  0.87320351  0.86044101  0.87707103  1
  Sr2+  Sr48  1  0.13483701  0.36180219  0.12401639  1
  Sr2+  Sr49  1  0.13498781  0.37684682  0.62656874  1
  Sr2+  Sr50  1  0.10877469  0.88775269  0.12558943  1
  Sr2+  Sr51  1  0.11329159  0.88369607  0.62386664  1
  Sr2+  Sr52  1  0.61794649  0.38099192  0.12437119  1
  Sr2+  Sr53  1  0.62484379  0.36790926  0.62211808  1
  Sr2+  Sr54  1  0.62968146  0.87706331  0.12465530  1
  Sr2+  Sr55  1  0.61387066  0.88492576  0.63620989  1
  Sr2+  Sr56  1  0.35632839  0.13471860  0.12524455  1
  Sr2+  Sr57  1  0.40132067  0.12904907  0.62762559  1
  Sr2+  Sr58  1  0.36814732  0.62738611  0.12868347  1
  Sr2+  Sr59  1  0.35809801  0.61931727  0.62358896  1
  Sr2+  Sr60  1  0.88101599  0.12454235  0.12352871  1
  Sr2+  Sr61  1  0.87260746  0.13118835  0.62273586  1
  Sr2+  Sr62  1  0.87155126  0.62300146  0.12274253  1
  Sr2+  Sr63  1  0.87971670  0.62269805  0.65111972  1
  Ca2+  Ca64  1  0.50436934  -0.00483249  0.50085122  1
  Ca2+  Ca65  1  0.50477711  0.50829308  0.49530589  1
  Ca2+  Ca66  1  0.00160117  0.49863264  0.49833668  1
  Ca2+  Ca67  1  0.50030070  -0.00253315  0.00285029  1
  Ca2+  Ca68  1  -0.00246056  0.49711362  0.00089175  1
  Ca2+  Ca69  1  0.24686526  0.75197292  0.00161431  1
  Ca2+  Ca70  1  0.74359497  0.75265314  0.49934403  1
  Ca2+  Ca71  1  0.25177357  0.24684856  0.50035770  1
  Ca2+  Ca72  1  0.25395585  0.75334585  0.50392174  1
  Ca2+  Ca73  1  0.75233056  0.24927923  0.00121138  1
  Ca2+  Ca74  1  0.74325568  0.49580704  0.74992062  1
  Ca2+  Ca75  1  0.49827020  0.25762979  0.75559149  1
  Ca2+  Ca76  1  0.25474646  0.49564296  0.74903436  1
  Ca2+  Ca77  1  0.24912400  0.49801004  0.24539464  1
  Ca2+  Ca78  1  0.24778767  0.00543755  0.74778060  1
  Ca2+  Ca79  1  0.49909118  0.24863920  0.24800290  1
  Ca2+  Ca80  1  0.24941931  0.00114066  0.24914874  1
  Ca2+  Ca81  1  0.00319013  0.75318053  0.75550176  1
  Ca2+  Ca82  1  -0.00201980  0.75359573  0.25280997  1
  Ca2+  Ca83  1  0.49586320  0.74226690  0.75313730  1
  Ca2+  Ca84  1  0.75347419  -0.00051403  0.74792201  1
  Nb5+  Nb85  1  -0.00280710  0.00178394  0.50580884  1
  Nb5+  Nb86  1  -0.00090965  -0.00036276  0.00197992  1
  Nb5+  Nb87  1  0.49651188  0.50358229  0.00179513  1
  Nb5+  Nb88  1  0.74775148  0.74975795  0.00194759  1
  Nb5+  Nb89  1  0.25031329  0.24623887  -0.00370537  1
  Nb5+  Nb90  1  0.75316675  0.25004507  0.50140915  1
  Nb5+  Nb91  1  0.75107374  0.49427776  0.24930209  1
  Nb5+  Nb92  1  0.75417763  -0.00678940  0.25169420  1
  Nb5+  Nb93  1  -0.00031178  0.25080129  0.24811695  1
  Nb5+  Nb94  1  0.50279437  0.74744384  0.25036427  1
  Nb5+  Nb95  1  -0.00097404  0.24954478  0.74399029  1
  Nb5+  Nb96  1  -0.00406317  0.00042496  0.25774359  1
  Nb5+  Nb97  1  -0.00621070  -0.00165150  0.75692757  1
  Nb5+  Nb98  1  0.00581952  0.50053405  0.24779672  1
  Nb5+  Nb99  1  0.00467706  0.50128017  0.75110239  1
  Nb5+  Nb100  1  0.50089931  0.00191554  0.24546284  1
  Nb5+  Nb101  1  0.49897554  -0.00009983  0.75138768  1
  Nb5+  Nb102  1  0.50063606  0.50171913  0.24708766  1
  Nb5+  Nb103  1  0.49763954  0.50065571  0.74202279  1
  Nb5+  Nb104  1  0.25111564  0.24381826  0.25854704  1
  Nb5+  Nb105  1  0.25444240  0.24838582  0.74833588  1
  Nb5+  Nb106  1  0.24521312  0.75543413  0.24446782  1
  Nb5+  Nb107  1  0.25158604  0.75159137  0.75073677  1
  Nb5+  Nb108  1  0.75028336  0.24471540  0.25010705  1
  Nb5+  Nb109  1  0.74899728  0.25610867  0.75824984  1
  Nb5+  Nb110  1  0.74833774  0.74419535  0.25192878  1
  Nb5+  Nb111  1  0.75005404  0.74804163  0.74772676  1
  Nb5+  Nb112  1  0.00204618  0.25093156  0.49340626  1
  Nb5+  Nb113  1  -0.00402110  0.24952935  0.99066791  1
  Nb5+  Nb114  1  -0.00075743  0.74730227  0.49525394  1
  Nb5+  Nb115  1  0.00373216  0.74817186  1.00064009  1
  Nb5+  Nb116  1  0.49934052  0.24814784  0.49468452  1
  Nb5+  Nb117  1  0.50550159  0.24679727  1.00114772  1
  Nb5+  Nb118  1  0.49987079  0.74688393  0.50996476  1
  Nb5+  Nb119  1  0.49500865  0.74709608  1.00235264  1
  Nb5+  Nb120  1  0.25447702  -0.00098843  0.00022110  1
  Nb5+  Nb121  1  0.25584867  0.00654203  0.50182914  1
  Nb5+  Nb122  1  0.24197450  0.49883088  0.00654778  1
  Nb5+  Nb123  1  0.24936954  0.49746464  0.49970898  1
  Nb5+  Nb124  1  0.75119834  -0.00143236  -0.00372273  1
  Nb5+  Nb125  1  0.75096096  0.00121251  0.50102408  1
  Nb5+  Nb126  1  0.74939089  0.49459241  0.00445891  1
  Nb5+  Nb127  1  0.74974269  0.50584389  0.50124139  1
  O2-  O128  1  0.01254235  0.01529908  0.12033709  1
  O2-  O129  1  0.01367393  0.01687329  0.62029193  1
  O2-  O130  1  -0.03219215  0.50194967  0.13595207  1
  O2-  O131  1  -0.01954910  0.50287378  0.63389838  1
  O2-  O132  1  0.53895147  -0.00193913  0.13352346  1
  O2-  O133  1  0.52611040  0.01285260  0.63361570  1
  O2-  O134  1  0.49288838  0.52192752  0.12513462  1
  O2-  O135  1  0.48775970  0.50770164  0.62910145  1
  O2-  O136  1  -0.02613119  -0.00224096  0.37165439  1
  O2-  O137  1  -0.02479845  -0.00663600  0.87398666  1
  O2-  O138  1  0.01182261  0.47621725  0.36157196  1
  O2-  O139  1  0.01365785  0.47563270  0.86766463  1
  O2-  O140  1  0.48442908  -0.01588585  0.36204495  1
  O2-  O141  1  0.47507504  -0.00804840  0.86935692  1
  O2-  O142  1  0.52567799  0.49237955  0.35998096  1
  O2-  O143  1  0.51368768  0.49172008  0.88605420  1
  O2-  O144  1  0.25618356  0.26320716  0.12035214  1
  O2-  O145  1  0.25831050  0.27552459  0.63668783  1
  O2-  O146  1  0.28317220  0.76348426  0.13321930  1
  O2-  O147  1  0.28767937  0.75889878  0.63632643  1
  O2-  O148  1  0.77567884  0.23576148  0.13750057  1
  O2-  O149  1  0.75395440  0.22946577  0.61736720  1
  O2-  O150  1  0.76754460  0.74299081  0.12482260  1
  O2-  O151  1  0.76735488  0.72871865  0.63421228  1
  O2-  O152  1  0.22066999  0.23455385  0.36714896  1
  O2-  O153  1  0.23013251  0.23292605  0.88154039  1
  O2-  O154  1  0.23498143  0.73353990  0.36371156  1
  O2-  O155  1  0.21666392  0.73294340  0.86946173  1
  O2-  O156  1  0.74822331  0.26478478  0.37155895  1
  O2-  O157  1  0.75237236  0.28449007  0.86879909  1
  O2-  O158  1  0.72546505  0.76550237  0.36230948  1
  O2-  O159  1  0.73535908  0.76393788  0.88422176  1
  O2-  O160  1  -0.00851529  0.23960220  0.12844693  1
  O2-  O161  1  -0.01025991  0.23447145  0.62621437  1
  O2-  O162  1  -0.02806812  0.74049598  0.11573089  1
  O2-  O163  1  -0.02295436  0.73776122  0.61399091  1
  O2-  O164  1  0.47173044  0.24034099  0.11330831  1
  O2-  O165  1  0.50516179  0.25107512  0.61639546  1
  O2-  O166  1  0.49036774  0.73569147  0.12611313  1
  O2-  O167  1  0.48183731  0.72069392  0.61900262  1
  O2-  O168  1  0.25935964  0.03109999  0.38200964  1
  O2-  O169  1  0.25448785  0.03113513  0.88659400  1
  O2-  O170  1  0.23083537  0.51457394  0.37815424  1
  O2-  O171  1  0.24422724  0.51115063  0.88846288  1
  O2-  O172  1  0.77698292  -0.00634403  0.36768703  1
  O2-  O173  1  0.77833128  -0.00734405  0.88555168  1
  O2-  O174  1  0.73033026  0.48773233  0.36464511  1
  O2-  O175  1  0.73642837  0.48217186  0.88984179  1
  O2-  O176  1  0.01082739  0.25476893  0.37553678  1
  O2-  O177  1  0.00562547  0.25891185  0.87488246  1
  O2-  O178  1  0.01778203  0.78521609  0.38358037  1
  O2-  O179  1  0.01303070  0.78313473  0.88880661  1
  O2-  O180  1  0.52294617  0.25197364  0.37969248  1
  O2-  O181  1  0.49307917  0.28152957  0.89080299  1
  O2-  O182  1  0.52334868  0.75891881  0.36513312  1
  O2-  O183  1  0.52395147  0.75385289  0.88981347  1
  O2-  O184  1  0.22001848  -0.01254234  0.11225418  1
  O2-  O185  1  0.22948411  -0.02304725  0.61336382  1
  O2-  O186  1  0.27974856  0.48080751  0.11492608  1
  O2-  O187  1  0.27136842  0.47669163  0.61559183  1
  O2-  O188  1  0.73897218  0.00630005  0.12987620  1
  O2-  O189  1  0.73018811  0.01843694  0.61192223  1
  O2-  O190  1  0.75807435  0.52135001  0.13028388  1
  O2-  O191  1  0.76330105  0.52347454  0.61381590  1
  O2-  O192  1  0.11733774  0.26862602  0.24151347  1
  O2-  O193  1  0.11556412  0.27305366  0.74252371  1
  O2-  O194  1  0.13320171  0.77353969  0.22404560  1
  O2-  O195  1  0.13417786  0.77369941  0.72132945  1
  O2-  O196  1  0.63853880  0.26767247  0.23241228  1
  O2-  O197  1  0.63533577  0.27307720  0.74377432  1
  O2-  O198  1  0.62931142  0.76272992  0.22414892  1
  O2-  O199  1  0.63405988  0.77090659  0.73550202  1
  O2-  O200  1  0.36350780  0.21446126  0.26638482  1
  O2-  O201  1  0.36403592  0.21627527  0.75815996  1
  O2-  O202  1  0.38730963  0.73357427  0.26371079  1
  O2-  O203  1  0.36557299  0.73826500  0.78844580  1
  O2-  O204  1  0.87888307  0.23552095  0.26737092  1
  O2-  O205  1  0.87799042  0.23000914  0.75893983  1
  O2-  O206  1  0.86361836  0.73593485  0.26931691  1
  O2-  O207  1  0.86886504  0.72919622  0.77350896  1
  O2-  O208  1  0.27136516  0.36120056  0.25916528  1
  O2-  O209  1  0.26030677  0.36068631  0.78517235  1
  O2-  O210  1  0.27702749  0.86745039  0.26882574  1
  O2-  O211  1  0.26455308  0.87057713  0.77345737  1
  O2-  O212  1  0.76873783  0.37818840  0.23828974  1
  O2-  O213  1  0.77811204  0.36484511  0.72171385  1
  O2-  O214  1  0.76765121  0.87731011  0.23855508  1
  O2-  O215  1  0.77628448  0.86487703  0.74580588  1
  O2-  O216  1  0.22340344  0.13422277  0.22384680  1
  O2-  O217  1  0.21188011  0.13908078  0.74162526  1
  O2-  O218  1  0.23908037  0.63459175  0.22869194  1
  O2-  O219  1  0.23107944  0.63177015  0.73405081  1
  O2-  O220  1  0.73478080  0.12745989  0.26175526  1
  O2-  O221  1  0.73492555  0.13789470  0.76815210  1
  O2-  O222  1  0.73476658  0.62758776  0.25846329  1
  O2-  O223  1  0.73214012  0.63168516  0.77383450  1
  O2-  O224  1  0.11481012  0.47638733  0.22141258  1
  O2-  O225  1  0.11843324  0.46996908  0.74096926  1
  O2-  O226  1  0.11020589  0.98331334  0.26858297  1
  O2-  O227  1  0.11039023  0.98608633  0.76391041  1
  O2-  O228  1  0.62976713  0.49151202  0.22814111  1
  O2-  O229  1  0.61133799  0.45682421  0.74552846  1
  O2-  O230  1  0.63725762  0.98423091  0.26878354  1
  O2-  O231  1  0.61911492  0.98020230  0.77398717  1
  O2-  O232  1  0.38894482  0.01450933  0.21956570  1
  O2-  O233  1  0.38235828  0.02066195  0.72776695  1
  O2-  O234  1  0.38788699  0.52270257  0.26433132  1
  O2-  O235  1  0.38700640  0.53813362  0.76494823  1
  O2-  O236  1  0.87247999  0.02485249  0.23520506  1
  O2-  O237  1  0.88472742  0.03492593  0.73361502  1
  O2-  O238  1  0.86777976  0.51644365  0.26695243  1
  O2-  O239  1  0.88300495  0.51476238  0.77068621  1
  O2-  O240  1  0.48678330  0.38665490  0.23005627  1
  O2-  O241  1  0.45482840  0.38721238  0.74764015  1
  O2-  O242  1  0.49556208  0.86958789  0.23657821  1
  O2-  O243  1  0.48240511  0.88067392  0.73558015  1
  O2-  O244  1  0.97720599  0.36729951  0.24363833  1
  O2-  O245  1  0.97537271  0.36673804  0.74058066  1
  O2-  O246  1  0.97474627  0.89006711  0.23119510  1
  O2-  O247  1  0.97482568  0.88798351  0.73112239  1
  O2-  O248  1  0.01152865  0.12601753  0.25492395  1
  O2-  O249  1  0.01755854  0.12990797  0.76254632  1
  O2-  O250  1  0.02383607  0.61565891  0.25917197  1
  O2-  O251  1  0.02671378  0.61599083  0.75570348  1
  O2-  O252  1  0.52891113  0.11348151  0.25698436  1
  O2-  O253  1  0.51943813  0.12067779  0.76378101  1
  O2-  O254  1  0.52743334  0.62845201  0.25116593  1
  O2-  O255  1  0.54218594  0.61130153  0.75655961  1
  O2-  O256  1  0.13188512  0.47015876  0.01806714  1
  O2-  O257  1  0.13331866  0.46659322  0.50688067  1
  O2-  O258  1  0.11469024  0.98097165  -0.02018421  1
  O2-  O259  1  0.10944557  0.98452707  0.47683265  1
  O2-  O260  1  0.62601292  0.49268164  0.01872267  1
  O2-  O261  1  0.63927603  0.46655156  0.50608745  1
  O2-  O262  1  0.63747368  0.97267867  -0.01953126  1
  O2-  O263  1  0.64066701  0.98770686  0.46909892  1
  O2-  O264  1  0.36471898  0.02332290  0.02334127  1
  O2-  O265  1  0.36730318  0.02916140  0.51850359  1
  O2-  O266  1  0.38080367  0.51788423  -0.01084799  1
  O2-  O267  1  0.36859920  0.52210467  0.47868711  1
  O2-  O268  1  0.87633845  0.01633468  0.01659409  1
  O2-  O269  1  0.87637140  0.02905796  0.50606078  1
  O2-  O270  1  0.86197005  0.52420621  -0.00605186  1
  O2-  O271  1  0.86385105  0.50084987  0.47105814  1
  O2-  O272  1  0.48668813  0.38602653  0.02217576  1
  O2-  O273  1  0.48198293  0.36724948  0.49472846  1
  O2-  O274  1  0.47761597  0.86189776  0.01378846  1
  O2-  O275  1  0.46671709  0.86491945  0.51533824  1
  O2-  O276  1  0.96808532  0.36001823  0.00587197  1
  O2-  O277  1  0.97235485  0.36192735  0.50231073  1
  O2-  O278  1  0.97997218  0.88298159  0.01631027  1
  O2-  O279  1  0.97554450  0.88680835  0.51591359  1
  O2-  O280  1  0.01890163  0.12042907  -0.01238299  1
  O2-  O281  1  0.01233583  0.12629121  0.48783243  1
  O2-  O282  1  0.02238239  0.63510606  -0.01537940  1
  O2-  O283  1  0.01464084  0.63462792  0.47450890  1
  O2-  O284  1  0.52356937  0.13492076  -0.01687909  1
  O2-  O285  1  0.52882102  0.13101933  0.49742713  1
  O2-  O286  1  0.52533708  0.62370701  0.00003395  1
  O2-  O287  1  0.54847480  0.63833739  0.49370777  1
  O2-  O288  1  0.11807179  0.26147906  0.00961852  1
  O2-  O289  1  0.11301940  0.26879112  0.51585587  1
  O2-  O290  1  0.11346815  0.77054658  0.03262910  1
  O2-  O291  1  0.11508687  0.77246478  0.52104519  1
  O2-  O292  1  0.61600493  0.27443809  0.01540642  1
  O2-  O293  1  0.63533807  0.26651349  0.50349201  1
  O2-  O294  1  0.63034499  0.76451539  0.02118517  1
  O2-  O295  1  0.61341888  0.79200267  0.51765577  1
  O2-  O296  1  0.36576239  0.22728981  -0.01165139  1
  O2-  O297  1  0.38624743  0.21905782  0.49224715  1
  O2-  O298  1  0.38412896  0.72004619  -0.00980300  1
  O2-  O299  1  0.39003994  0.72591056  0.46967936  1
  O2-  O300  1  0.88563677  0.21281953  -0.00812580  1
  O2-  O301  1  0.87483412  0.22835620  0.49205618  1
  O2-  O302  1  0.87072770  0.73917836  -0.01695815  1
  O2-  O303  1  0.88117267  0.74627840  0.47338415  1
  O2-  O304  1  0.26380050  0.36752449  -0.01265939  1
  O2-  O305  1  0.27551717  0.37970119  0.47500428  1
  O2-  O306  1  0.26884134  0.88648479  -0.02379796  1
  O2-  O307  1  0.26370438  0.88878072  0.47370245  1
  O2-  O308  1  0.76089718  0.38464118  0.03309806  1
  O2-  O309  1  0.77286048  0.36694816  0.50798529  1
  O2-  O310  1  0.76751624  0.87334858  0.01442124  1
  O2-  O311  1  0.77956010  0.88929502  0.50614515  1
  O2-  O312  1  0.22795688  0.12957912  0.01875256  1
  O2-  O313  1  0.21159354  0.11574870  0.51506155  1
  O2-  O314  1  0.22787528  0.61336042  0.02271048  1
  O2-  O315  1  0.22733497  0.61576595  0.51971343  1
  O2-  O316  1  0.72573205  0.11286679  -0.00240624  1
  O2-  O317  1  0.74234840  0.12790546  0.47617458  1
  O2-  O318  1  0.73400860  0.63062834  -0.00519783  1
  O2-  O319  1  0.73662217  0.61630439  0.47256042  1
