# generated using pymatgen
data_Sr64Ca21Nb43O192
_symmetry_space_group_name_H-M   'P 1'
_cell_length_a   16.56278840
_cell_length_b   16.57028686
_cell_length_c   16.74965503
_cell_angle_alpha   89.98295592
_cell_angle_beta   90.03450367
_cell_angle_gamma   90.02478502
_symmetry_Int_Tables_number   1
_chemical_formula_structural   Sr64Ca21Nb43O192
_chemical_formula_sum   'Sr64 Ca21 Nb43 O192'
_cell_volume   4596.94395234
_cell_formula_units_Z   1
loop_
 _symmetry_equiv_pos_site_id
 _symmetry_equiv_pos_as_xyz
  1  'x, y, z'
loop_
 _atom_type_symbol
 _atom_type_oxidation_number
  Sr2+  2.0
  Ca2+  2.0
  Nb5+  5.0
  O2-  -2.0
loop_
 _atom_site_type_symbol
 _atom_site_label
 _atom_site_symmetry_multiplicity
 _atom_site_fract_x
 _atom_site_fract_y
 _atom_site_fract_z
 _atom_site_occupancy
  Sr2+  Sr0  1  0.12318637  0.11871523  0.12962645  1
  Sr2+  Sr1  1  0.11789175  0.11753058  0.62927149  1
  Sr2+  Sr2  1  0.11938942  0.62867495  0.12035838  1
  Sr2+  Sr3  1  0.12921590  0.61202195  0.62458895  1
  Sr2+  Sr4  1  0.62537092  0.10626264  0.12432348  1
  Sr2+  Sr5  1  0.62785596  0.12381437  0.62202365  1
  Sr2+  Sr6  1  0.63361594  0.61146323  0.12513573  1
  Sr2+  Sr7  1  0.63085709  0.63932493  0.62613312  1
  Sr2+  Sr8  1  0.36981477  0.37666894  0.11907068  1
  Sr2+  Sr9  1  0.36584343  0.37693803  0.62661090  1
  Sr2+  Sr10  1  0.36788518  0.86805593  0.13297678  1
  Sr2+  Sr11  1  0.37518849  0.86432416  0.62121267  1
  Sr2+  Sr12  1  0.86724167  0.36932154  0.12890319  1
  Sr2+  Sr13  1  0.86775276  0.36986145  0.62562073  1
  Sr2+  Sr14  1  0.87866211  0.85409535  0.12526033  1
  Sr2+  Sr15  1  0.86495640  0.86625805  0.61923151  1
  Sr2+  Sr16  1  0.12692596  0.37731239  0.38087732  1
  Sr2+  Sr17  1  0.12659216  0.37478757  0.87737810  1
  Sr2+  Sr18  1  0.13087104  0.87952365  0.37179382  1
  Sr2+  Sr19  1  0.12844952  0.88562283  0.87387787  1
  Sr2+  Sr20  1  0.62044508  0.38467176  0.35998068  1
  Sr2+  Sr21  1  0.61071033  0.38144944  0.86922798  1
  Sr2+  Sr22  1  0.60925020  0.87903737  0.37154432  1
  Sr2+  Sr23  1  0.62427445  0.87973573  0.87347704  1
  Sr2+  Sr24  1  0.36345812  0.12886580  0.37287117  1
  Sr2+  Sr25  1  0.35436232  0.12883303  0.87527802  1
  Sr2+  Sr26  1  0.37002859  0.63747362  0.37493507  1
  Sr2+  Sr27  1  0.37276628  0.63193700  0.87123761  1
  Sr2+  Sr28  1  0.85419600  0.12966530  0.38465526  1
  Sr2+  Sr29  1  0.85686739  0.12449236  0.87009397  1
  Sr2+  Sr30  1  0.88254030  0.62267135  0.37262421  1
  Sr2+  Sr31  1  0.88493415  0.63295431  0.87436166  1
  Sr2+  Sr32  1  0.13100437  0.11628059  0.37211352  1
  Sr2+  Sr33  1  0.12683674  0.12819866  0.87418267  1
  Sr2+  Sr34  1  0.13061156  0.61816026  0.37758969  1
  Sr2+  Sr35  1  0.13639069  0.63960063  0.87490916  1
  Sr2+  Sr36  1  0.61981652  0.11853248  0.36931543  1
  Sr2+  Sr37  1  0.62636723  0.12651178  0.88222721  1
  Sr2+  Sr38  1  0.63487931  0.62840524  0.36957528  1
  Sr2+  Sr39  1  0.62373635  0.63624622  0.87574351  1
  Sr2+  Sr40  1  0.36844814  0.39154214  0.37496244  1
  Sr2+  Sr41  1  0.36856673  0.39484042  0.87749696  1
  Sr2+  Sr42  1  0.36561209  0.88368087  0.37479792  1
  Sr2+  Sr43  1  0.37295583  0.87535059  0.86644504  1
  Sr2+  Sr44  1  0.88090792  0.38227468  0.36843891  1
  Sr2+  Sr45  1  0.88175076  0.36890548  0.87452625  1
  Sr2+  Sr46  1  0.87832999  0.88537920  0.37528869  1
  Sr2+  Sr47  1  0.87455626  0.87418344  0.88294841  1
  Sr2+  Sr48  1  0.10192171  0.36559385  0.12783830  1
  Sr2+  Sr49  1  0.10564395  0.37111871  0.62434002  1
  Sr2+  Sr50  1  0.11430089  0.86933001  0.13566499  1
  Sr2+  Sr51  1  0.11610528  0.86340589  0.61976481  1
  Sr2+  Sr52  1  0.60842457  0.37505465  0.12509817  1
  Sr2+  Sr53  1  0.59750756  0.37136676  0.62571826  1
  Sr2+  Sr54  1  0.63649318  0.86743018  0.12456496  1
  Sr2+  Sr55  1  0.61774415  0.87215273  0.62046602  1
  Sr2+  Sr56  1  0.36670023  0.12370824  0.12227845  1
  Sr2+  Sr57  1  0.38311944  0.12876411  0.62637611  1
  Sr2+  Sr58  1  0.38662827  0.61569484  0.12213072  1
  Sr2+  Sr59  1  0.37480227  0.62135994  0.62877459  1
  Sr2+  Sr60  1  0.86412414  0.12798528  0.12391789  1
  Sr2+  Sr61  1  0.86570455  0.12091203  0.62369072  1
  Sr2+  Sr62  1  0.87059497  0.61837472  0.11806945  1
  Sr2+  Sr63  1  0.87395495  0.61285107  0.62381261  1
  Ca2+  Ca64  1  0.50282459  0.50160434  0.49838780  1
  Ca2+  Ca65  1  0.49786152  -0.00067369  -0.00348602  1
  Ca2+  Ca66  1  0.50244402  0.50381777  -0.00266327  1
  Ca2+  Ca67  1  -0.00081033  0.00244220  0.00140302  1
  Ca2+  Ca68  1  0.00181161  0.49957186  -0.00124073  1
  Ca2+  Ca69  1  0.25301088  0.75413233  0.00095336  1
  Ca2+  Ca70  1  0.25036957  0.25090992  0.50150167  1
  Ca2+  Ca71  1  0.75321045  0.74918973  0.49726689  1
  Ca2+  Ca72  1  0.74488508  0.25525016  0.50215183  1
  Ca2+  Ca73  1  0.24783683  0.75194816  0.49850223  1
  Ca2+  Ca74  1  0.74848295  -0.00240182  0.74943848  1
  Ca2+  Ca75  1  0.49701629  0.24910007  0.24858839  1
  Ca2+  Ca76  1  0.74768171  0.49877264  0.75093052  1
  Ca2+  Ca77  1  -0.00118639  0.74723984  0.25632124  1
  Ca2+  Ca78  1  0.75074997  -0.00337836  0.24984530  1
  Ca2+  Ca79  1  0.25055753  0.00055987  0.74677925  1
  Ca2+  Ca80  1  0.24788763  0.49876330  0.24531013  1
  Ca2+  Ca81  1  -0.00248709  0.24588718  0.25369489  1
  Ca2+  Ca82  1  0.49943843  0.75013926  0.24572907  1
  Ca2+  Ca83  1  -0.00011350  0.74869608  0.74698388  1
  Ca2+  Ca84  1  0.24801935  0.49887155  0.75166975  1
  Nb5+  Nb85  1  0.49050445  0.00034886  0.49989897  1
  Nb5+  Nb86  1  -0.00236351  0.49263762  0.50218890  1
  Nb5+  Nb87  1  -0.00347500  -0.00257425  0.50149120  1
  Nb5+  Nb88  1  0.74263668  0.24955858  0.00033674  1
  Nb5+  Nb89  1  0.74957104  0.74083988  -0.00009616  1
  Nb5+  Nb90  1  0.24116804  0.25416383  0.00178876  1
  Nb5+  Nb91  1  0.24917399  -0.00016227  0.24879506  1
  Nb5+  Nb92  1  -0.00576044  0.24688921  0.74943077  1
  Nb5+  Nb93  1  0.75261205  0.49688524  0.24888888  1
  Nb5+  Nb94  1  0.50025265  0.75584507  0.74957417  1
  Nb5+  Nb95  1  0.48852991  0.25240681  0.75546778  1
  Nb5+  Nb96  1  -0.00632999  0.00543682  0.25021832  1
  Nb5+  Nb97  1  -0.00158436  -0.00320204  0.74753711  1
  Nb5+  Nb98  1  0.00140180  0.49953382  0.24694926  1
  Nb5+  Nb99  1  0.00251692  0.50066157  0.75578729  1
  Nb5+  Nb100  1  0.49636821  -0.00387519  0.24383372  1
  Nb5+  Nb101  1  0.50296330  0.00820084  0.74952834  1
  Nb5+  Nb102  1  0.49533363  0.50398000  0.25345813  1
  Nb5+  Nb103  1  0.50280029  0.50995849  0.74861122  1
  Nb5+  Nb104  1  0.25363813  0.25475668  0.25044626  1
  Nb5+  Nb105  1  0.24244079  0.25230630  0.74934440  1
  Nb5+  Nb106  1  0.24510162  0.74529820  0.24648125  1
  Nb5+  Nb107  1  0.24557931  0.75517717  0.74893302  1
  Nb5+  Nb108  1  0.74326017  0.24659052  0.25309275  1
  Nb5+  Nb109  1  0.74030106  0.25433729  0.75051163  1
  Nb5+  Nb110  1  0.75586130  0.74805117  0.25265352  1
  Nb5+  Nb111  1  0.75229316  0.74859447  0.74917082  1
  Nb5+  Nb112  1  0.00159957  0.24280602  0.49723169  1
  Nb5+  Nb113  1  -0.00770912  0.24497918  1.00088763  1
  Nb5+  Nb114  1  0.00121766  0.73911913  0.50039131  1
  Nb5+  Nb115  1  0.00629078  0.75364617  0.99449950  1
  Nb5+  Nb116  1  0.49843995  0.24885420  0.49518127  1
  Nb5+  Nb117  1  0.49092300  0.24922075  0.99818067  1
  Nb5+  Nb118  1  0.50240090  0.74505755  0.49720589  1
  Nb5+  Nb119  1  0.50023779  0.75433189  1.00213077  1
  Nb5+  Nb120  1  0.25132372  -0.00139880  0.00147481  1
  Nb5+  Nb121  1  0.24621690  0.00330082  0.50530793  1
  Nb5+  Nb122  1  0.24578512  0.50658310  0.00271254  1
  Nb5+  Nb123  1  0.25568012  0.50314777  0.49896759  1
  Nb5+  Nb124  1  0.75250062  -0.00880563  0.00180143  1
  Nb5+  Nb125  1  0.74065902  -0.00374526  0.50078970  1
  Nb5+  Nb126  1  0.75042254  0.49131848  -0.00543156  1
  Nb5+  Nb127  1  0.74649733  0.49333775  0.50182793  1
  O2-  O128  1  -0.01948353  0.02466102  0.13807021  1
  O2-  O129  1  -0.00877465  0.03024163  0.61662560  1
  O2-  O130  1  -0.00785593  0.52746391  0.13583659  1
  O2-  O131  1  -0.00811536  0.51648071  0.62180035  1
  O2-  O132  1  0.47071785  -0.01177107  0.13332856  1
  O2-  O133  1  0.47304630  -0.01032756  0.62181313  1
  O2-  O134  1  0.48383341  0.47970240  0.13489973  1
  O2-  O135  1  0.47641810  0.48097231  0.63427518  1
  O2-  O136  1  0.02332118  -0.01304648  0.38500674  1
  O2-  O137  1  0.01739005  -0.01315922  0.86075554  1
  O2-  O138  1  0.00727388  0.47566348  0.38348019  1
  O2-  O139  1  0.00578312  0.46588670  0.86532387  1
  O2-  O140  1  0.51779066  0.00649949  0.38398824  1
  O2-  O141  1  0.53344350  0.00939424  0.86033620  1
  O2-  O142  1  0.53410674  0.51776673  0.36517329  1
  O2-  O143  1  0.52911277  0.51473374  0.86422027  1
  O2-  O144  1  0.25618696  0.25004406  0.11937993  1
  O2-  O145  1  0.25805640  0.24339430  0.63675672  1
  O2-  O146  1  0.22239327  0.76430146  0.13143243  1
  O2-  O147  1  0.23226910  0.75863013  0.63248756  1
  O2-  O148  1  0.76116136  0.25757412  0.11710202  1
  O2-  O149  1  0.75821763  0.25610762  0.63827146  1
  O2-  O150  1  0.73290068  0.74869471  0.12003780  1
  O2-  O151  1  0.73040048  0.76504171  0.63610723  1
  O2-  O152  1  0.25055345  0.25367251  0.36509217  1
  O2-  O153  1  0.24258116  0.25000376  0.88083974  1
  O2-  O154  1  0.27523689  0.75384651  0.36283743  1
  O2-  O155  1  0.27527706  0.74937693  0.86673690  1
  O2-  O156  1  0.73264915  0.23931181  0.36733051  1
  O2-  O157  1  0.75145774  0.24591505  0.88035704  1
  O2-  O158  1  0.77140752  0.72899271  0.36405143  1
  O2-  O159  1  0.76553772  0.73816750  0.88119375  1
  O2-  O160  1  -0.00256332  0.22897718  0.11514618  1
  O2-  O161  1  0.00511721  0.23570790  0.62960944  1
  O2-  O162  1  0.01749474  0.74113845  0.11369907  1
  O2-  O163  1  0.03369777  0.73396197  0.61649296  1
  O2-  O164  1  0.48973797  0.27354523  0.11067537  1
  O2-  O165  1  0.48282681  0.26393180  0.63762991  1
  O2-  O166  1  0.51088026  0.78757205  0.11115264  1
  O2-  O167  1  0.51933857  0.76050424  0.63022652  1
  O2-  O168  1  0.23719942  -0.00450749  0.37047523  1
  O2-  O169  1  0.22647521  0.00342532  0.88731156  1
  O2-  O170  1  0.22880041  0.49371437  0.38182677  1
  O2-  O171  1  0.22297195  0.49463336  0.88580314  1
  O2-  O172  1  0.73282183  0.01114807  0.38312070  1
  O2-  O173  1  0.72542029  0.00540091  0.88691653  1
  O2-  O174  1  0.73839891  0.50249472  0.36998536  1
  O2-  O175  1  0.72049639  0.49604077  0.88621054  1
  O2-  O176  1  -0.00295508  0.27338309  0.38710800  1
  O2-  O177  1  0.00304265  0.26554340  0.87068923  1
  O2-  O178  1  -0.03593962  0.76281763  0.38998155  1
  O2-  O179  1  -0.02999526  0.76157518  0.88060341  1
  O2-  O180  1  0.51607677  0.22980423  0.38519415  1
  O2-  O181  1  0.50702760  0.22453161  0.87026736  1
  O2-  O182  1  0.48623312  0.73468984  0.38402109  1
  O2-  O183  1  0.49178381  0.72722371  0.86512303  1
  O2-  O184  1  0.27079486  0.00551243  0.13025537  1
  O2-  O185  1  0.27281777  0.02095228  0.61419209  1
  O2-  O186  1  0.28356396  0.50337605  0.11552976  1
  O2-  O187  1  0.26872585  0.50485569  0.61677983  1
  O2-  O188  1  0.77489671  0.00495959  0.11726811  1
  O2-  O189  1  0.77292554  -0.00964772  0.61513874  1
  O2-  O190  1  0.77618378  0.49430372  0.12985758  1
  O2-  O191  1  0.77121318  0.49409939  0.61444948  1
  O2-  O192  1  0.13615293  0.26882093  0.23961396  1
  O2-  O193  1  0.12700479  0.27482644  0.75055584  1
  O2-  O194  1  0.13155012  0.77607319  0.26964088  1
  O2-  O195  1  0.13375175  0.77663793  0.77390173  1
  O2-  O196  1  0.63212139  0.28074946  0.23567032  1
  O2-  O197  1  0.62392344  0.27205650  0.75049977  1
  O2-  O198  1  0.63754467  0.76528169  0.26272217  1
  O2-  O199  1  0.62110644  0.76647323  0.76768209  1
  O2-  O200  1  0.36566054  0.21326831  0.24406249  1
  O2-  O201  1  0.37617270  0.22635837  0.76123696  1
  O2-  O202  1  0.36336722  0.73118869  0.21902947  1
  O2-  O203  1  0.38356757  0.73361535  0.73158346  1
  O2-  O204  1  0.86158263  0.22527313  0.25116966  1
  O2-  O205  1  0.88015211  0.22696257  0.75482132  1
  O2-  O206  1  0.86775327  0.72400862  0.21992136  1
  O2-  O207  1  0.86418816  0.72187294  0.73498234  1
  O2-  O208  1  0.28711037  0.36589500  0.24546104  1
  O2-  O209  1  0.28004501  0.36365018  0.75701650  1
  O2-  O210  1  0.26980616  0.88152130  0.24822704  1
  O2-  O211  1  0.28162956  0.86946937  0.74728360  1
  O2-  O212  1  0.77198188  0.37489856  0.25681436  1
  O2-  O213  1  0.77935800  0.36400922  0.76559433  1
  O2-  O214  1  0.77953812  0.86244053  0.24999705  1
  O2-  O215  1  0.76710239  0.86389399  0.77336239  1
  O2-  O216  1  0.22913179  0.12079463  0.24854432  1
  O2-  O217  1  0.23412346  0.13531429  0.76441420  1
  O2-  O218  1  0.21794924  0.63253030  0.24679445  1
  O2-  O219  1  0.23713925  0.63542865  0.74808758  1
  O2-  O220  1  0.72086736  0.13298224  0.23738857  1
  O2-  O221  1  0.73174123  0.13598326  0.75680454  1
  O2-  O222  1  0.73479487  0.61740749  0.24181778  1
  O2-  O223  1  0.71843225  0.63387511  0.75174440  1
  O2-  O224  1  0.11362527  0.47024588  0.24387228  1
  O2-  O225  1  0.11497386  0.47375523  0.72910196  1
  O2-  O226  1  0.13006620  0.98260479  0.23708345  1
  O2-  O227  1  0.11521669  0.98611816  0.71970834  1
  O2-  O228  1  0.63497178  0.47934782  0.23318165  1
  O2-  O229  1  0.61393508  0.47074724  0.73068949  1
  O2-  O230  1  0.61322002  0.97193870  0.23363677  1
  O2-  O231  1  0.61458753  0.98528495  0.71543289  1
  O2-  O232  1  0.37242814  0.01796654  0.26985479  1
  O2-  O233  1  0.38744556  0.01510744  0.77359677  1
  O2-  O234  1  0.38403417  0.52652709  0.27523319  1
  O2-  O235  1  0.38632569  0.51496054  0.77370662  1
  O2-  O236  1  0.88519774  0.02045500  0.28516688  1
  O2-  O237  1  0.88632098  0.03339921  0.75421129  1
  O2-  O238  1  0.87428265  0.51278677  0.26856173  1
  O2-  O239  1  0.88538519  0.52250568  0.75623190  1
  O2-  O240  1  0.48811956  0.38523500  0.27642755  1
  O2-  O241  1  0.48315909  0.36704460  0.77267657  1
  O2-  O242  1  0.47749744  0.88311652  0.27594408  1
  O2-  O243  1  0.48631542  0.87279352  0.75711006  1
  O2-  O244  1  0.97332417  0.38250896  0.23389169  1
  O2-  O245  1  0.97959945  0.36698211  0.73043369  1
  O2-  O246  1  0.98706666  0.88649114  0.23927815  1
  O2-  O247  1  0.97393726  0.88617298  0.72538544  1
  O2-  O248  1  0.03188930  0.11541539  0.26673282  1
  O2-  O249  1  0.02897497  0.13226749  0.75814380  1
  O2-  O250  1  0.01401867  0.61175904  0.28302497  1
  O2-  O251  1  0.02807726  0.61271627  0.77254714  1
  O2-  O252  1  0.52321470  0.11182743  0.24557279  1
  O2-  O253  1  0.51514930  0.12528869  0.72955142  1
  O2-  O254  1  0.52248144  0.61679345  0.22413064  1
  O2-  O255  1  0.51701119  0.62435798  0.72819859  1
  O2-  O256  1  0.13555578  0.47144102  0.02956542  1
  O2-  O257  1  0.11856443  0.48251629  0.51394343  1
  O2-  O258  1  0.13690563  0.98421388  0.03193662  1
  O2-  O259  1  0.12935091  0.98709408  0.51926360  1
  O2-  O260  1  0.63911960  0.48665331  0.03255506  1
  O2-  O261  1  0.63667284  0.45856179  0.50767743  1
  O2-  O262  1  0.63431440  0.98543817  0.02808433  1
  O2-  O263  1  0.62522971  0.98130984  0.51600803  1
  O2-  O264  1  0.36468214  0.03682959  -0.00930828  1
  O2-  O265  1  0.37752592  0.01762726  0.47879241  1
  O2-  O266  1  0.36589171  0.51938302  -0.02551465  1
  O2-  O267  1  0.36828171  0.52802957  0.47682892  1
  O2-  O268  1  0.86488021  0.02098807  -0.02366611  1
  O2-  O269  1  0.88452761  0.01817443  0.48172555  1
  O2-  O270  1  0.86351659  0.52511026  -0.01549267  1
  O2-  O271  1  0.88228332  0.52534784  0.48864315  1
  O2-  O272  1  0.49198944  0.36436995  -0.03235200  1
  O2-  O273  1  0.47790669  0.36257171  0.48763948  1
  O2-  O274  1  0.49184794  0.86480936  -0.04082644  1
  O2-  O275  1  0.48250073  0.87870788  0.49536942  1
  O2-  O276  1  0.98022540  0.36333180  0.01701722  1
  O2-  O277  1  0.97938553  0.37834282  0.52234319  1
  O2-  O278  1  0.97496709  0.86871913  0.01112013  1
  O2-  O279  1  0.98583431  0.88433811  0.52300522  1
  O2-  O280  1  0.02792433  0.13527629  -0.01795827  1
  O2-  O281  1  0.02651121  0.12846480  0.48666736  1
  O2-  O282  1  0.01895432  0.63447350  -0.02032593  1
  O2-  O283  1  0.01747781  0.62416144  0.48311640  1
  O2-  O284  1  0.53005129  0.13857983  0.01039733  1
  O2-  O285  1  0.51847788  0.11468198  0.51896002  1
  O2-  O286  1  0.53299297  0.64007606  0.01074695  1
  O2-  O287  1  0.52879873  0.63427777  0.51637004  1
  O2-  O288  1  0.12585684  0.27471071  0.00203753  1
  O2-  O289  1  0.11511103  0.27677572  0.50742440  1
  O2-  O290  1  0.11774959  0.77630049  -0.02770054  1
  O2-  O291  1  0.11173296  0.77677045  0.47714703  1
  O2-  O292  1  0.63064449  0.27620853  -0.00200724  1
  O2-  O293  1  0.61059229  0.25272114  0.53257788  1
  O2-  O294  1  0.63342784  0.77250423  -0.01711002  1
  O2-  O295  1  0.61674054  0.77975473  0.48798422  1
  O2-  O296  1  0.37593344  0.22961890  -0.00711685  1
  O2-  O297  1  0.38663577  0.21494676  0.50375929  1
  O2-  O298  1  0.38836162  0.72592452  0.01191514  1
  O2-  O299  1  0.38674971  0.73529997  0.52518466  1
  O2-  O300  1  0.87646468  0.22726111  -0.00931155  1
  O2-  O301  1  0.88513198  0.22758894  0.50815253  1
  O2-  O302  1  0.86830900  0.73359523  0.01621732  1
  O2-  O303  1  0.88656662  0.73696215  0.53679524  1
  O2-  O304  1  0.27468398  0.36904027  -0.00129776  1
  O2-  O305  1  0.27603040  0.38446639  0.50041260  1
  O2-  O306  1  0.28527768  0.88819951  -0.00025521  1
  O2-  O307  1  0.27229193  0.88842024  0.49877795  1
  O2-  O308  1  0.77681437  0.37469050  -0.00471633  1
  O2-  O309  1  0.78897046  0.38410543  0.48550760  1
  O2-  O310  1  0.76978021  0.87410849  0.00080278  1
  O2-  O311  1  0.77811221  0.88440954  0.48656387  1
  O2-  O312  1  0.22892687  0.13273060  0.00461778  1
  O2-  O313  1  0.23612127  0.11709070  0.47928829  1
  O2-  O314  1  0.21875475  0.61968969  0.00411347  1
  O2-  O315  1  0.22156745  0.61836937  0.49996036  1
  O2-  O316  1  0.73148946  0.13248426  0.00618814  1
  O2-  O317  1  0.74334637  0.11577566  0.51082345  1
  O2-  O318  1  0.73197745  0.62504280  0.00445304  1
  O2-  O319  1  0.72597774  0.61214240  0.50084673  1
