# generated using pymatgen
data_Sr64Ca21Nb43O192
_symmetry_space_group_name_H-M   'P 1'
_cell_length_a   16.64620687
_cell_length_b   16.60999078
_cell_length_c   16.72081188
_cell_angle_alpha   89.92859886
_cell_angle_beta   90.03596467
_cell_angle_gamma   89.92127770
_symmetry_Int_Tables_number   1
_chemical_formula_structural   Sr64Ca21Nb43O192
_chemical_formula_sum   'Sr64 Ca21 Nb43 O192'
_cell_volume   4623.18429684
_cell_formula_units_Z   1
loop_
 _symmetry_equiv_pos_site_id
 _symmetry_equiv_pos_as_xyz
  1  'x, y, z'
loop_
 _atom_type_symbol
 _atom_type_oxidation_number
  Sr2+  2.0
  Ca2+  2.0
  Nb5+  5.0
  O2-  -2.0
loop_
 _atom_site_type_symbol
 _atom_site_label
 _atom_site_symmetry_multiplicity
 _atom_site_fract_x
 _atom_site_fract_y
 _atom_site_fract_z
 _atom_site_occupancy
  Sr2+  Sr0  1  0.11804663  0.13422567  0.13441670  1
  Sr2+  Sr1  1  0.11833418  0.13973093  0.62716717  1
  Sr2+  Sr2  1  0.11791037  0.61461135  0.12300860  1
  Sr2+  Sr3  1  0.11773119  0.60962431  0.62922348  1
  Sr2+  Sr4  1  0.61398189  0.13110460  0.12142809  1
  Sr2+  Sr5  1  0.62358974  0.13488420  0.62241783  1
  Sr2+  Sr6  1  0.61909434  0.61230328  0.12790771  1
  Sr2+  Sr7  1  0.61889955  0.60804088  0.61687781  1
  Sr2+  Sr8  1  0.37285991  0.37976222  0.13016443  1
  Sr2+  Sr9  1  0.37664175  0.37787017  0.63077957  1
  Sr2+  Sr10  1  0.36656897  0.86417025  0.12545138  1
  Sr2+  Sr11  1  0.36053124  0.86529523  0.62269445  1
  Sr2+  Sr12  1  0.87329112  0.37817943  0.11996384  1
  Sr2+  Sr13  1  0.87264742  0.36679647  0.62773517  1
  Sr2+  Sr14  1  0.86793949  0.87069976  0.12551069  1
  Sr2+  Sr15  1  0.86284978  0.86915306  0.62604133  1
  Sr2+  Sr16  1  0.13978405  0.37760195  0.37551761  1
  Sr2+  Sr17  1  0.13788770  0.37205273  0.88094955  1
  Sr2+  Sr18  1  0.15384469  0.87760021  0.37565192  1
  Sr2+  Sr19  1  0.15492361  0.87626921  0.87019089  1
  Sr2+  Sr20  1  0.63241880  0.37368241  0.36830897  1
  Sr2+  Sr21  1  0.63084272  0.36703786  0.87055790  1
  Sr2+  Sr22  1  0.60633792  0.87478428  0.37515056  1
  Sr2+  Sr23  1  0.61730770  0.87866209  0.87652292  1
  Sr2+  Sr24  1  0.35512498  0.12209502  0.37605651  1
  Sr2+  Sr25  1  0.38519784  0.11498089  0.87781136  1
  Sr2+  Sr26  1  0.39033937  0.63864001  0.36837047  1
  Sr2+  Sr27  1  0.38608243  0.63738285  0.86520020  1
  Sr2+  Sr28  1  0.88748081  0.11537726  0.37587357  1
  Sr2+  Sr29  1  0.88425603  0.12072864  0.86933387  1
  Sr2+  Sr30  1  0.88596510  0.62480610  0.37992167  1
  Sr2+  Sr31  1  0.88268789  0.62742393  0.88423137  1
  Sr2+  Sr32  1  0.12734121  0.11337651  0.37957111  1
  Sr2+  Sr33  1  0.13092556  0.11820603  0.86883271  1
  Sr2+  Sr34  1  0.12521224  0.64061374  0.37338387  1
  Sr2+  Sr35  1  0.13274363  0.64005626  0.87593083  1
  Sr2+  Sr36  1  0.63066451  0.11001297  0.37360431  1
  Sr2+  Sr37  1  0.62762199  0.11729895  0.87536142  1
  Sr2+  Sr38  1  0.63249025  0.62393298  0.37765924  1
  Sr2+  Sr39  1  0.63496043  0.63748491  0.87984413  1
  Sr2+  Sr40  1  0.37922777  0.37155448  0.36752189  1
  Sr2+  Sr41  1  0.38678578  0.37788247  0.87264286  1
  Sr2+  Sr42  1  0.38072486  0.87930633  0.37756746  1
  Sr2+  Sr43  1  0.38386430  0.87453500  0.87053118  1
  Sr2+  Sr44  1  0.88169306  0.37072530  0.37654860  1
  Sr2+  Sr45  1  0.88630172  0.36868953  0.87823981  1
  Sr2+  Sr46  1  0.88399474  0.86860373  0.37064220  1
  Sr2+  Sr47  1  0.87469121  0.87399802  0.87797372  1
  Sr2+  Sr48  1  0.15281560  0.37458962  0.12068217  1
  Sr2+  Sr49  1  0.15073341  0.37468283  0.62645890  1
  Sr2+  Sr50  1  0.12725843  0.87037950  0.13556260  1
  Sr2+  Sr51  1  0.12669159  0.87480085  0.62368680  1
  Sr2+  Sr52  1  0.61356426  0.37774567  0.12986100  1
  Sr2+  Sr53  1  0.61507643  0.37259340  0.62479412  1
  Sr2+  Sr54  1  0.61311818  0.87764176  0.12642688  1
  Sr2+  Sr55  1  0.61391678  0.87276580  0.61891054  1
  Sr2+  Sr56  1  0.35741680  0.13339213  0.12371932  1
  Sr2+  Sr57  1  0.36077206  0.13156113  0.62092765  1
  Sr2+  Sr58  1  0.35619046  0.61809720  0.12532327  1
  Sr2+  Sr59  1  0.35627563  0.61402346  0.62958311  1
  Sr2+  Sr60  1  0.87333292  0.11897581  0.12705630  1
  Sr2+  Sr61  1  0.87413179  0.12965266  0.62743567  1
  Sr2+  Sr62  1  0.87220568  0.62066972  0.12559860  1
  Sr2+  Sr63  1  0.87589534  0.62245823  0.62513884  1
  Ca2+  Ca64  1  0.49786430  0.00506095  0.50417502  1
  Ca2+  Ca65  1  -0.00088691  -0.00018943  0.00121483  1
  Ca2+  Ca66  1  0.50114162  0.50140340  -0.00230568  1
  Ca2+  Ca67  1  0.49832802  0.49724240  0.49809332  1
  Ca2+  Ca68  1  -0.00141742  -0.00111730  0.50607426  1
  Ca2+  Ca69  1  0.75100835  0.24793212  -0.00067882  1
  Ca2+  Ca70  1  0.24826666  0.24967261  0.49894061  1
  Ca2+  Ca71  1  0.25149178  0.75065211  -0.00113132  1
  Ca2+  Ca72  1  0.25033431  0.74470765  0.49998071  1
  Ca2+  Ca73  1  0.25152511  0.24718764  -0.00189984  1
  Ca2+  Ca74  1  0.75046351  0.50135255  0.74974379  1
  Ca2+  Ca75  1  0.49993026  0.24811019  0.25211301  1
  Ca2+  Ca76  1  0.24709080  0.49966583  0.75431250  1
  Ca2+  Ca77  1  0.50529917  0.75062017  0.74308507  1
  Ca2+  Ca78  1  -0.00064914  0.25441159  0.25198052  1
  Ca2+  Ca79  1  0.00012826  0.75017077  0.74782535  1
  Ca2+  Ca80  1  0.00019020  0.74999543  0.24681882  1
  Ca2+  Ca81  1  0.24522163  0.50401011  0.25404004  1
  Ca2+  Ca82  1  0.50338228  0.74995711  0.24507802  1
  Ca2+  Ca83  1  0.25384179  0.00252336  0.74959512  1
  Ca2+  Ca84  1  0.25305350  -0.00187819  0.24665606  1
  Nb5+  Nb85  1  0.00079286  0.49846904  0.00661630  1
  Nb5+  Nb86  1  -0.00050161  0.49584431  0.50599378  1
  Nb5+  Nb87  1  0.49835958  0.00059160  0.00382699  1
  Nb5+  Nb88  1  0.74644698  0.24174844  0.49773315  1
  Nb5+  Nb89  1  0.74935225  0.74501769  0.50339935  1
  Nb5+  Nb90  1  0.74881936  0.75192039  0.00943525  1
  Nb5+  Nb91  1  0.00539631  0.25534886  0.75175668  1
  Nb5+  Nb92  1  0.74874108  -0.00163033  0.74240393  1
  Nb5+  Nb93  1  0.75183409  -0.00869120  0.24604893  1
  Nb5+  Nb94  1  0.75359055  0.49466725  0.25112280  1
  Nb5+  Nb95  1  0.50497353  0.24734953  0.75071463  1
  Nb5+  Nb96  1  0.00285171  -0.00115856  0.25235800  1
  Nb5+  Nb97  1  -0.00071533  -0.00220536  0.74786091  1
  Nb5+  Nb98  1  0.00048808  0.49440798  0.25734305  1
  Nb5+  Nb99  1  0.00045391  0.49930100  0.76177176  1
  Nb5+  Nb100  1  0.49677323  0.00645793  0.25011156  1
  Nb5+  Nb101  1  0.50091681  0.00381226  0.74632712  1
  Nb5+  Nb102  1  0.49530178  0.50299600  0.25275133  1
  Nb5+  Nb103  1  0.50341963  0.50530887  0.75515628  1
  Nb5+  Nb104  1  0.24768045  0.25028282  0.25218261  1
  Nb5+  Nb105  1  0.26103304  0.24709876  0.75492629  1
  Nb5+  Nb106  1  0.25200659  0.74784671  0.24853640  1
  Nb5+  Nb107  1  0.25085369  0.74930849  0.74618481  1
  Nb5+  Nb108  1  0.75204306  0.24067486  0.24807628  1
  Nb5+  Nb109  1  0.75316186  0.24717658  0.75186424  1
  Nb5+  Nb110  1  0.75038505  0.74495979  0.25574359  1
  Nb5+  Nb111  1  0.74810660  0.74845764  0.75297282  1
  Nb5+  Nb112  1  0.00138519  0.25545017  0.49888862  1
  Nb5+  Nb113  1  -0.00012232  0.24684510  1.00039460  1
  Nb5+  Nb114  1  0.00028783  0.75170319  0.50140787  1
  Nb5+  Nb115  1  0.00088398  0.75484935  0.99621107  1
  Nb5+  Nb116  1  0.49940941  0.24900815  0.49568375  1
  Nb5+  Nb117  1  0.49656569  0.25241942  1.00271090  1
  Nb5+  Nb118  1  0.49731027  0.74546614  0.50365988  1
  Nb5+  Nb119  1  0.50200480  0.74584253  0.99988967  1
  Nb5+  Nb120  1  0.24404762  -0.00379381  0.00260759  1
  Nb5+  Nb121  1  0.24843446  -0.00179311  0.50473227  1
  Nb5+  Nb122  1  0.25597296  0.50490534  -0.00816257  1
  Nb5+  Nb123  1  0.25464340  0.50325392  0.49242417  1
  Nb5+  Nb124  1  0.74861857  0.00154257  -0.00449924  1
  Nb5+  Nb125  1  0.75349671  -0.00956695  0.49275772  1
  Nb5+  Nb126  1  0.74933000  0.49949981  -0.00233175  1
  Nb5+  Nb127  1  0.75418345  0.49080775  0.49957993  1
  O2-  O128  1  0.00041788  0.02878342  0.13663252  1
  O2-  O129  1  0.00390892  0.04192481  0.63951097  1
  O2-  O130  1  -0.01828198  0.51386175  0.12117974  1
  O2-  O131  1  -0.01911980  0.51265918  0.61915426  1
  O2-  O132  1  0.52116974  0.01301432  0.12101831  1
  O2-  O133  1  0.52893234  0.01939888  0.63761259  1
  O2-  O134  1  0.48803557  0.52711968  0.13347533  1
  O2-  O135  1  0.47974771  0.51762944  0.63686902  1
  O2-  O136  1  -0.02333330  -0.01355356  0.36957661  1
  O2-  O137  1  -0.03010006  -0.00711439  0.86271231  1
  O2-  O138  1  0.00581531  0.47703071  0.37286943  1
  O2-  O139  1  0.00670283  0.47604200  0.87540320  1
  O2-  O140  1  0.49419042  -0.01137724  0.36517545  1
  O2-  O141  1  0.49605858  -0.01186831  0.87964860  1
  O2-  O142  1  0.51520810  0.46919758  0.36516450  1
  O2-  O143  1  0.51879326  0.46382145  0.86597917  1
  O2-  O144  1  0.27704532  0.26846152  0.13314845  1
  O2-  O145  1  0.26920464  0.26858009  0.63543952  1
  O2-  O146  1  0.24070627  0.77568759  0.13070864  1
  O2-  O147  1  0.23723919  0.77685670  0.63067763  1
  O2-  O148  1  0.77947433  0.25540218  0.13759031  1
  O2-  O149  1  0.75916463  0.25633123  0.62625130  1
  O2-  O150  1  0.73479331  0.77216959  0.12083005  1
  O2-  O151  1  0.73643561  0.77118227  0.61443491  1
  O2-  O152  1  0.21920659  0.23005576  0.36762547  1
  O2-  O153  1  0.22480194  0.23176730  0.86503353  1
  O2-  O154  1  0.26354672  0.72179827  0.36600997  1
  O2-  O155  1  0.26618432  0.72693204  0.86510983  1
  O2-  O156  1  0.72531372  0.23759671  0.38280121  1
  O2-  O157  1  0.72793761  0.22999846  0.86351679  1
  O2-  O158  1  0.77105884  0.73624793  0.36967876  1
  O2-  O159  1  0.76460212  0.73517790  0.86754441  1
  O2-  O160  1  -0.02285100  0.23286721  0.11274674  1
  O2-  O161  1  -0.02032016  0.24085190  0.63097030  1
  O2-  O162  1  0.01492144  0.72644055  0.10921641  1
  O2-  O163  1  0.00813529  0.71384450  0.61230885  1
  O2-  O164  1  0.48504067  0.22502227  0.11479919  1
  O2-  O165  1  0.48929510  0.22221384  0.63527612  1
  O2-  O166  1  0.53841861  0.74455444  0.11083396  1
  O2-  O167  1  0.54267530  0.73620047  0.61232635  1
  O2-  O168  1  0.24745962  0.01662393  0.38223220  1
  O2-  O169  1  0.25838502  0.02701931  0.88630214  1
  O2-  O170  1  0.20858737  0.51687612  0.38507480  1
  O2-  O171  1  0.21021441  0.51259782  0.88414453  1
  O2-  O172  1  0.76334262  0.01356029  0.37933069  1
  O2-  O173  1  0.75805949  0.01395763  0.87990605  1
  O2-  O174  1  0.73748933  0.51161217  0.37334194  1
  O2-  O175  1  0.73178383  0.52074173  0.88639724  1
  O2-  O176  1  0.01320859  0.28324363  0.38863899  1
  O2-  O177  1  0.01209051  0.27738536  0.86837460  1
  O2-  O178  1  -0.02567650  0.74890024  0.38468220  1
  O2-  O179  1  -0.03372604  0.75261844  0.88176569  1
  O2-  O180  1  0.51495156  0.27760550  0.38703997  1
  O2-  O181  1  0.51568342  0.26474417  0.87204422  1
  O2-  O182  1  0.48554919  0.76855410  0.38419291  1
  O2-  O183  1  0.49422868  0.77195447  0.88286962  1
  O2-  O184  1  0.25337061  -0.03507266  0.11602302  1
  O2-  O185  1  0.24819166  -0.02915892  0.61959859  1
  O2-  O186  1  0.26580388  0.48595018  0.11323687  1
  O2-  O187  1  0.26513256  0.47876103  0.61308531  1
  O2-  O188  1  0.74219255  -0.02019094  0.13123044  1
  O2-  O189  1  0.73485678  -0.02030425  0.62919296  1
  O2-  O190  1  0.77034816  0.49543035  0.13163878  1
  O2-  O191  1  0.77696155  0.49344766  0.61226993  1
  O2-  O192  1  0.13133680  0.26703456  0.22229999  1
  O2-  O193  1  0.11764406  0.26677279  0.73208829  1
  O2-  O194  1  0.13362926  0.77603981  0.26468917  1
  O2-  O195  1  0.13304823  0.77267936  0.76582812  1
  O2-  O196  1  0.64038135  0.27772914  0.24194946  1
  O2-  O197  1  0.62239995  0.26170799  0.73479950  1
  O2-  O198  1  0.64034675  0.78190218  0.26012842  1
  O2-  O199  1  0.63950599  0.79030272  0.75535822  1
  O2-  O200  1  0.36700204  0.23820027  0.28040804  1
  O2-  O201  1  0.37668710  0.22997619  0.76870675  1
  O2-  O202  1  0.37058226  0.72327928  0.22927487  1
  O2-  O203  1  0.37129684  0.72889277  0.72823659  1
  O2-  O204  1  0.86150707  0.23625941  0.28800883  1
  O2-  O205  1  0.86870235  0.23160200  0.76112410  1
  O2-  O206  1  0.86209129  0.74200402  0.22050007  1
  O2-  O207  1  0.86138311  0.74433794  0.72096408  1
  O2-  O208  1  0.26178513  0.36973616  0.27193736  1
  O2-  O209  1  0.26156462  0.36429339  0.77148158  1
  O2-  O210  1  0.28103181  0.86530575  0.27062773  1
  O2-  O211  1  0.27580236  0.86825361  0.76912058  1
  O2-  O212  1  0.76885406  0.38121201  0.26591148  1
  O2-  O213  1  0.76088975  0.36305495  0.76484906  1
  O2-  O214  1  0.77658119  0.87971670  0.26382661  1
  O2-  O215  1  0.77445638  0.88423578  0.76332594  1
  O2-  O216  1  0.23628170  0.13237279  0.22816815  1
  O2-  O217  1  0.22975660  0.13585756  0.72680161  1
  O2-  O218  1  0.22309425  0.63341825  0.22413306  1
  O2-  O219  1  0.22999662  0.63206253  0.72640884  1
  O2-  O220  1  0.73014299  0.12638977  0.23963400  1
  O2-  O221  1  0.73328380  0.12263729  0.73238395  1
  O2-  O222  1  0.72878801  0.63187113  0.23891527  1
  O2-  O223  1  0.72096276  0.63925664  0.73095406  1
  O2-  O224  1  0.10860698  0.47163951  0.23033485  1
  O2-  O225  1  0.10886693  0.47393707  0.72590476  1
  O2-  O226  1  0.11549391  0.97405754  0.25591157  1
  O2-  O227  1  0.11295262  0.98955354  0.76720160  1
  O2-  O228  1  0.63532835  0.48808713  0.23592992  1
  O2-  O229  1  0.61683625  0.48050982  0.72621612  1
  O2-  O230  1  0.63654954  0.98269774  0.26789675  1
  O2-  O231  1  0.63129652  0.99205906  0.77099302  1
  O2-  O232  1  0.38771104  0.03639075  0.24086461  1
  O2-  O233  1  0.38976894  0.03226555  0.74270760  1
  O2-  O234  1  0.38220476  0.51987845  0.26905468  1
  O2-  O235  1  0.38405218  0.50962102  0.77406111  1
  O2-  O236  1  0.86446450  0.02812366  0.24564061  1
  O2-  O237  1  0.86514584  0.02402284  0.73927339  1
  O2-  O238  1  0.86752215  0.52965593  0.26231605  1
  O2-  O239  1  0.88446871  0.52513661  0.76078268  1
  O2-  O240  1  0.49100420  0.38527975  0.22278244  1
  O2-  O241  1  0.48343044  0.36301135  0.73502597  1
  O2-  O242  1  0.48948944  0.88973803  0.22734728  1
  O2-  O243  1  0.48456896  0.88969862  0.73585477  1
  O2-  O244  1  0.95554536  0.38720570  0.23922063  1
  O2-  O245  1  0.96826654  0.37245684  0.74181709  1
  O2-  O246  1  0.96988767  0.88614797  0.23211073  1
  O2-  O247  1  0.98303740  0.88870175  0.71715663  1
  O2-  O248  1  0.01554495  0.11846457  0.27619080  1
  O2-  O249  1  0.00855036  0.13804971  0.77463720  1
  O2-  O250  1  0.01314655  0.61217636  0.26354296  1
  O2-  O251  1  0.02562207  0.61229109  0.76812465  1
  O2-  O252  1  0.54026210  0.11610353  0.25514227  1
  O2-  O253  1  0.52033557  0.12745164  0.77432566  1
  O2-  O254  1  0.52765145  0.61621745  0.27279439  1
  O2-  O255  1  0.52225628  0.61648186  0.77944776  1
  O2-  O256  1  0.11312469  0.48262472  0.02004415  1
  O2-  O257  1  0.11108593  0.47147367  0.51557273  1
  O2-  O258  1  0.13229773  0.97165054  -0.00748229  1
  O2-  O259  1  0.13018822  0.96961709  0.49729243  1
  O2-  O260  1  0.63718826  0.48930720  0.02854833  1
  O2-  O261  1  0.63815582  0.48795200  0.51486963  1
  O2-  O262  1  0.62977167  0.97533428  -0.00447789  1
  O2-  O263  1  0.63734026  0.98104813  0.49080372  1
  O2-  O264  1  0.38533388  0.02087737  0.01107461  1
  O2-  O265  1  0.36597849  0.03083362  0.50719859  1
  O2-  O266  1  0.36594865  0.52773005  -0.02880448  1
  O2-  O267  1  0.36441076  0.52507489  0.47158800  1
  O2-  O268  1  0.86227843  0.01433476  0.01681526  1
  O2-  O269  1  0.86158087  0.01856942  0.52474037  1
  O2-  O270  1  0.86991160  0.52257689  -0.00540136  1
  O2-  O271  1  0.87275157  0.51200997  0.47731337  1
  O2-  O272  1  0.47282475  0.36536013  0.01537618  1
  O2-  O273  1  0.49075420  0.36109650  0.53475931  1
  O2-  O274  1  0.49061942  0.87979253  0.01473700  1
  O2-  O275  1  0.49146179  0.86623454  0.51958567  1
  O2-  O276  1  0.97119372  0.38184925  0.00684793  1
  O2-  O277  1  0.96616858  0.37651746  0.51381818  1
  O2-  O278  1  0.97281632  0.86430120  0.01493658  1
  O2-  O279  1  0.97732384  0.86136260  0.52568158  1
  O2-  O280  1  0.02367494  0.13632813  -0.02320616  1
  O2-  O281  1  0.00504064  0.14038162  0.48077582  1
  O2-  O282  1  0.01015871  0.61542776  -0.02207509  1
  O2-  O283  1  0.01081987  0.61110653  0.47985310  1
  O2-  O284  1  0.52526649  0.11799340  -0.01454199  1
  O2-  O285  1  0.53760235  0.13795274  0.49117779  1
  O2-  O286  1  0.52511568  0.63499327  -0.02233003  1
  O2-  O287  1  0.52615569  0.63217077  0.47928863  1
  O2-  O288  1  0.11231315  0.28010968  0.00964537  1
  O2-  O289  1  0.11082267  0.26719928  0.52866903  1
  O2-  O290  1  0.11235245  0.76754917  -0.02868598  1
  O2-  O291  1  0.11276506  0.76452039  0.47965862  1
  O2-  O292  1  0.61510549  0.26846417  0.01352047  1
  O2-  O293  1  0.63253435  0.26880139  0.51952629  1
  O2-  O294  1  0.63639655  0.76603032  -0.02513788  1
  O2-  O295  1  0.63895139  0.76586205  0.47144815  1
  O2-  O296  1  0.38574983  0.22415037  -0.02539211  1
  O2-  O297  1  0.38628204  0.22562676  0.48963542  1
  O2-  O298  1  0.38993865  0.73151329  0.01930739  1
  O2-  O299  1  0.38745204  0.72422887  0.52608670  1
  O2-  O300  1  0.88478752  0.23944819  -0.03246405  1
  O2-  O301  1  0.86626930  0.24044836  0.49252421  1
  O2-  O302  1  0.86640128  0.73014682  0.01244584  1
  O2-  O303  1  0.86871602  0.72915677  0.51064078  1
  O2-  O304  1  0.26221349  0.38524838  -0.02018013  1
  O2-  O305  1  0.26097699  0.38344278  0.47359352  1
  O2-  O306  1  0.27932012  0.88423637  -0.02726051  1
  O2-  O307  1  0.27782167  0.88073553  0.48049254  1
  O2-  O308  1  0.76796880  0.38614148  -0.01376702  1
  O2-  O309  1  0.76332803  0.37523296  0.48411614  1
  O2-  O310  1  0.76917767  0.87249971  -0.01284130  1
  O2-  O311  1  0.77556906  0.87489128  0.48606452  1
  O2-  O312  1  0.23284881  0.11229476  0.03198879  1
  O2-  O313  1  0.22084652  0.11550439  0.52079936  1
  O2-  O314  1  0.22357656  0.61718804  0.01763399  1
  O2-  O315  1  0.22256201  0.61255814  0.52512727  1
  O2-  O316  1  0.72632250  0.11249879  0.01900611  1
  O2-  O317  1  0.73401239  0.12607044  0.51154795  1
  O2-  O318  1  0.73266093  0.63200556  0.01639916  1
  O2-  O319  1  0.73559944  0.62796105  0.50819888  1
