# generated using pymatgen
data_Sr64Ca21Nb43O192
_symmetry_space_group_name_H-M   'P 1'
_cell_length_a   16.56742877
_cell_length_b   16.56805696
_cell_length_c   16.69030254
_cell_angle_alpha   90.00111230
_cell_angle_beta   90.00426182
_cell_angle_gamma   89.87710821
_symmetry_Int_Tables_number   1
_chemical_formula_structural   Sr64Ca21Nb43O192
_chemical_formula_sum   'Sr64 Ca21 Nb43 O192'
_cell_volume   4581.31232198
_cell_formula_units_Z   1
loop_
 _symmetry_equiv_pos_site_id
 _symmetry_equiv_pos_as_xyz
  1  'x, y, z'
loop_
 _atom_type_symbol
 _atom_type_oxidation_number
  Sr2+  2.0
  Ca2+  2.0
  Nb5+  5.0
  O2-  -2.0
loop_
 _atom_site_type_symbol
 _atom_site_label
 _atom_site_symmetry_multiplicity
 _atom_site_fract_x
 _atom_site_fract_y
 _atom_site_fract_z
 _atom_site_occupancy
  Sr2+  Sr0  1  0.13498266  0.13048530  0.11896876  1
  Sr2+  Sr1  1  0.13041771  0.12864410  0.62360741  1
  Sr2+  Sr2  1  0.12521093  0.63792563  0.12890154  1
  Sr2+  Sr3  1  0.13267745  0.63436259  0.62496003  1
  Sr2+  Sr4  1  0.62674827  0.13114407  0.12608245  1
  Sr2+  Sr5  1  0.63024783  0.13289432  0.62205099  1
  Sr2+  Sr6  1  0.63405409  0.63845651  0.12101789  1
  Sr2+  Sr7  1  0.63176134  0.63991784  0.62339811  1
  Sr2+  Sr8  1  0.38462056  0.38203266  0.12495106  1
  Sr2+  Sr9  1  0.37189478  0.38611844  0.62359091  1
  Sr2+  Sr10  1  0.38207306  0.88971616  0.12572786  1
  Sr2+  Sr11  1  0.39110676  0.88568980  0.62194724  1
  Sr2+  Sr12  1  0.87950521  0.38569832  0.12159517  1
  Sr2+  Sr13  1  0.88147673  0.37665330  0.62585811  1
  Sr2+  Sr14  1  0.88485398  0.88911098  0.12917422  1
  Sr2+  Sr15  1  0.88172173  0.89147659  0.62044782  1
  Sr2+  Sr16  1  0.12212946  0.37362697  0.37408841  1
  Sr2+  Sr17  1  0.11812041  0.36893819  0.87382030  1
  Sr2+  Sr18  1  0.11181059  0.86796238  0.37306711  1
  Sr2+  Sr19  1  0.12070267  0.86497396  0.86781548  1
  Sr2+  Sr20  1  0.60621629  0.37058784  0.37147922  1
  Sr2+  Sr21  1  0.61654172  0.36705023  0.86980067  1
  Sr2+  Sr22  1  0.61775573  0.86404438  0.37268274  1
  Sr2+  Sr23  1  0.61897409  0.87101434  0.88677262  1
  Sr2+  Sr24  1  0.36468191  0.12506214  0.37513415  1
  Sr2+  Sr25  1  0.37353179  0.11628535  0.87691834  1
  Sr2+  Sr26  1  0.36558437  0.61059919  0.36852021  1
  Sr2+  Sr27  1  0.36067866  0.62193822  0.87297927  1
  Sr2+  Sr28  1  0.86335305  0.11236577  0.37399699  1
  Sr2+  Sr29  1  0.86016801  0.11795782  0.86849711  1
  Sr2+  Sr30  1  0.86596831  0.62199806  0.37139756  1
  Sr2+  Sr31  1  0.85909774  0.61780512  0.87564339  1
  Sr2+  Sr32  1  0.12374681  0.10589288  0.37747303  1
  Sr2+  Sr33  1  0.11564132  0.11181283  0.87337524  1
  Sr2+  Sr34  1  0.11241546  0.61937405  0.37168527  1
  Sr2+  Sr35  1  0.11873231  0.61844710  0.87051507  1
  Sr2+  Sr36  1  0.61141605  0.11869084  0.37161616  1
  Sr2+  Sr37  1  0.61788264  0.10724002  0.87390019  1
  Sr2+  Sr38  1  0.61977805  0.61633036  0.38442968  1
  Sr2+  Sr39  1  0.61487019  0.62319337  0.86539341  1
  Sr2+  Sr40  1  0.36998013  0.36515606  0.36558719  1
  Sr2+  Sr41  1  0.36776923  0.36464131  0.87370923  1
  Sr2+  Sr42  1  0.36536070  0.86668083  0.37517504  1
  Sr2+  Sr43  1  0.37449462  0.86387027  0.87993653  1
  Sr2+  Sr44  1  0.87168996  0.36443212  0.37680040  1
  Sr2+  Sr45  1  0.87120977  0.36771651  0.87463514  1
  Sr2+  Sr46  1  0.86881434  0.86693007  0.36833772  1
  Sr2+  Sr47  1  0.86262604  0.87085572  0.87917180  1
  Sr2+  Sr48  1  0.12821702  0.38052385  0.11295607  1
  Sr2+  Sr49  1  0.12638529  0.37743181  0.62292166  1
  Sr2+  Sr50  1  0.13684359  0.87718708  0.13581976  1
  Sr2+  Sr51  1  0.13730542  0.88458860  0.62605224  1
  Sr2+  Sr52  1  0.63481875  0.37925097  0.13570546  1
  Sr2+  Sr53  1  0.63812117  0.38779746  0.62431755  1
  Sr2+  Sr54  1  0.63623793  0.88996000  0.12251502  1
  Sr2+  Sr55  1  0.63261379  0.87607428  0.61523504  1
  Sr2+  Sr56  1  0.38513898  0.13040011  0.12179697  1
  Sr2+  Sr57  1  0.38329460  0.13235384  0.62249305  1
  Sr2+  Sr58  1  0.38625597  0.63271430  0.12667299  1
  Sr2+  Sr59  1  0.38968371  0.63494516  0.62952209  1
  Sr2+  Sr60  1  0.87520082  0.13323306  0.13110473  1
  Sr2+  Sr61  1  0.88800703  0.13120180  0.62543873  1
  Sr2+  Sr62  1  0.88682754  0.62879080  0.12094014  1
  Sr2+  Sr63  1  0.87249971  0.63057268  0.62434283  1
  Ca2+  Ca64  1  -0.00024065  -0.00047941  0.49955913  1
  Ca2+  Ca65  1  0.49725891  0.49877363  0.50156119  1
  Ca2+  Ca66  1  0.50056594  -0.00010709  0.49603902  1
  Ca2+  Ca67  1  0.49964266  0.49780466  -0.00188620  1
  Ca2+  Ca68  1  0.00250080  -0.00007690  -0.00051577  1
  Ca2+  Ca69  1  0.24777882  0.74583014  0.49827693  1
  Ca2+  Ca70  1  0.74999172  0.25132747  -0.00076901  1
  Ca2+  Ca71  1  0.75143009  0.74972749  0.00129742  1
  Ca2+  Ca72  1  0.74912980  0.25370315  0.49820736  1
  Ca2+  Ca73  1  0.24941095  0.74588899  0.00182354  1
  Ca2+  Ca74  1  0.75042423  0.50113577  0.25221210  1
  Ca2+  Ca75  1  0.00252667  0.25198979  0.24919540  1
  Ca2+  Ca76  1  0.74734917  -0.00111363  0.74853615  1
  Ca2+  Ca77  1  -0.00198202  0.74783790  0.74810294  1
  Ca2+  Ca78  1  0.50194365  0.75411001  0.74987020  1
  Ca2+  Ca79  1  0.25465332  0.00278508  0.75054021  1
  Ca2+  Ca80  1  0.74935328  0.00051392  0.25278210  1
  Ca2+  Ca81  1  0.24692842  0.50050307  0.24697180  1
  Ca2+  Ca82  1  0.50202672  0.75205189  0.24786422  1
  Ca2+  Ca83  1  0.49974280  0.25019098  0.74993878  1
  Ca2+  Ca84  1  0.25250182  0.00011227  0.24961323  1
  Nb5+  Nb85  1  0.49966570  -0.00048115  0.00121024  1
  Nb5+  Nb86  1  -0.00264681  0.50091437  0.49745635  1
  Nb5+  Nb87  1  -0.00009345  0.50156697  -0.00829265  1
  Nb5+  Nb88  1  0.24854909  0.24867558  -0.00851305  1
  Nb5+  Nb89  1  0.24700337  0.25113845  0.49387018  1
  Nb5+  Nb90  1  0.75249748  0.75314811  0.49947983  1
  Nb5+  Nb91  1  0.24186907  0.49672565  0.75168141  1
  Nb5+  Nb92  1  0.49836026  0.24909277  0.25004032  1
  Nb5+  Nb93  1  0.74459219  0.50052554  0.75123577  1
  Nb5+  Nb94  1  0.00287345  0.24918204  0.75061499  1
  Nb5+  Nb95  1  -0.00231225  0.75018848  0.25012121  1
  Nb5+  Nb96  1  0.00529673  0.00762400  0.24654760  1
  Nb5+  Nb97  1  -0.00270388  -0.00699758  0.75459097  1
  Nb5+  Nb98  1  -0.00240022  0.49852390  0.24308860  1
  Nb5+  Nb99  1  -0.00369278  0.49957758  0.74446775  1
  Nb5+  Nb100  1  0.49590752  -0.00070808  0.25353722  1
  Nb5+  Nb101  1  0.50325773  -0.00014175  0.74510257  1
  Nb5+  Nb102  1  0.50305793  0.50609701  0.24446423  1
  Nb5+  Nb103  1  0.49046429  0.49958345  0.75032127  1
  Nb5+  Nb104  1  0.24855265  0.25157976  0.23878037  1
  Nb5+  Nb105  1  0.24876883  0.24788316  0.74529149  1
  Nb5+  Nb106  1  0.25541378  0.74565228  0.25331448  1
  Nb5+  Nb107  1  0.25482716  0.75644388  0.74373925  1
  Nb5+  Nb108  1  0.75344012  0.25056041  0.25420098  1
  Nb5+  Nb109  1  0.74601861  0.25164382  0.74814587  1
  Nb5+  Nb110  1  0.75029321  0.74807822  0.24569812  1
  Nb5+  Nb111  1  0.75430871  0.75566734  0.74904176  1
  Nb5+  Nb112  1  0.00308528  0.24817954  0.49640664  1
  Nb5+  Nb113  1  -0.00129952  0.24655342  0.99887641  1
  Nb5+  Nb114  1  -0.00475484  0.75313558  0.50220904  1
  Nb5+  Nb115  1  -0.00007143  0.75325021  0.99676834  1
  Nb5+  Nb116  1  0.49931427  0.25579771  0.50600457  1
  Nb5+  Nb117  1  0.50385640  0.25147573  1.00045696  1
  Nb5+  Nb118  1  0.49348970  0.74536967  0.49368877  1
  Nb5+  Nb119  1  0.50091612  0.74523788  1.00334943  1
  Nb5+  Nb120  1  0.25003933  -0.00807484  -0.00229072  1
  Nb5+  Nb121  1  0.25415882  -0.00700546  0.50274226  1
  Nb5+  Nb122  1  0.24813055  0.50081755  0.00071132  1
  Nb5+  Nb123  1  0.24700198  0.49887061  0.50052909  1
  Nb5+  Nb124  1  0.75702060  0.00648961  0.00383055  1
  Nb5+  Nb125  1  0.74581889  0.00606555  0.49859557  1
  Nb5+  Nb126  1  0.74385198  0.49751942  -0.00144463  1
  Nb5+  Nb127  1  0.75209375  0.49862177  0.49867327  1
  O2-  O128  1  0.01917512  -0.02784374  0.13307656  1
  O2-  O129  1  0.01886624  -0.01848235  0.63651257  1
  O2-  O130  1  0.01103548  0.48522587  0.12600221  1
  O2-  O131  1  0.01114216  0.48027905  0.63003010  1
  O2-  O132  1  0.51682717  -0.01186839  0.12241267  1
  O2-  O133  1  0.51900309  -0.02292506  0.63306331  1
  O2-  O134  1  0.51187938  0.46718597  0.13213295  1
  O2-  O135  1  0.50866708  0.46483894  0.63730888  1
  O2-  O136  1  -0.01493753  0.02025271  0.36457728  1
  O2-  O137  1  -0.01660153  0.03168206  0.86655912  1
  O2-  O138  1  -0.01563542  0.51364943  0.38332705  1
  O2-  O139  1  -0.01161781  0.51434129  0.87494131  1
  O2-  O140  1  0.48139816  0.03110796  0.36360165  1
  O2-  O141  1  0.48759058  0.02195812  0.88479221  1
  O2-  O142  1  0.48756254  0.52013094  0.36372192  1
  O2-  O143  1  0.48720514  0.53397518  0.86549169  1
  O2-  O144  1  0.25844039  0.23076559  0.12385745  1
  O2-  O145  1  0.25901742  0.23473088  0.62943312  1
  O2-  O146  1  0.25592402  0.71168340  0.13711880  1
  O2-  O147  1  0.26168848  0.71400860  0.63223330  1
  O2-  O148  1  0.75426996  0.22300108  0.13609117  1
  O2-  O149  1  0.77541399  0.23374573  0.63468614  1
  O2-  O150  1  0.76636672  0.71650749  0.13588745  1
  O2-  O151  1  0.76284405  0.72962260  0.62036181  1
  O2-  O152  1  0.23869649  0.27305579  0.38038018  1
  O2-  O153  1  0.23637943  0.27051832  0.87766212  1
  O2-  O154  1  0.23431582  0.78190200  0.36633191  1
  O2-  O155  1  0.23685927  0.76816003  0.86205532  1
  O2-  O156  1  0.73540480  0.29055659  0.36630871  1
  O2-  O157  1  0.74445809  0.28427137  0.86187506  1
  O2-  O158  1  0.74465038  0.77130921  0.38113105  1
  O2-  O159  1  0.74150493  0.77321905  0.86424629  1
  O2-  O160  1  -0.02053420  0.26533685  0.11196181  1
  O2-  O161  1  -0.00935525  0.26603522  0.62969386  1
  O2-  O162  1  -0.02111278  0.75365607  0.13173223  1
  O2-  O163  1  -0.03145073  0.75793346  0.61429823  1
  O2-  O164  1  0.47793725  0.25841119  0.12801226  1
  O2-  O165  1  0.46602117  0.26750119  0.61588553  1
  O2-  O166  1  0.46754944  0.76735851  0.11558187  1
  O2-  O167  1  0.48621177  0.76744632  0.61182861  1
  O2-  O168  1  0.28099115  -0.00299608  0.38576562  1
  O2-  O169  1  0.28565944  -0.00719458  0.88479532  1
  O2-  O170  1  0.26457705  0.47719853  0.38914446  1
  O2-  O171  1  0.26360438  0.47664513  0.87188640  1
  O2-  O172  1  0.77997933  -0.01595977  0.38663307  1
  O2-  O173  1  0.77221047  -0.01395439  0.88501689  1
  O2-  O174  1  0.78372758  0.48766250  0.38897665  1
  O2-  O175  1  0.77509638  0.48611076  0.86666594  1
  O2-  O176  1  0.03091232  0.24796619  0.38521925  1
  O2-  O177  1  0.02451471  0.24605250  0.87154407  1
  O2-  O178  1  0.01103749  0.73407395  0.37564159  1
  O2-  O179  1  0.02690216  0.73837804  0.88573635  1
  O2-  O180  1  0.50864309  0.23505200  0.37115406  1
  O2-  O181  1  0.51971542  0.23188389  0.88752660  1
  O2-  O182  1  0.53125977  0.73476374  0.38132607  1
  O2-  O183  1  0.52877506  0.74755229  0.88552126  1
  O2-  O184  1  0.22868517  0.01747317  0.11170517  1
  O2-  O185  1  0.22305223  0.01560090  0.61644041  1
  O2-  O186  1  0.21521281  0.50838889  0.11152414  1
  O2-  O187  1  0.22387439  0.50304483  0.63291701  1
  O2-  O188  1  0.72599580  0.01944503  0.11821228  1
  O2-  O189  1  0.71618137  0.00710907  0.61569580  1
  O2-  O190  1  0.73340853  0.51838975  0.11155506  1
  O2-  O191  1  0.73796146  0.52060383  0.63048841  1
  O2-  O192  1  0.13618023  0.28188619  0.23193780  1
  O2-  O193  1  0.12492479  0.27744806  0.73948702  1
  O2-  O194  1  0.11722617  0.76258690  0.23829218  1
  O2-  O195  1  0.13406933  0.76662246  0.72810073  1
  O2-  O196  1  0.61694401  0.26757457  0.23881060  1
  O2-  O197  1  0.63522203  0.27526577  0.72593239  1
  O2-  O198  1  0.63777624  0.77427189  0.23035443  1
  O2-  O199  1  0.63831832  0.76069517  0.72608343  1
  O2-  O200  1  0.37453633  0.22977627  0.26229773  1
  O2-  O201  1  0.36152538  0.23656418  0.77189877  1
  O2-  O202  1  0.36813767  0.72587768  0.27122285  1
  O2-  O203  1  0.36771941  0.72096193  0.76249013  1
  O2-  O204  1  0.86775518  0.22929983  0.27132265  1
  O2-  O205  1  0.88515217  0.24155025  0.76705148  1
  O2-  O206  1  0.87891189  0.72964834  0.26775552  1
  O2-  O207  1  0.86588087  0.71451154  0.76051824  1
  O2-  O208  1  0.27987342  0.36556778  0.23795084  1
  O2-  O209  1  0.26519484  0.37423648  0.73698133  1
  O2-  O210  1  0.26600528  0.86185445  0.22150749  1
  O2-  O211  1  0.27510407  0.86709503  0.72100764  1
  O2-  O212  1  0.76771963  0.36690749  0.21975540  1
  O2-  O213  1  0.76953918  0.38336983  0.72737716  1
  O2-  O214  1  0.78013479  0.86341913  0.23686384  1
  O2-  O215  1  0.78172854  0.86518518  0.72834796  1
  O2-  O216  1  0.23043080  0.13976467  0.27235861  1
  O2-  O217  1  0.21988968  0.13867526  0.76586897  1
  O2-  O218  1  0.22919570  0.63134908  0.28429546  1
  O2-  O219  1  0.23319825  0.61183957  0.76958845  1
  O2-  O220  1  0.72866245  0.13658806  0.28208545  1
  O2-  O221  1  0.73481033  0.13883439  0.77174422  1
  O2-  O222  1  0.73230664  0.63646044  0.28409875  1
  O2-  O223  1  0.73348315  0.61888193  0.76674539  1
  O2-  O224  1  0.11125585  0.48618717  0.27456517  1
  O2-  O225  1  0.12555801  0.47839150  0.76818986  1
  O2-  O226  1  0.11872989  0.97568358  0.27140557  1
  O2-  O227  1  0.11678014  0.98366849  0.77387073  1
  O2-  O228  1  0.61727612  0.47532758  0.26640571  1
  O2-  O229  1  0.63102119  0.48142533  0.76710556  1
  O2-  O230  1  0.61371576  0.98260234  0.26450850  1
  O2-  O231  1  0.61497035  0.97907677  0.78265360  1
  O2-  O232  1  0.38384079  0.01981236  0.21927026  1
  O2-  O233  1  0.38814528  0.03698436  0.73798837  1
  O2-  O234  1  0.38246953  0.51969828  0.23139314  1
  O2-  O235  1  0.37219180  0.51039445  0.73365112  1
  O2-  O236  1  0.88620508  0.01906781  0.22833556  1
  O2-  O237  1  0.88444252  0.02665284  0.72960856  1
  O2-  O238  1  0.88415902  0.52955958  0.23686491  1
  O2-  O239  1  0.88096843  0.51627743  0.73647682  1
  O2-  O240  1  0.48000246  0.36742078  0.26420632  1
  O2-  O241  1  0.48918363  0.38508123  0.78626598  1
  O2-  O242  1  0.47392273  0.88597743  0.26925952  1
  O2-  O243  1  0.46822541  0.88746742  0.76702211  1
  O2-  O244  1  0.97121760  0.38683264  0.26356627  1
  O2-  O245  1  0.98822404  0.37886354  0.76609745  1
  O2-  O246  1  0.98284887  0.86720463  0.26523161  1
  O2-  O247  1  0.97501219  0.88207379  0.77607182  1
  O2-  O248  1  0.02986470  0.11905560  0.22775023  1
  O2-  O249  1  0.02220094  0.13588379  0.73455046  1
  O2-  O250  1  0.01855722  0.62484273  0.24118239  1
  O2-  O251  1  0.02821300  0.61102469  0.73865799  1
  O2-  O252  1  0.51704314  0.12945125  0.23266792  1
  O2-  O253  1  0.53255606  0.11872317  0.73345874  1
  O2-  O254  1  0.52372477  0.61708963  0.21936589  1
  O2-  O255  1  0.52101800  0.61215053  0.72456268  1
  O2-  O256  1  0.12032356  0.47712553  -0.02006891  1
  O2-  O257  1  0.11730683  0.47463169  0.49306584  1
  O2-  O258  1  0.13780289  0.98023105  -0.03175550  1
  O2-  O259  1  0.13616444  0.98253278  0.47469487  1
  O2-  O260  1  0.63499965  0.46827860  -0.02183857  1
  O2-  O261  1  0.63780569  0.48225363  0.48421383  1
  O2-  O262  1  0.61934565  0.98779378  -0.01321366  1
  O2-  O263  1  0.63457593  0.96910315  0.47506216  1
  O2-  O264  1  0.37846488  0.01812724  0.02053555  1
  O2-  O265  1  0.36741851  0.02300556  0.52754204  1
  O2-  O266  1  0.36114828  0.51491148  0.01967985  1
  O2-  O267  1  0.35818276  0.51627534  0.52871527  1
  O2-  O268  1  0.86925678  0.02713655  0.02539208  1
  O2-  O269  1  0.86337696  0.01838690  0.52843822  1
  O2-  O270  1  0.88334095  0.51804767  0.01112409  1
  O2-  O271  1  0.88177323  0.51437702  0.52554992  1
  O2-  O272  1  0.46945637  0.36210774  -0.01386641  1
  O2-  O273  1  0.47629755  0.36639806  0.47061855  1
  O2-  O274  1  0.48245518  0.88304943  -0.01230867  1
  O2-  O275  1  0.47963706  0.86453759  0.47640457  1
  O2-  O276  1  0.98780530  0.37777721  -0.01399444  1
  O2-  O277  1  0.98131722  0.37653035  0.49383317  1
  O2-  O278  1  0.97152270  0.86445279  -0.01276275  1
  O2-  O279  1  0.97486766  0.86420467  0.48015027  1
  O2-  O280  1  0.03053270  0.13619953  0.01105381  1
  O2-  O281  1  0.02190885  0.13582281  0.51843939  1
  O2-  O282  1  0.02521571  0.61562039  0.01293035  1
  O2-  O283  1  0.01723226  0.61765611  0.51606403  1
  O2-  O284  1  0.50894979  0.12813135  0.02043670  1
  O2-  O285  1  0.51511958  0.13785440  0.51408263  1
  O2-  O286  1  0.51938053  0.63226205  0.02304952  1
  O2-  O287  1  0.52270266  0.63098562  0.51981144  1
  O2-  O288  1  0.12847639  0.26984496  0.01258536  1
  O2-  O289  1  0.12701508  0.26974705  0.51961662  1
  O2-  O290  1  0.11282838  0.76494279  0.03091852  1
  O2-  O291  1  0.11010779  0.76551523  0.51929345  1
  O2-  O292  1  0.61375864  0.27364439  0.02360951  1
  O2-  O293  1  0.61236287  0.27616113  0.52204035  1
  O2-  O294  1  0.61696698  0.77281338  0.02758400  1
  O2-  O295  1  0.63462475  0.76219431  0.51208488  1
  O2-  O296  1  0.36660444  0.23198656  -0.01244368  1
  O2-  O297  1  0.36503282  0.23573288  0.48677451  1
  O2-  O298  1  0.38460920  0.73250720  -0.02679618  1
  O2-  O299  1  0.38222707  0.71940512  0.47484738  1
  O2-  O300  1  0.88815255  0.22865594  -0.02641616  1
  O2-  O301  1  0.88809183  0.23315951  0.48095674  1
  O2-  O302  1  0.88787240  0.71534021  -0.00986282  1
  O2-  O303  1  0.87327799  0.72303811  0.48375852  1
  O2-  O304  1  0.26237194  0.37147203  0.01400055  1
  O2-  O305  1  0.25697940  0.37208032  0.52400251  1
  O2-  O306  1  0.27139644  0.88106304  0.01831581  1
  O2-  O307  1  0.27250776  0.88040165  0.52138384  1
  O2-  O308  1  0.78346382  0.38581290  0.00898515  1
  O2-  O309  1  0.77045484  0.38717844  0.52925225  1
  O2-  O310  1  0.76698460  0.88573683  0.02084104  1
  O2-  O311  1  0.77169480  0.86679208  0.52030955  1
  O2-  O312  1  0.23049964  0.13153277  -0.01742254  1
  O2-  O313  1  0.22823004  0.13494585  0.48800886  1
  O2-  O314  1  0.23039574  0.61091281  -0.03021122  1
  O2-  O315  1  0.21645884  0.60935788  0.48793957  1
  O2-  O316  1  0.72936114  0.11929010  -0.02506557  1
  O2-  O317  1  0.72395163  0.11874420  0.48083294  1
  O2-  O318  1  0.73250231  0.61263242  -0.03129103  1
  O2-  O319  1  0.73960602  0.62210843  0.48881365  1
