# generated using pymatgen
data_Sr64Ca21Nb43O192
_symmetry_space_group_name_H-M   'P 1'
_cell_length_a   16.55975000
_cell_length_b   16.55309103
_cell_length_c   16.71852257
_cell_angle_alpha   90.02945019
_cell_angle_beta   89.98304456
_cell_angle_gamma   90.01540729
_symmetry_Int_Tables_number   1
_chemical_formula_structural   Sr64Ca21Nb43O192
_chemical_formula_sum   'Sr64 Ca21 Nb43 O192'
_cell_volume   4582.79766241
_cell_formula_units_Z   1
loop_
 _symmetry_equiv_pos_site_id
 _symmetry_equiv_pos_as_xyz
  1  'x, y, z'
loop_
 _atom_type_symbol
 _atom_type_oxidation_number
  Sr2+  2.0
  Ca2+  2.0
  Nb5+  5.0
  O2-  -2.0
loop_
 _atom_site_type_symbol
 _atom_site_label
 _atom_site_symmetry_multiplicity
 _atom_site_fract_x
 _atom_site_fract_y
 _atom_site_fract_z
 _atom_site_occupancy
  Sr2+  Sr0  1  0.13997683  0.13535117  0.13015753  1
  Sr2+  Sr1  1  0.12209616  0.12906564  0.62380309  1
  Sr2+  Sr2  1  0.12826635  0.63486614  0.12417918  1
  Sr2+  Sr3  1  0.13713479  0.62428994  0.62725364  1
  Sr2+  Sr4  1  0.62672852  0.13390691  0.12465535  1
  Sr2+  Sr5  1  0.62300669  0.13586473  0.62152084  1
  Sr2+  Sr6  1  0.61913109  0.62568581  0.14697852  1
  Sr2+  Sr7  1  0.62120005  0.63991889  0.63128410  1
  Sr2+  Sr8  1  0.37279245  0.35475869  0.12089331  1
  Sr2+  Sr9  1  0.36890432  0.37557358  0.62855904  1
  Sr2+  Sr10  1  0.36577554  0.89023180  0.12816429  1
  Sr2+  Sr11  1  0.36985530  0.87264823  0.62322988  1
  Sr2+  Sr12  1  0.87115731  0.38574537  0.13433581  1
  Sr2+  Sr13  1  0.87193283  0.37776337  0.62120282  1
  Sr2+  Sr14  1  0.87316052  0.86983851  0.12443963  1
  Sr2+  Sr15  1  0.88437471  0.89279760  0.62150277  1
  Sr2+  Sr16  1  0.11474968  0.36819953  0.35218512  1
  Sr2+  Sr17  1  0.11233673  0.36988345  0.87575167  1
  Sr2+  Sr18  1  0.11543083  0.87287623  0.37774314  1
  Sr2+  Sr19  1  0.11954664  0.86217955  0.87917048  1
  Sr2+  Sr20  1  0.63309539  0.37551853  0.36848651  1
  Sr2+  Sr21  1  0.61858570  0.37878039  0.88230397  1
  Sr2+  Sr22  1  0.62236999  0.86846325  0.37382706  1
  Sr2+  Sr23  1  0.61599156  0.87222883  0.86669728  1
  Sr2+  Sr24  1  0.38160882  0.10847508  0.36852721  1
  Sr2+  Sr25  1  0.39173460  0.11453288  0.87850449  1
  Sr2+  Sr26  1  0.39689797  0.63037761  0.37440613  1
  Sr2+  Sr27  1  0.37259309  0.62384527  0.87974488  1
  Sr2+  Sr28  1  0.87473803  0.12218653  0.38197492  1
  Sr2+  Sr29  1  0.86987868  0.12447797  0.87415236  1
  Sr2+  Sr30  1  0.86676261  0.61486809  0.37305546  1
  Sr2+  Sr31  1  0.85804948  0.61628837  0.86980102  1
  Sr2+  Sr32  1  0.12662133  0.11685387  0.36915090  1
  Sr2+  Sr33  1  0.11864746  0.12403346  0.87089427  1
  Sr2+  Sr34  1  0.12525278  0.62778285  0.37722538  1
  Sr2+  Sr35  1  0.12583551  0.61603393  0.87908225  1
  Sr2+  Sr36  1  0.63438685  0.12577856  0.37276588  1
  Sr2+  Sr37  1  0.63777001  0.10754632  0.87607258  1
  Sr2+  Sr38  1  0.62809707  0.64266590  0.37635328  1
  Sr2+  Sr39  1  0.62301874  0.64599894  0.87460989  1
  Sr2+  Sr40  1  0.38381219  0.35894925  0.37105125  1
  Sr2+  Sr41  1  0.37845247  0.37080895  0.87914921  1
  Sr2+  Sr42  1  0.37410973  0.86712554  0.37862201  1
  Sr2+  Sr43  1  0.37766996  0.86859571  0.88635928  1
  Sr2+  Sr44  1  0.86799294  0.36163053  0.37361551  1
  Sr2+  Sr45  1  0.86908767  0.36801233  0.87768337  1
  Sr2+  Sr46  1  0.87041704  0.85488002  0.37631730  1
  Sr2+  Sr47  1  0.86375633  0.87057533  0.87270837  1
  Sr2+  Sr48  1  0.10810895  0.37981641  0.11992677  1
  Sr2+  Sr49  1  0.12840967  0.37624214  0.63184779  1
  Sr2+  Sr50  1  0.12861141  0.87918316  0.11884193  1
  Sr2+  Sr51  1  0.12046136  0.87849568  0.62070883  1
  Sr2+  Sr52  1  0.59701433  0.37649032  0.12637419  1
  Sr2+  Sr53  1  0.60392656  0.37863937  0.62350315  1
  Sr2+  Sr54  1  0.61537989  0.88257533  0.12670135  1
  Sr2+  Sr55  1  0.61506526  0.88950008  0.62948868  1
  Sr2+  Sr56  1  0.38459646  0.12511336  0.13321870  1
  Sr2+  Sr57  1  0.36837982  0.13321063  0.62008741  1
  Sr2+  Sr58  1  0.37233251  0.62361931  0.13017401  1
  Sr2+  Sr59  1  0.37059927  0.62318005  0.62064886  1
  Sr2+  Sr60  1  0.87987836  0.13217861  0.11890683  1
  Sr2+  Sr61  1  0.88297621  0.13280114  0.62282377  1
  Sr2+  Sr62  1  0.88531686  0.62873068  0.13302336  1
  Sr2+  Sr63  1  0.87355785  0.62020903  0.63013352  1
  Ca2+  Ca64  1  0.50113504  0.00195446  0.49944164  1
  Ca2+  Ca65  1  0.49868183  0.49979317  0.50032889  1
  Ca2+  Ca66  1  0.50327525  -0.00210566  0.00142345  1
  Ca2+  Ca67  1  -0.00086261  -0.00124387  -0.00217283  1
  Ca2+  Ca68  1  0.00291438  0.49907871  0.50534818  1
  Ca2+  Ca69  1  0.75167425  0.75136205  0.50473247  1
  Ca2+  Ca70  1  0.24817214  0.24937474  -0.00192786  1
  Ca2+  Ca71  1  0.24445757  0.25076462  0.49626532  1
  Ca2+  Ca72  1  0.75138452  0.74894315  0.00072887  1
  Ca2+  Ca73  1  0.74883584  0.25395603  -0.00106983  1
  Ca2+  Ca74  1  -0.00191352  0.24534635  0.24760346  1
  Ca2+  Ca75  1  0.00067206  0.74812292  0.74793417  1
  Ca2+  Ca76  1  0.50064111  0.24698913  0.75184391  1
  Ca2+  Ca77  1  0.00160847  0.75296641  0.25064889  1
  Ca2+  Ca78  1  0.24880738  0.50115200  0.25023682  1
  Ca2+  Ca79  1  0.25058332  -0.00326900  0.75250917  1
  Ca2+  Ca80  1  0.49861518  0.75352172  0.24586045  1
  Ca2+  Ca81  1  0.74752141  0.50049236  0.24895779  1
  Ca2+  Ca82  1  0.50260812  0.24899731  0.25416948  1
  Ca2+  Ca83  1  0.75500025  0.00005140  0.25144582  1
  Ca2+  Ca84  1  0.49441989  0.74928951  0.74768705  1
  Nb5+  Nb85  1  -0.00773740  0.50261193  -0.00299627  1
  Nb5+  Nb86  1  0.49278372  0.50479467  0.00104797  1
  Nb5+  Nb87  1  -0.00022526  0.00271469  0.49670156  1
  Nb5+  Nb88  1  0.24824351  0.75077814  0.50280347  1
  Nb5+  Nb89  1  0.74854656  0.25062480  0.50401761  1
  Nb5+  Nb90  1  0.25221464  0.74966060  0.00607275  1
  Nb5+  Nb91  1  0.75199701  0.00551327  0.74520250  1
  Nb5+  Nb92  1  0.24782566  0.49808894  0.75401803  1
  Nb5+  Nb93  1  0.73938849  0.49699533  0.75156306  1
  Nb5+  Nb94  1  0.24816835  -0.00178187  0.25128370  1
  Nb5+  Nb95  1  -0.00138206  0.25045901  0.74968388  1
  Nb5+  Nb96  1  -0.00152692  -0.00071385  0.24374534  1
  Nb5+  Nb97  1  0.00048595  -0.00181895  0.75262438  1
  Nb5+  Nb98  1  0.00071726  0.50464633  0.25585154  1
  Nb5+  Nb99  1  -0.00492449  0.49811092  0.74919414  1
  Nb5+  Nb100  1  0.50738342  -0.00287628  0.25216597  1
  Nb5+  Nb101  1  0.49382331  0.00419067  0.74631678  1
  Nb5+  Nb102  1  0.49618051  0.49758857  0.25690502  1
  Nb5+  Nb103  1  0.49211808  0.50244881  0.75155858  1
  Nb5+  Nb104  1  0.25136561  0.25293630  0.25146176  1
  Nb5+  Nb105  1  0.25056896  0.24352688  0.75488874  1
  Nb5+  Nb106  1  0.24515658  0.75002288  0.25838949  1
  Nb5+  Nb107  1  0.25276524  0.75084770  0.75724485  1
  Nb5+  Nb108  1  0.75317065  0.24919135  0.24295793  1
  Nb5+  Nb109  1  0.74940195  0.25525581  0.74636215  1
  Nb5+  Nb110  1  0.75332319  0.75085486  0.24879544  1
  Nb5+  Nb111  1  0.75267471  0.75931254  0.74494762  1
  Nb5+  Nb112  1  0.00221970  0.25182416  0.49690061  1
  Nb5+  Nb113  1  -0.00069827  0.24805953  1.00145259  1
  Nb5+  Nb114  1  -0.00046810  0.74490156  0.50314284  1
  Nb5+  Nb115  1  -0.00426047  0.74807060  0.99124301  1
  Nb5+  Nb116  1  0.49371233  0.24636046  0.49868763  1
  Nb5+  Nb117  1  0.50285854  0.24549314  0.99368612  1
  Nb5+  Nb118  1  0.50290160  0.75376664  0.50305587  1
  Nb5+  Nb119  1  0.50096973  0.75137396  1.00514286  1
  Nb5+  Nb120  1  0.24885080  0.00440915  -0.00350620  1
  Nb5+  Nb121  1  0.24935203  0.00180817  0.50232998  1
  Nb5+  Nb122  1  0.24663979  0.49943864  0.00169271  1
  Nb5+  Nb123  1  0.24803706  0.49647865  0.49314756  1
  Nb5+  Nb124  1  0.75069865  -0.00185877  0.00661330  1
  Nb5+  Nb125  1  0.75046300  -0.00291576  0.49936124  1
  Nb5+  Nb126  1  0.74152643  0.50234990  0.00223888  1
  Nb5+  Nb127  1  0.74673942  0.50136317  0.50092682  1
  O2-  O128  1  0.00455132  -0.03327553  0.13370862  1
  O2-  O129  1  0.01465760  -0.00879044  0.62676953  1
  O2-  O130  1  -0.00664013  0.48290666  0.11240497  1
  O2-  O131  1  -0.00083681  0.46214790  0.64014280  1
  O2-  O132  1  0.52197628  0.02644873  0.13407136  1
  O2-  O133  1  0.52823169  0.02063102  0.63406569  1
  O2-  O134  1  0.50246123  0.52235964  0.11610037  1
  O2-  O135  1  0.49537536  0.52079433  0.63619423  1
  O2-  O136  1  -0.00442582  0.02761062  0.38300695  1
  O2-  O137  1  -0.01300455  0.03061586  0.86322572  1
  O2-  O138  1  0.00510059  0.52890495  0.36884230  1
  O2-  O139  1  0.00512699  0.51625823  0.87158992  1
  O2-  O140  1  0.47593515  -0.02335653  0.36522299  1
  O2-  O141  1  0.48196884  -0.02440738  0.86476649  1
  O2-  O142  1  0.49345450  0.47065218  0.36745703  1
  O2-  O143  1  0.49829767  0.48055661  0.87747705  1
  O2-  O144  1  0.27317914  0.23057782  0.13437424  1
  O2-  O145  1  0.26715389  0.25524911  0.63639887  1
  O2-  O146  1  0.26434591  0.74185603  0.12136796  1
  O2-  O147  1  0.26507044  0.74669825  0.61936062  1
  O2-  O148  1  0.77885332  0.24563112  0.13187603  1
  O2-  O149  1  0.77701911  0.24322154  0.62611073  1
  O2-  O150  1  0.78156953  0.73968930  0.13276874  1
  O2-  O151  1  0.76373471  0.71990264  0.63500365  1
  O2-  O152  1  0.21349994  0.25184984  0.36414491  1
  O2-  O153  1  0.22199568  0.26416441  0.86527409  1
  O2-  O154  1  0.22903009  0.75939277  0.37378158  1
  O2-  O155  1  0.23926205  0.75437420  0.87330951  1
  O2-  O156  1  0.73372611  0.25038105  0.38686811  1
  O2-  O157  1  0.73424555  0.24893221  0.86059787  1
  O2-  O158  1  0.72865703  0.76275758  0.37075840  1
  O2-  O159  1  0.73005884  0.76491577  0.86189830  1
  O2-  O160  1  -0.02645724  0.27322408  0.11257479  1
  O2-  O161  1  -0.02338663  0.26439747  0.63277468  1
  O2-  O162  1  -0.01446890  0.76109515  0.10911939  1
  O2-  O163  1  -0.01099078  0.78261694  0.61420611  1
  O2-  O164  1  0.49062703  0.23756867  0.11442477  1
  O2-  O165  1  0.48779254  0.22237576  0.61747226  1
  O2-  O166  1  0.48973840  0.71214857  0.11420379  1
  O2-  O167  1  0.47869165  0.72489162  0.61450552  1
  O2-  O168  1  0.25973552  -0.00191336  0.37469224  1
  O2-  O169  1  0.27988400  -0.00133745  0.88597234  1
  O2-  O170  1  0.21462742  0.49467880  0.38485560  1
  O2-  O171  1  0.25555775  0.50180801  0.87571052  1
  O2-  O172  1  0.76954518  0.01255634  0.38707676  1
  O2-  O173  1  0.77262896  0.00057235  0.86246999  1
  O2-  O174  1  0.76145994  0.49059166  0.38698326  1
  O2-  O175  1  0.75403079  0.47686953  0.86787001  1
  O2-  O176  1  0.02323280  0.23212558  0.38620336  1
  O2-  O177  1  0.01787291  0.23481403  0.87092952  1
  O2-  O178  1  0.02876413  0.74419386  0.38788860  1
  O2-  O179  1  0.03607557  0.73233287  0.87997696  1
  O2-  O180  1  0.51983552  0.28026872  0.38763321  1
  O2-  O181  1  0.50624813  0.28403741  0.88224954  1
  O2-  O182  1  0.50603026  0.77170845  0.38229873  1
  O2-  O183  1  0.50495109  0.76563831  0.88415297  1
  O2-  O184  1  0.23170120  -0.00383932  0.12967127  1
  O2-  O185  1  0.23438230  -0.01247342  0.61648328  1
  O2-  O186  1  0.24668841  0.52251184  0.11356294  1
  O2-  O187  1  0.26676802  0.50447866  0.63777827  1
  O2-  O188  1  0.72817889  -0.00820710  0.11760674  1
  O2-  O189  1  0.73573775  -0.00009507  0.62509382  1
  O2-  O190  1  0.75251459  0.52624551  0.11214796  1
  O2-  O191  1  0.74969421  0.49702299  0.63335499  1
  O2-  O192  1  0.13359215  0.27004346  0.22025876  1
  O2-  O193  1  0.11699385  0.26775525  0.73391230  1
  O2-  O194  1  0.13538868  0.77961680  0.22680514  1
  O2-  O195  1  0.13928592  0.76785551  0.72860907  1
  O2-  O196  1  0.63602926  0.27722830  0.23771342  1
  O2-  O197  1  0.63748804  0.26412632  0.72152138  1
  O2-  O198  1  0.63575531  0.77350268  0.22575783  1
  O2-  O199  1  0.63319186  0.76326218  0.72763289  1
  O2-  O200  1  0.36591515  0.22858899  0.27952398  1
  O2-  O201  1  0.36269941  0.22392849  0.77449711  1
  O2-  O202  1  0.36238425  0.73313586  0.26121064  1
  O2-  O203  1  0.36274539  0.70930342  0.75411897  1
  O2-  O204  1  0.86563808  0.22727660  0.27988351  1
  O2-  O205  1  0.87725073  0.23386158  0.76612923  1
  O2-  O206  1  0.87047227  0.72387611  0.27694720  1
  O2-  O207  1  0.86529453  0.72608231  0.76749319  1
  O2-  O208  1  0.27743470  0.36624128  0.24908833  1
  O2-  O209  1  0.26913513  0.37956954  0.75194689  1
  O2-  O210  1  0.27164147  0.87700232  0.25094304  1
  O2-  O211  1  0.28692565  0.86192647  0.75341526  1
  O2-  O212  1  0.77571124  0.36688026  0.25546357  1
  O2-  O213  1  0.77515274  0.37022824  0.74328856  1
  O2-  O214  1  0.78608787  0.86762041  0.24837104  1
  O2-  O215  1  0.77401174  0.87447583  0.73405230  1
  O2-  O216  1  0.23146828  0.11748369  0.25515295  1
  O2-  O217  1  0.21697425  0.13248060  0.75096673  1
  O2-  O218  1  0.21785922  0.63721448  0.25528417  1
  O2-  O219  1  0.22437540  0.61975799  0.75622476  1
  O2-  O220  1  0.71982183  0.13412044  0.24826473  1
  O2-  O221  1  0.73834486  0.12298374  0.74548979  1
  O2-  O222  1  0.72536841  0.63341594  0.26211348  1
  O2-  O223  1  0.73105147  0.61236765  0.76302672  1
  O2-  O224  1  0.11391081  0.47285532  0.23692357  1
  O2-  O225  1  0.12921385  0.47885360  0.75444679  1
  O2-  O226  1  0.12936395  0.97764934  0.26451207  1
  O2-  O227  1  0.11458892  0.97841261  0.76762803  1
  O2-  O228  1  0.61337580  0.47739791  0.23833429  1
  O2-  O229  1  0.62661308  0.47035661  0.75181774  1
  O2-  O230  1  0.61936841  0.97494328  0.27007700  1
  O2-  O231  1  0.63670286  0.98008782  0.76285732  1
  O2-  O232  1  0.36822945  0.01597499  0.23603453  1
  O2-  O233  1  0.38305827  0.03067867  0.72907667  1
  O2-  O234  1  0.38221174  0.53302477  0.24878239  1
  O2-  O235  1  0.37620573  0.51974608  0.76297985  1
  O2-  O236  1  0.88840803  0.03457057  0.23769211  1
  O2-  O237  1  0.87420182  0.01682145  0.72608546  1
  O2-  O238  1  0.88397842  0.52129263  0.23931206  1
  O2-  O239  1  0.87707637  0.51150433  0.75099089  1
  O2-  O240  1  0.47191423  0.38429750  0.22447326  1
  O2-  O241  1  0.48263370  0.38441569  0.73256639  1
  O2-  O242  1  0.48298991  0.88538044  0.21673551  1
  O2-  O243  1  0.48946970  0.88525679  0.72339944  1
  O2-  O244  1  0.97988847  0.38377813  0.26888467  1
  O2-  O245  1  0.98679908  0.37112963  0.77675571  1
  O2-  O246  1  0.98487807  0.88974375  0.28483851  1
  O2-  O247  1  0.97341346  0.88645465  0.76494373  1
  O2-  O248  1  0.03674679  0.11225542  0.23640923  1
  O2-  O249  1  0.01339293  0.12964943  0.73281728  1
  O2-  O250  1  0.02166741  0.61781169  0.22308563  1
  O2-  O251  1  0.01569595  0.60950479  0.72417667  1
  O2-  O252  1  0.51167146  0.11532249  0.27571079  1
  O2-  O253  1  0.52476318  0.11442433  0.78055990  1
  O2-  O254  1  0.52406190  0.61631521  0.27019706  1
  O2-  O255  1  0.53022143  0.61286309  0.76706692  1
  O2-  O256  1  0.12922067  0.48550826  -0.00739180  1
  O2-  O257  1  0.13891115  0.49476429  0.53755291  1
  O2-  O258  1  0.13609298  0.96705630  -0.01359364  1
  O2-  O259  1  0.12030087  0.98170125  0.48898836  1
  O2-  O260  1  0.62495456  0.48255547  -0.00037858  1
  O2-  O261  1  0.63528164  0.46260687  0.50300101  1
  O2-  O262  1  0.63821882  0.97384861  -0.02891254  1
  O2-  O263  1  0.63806248  0.97300262  0.48669784  1
  O2-  O264  1  0.36442196  0.01685109  0.02773750  1
  O2-  O265  1  0.36332665  0.02470890  0.51105711  1
  O2-  O266  1  0.37537406  0.52411553  -0.00233009  1
  O2-  O267  1  0.35880901  0.53578979  0.49289144  1
  O2-  O268  1  0.86614633  0.03293310  0.00908396  1
  O2-  O269  1  0.88159859  0.02044609  0.51942887  1
  O2-  O270  1  0.87929370  0.52447565  -0.00754315  1
  O2-  O271  1  0.86579171  0.51831600  0.51836035  1
  O2-  O272  1  0.47845833  0.38624110  0.01629404  1
  O2-  O273  1  0.48062176  0.36320939  0.52851849  1
  O2-  O274  1  0.47597066  0.86333513  0.02476626  1
  O2-  O275  1  0.47294168  0.86820907  0.51906237  1
  O2-  O276  1  0.98748284  0.38460536  -0.02457420  1
  O2-  O277  1  0.98362307  0.36531188  0.48026294  1
  O2-  O278  1  0.98617201  0.86278054  -0.03025769  1
  O2-  O279  1  0.98226174  0.88522710  0.48532370  1
  O2-  O280  1  0.02055299  0.13611690  0.02272793  1
  O2-  O281  1  0.01209809  0.12480154  0.52096476  1
  O2-  O282  1  0.02496205  0.61970341  0.01004759  1
  O2-  O283  1  0.02120234  0.63557757  0.52993853  1
  O2-  O284  1  0.52241567  0.13338751  -0.02676538  1
  O2-  O285  1  0.53247912  0.13484341  0.48037879  1
  O2-  O286  1  0.51120913  0.62149272  -0.02661733  1
  O2-  O287  1  0.51321708  0.63532284  0.47601301  1
  O2-  O288  1  0.11324309  0.28036309  0.00757954  1
  O2-  O289  1  0.11178620  0.26255984  0.53435628  1
  O2-  O290  1  0.13302434  0.76410712  0.01387014  1
  O2-  O291  1  0.12908202  0.77515785  0.51356625  1
  O2-  O292  1  0.61581625  0.28135585  0.01078394  1
  O2-  O293  1  0.63525186  0.26419008  0.52700585  1
  O2-  O294  1  0.61585742  0.76632517  0.01355721  1
  O2-  O295  1  0.61569533  0.77231347  0.52199129  1
  O2-  O296  1  0.38312285  0.23671112  -0.01803604  1
  O2-  O297  1  0.38182010  0.22374464  0.47762491  1
  O2-  O298  1  0.37100375  0.73260682  -0.01434967  1
  O2-  O299  1  0.36461281  0.73825768  0.47945337  1
  O2-  O300  1  0.88510952  0.23912539  -0.02939387  1
  O2-  O301  1  0.87850835  0.23009714  0.49031220  1
  O2-  O302  1  0.88648185  0.72271848  -0.02843318  1
  O2-  O303  1  0.88669098  0.72778421  0.47994800  1
  O2-  O304  1  0.27417827  0.38787102  0.00613485  1
  O2-  O305  1  0.27854492  0.38536801  0.50028638  1
  O2-  O306  1  0.27056266  0.86853983  0.00284075  1
  O2-  O307  1  0.26518271  0.87494281  0.49589403  1
  O2-  O308  1  0.77931359  0.39077661  0.00666621  1
  O2-  O309  1  0.77619044  0.36663465  0.50562621  1
  O2-  O310  1  0.78731873  0.88347634  -0.00015846  1
  O2-  O311  1  0.78465473  0.88601493  0.50650979  1
  O2-  O312  1  0.21645308  0.11486323  -0.00510165  1
  O2-  O313  1  0.22011744  0.11472974  0.50101817  1
  O2-  O314  1  0.23688328  0.62912991  -0.01357861  1
  O2-  O315  1  0.22372687  0.63440707  0.49597034  1
  O2-  O316  1  0.72334104  0.11741295  0.00114560  1
  O2-  O317  1  0.73882464  0.12538381  0.50826568  1
  O2-  O318  1  0.73839043  0.61333629  -0.03562325  1
  O2-  O319  1  0.71852246  0.61311644  0.49989197  1
