# generated using pymatgen
data_Sr64Ca21Nb43O192
_symmetry_space_group_name_H-M   'P 1'
_cell_length_a   16.53322608
_cell_length_b   16.55256923
_cell_length_c   16.71166853
_cell_angle_alpha   89.94996625
_cell_angle_beta   90.01387453
_cell_angle_gamma   90.03005385
_symmetry_Int_Tables_number   1
_chemical_formula_structural   Sr64Ca21Nb43O192
_chemical_formula_sum   'Sr64 Ca21 Nb43 O192'
_cell_volume   4573.43585539
_cell_formula_units_Z   1
loop_
 _symmetry_equiv_pos_site_id
 _symmetry_equiv_pos_as_xyz
  1  'x, y, z'
loop_
 _atom_type_symbol
 _atom_type_oxidation_number
  Sr2+  2.0
  Ca2+  2.0
  Nb5+  5.0
  O2-  -2.0
loop_
 _atom_site_type_symbol
 _atom_site_label
 _atom_site_symmetry_multiplicity
 _atom_site_fract_x
 _atom_site_fract_y
 _atom_site_fract_z
 _atom_site_occupancy
  Sr2+  Sr0  1  0.12600635  0.11442647  0.12902522  1
  Sr2+  Sr1  1  0.12508154  0.14989863  0.62017233  1
  Sr2+  Sr2  1  0.12161414  0.60221526  0.12854756  1
  Sr2+  Sr3  1  0.12619660  0.59898669  0.61956285  1
  Sr2+  Sr4  1  0.62521248  0.12907086  0.13363115  1
  Sr2+  Sr5  1  0.62203294  0.12393927  0.61624162  1
  Sr2+  Sr6  1  0.62697422  0.62293297  0.12246143  1
  Sr2+  Sr7  1  0.62897428  0.63122884  0.63033956  1
  Sr2+  Sr8  1  0.36436871  0.37004153  0.12515927  1
  Sr2+  Sr9  1  0.35915757  0.37009291  0.63014677  1
  Sr2+  Sr10  1  0.36560720  0.88170009  0.11777073  1
  Sr2+  Sr11  1  0.37019997  0.87977786  0.62932114  1
  Sr2+  Sr12  1  0.87672664  0.35311511  0.12154194  1
  Sr2+  Sr13  1  0.87976018  0.37312504  0.64001973  1
  Sr2+  Sr14  1  0.87248455  0.88208358  0.11650686  1
  Sr2+  Sr15  1  0.87460386  0.88169694  0.63073484  1
  Sr2+  Sr16  1  0.11099224  0.37953242  0.38035203  1
  Sr2+  Sr17  1  0.14946401  0.37481196  0.87074279  1
  Sr2+  Sr18  1  0.12712232  0.86800438  0.37319043  1
  Sr2+  Sr19  1  0.13892920  0.88329351  0.87625356  1
  Sr2+  Sr20  1  0.60729477  0.37605342  0.37411199  1
  Sr2+  Sr21  1  0.63191665  0.38799201  0.87656941  1
  Sr2+  Sr22  1  0.62813676  0.87342735  0.38117521  1
  Sr2+  Sr23  1  0.62227113  0.87060610  0.87033769  1
  Sr2+  Sr24  1  0.38485368  0.12798427  0.36933514  1
  Sr2+  Sr25  1  0.37257259  0.11716900  0.86460874  1
  Sr2+  Sr26  1  0.37678912  0.62223334  0.38187424  1
  Sr2+  Sr27  1  0.38130537  0.62458966  0.87475082  1
  Sr2+  Sr28  1  0.86897127  0.12365207  0.37315385  1
  Sr2+  Sr29  1  0.87342169  0.11513190  0.88419165  1
  Sr2+  Sr30  1  0.87703779  0.62124803  0.36949677  1
  Sr2+  Sr31  1  0.87449283  0.62369569  0.87571198  1
  Sr2+  Sr32  1  0.11230116  0.12252371  0.37348929  1
  Sr2+  Sr33  1  0.13248198  0.13100115  0.88810196  1
  Sr2+  Sr34  1  0.12742331  0.61433638  0.37125953  1
  Sr2+  Sr35  1  0.12828239  0.61611072  0.88318912  1
  Sr2+  Sr36  1  0.62354707  0.13266947  0.37211986  1
  Sr2+  Sr37  1  0.63881547  0.12927995  0.87300295  1
  Sr2+  Sr38  1  0.63960644  0.61704334  0.37578360  1
  Sr2+  Sr39  1  0.62964034  0.62172980  0.87462781  1
  Sr2+  Sr40  1  0.37608865  0.36869363  0.36481307  1
  Sr2+  Sr41  1  0.38124334  0.38437375  0.87552388  1
  Sr2+  Sr42  1  0.37359423  0.87643004  0.37923678  1
  Sr2+  Sr43  1  0.38369027  0.87076468  0.87247955  1
  Sr2+  Sr44  1  0.86803403  0.37202539  0.37075557  1
  Sr2+  Sr45  1  0.87187007  0.35252778  0.87593610  1
  Sr2+  Sr46  1  0.87057238  0.86344625  0.37937328  1
  Sr2+  Sr47  1  0.86712767  0.89021267  0.87592080  1
  Sr2+  Sr48  1  0.12653681  0.37063782  0.10933466  1
  Sr2+  Sr49  1  0.12643154  0.37635060  0.63844972  1
  Sr2+  Sr50  1  0.13167246  0.87666881  0.12738965  1
  Sr2+  Sr51  1  0.12044497  0.87607455  0.62386537  1
  Sr2+  Sr52  1  0.61465926  0.37711233  0.12261005  1
  Sr2+  Sr53  1  0.62041682  0.38359797  0.63581224  1
  Sr2+  Sr54  1  0.62310281  0.87636030  0.11228352  1
  Sr2+  Sr55  1  0.61746965  0.87688107  0.62568680  1
  Sr2+  Sr56  1  0.34787002  0.12425812  0.12628998  1
  Sr2+  Sr57  1  0.36078557  0.12155092  0.62336074  1
  Sr2+  Sr58  1  0.36735552  0.62054234  0.12244686  1
  Sr2+  Sr59  1  0.36581242  0.63354790  0.62519592  1
  Sr2+  Sr60  1  0.85489532  0.12027915  0.12741699  1
  Sr2+  Sr61  1  0.88882599  0.11890952  0.62943951  1
  Sr2+  Sr62  1  0.88133236  0.63463036  0.12428895  1
  Sr2+  Sr63  1  0.88619023  0.63272856  0.63011958  1
  Ca2+  Ca64  1  -0.00560310  0.49702229  0.00016133  1
  Ca2+  Ca65  1  0.49979638  0.50201534  0.50277073  1
  Ca2+  Ca66  1  -0.00775017  0.49800947  0.50212808  1
  Ca2+  Ca67  1  0.00203250  -0.00185407  0.00484738  1
  Ca2+  Ca68  1  0.50019876  0.00293800  -0.00031679  1
  Ca2+  Ca69  1  0.25478360  0.24947677  -0.00116383  1
  Ca2+  Ca70  1  0.74511933  0.25067739  -0.00109159  1
  Ca2+  Ca71  1  0.25194990  0.24741553  0.49360916  1
  Ca2+  Ca72  1  0.24932611  0.75069872  0.00038669  1
  Ca2+  Ca73  1  0.75046208  0.25319483  0.50137002  1
  Ca2+  Ca74  1  0.75137752  0.49849975  0.24573949  1
  Ca2+  Ca75  1  0.74909146  0.00117208  0.74790917  1
  Ca2+  Ca76  1  -0.00024577  0.75204518  0.75092320  1
  Ca2+  Ca77  1  0.25091708  0.49988438  0.25229350  1
  Ca2+  Ca78  1  0.25303444  -0.00049348  0.25838277  1
  Ca2+  Ca79  1  0.25559848  0.50484450  0.74914757  1
  Ca2+  Ca80  1  0.50178029  0.75154283  0.25169637  1
  Ca2+  Ca81  1  0.74856617  -0.00474688  0.25520510  1
  Ca2+  Ca82  1  -0.00062278  0.24789916  0.75175531  1
  Ca2+  Ca83  1  0.24618614  -0.00189706  0.74450665  1
  Ca2+  Ca84  1  0.50146563  0.25196328  0.75138416  1
  Nb5+  Nb85  1  -0.00604694  -0.00098663  0.49843943  1
  Nb5+  Nb86  1  0.50006687  0.50305563  0.00025439  1
  Nb5+  Nb87  1  0.49495038  -0.00146608  0.50243927  1
  Nb5+  Nb88  1  0.75323823  0.74533909  0.49943499  1
  Nb5+  Nb89  1  0.74969949  0.74918259  -0.00578963  1
  Nb5+  Nb90  1  0.25177230  0.74937977  0.49999053  1
  Nb5+  Nb91  1  0.49348716  0.25033759  0.24322469  1
  Nb5+  Nb92  1  0.75222517  0.50266445  0.75091169  1
  Nb5+  Nb93  1  0.00012812  0.74639214  0.24857026  1
  Nb5+  Nb94  1  -0.00348569  0.24093003  0.24730256  1
  Nb5+  Nb95  1  0.49925923  0.74896662  0.74822324  1
  Nb5+  Nb96  1  -0.00255154  -0.01017290  0.25480062  1
  Nb5+  Nb97  1  0.00225025  0.00139217  0.75635302  1
  Nb5+  Nb98  1  -0.00387141  0.48859279  0.25039359  1
  Nb5+  Nb99  1  0.00316628  0.50042629  0.75455398  1
  Nb5+  Nb100  1  0.50076610  -0.00342208  0.24664028  1
  Nb5+  Nb101  1  0.50512296  0.00341529  0.75056605  1
  Nb5+  Nb102  1  0.50245924  0.50523929  0.25251693  1
  Nb5+  Nb103  1  0.50087540  0.50551070  0.74622824  1
  Nb5+  Nb104  1  0.23761819  0.25264378  0.25281492  1
  Nb5+  Nb105  1  0.25277957  0.24709034  0.74887082  1
  Nb5+  Nb106  1  0.25451070  0.74684744  0.25111867  1
  Nb5+  Nb107  1  0.24401811  0.75092333  0.75082794  1
  Nb5+  Nb108  1  0.74232571  0.25505333  0.25158401  1
  Nb5+  Nb109  1  0.74400049  0.24578493  0.74466762  1
  Nb5+  Nb110  1  0.74834600  0.75481453  0.24306369  1
  Nb5+  Nb111  1  0.75263740  0.74856423  0.74733504  1
  Nb5+  Nb112  1  -0.00290893  0.25089036  0.49672308  1
  Nb5+  Nb113  1  -0.00147893  0.24562462  0.99625473  1
  Nb5+  Nb114  1  0.00600278  0.74925793  0.49909031  1
  Nb5+  Nb115  1  0.00325540  0.75176723  0.99616402  1
  Nb5+  Nb116  1  0.50072698  0.25280346  0.50394726  1
  Nb5+  Nb117  1  0.50002757  0.24723907  0.99667294  1
  Nb5+  Nb118  1  0.50462005  0.75084259  0.49797464  1
  Nb5+  Nb119  1  0.49833689  0.74678248  1.00410008  1
  Nb5+  Nb120  1  0.25085465  0.00051307  -0.00210177  1
  Nb5+  Nb121  1  0.24144457  -0.00148278  0.49953003  1
  Nb5+  Nb122  1  0.24880371  0.50191542  -0.00173224  1
  Nb5+  Nb123  1  0.25467295  0.49436266  0.49714815  1
  Nb5+  Nb124  1  0.74145334  0.00214986  0.00185219  1
  Nb5+  Nb125  1  0.74414661  -0.00084182  0.50020648  1
  Nb5+  Nb126  1  0.75204953  0.50230290  0.00156598  1
  Nb5+  Nb127  1  0.75565044  0.49534584  0.50210834  1
  O2-  O128  1  0.01018794  -0.02419122  0.14044092  1
  O2-  O129  1  -0.00231514  -0.02441597  0.61458528  1
  O2-  O130  1  0.02139215  0.48187852  0.13512510  1
  O2-  O131  1  0.00152489  0.47133888  0.63486517  1
  O2-  O132  1  0.53039278  0.00618774  0.13646457  1
  O2-  O133  1  0.51919254  0.00982379  0.62374315  1
  O2-  O134  1  0.51133437  0.51999383  0.11845976  1
  O2-  O135  1  0.52221448  0.52392759  0.63468044  1
  O2-  O136  1  -0.01033695  0.02088417  0.37782345  1
  O2-  O137  1  0.00844275  0.02346215  0.86896674  1
  O2-  O138  1  -0.01885873  0.51365782  0.36703304  1
  O2-  O139  1  -0.00562273  0.53396019  0.86761431  1
  O2-  O140  1  0.48223516  -0.01535279  0.38644353  1
  O2-  O141  1  0.49034691  -0.02083211  0.86366489  1
  O2-  O142  1  0.48935718  0.48085650  0.36528622  1
  O2-  O143  1  0.49544989  0.49213784  0.87518410  1
  O2-  O144  1  0.23345923  0.26467777  0.13376230  1
  O2-  O145  1  0.23813445  0.27489211  0.62780160  1
  O2-  O146  1  0.25908279  0.77319757  0.13760148  1
  O2-  O147  1  0.25748607  0.77302129  0.61737396  1
  O2-  O148  1  0.73609629  0.25279039  0.13328461  1
  O2-  O149  1  0.72013038  0.27318286  0.63219930  1
  O2-  O150  1  0.75386463  0.75153808  0.12381886  1
  O2-  O151  1  0.75843466  0.74356408  0.62620335  1
  O2-  O152  1  0.27768694  0.23581349  0.36162046  1
  O2-  O153  1  0.26144615  0.22046658  0.86516831  1
  O2-  O154  1  0.24086893  0.72780966  0.38082655  1
  O2-  O155  1  0.24321962  0.72517488  0.86308586  1
  O2-  O156  1  0.77433812  0.25082423  0.36617958  1
  O2-  O157  1  0.77117567  0.23120291  0.86444083  1
  O2-  O158  1  0.74035530  0.74867345  0.37932940  1
  O2-  O159  1  0.74049296  0.74599330  0.87436394  1
  O2-  O160  1  0.01860437  0.26774056  0.13428804  1
  O2-  O161  1  0.01540852  0.26817766  0.61043016  1
  O2-  O162  1  -0.01523724  0.77356607  0.13582826  1
  O2-  O163  1  -0.01661086  0.77384795  0.60996419  1
  O2-  O164  1  0.53061825  0.24642646  0.13000782  1
  O2-  O165  1  0.52848656  0.24103516  0.61440836  1
  O2-  O166  1  0.50509280  0.72466421  0.11651695  1
  O2-  O167  1  0.49742495  0.72924724  0.62467876  1
  O2-  O168  1  0.28076336  0.01447506  0.39119328  1
  O2-  O169  1  0.24344995  0.01936063  0.87940096  1
  O2-  O170  1  0.26019586  0.52963727  0.38447867  1
  O2-  O171  1  0.26125505  0.52678677  0.88184789  1
  O2-  O172  1  0.76803921  -0.01975073  0.38834470  1
  O2-  O173  1  0.75341088  0.01090511  0.88263052  1
  O2-  O174  1  0.76070509  0.50634123  0.38560525  1
  O2-  O175  1  0.75001196  0.51664512  0.87443703  1
  O2-  O176  1  -0.01632031  0.22689573  0.36757722  1
  O2-  O177  1  -0.02245623  0.22617585  0.88420521  1
  O2-  O178  1  -0.00046158  0.73687373  0.37639938  1
  O2-  O179  1  0.00741661  0.72344878  0.88596732  1
  O2-  O180  1  0.48468351  0.26304367  0.36438150  1
  O2-  O181  1  0.46587608  0.25834711  0.88707645  1
  O2-  O182  1  0.50250746  0.78332263  0.38707453  1
  O2-  O183  1  0.50600563  0.76664433  0.86923079  1
  O2-  O184  1  0.25162802  -0.01834643  0.12097527  1
  O2-  O185  1  0.24503421  -0.03554117  0.61143103  1
  O2-  O186  1  0.25300072  0.48570247  0.11582750  1
  O2-  O187  1  0.24154074  0.47944152  0.61650986  1
  O2-  O188  1  0.73768464  -0.01434092  0.12035157  1
  O2-  O189  1  0.75915292  -0.01189173  0.61459960  1
  O2-  O190  1  0.72740774  0.50069923  0.11274175  1
  O2-  O191  1  0.73672912  0.49881768  0.63238170  1
  O2-  O192  1  0.12287649  0.26978517  0.27420654  1
  O2-  O193  1  0.13278281  0.27244160  0.76018117  1
  O2-  O194  1  0.11579065  0.77462610  0.25093161  1
  O2-  O195  1  0.13323545  0.78036342  0.74517134  1
  O2-  O196  1  0.62750094  0.27178853  0.26727099  1
  O2-  O197  1  0.63354553  0.27880989  0.77796894  1
  O2-  O198  1  0.63720492  0.79043496  0.24552687  1
  O2-  O199  1  0.62596766  0.76449591  0.73874448  1
  O2-  O200  1  0.38124967  0.23256321  0.22743804  1
  O2-  O201  1  0.36998152  0.23102042  0.72573768  1
  O2-  O202  1  0.36643040  0.71827300  0.26042913  1
  O2-  O203  1  0.38292056  0.72776804  0.75255324  1
  O2-  O204  1  0.88218724  0.23047380  0.22959784  1
  O2-  O205  1  0.86219600  0.24276980  0.72045893  1
  O2-  O206  1  0.87653960  0.72641614  0.25940961  1
  O2-  O207  1  0.86449999  0.72029884  0.75735338  1
  O2-  O208  1  0.27534873  0.36630821  0.25713379  1
  O2-  O209  1  0.27549850  0.36810545  0.77023799  1
  O2-  O210  1  0.25990924  0.86267660  0.28016301  1
  O2-  O211  1  0.28327763  0.86248279  0.76304247  1
  O2-  O212  1  0.78324852  0.36633844  0.24521683  1
  O2-  O213  1  0.76726812  0.38545913  0.76212484  1
  O2-  O214  1  0.79095060  0.86372592  0.25082355  1
  O2-  O215  1  0.77026598  0.86278708  0.75450995  1
  O2-  O216  1  0.23042813  0.13440923  0.23694868  1
  O2-  O217  1  0.23265284  0.13165083  0.72183741  1
  O2-  O218  1  0.21556961  0.63684890  0.23824441  1
  O2-  O219  1  0.23804520  0.63879249  0.71443825  1
  O2-  O220  1  0.73476022  0.13360435  0.25123448  1
  O2-  O221  1  0.71751412  0.13417536  0.73288430  1
  O2-  O222  1  0.72727848  0.63751590  0.24998058  1
  O2-  O223  1  0.72485505  0.62566881  0.74927788  1
  O2-  O224  1  0.11452037  0.49017115  0.27293495  1
  O2-  O225  1  0.11862730  0.48325200  0.76172311  1
  O2-  O226  1  0.11576529  0.98941063  0.27357592  1
  O2-  O227  1  0.11416562  0.96290577  0.74886184  1
  O2-  O228  1  0.61629648  0.46805179  0.24983968  1
  O2-  O229  1  0.62601716  0.48782856  0.76166568  1
  O2-  O230  1  0.61211416  0.98980116  0.28685769  1
  O2-  O231  1  0.61749687  0.96466693  0.75042272  1
  O2-  O232  1  0.38978144  0.03588573  0.24465103  1
  O2-  O233  1  0.38704821  0.01571072  0.73343977  1
  O2-  O234  1  0.38719664  0.52452474  0.23645915  1
  O2-  O235  1  0.38846484  0.53394354  0.74473479  1
  O2-  O236  1  0.88622045  0.02794072  0.24552921  1
  O2-  O237  1  0.88221886  0.02958495  0.75402384  1
  O2-  O238  1  0.88572740  0.52555505  0.23055175  1
  O2-  O239  1  0.86739297  0.52581214  0.74341010  1
  O2-  O240  1  0.48095780  0.37241230  0.23089132  1
  O2-  O241  1  0.48208716  0.39038123  0.73256222  1
  O2-  O242  1  0.46737904  0.88587849  0.23711830  1
  O2-  O243  1  0.48506390  0.86611246  0.73055847  1
  O2-  O244  1  0.98108640  0.37200432  0.26689486  1
  O2-  O245  1  0.97080394  0.38638604  0.77231047  1
  O2-  O246  1  0.98085579  0.87608840  0.27707992  1
  O2-  O247  1  0.96339436  0.88605753  0.75994768  1
  O2-  O248  1  0.02372108  0.12819165  0.23954874  1
  O2-  O249  1  0.01969606  0.11279307  0.71665410  1
  O2-  O250  1  0.01743927  0.63250036  0.23809554  1
  O2-  O251  1  0.01212501  0.61579175  0.71807547  1
  O2-  O252  1  0.52276064  0.13349727  0.26032556  1
  O2-  O253  1  0.52950674  0.11516618  0.76548345  1
  O2-  O254  1  0.53333054  0.61647297  0.26637518  1
  O2-  O255  1  0.52474187  0.63041052  0.76689305  1
  O2-  O256  1  0.13313986  0.48095165  -0.01285918  1
  O2-  O257  1  0.13298555  0.49049819  0.49075719  1
  O2-  O258  1  0.13404538  0.96771934  0.00020734  1
  O2-  O259  1  0.12578531  0.98479419  0.48121368  1
  O2-  O260  1  0.62121734  0.49152789  -0.01168294  1
  O2-  O261  1  0.63734892  0.47165433  0.49684955  1
  O2-  O262  1  0.63130902  0.96276367  -0.01232154  1
  O2-  O263  1  0.62695988  0.97536776  0.49687553  1
  O2-  O264  1  0.36859245  0.03336430  0.00126740  1
  O2-  O265  1  0.38090931  0.00423154  0.52342633  1
  O2-  O266  1  0.38171234  0.52825251  0.00176795  1
  O2-  O267  1  0.36717565  0.53187868  0.51439680  1
  O2-  O268  1  0.86321990  0.01252606  0.00805885  1
  O2-  O269  1  0.87749180  0.01335977  0.50411166  1
  O2-  O270  1  0.86193981  0.53479500  0.00788629  1
  O2-  O271  1  0.86180989  0.54409677  0.51632227  1
  O2-  O272  1  0.47995669  0.38752535  0.01323110  1
  O2-  O273  1  0.47583868  0.36479404  0.51213316  1
  O2-  O274  1  0.48081911  0.86246314  0.01640109  1
  O2-  O275  1  0.49022455  0.87448826  0.52527853  1
  O2-  O276  1  0.96641052  0.36330664  -0.00266842  1
  O2-  O277  1  0.98341611  0.36224039  0.46983454  1
  O2-  O278  1  0.96268148  0.86233330  -0.01083985  1
  O2-  O279  1  0.99069588  0.87745415  0.47443563  1
  O2-  O280  1  0.02673600  0.13324886  0.02106995  1
  O2-  O281  1  0.01939692  0.11461725  0.51298886  1
  O2-  O282  1  0.00888330  0.63964387  0.03546971  1
  O2-  O283  1  0.01769604  0.63623669  0.51504119  1
  O2-  O284  1  0.53296406  0.13747573  -0.01116999  1
  O2-  O285  1  0.52152044  0.11348565  0.48825702  1
  O2-  O286  1  0.52123744  0.62673739  -0.02125703  1
  O2-  O287  1  0.51476734  0.63832658  0.47162728  1
  O2-  O288  1  0.11446192  0.27701506  -0.01895192  1
  O2-  O289  1  0.11481551  0.24541014  0.47100415  1
  O2-  O290  1  0.11405190  0.78148671  0.00530543  1
  O2-  O291  1  0.12246383  0.76984630  0.50167295  1
  O2-  O292  1  0.61127553  0.28925659  -0.01197091  1
  O2-  O293  1  0.61366703  0.25623928  0.46620455  1
  O2-  O294  1  0.62581685  0.76812945  0.00078313  1
  O2-  O295  1  0.62248421  0.76664362  0.51106790  1
  O2-  O296  1  0.39006606  0.24125948  0.03865380  1
  O2-  O297  1  0.38982196  0.21399015  0.50434970  1
  O2-  O298  1  0.38516793  0.72358146  -0.00735616  1
  O2-  O299  1  0.37355222  0.73983800  0.49531777  1
  O2-  O300  1  0.88115328  0.22525399  0.02594423  1
  O2-  O301  1  0.88547271  0.21518686  0.50864800  1
  O2-  O302  1  0.86571874  0.72577916  -0.00489112  1
  O2-  O303  1  0.87041885  0.73344364  0.48949307  1
  O2-  O304  1  0.27527377  0.38508521  -0.01982138  1
  O2-  O305  1  0.27750316  0.38334217  0.47765322  1
  O2-  O306  1  0.28276476  0.88347781  -0.01936287  1
  O2-  O307  1  0.25644738  0.86970256  0.47499692  1
  O2-  O308  1  0.76888329  0.38827025  -0.01212886  1
  O2-  O309  1  0.79518847  0.38741282  0.50813400  1
  O2-  O310  1  0.76782903  0.86704187  -0.00404587  1
  O2-  O311  1  0.76008330  0.86352055  0.50560653  1
  O2-  O312  1  0.22288022  0.11731914  0.01746139  1
  O2-  O313  1  0.23757746  0.11101393  0.52566049  1
  O2-  O314  1  0.22671574  0.61876136  0.01976411  1
  O2-  O315  1  0.23244139  0.63479166  0.52000423  1
  O2-  O316  1  0.71808863  0.11557495  0.01123312  1
  O2-  O317  1  0.72634335  0.11303716  0.49677335  1
  O2-  O318  1  0.72268624  0.63084318  0.00187231  1
  O2-  O319  1  0.71839409  0.63034458  0.50487984  1
