# generated using pymatgen
data_Sr64Ca21Nb43O192
_symmetry_space_group_name_H-M   'P 1'
_cell_length_a   16.57638840
_cell_length_b   16.58150170
_cell_length_c   16.72932977
_cell_angle_alpha   90.01334456
_cell_angle_beta   90.02630187
_cell_angle_gamma   90.03074696
_symmetry_Int_Tables_number   1
_chemical_formula_structural   Sr64Ca21Nb43O192
_chemical_formula_sum   'Sr64 Ca21 Nb43 O192'
_cell_volume   4598.24593734
_cell_formula_units_Z   1
loop_
 _symmetry_equiv_pos_site_id
 _symmetry_equiv_pos_as_xyz
  1  'x, y, z'
loop_
 _atom_type_symbol
 _atom_type_oxidation_number
  Sr2+  2.0
  Ca2+  2.0
  Nb5+  5.0
  O2-  -2.0
loop_
 _atom_site_type_symbol
 _atom_site_label
 _atom_site_symmetry_multiplicity
 _atom_site_fract_x
 _atom_site_fract_y
 _atom_site_fract_z
 _atom_site_occupancy
  Sr2+  Sr0  1  0.12749145  0.13504501  0.12971236  1
  Sr2+  Sr1  1  0.12049890  0.12101229  0.62451406  1
  Sr2+  Sr2  1  0.12622454  0.60727739  0.12972231  1
  Sr2+  Sr3  1  0.12622379  0.61958479  0.62268658  1
  Sr2+  Sr4  1  0.62508372  0.13990547  0.12655785  1
  Sr2+  Sr5  1  0.62969332  0.13896833  0.63040440  1
  Sr2+  Sr6  1  0.63070300  0.62323485  0.12920354  1
  Sr2+  Sr7  1  0.62192750  0.61676421  0.61855809  1
  Sr2+  Sr8  1  0.38030397  0.35541867  0.13046091  1
  Sr2+  Sr9  1  0.39245450  0.36142184  0.62359541  1
  Sr2+  Sr10  1  0.37724136  0.86641697  0.12830430  1
  Sr2+  Sr11  1  0.37236294  0.86892380  0.61788028  1
  Sr2+  Sr12  1  0.87373447  0.35352225  0.12098674  1
  Sr2+  Sr13  1  0.86136059  0.35980211  0.62591751  1
  Sr2+  Sr14  1  0.86293177  0.86309982  0.12294583  1
  Sr2+  Sr15  1  0.87409423  0.87092156  0.62339413  1
  Sr2+  Sr16  1  0.13568725  0.37809727  0.37317153  1
  Sr2+  Sr17  1  0.12753625  0.38740505  0.87725164  1
  Sr2+  Sr18  1  0.13069477  0.88124328  0.37418456  1
  Sr2+  Sr19  1  0.12644929  0.87923959  0.87377156  1
  Sr2+  Sr20  1  0.61539785  0.38010447  0.36683407  1
  Sr2+  Sr21  1  0.62191616  0.38151357  0.86993361  1
  Sr2+  Sr22  1  0.62156949  0.88713225  0.36358351  1
  Sr2+  Sr23  1  0.60945862  0.88509510  0.87530264  1
  Sr2+  Sr24  1  0.37059928  0.13382486  0.37652663  1
  Sr2+  Sr25  1  0.37665367  0.12647682  0.87849211  1
  Sr2+  Sr26  1  0.36209660  0.62500025  0.37485331  1
  Sr2+  Sr27  1  0.35612706  0.63290017  0.87206296  1
  Sr2+  Sr28  1  0.88795922  0.12981662  0.37550794  1
  Sr2+  Sr29  1  0.88301836  0.12862699  0.87147275  1
  Sr2+  Sr30  1  0.89309710  0.63004375  0.37119727  1
  Sr2+  Sr31  1  0.88075841  0.62920988  0.87496421  1
  Sr2+  Sr32  1  0.13129053  0.14559118  0.37650766  1
  Sr2+  Sr33  1  0.13792469  0.14260165  0.87077975  1
  Sr2+  Sr34  1  0.13350031  0.63590594  0.36954761  1
  Sr2+  Sr35  1  0.12324781  0.62918263  0.87637419  1
  Sr2+  Sr36  1  0.63083733  0.13149897  0.36470295  1
  Sr2+  Sr37  1  0.62027253  0.13878297  0.88048113  1
  Sr2+  Sr38  1  0.62108718  0.61964010  0.37503164  1
  Sr2+  Sr39  1  0.61579605  0.63087690  0.87726502  1
  Sr2+  Sr40  1  0.37557007  0.36620966  0.37719251  1
  Sr2+  Sr41  1  0.38033692  0.35983533  0.87468761  1
  Sr2+  Sr42  1  0.37578700  0.86741966  0.37454138  1
  Sr2+  Sr43  1  0.36781422  0.88353471  0.87557658  1
  Sr2+  Sr44  1  0.87429253  0.37457293  0.38226389  1
  Sr2+  Sr45  1  0.87904230  0.38969476  0.87839280  1
  Sr2+  Sr46  1  0.87801115  0.88744672  0.36732979  1
  Sr2+  Sr47  1  0.87700469  0.87800604  0.87523755  1
  Sr2+  Sr48  1  0.11274495  0.36960613  0.12779765  1
  Sr2+  Sr49  1  0.11359777  0.36237521  0.62996581  1
  Sr2+  Sr50  1  0.10964527  0.86607274  0.12537018  1
  Sr2+  Sr51  1  0.11446329  0.87163297  0.62275349  1
  Sr2+  Sr52  1  0.62184133  0.36986858  0.11638885  1
  Sr2+  Sr53  1  0.62867098  0.37658517  0.61644539  1
  Sr2+  Sr54  1  0.61960458  0.87196266  0.13100043  1
  Sr2+  Sr55  1  0.61240617  0.87118192  0.63113000  1
  Sr2+  Sr56  1  0.39229515  0.11826258  0.12794746  1
  Sr2+  Sr57  1  0.36893421  0.11777731  0.62727717  1
  Sr2+  Sr58  1  0.37062472  0.61435364  0.12578249  1
  Sr2+  Sr59  1  0.39038132  0.62208747  0.61809394  1
  Sr2+  Sr60  1  0.86616312  0.11936712  0.11934157  1
  Sr2+  Sr61  1  0.86933303  0.11645762  0.61991631  1
  Sr2+  Sr62  1  0.87188974  0.61924830  0.12469951  1
  Sr2+  Sr63  1  0.86329150  0.62377357  0.62865418  1
  Ca2+  Ca64  1  0.00124498  0.50268692  0.50397223  1
  Ca2+  Ca65  1  0.50261961  -0.00103872  0.50005474  1
  Ca2+  Ca66  1  0.49699761  0.50171584  -0.00235687  1
  Ca2+  Ca67  1  0.50118126  -0.00368492  0.00048661  1
  Ca2+  Ca68  1  0.00416238  -0.00199288  -0.00189227  1
  Ca2+  Ca69  1  0.25115005  0.25133106  0.50686981  1
  Ca2+  Ca70  1  0.74896059  0.24657417  0.49835925  1
  Ca2+  Ca71  1  0.75043321  0.25078693  -0.00267938  1
  Ca2+  Ca72  1  0.24915172  0.25019142  0.00133994  1
  Ca2+  Ca73  1  0.75175218  0.75234325  0.49916359  1
  Ca2+  Ca74  1  0.50097957  0.24699878  0.74752093  1
  Ca2+  Ca75  1  0.49785430  0.74578115  0.75222871  1
  Ca2+  Ca76  1  -0.00088334  0.75081040  0.24705847  1
  Ca2+  Ca77  1  -0.00181026  0.25004070  0.25073157  1
  Ca2+  Ca78  1  -0.00161945  0.25040863  0.75167391  1
  Ca2+  Ca79  1  0.50097789  0.24889640  0.25349702  1
  Ca2+  Ca80  1  0.25212347  0.49903814  0.25079163  1
  Ca2+  Ca81  1  0.74970988  0.49828037  0.24817249  1
  Ca2+  Ca82  1  0.25192420  0.50470471  0.74735169  1
  Ca2+  Ca83  1  0.24831802  0.00184107  0.25116349  1
  Ca2+  Ca84  1  0.50003376  0.74588657  0.25002292  1
  Nb5+  Nb85  1  0.00209785  0.00057209  0.49796837  1
  Nb5+  Nb86  1  -0.00180816  0.50184337  0.00220729  1
  Nb5+  Nb87  1  0.49855607  0.49881188  0.49699090  1
  Nb5+  Nb88  1  0.24176962  0.75402721  -0.00362889  1
  Nb5+  Nb89  1  0.24731498  0.75135183  0.49713235  1
  Nb5+  Nb90  1  0.74294493  0.75050812  -0.00624314  1
  Nb5+  Nb91  1  0.74529715  -0.00061310  0.74530531  1
  Nb5+  Nb92  1  0.75231690  -0.00028224  0.24154096  1
  Nb5+  Nb93  1  0.24154234  -0.00040577  0.74908572  1
  Nb5+  Nb94  1  0.74898461  0.50481692  0.75081306  1
  Nb5+  Nb95  1  0.00022876  0.74956082  0.74877060  1
  Nb5+  Nb96  1  0.00141740  0.00284875  0.24188729  1
  Nb5+  Nb97  1  -0.00413713  -0.00088737  0.75105350  1
  Nb5+  Nb98  1  -0.00110745  0.49615205  0.25802695  1
  Nb5+  Nb99  1  -0.00181649  0.49923100  0.74608493  1
  Nb5+  Nb100  1  0.49544363  0.00089072  0.25563057  1
  Nb5+  Nb101  1  0.48997486  -0.00066380  0.75036061  1
  Nb5+  Nb102  1  0.49779996  0.49900274  0.24329068  1
  Nb5+  Nb103  1  0.49804353  0.50419092  0.75224598  1
  Nb5+  Nb104  1  0.24929699  0.25134824  0.24928973  1
  Nb5+  Nb105  1  0.25230095  0.25886253  0.74922845  1
  Nb5+  Nb106  1  0.24780610  0.75416623  0.23910983  1
  Nb5+  Nb107  1  0.24488728  0.75233617  0.74205455  1
  Nb5+  Nb108  1  0.75570709  0.25392150  0.25191795  1
  Nb5+  Nb109  1  0.75323179  0.25552860  0.75491846  1
  Nb5+  Nb110  1  0.75327432  0.74747057  0.25759496  1
  Nb5+  Nb111  1  0.74791294  0.75617477  0.75427301  1
  Nb5+  Nb112  1  -0.00236847  0.25735641  0.50393174  1
  Nb5+  Nb113  1  0.00155283  0.24362420  0.99375136  1
  Nb5+  Nb114  1  -0.00054742  0.75211827  0.49784264  1
  Nb5+  Nb115  1  -0.00604856  0.74689822  1.00154393  1
  Nb5+  Nb116  1  0.50576665  0.24214279  0.50136177  1
  Nb5+  Nb117  1  0.49839337  0.24955658  1.00027378  1
  Nb5+  Nb118  1  0.50528406  0.75139068  0.49259954  1
  Nb5+  Nb119  1  0.48734481  0.74454475  0.99896066  1
  Nb5+  Nb120  1  0.24984040  0.00141278  0.00696440  1
  Nb5+  Nb121  1  0.24845132  0.00274348  0.49935556  1
  Nb5+  Nb122  1  0.25417528  0.50024564  -0.00407128  1
  Nb5+  Nb123  1  0.25015718  0.49681145  0.50724987  1
  Nb5+  Nb124  1  0.74742229  -0.00073269  -0.00824913  1
  Nb5+  Nb125  1  0.74753992  -0.00648870  0.49483513  1
  Nb5+  Nb126  1  0.74889145  0.49968648  -0.00113485  1
  Nb5+  Nb127  1  0.75167198  0.50274810  0.49397969  1
  O2-  O128  1  -0.00563168  0.03504719  0.13260049  1
  O2-  O129  1  -0.01139917  0.01156460  0.62885080  1
  O2-  O130  1  -0.00888248  0.52751157  0.11472831  1
  O2-  O131  1  -0.01402937  0.53823312  0.63769484  1
  O2-  O132  1  0.48421930  -0.02218910  0.13691011  1
  O2-  O133  1  0.48562121  -0.03004174  0.63487380  1
  O2-  O134  1  0.47370216  0.49270131  0.13167858  1
  O2-  O135  1  0.49007515  0.49795274  0.62234159  1
  O2-  O136  1  0.00820586  -0.02709090  0.38524980  1
  O2-  O137  1  0.00662944  -0.03146152  0.86271875  1
  O2-  O138  1  0.00766700  0.46701770  0.36892670  1
  O2-  O139  1  0.00754827  0.48823188  0.87121542  1
  O2-  O140  1  0.53362621  0.01486545  0.36790352  1
  O2-  O141  1  0.52175000  0.02031961  0.86265792  1
  O2-  O142  1  0.52021010  0.50449368  0.38143319  1
  O2-  O143  1  0.52675461  0.50298627  0.86407011  1
  O2-  O144  1  0.22519893  0.26492303  0.13305198  1
  O2-  O145  1  0.21801265  0.25399597  0.63781849  1
  O2-  O146  1  0.22741645  0.76355009  0.12310945  1
  O2-  O147  1  0.22364707  0.75982326  0.62777035  1
  O2-  O148  1  0.72629254  0.25871533  0.13356457  1
  O2-  O149  1  0.72669100  0.25897190  0.63687667  1
  O2-  O150  1  0.73151403  0.75162396  0.11055571  1
  O2-  O151  1  0.73255117  0.75777092  0.63905782  1
  O2-  O152  1  0.26747887  0.24061723  0.37197495  1
  O2-  O153  1  0.27166291  0.23191600  0.86519503  1
  O2-  O154  1  0.26216340  0.74933638  0.38137143  1
  O2-  O155  1  0.26051225  0.75331565  0.87848879  1
  O2-  O156  1  0.77779941  0.23184412  0.36661072  1
  O2-  O157  1  0.77351502  0.22778012  0.86667333  1
  O2-  O158  1  0.78590930  0.74453700  0.36628984  1
  O2-  O159  1  0.78044325  0.74473431  0.87258117  1
  O2-  O160  1  0.02558619  0.24339102  0.11217932  1
  O2-  O161  1  0.02611221  0.23416917  0.61798486  1
  O2-  O162  1  0.02585445  0.72709005  0.11083390  1
  O2-  O163  1  0.02451690  0.73696411  0.63327140  1
  O2-  O164  1  0.51821290  0.26371032  0.11910388  1
  O2-  O165  1  0.52585872  0.27072103  0.61555924  1
  O2-  O166  1  0.50934803  0.77317483  0.11284924  1
  O2-  O167  1  0.51685186  0.75269650  0.61274140  1
  O2-  O168  1  0.22081054  0.00852390  0.38863335  1
  O2-  O169  1  0.23086830  -0.00147892  0.86721207  1
  O2-  O170  1  0.23304383  0.51076412  0.39082934  1
  O2-  O171  1  0.22471717  0.51796369  0.88232005  1
  O2-  O172  1  0.73942121  0.00332591  0.37809568  1
  O2-  O173  1  0.73710919  -0.00154175  0.87316762  1
  O2-  O174  1  0.72348692  0.49851929  0.38382086  1
  O2-  O175  1  0.73633860  0.50025069  0.87122428  1
  O2-  O176  1  -0.02703809  0.26107203  0.38664042  1
  O2-  O177  1  -0.03321454  0.26954262  0.88297020  1
  O2-  O178  1  -0.02082455  0.77091741  0.38662908  1
  O2-  O179  1  -0.01420452  0.76607039  0.87455675  1
  O2-  O180  1  0.47321490  0.24313466  0.38690587  1
  O2-  O181  1  0.47729298  0.23762459  0.88128730  1
  O2-  O182  1  0.46212758  0.73339372  0.38509709  1
  O2-  O183  1  0.48104491  0.71356241  0.88318698  1
  O2-  O184  1  0.27903824  0.00070883  0.11679240  1
  O2-  O185  1  0.26759453  -0.01324536  0.63142028  1
  O2-  O186  1  0.25652684  0.50859450  0.11285512  1
  O2-  O187  1  0.27175495  0.53103498  0.61646858  1
  O2-  O188  1  0.76856716  -0.00928681  0.12523472  1
  O2-  O189  1  0.76800201  -0.01430623  0.63174870  1
  O2-  O190  1  0.76016936  0.51781031  0.11193412  1
  O2-  O191  1  0.76769309  0.49628788  0.63303744  1
  O2-  O192  1  0.13043995  0.27483677  0.27175261  1
  O2-  O193  1  0.13349547  0.27076984  0.77831845  1
  O2-  O194  1  0.13267704  0.77665051  0.26707466  1
  O2-  O195  1  0.11969179  0.77221313  0.76784431  1
  O2-  O196  1  0.63748506  0.25793249  0.27663598  1
  O2-  O197  1  0.63556668  0.25436127  0.77762938  1
  O2-  O198  1  0.63963262  0.77878761  0.25766076  1
  O2-  O199  1  0.63723329  0.76541931  0.77951623  1
  O2-  O200  1  0.36592243  0.22502423  0.22825414  1
  O2-  O201  1  0.36529427  0.23011042  0.72317766  1
  O2-  O202  1  0.36447438  0.73113716  0.22310941  1
  O2-  O203  1  0.35921844  0.73559097  0.73072157  1
  O2-  O204  1  0.86691248  0.22238081  0.22135214  1
  O2-  O205  1  0.86481061  0.22680095  0.72480782  1
  O2-  O206  1  0.86368572  0.73813389  0.21413698  1
  O2-  O207  1  0.87944356  0.73655012  0.73412132  1
  O2-  O208  1  0.27657977  0.36841702  0.26236758  1
  O2-  O209  1  0.27720116  0.37109159  0.75705229  1
  O2-  O210  1  0.27778277  0.86746103  0.25957682  1
  O2-  O211  1  0.25959828  0.87396384  0.75812304  1
  O2-  O212  1  0.78238504  0.36597477  0.25918626  1
  O2-  O213  1  0.77123576  0.37269091  0.76220945  1
  O2-  O214  1  0.77326052  0.87882533  0.25497735  1
  O2-  O215  1  0.77227152  0.87252898  0.75945665  1
  O2-  O216  1  0.21930080  0.13353304  0.24707402  1
  O2-  O217  1  0.23099195  0.11586745  0.74111033  1
  O2-  O218  1  0.22810934  0.63791394  0.25150195  1
  O2-  O219  1  0.21888823  0.64080800  0.75509025  1
  O2-  O220  1  0.73258002  0.11633988  0.24104083  1
  O2-  O221  1  0.73548840  0.11430017  0.74206201  1
  O2-  O222  1  0.72646466  0.63536025  0.25064202  1
  O2-  O223  1  0.73895218  0.62367440  0.74837393  1
  O2-  O224  1  0.11480860  0.48523978  0.22953351  1
  O2-  O225  1  0.11319881  0.48377883  0.73511228  1
  O2-  O226  1  0.11311148  0.97160059  0.23826317  1
  O2-  O227  1  0.12436242  0.98090667  0.73332535  1
  O2-  O228  1  0.61583708  0.46721272  0.23025706  1
  O2-  O229  1  0.63539011  0.47466033  0.73445877  1
  O2-  O230  1  0.63631246  0.97768023  0.23861715  1
  O2-  O231  1  0.63190347  0.97636118  0.73712449  1
  O2-  O232  1  0.38438538  0.02254767  0.27619058  1
  O2-  O233  1  0.37243327  0.01265201  0.76622673  1
  O2-  O234  1  0.38559686  0.53347255  0.26578394  1
  O2-  O235  1  0.38809009  0.53675664  0.76124838  1
  O2-  O236  1  0.87250214  0.01829362  0.26698431  1
  O2-  O237  1  0.87624279  0.01006822  0.76233763  1
  O2-  O238  1  0.88388437  0.52871673  0.25876043  1
  O2-  O239  1  0.87141323  0.51621563  0.76858308  1
  O2-  O240  1  0.47504175  0.38399777  0.26660380  1
  O2-  O241  1  0.48096957  0.38584019  0.75264774  1
  O2-  O242  1  0.49088036  0.88203697  0.27571257  1
  O2-  O243  1  0.48987859  0.88061543  0.77370900  1
  O2-  O244  1  0.97792763  0.38624933  0.21984302  1
  O2-  O245  1  0.97522743  0.38789039  0.72666863  1
  O2-  O246  1  0.97086666  0.88730090  0.23000106  1
  O2-  O247  1  0.98513204  0.87111890  0.73113623  1
  O2-  O248  1  0.01611933  0.11207720  0.28404244  1
  O2-  O249  1  0.01718219  0.11141895  0.77014532  1
  O2-  O250  1  0.01906132  0.61755795  0.27476245  1
  O2-  O251  1  0.01075592  0.63243082  0.77263161  1
  O2-  O252  1  0.52450624  0.11423162  0.23194280  1
  O2-  O253  1  0.51296424  0.11125211  0.72073521  1
  O2-  O254  1  0.53728530  0.61380899  0.24807727  1
  O2-  O255  1  0.53871172  0.61475119  0.73790720  1
  O2-  O256  1  0.11854793  0.49203509  0.00922167  1
  O2-  O257  1  0.13690196  0.47820131  0.52978264  1
  O2-  O258  1  0.13903336  0.95939820  0.01064303  1
  O2-  O259  1  0.12182498  0.98293747  0.52309647  1
  O2-  O260  1  0.63565929  0.47827716  0.00680708  1
  O2-  O261  1  0.62137432  0.48867407  0.51707308  1
  O2-  O262  1  0.63808600  0.95995762  0.00982905  1
  O2-  O263  1  0.63932950  0.96015587  0.51314683  1
  O2-  O264  1  0.36297427  0.00972365  -0.02977227  1
  O2-  O265  1  0.36362509  0.01748145  0.48549605  1
  O2-  O266  1  0.36378439  0.53355636  -0.01846162  1
  O2-  O267  1  0.38053823  0.52589177  0.48741186  1
  O2-  O268  1  0.86579418  0.01240480  -0.01611366  1
  O2-  O269  1  0.88337913  0.01818176  0.49228066  1
  O2-  O270  1  0.87804587  0.52202216  -0.01828359  1
  O2-  O271  1  0.86539992  0.52633500  0.47974186  1
  O2-  O272  1  0.46956141  0.36729449  -0.00509149  1
  O2-  O273  1  0.47975869  0.38277447  0.49492763  1
  O2-  O274  1  0.48597897  0.85959622  -0.03077714  1
  O2-  O275  1  0.47538536  0.86386734  0.49114557  1
  O2-  O276  1  0.98153238  0.38642541  0.01214516  1
  O2-  O277  1  0.97684495  0.36912293  0.52682279  1
  O2-  O278  1  0.98336482  0.86197571  0.02135445  1
  O2-  O279  1  0.99075550  0.87512517  0.52550293  1
  O2-  O280  1  0.01884636  0.13206365  -0.02990814  1
  O2-  O281  1  0.02161212  0.11631110  0.48803315  1
  O2-  O282  1  0.01083741  0.62703229  -0.02581395  1
  O2-  O283  1  0.02575961  0.63878210  0.48160379  1
  O2-  O284  1  0.52485557  0.13052079  0.01173213  1
  O2-  O285  1  0.53332035  0.13128582  0.51189765  1
  O2-  O286  1  0.53101399  0.63555554  0.01853068  1
  O2-  O287  1  0.51431115  0.62506458  0.50641545  1
  O2-  O288  1  0.11445569  0.27580320  -0.02661734  1
  O2-  O289  1  0.11517208  0.27035631  0.47774352  1
  O2-  O290  1  0.12631958  0.76858508  -0.01942865  1
  O2-  O291  1  0.12532046  0.77655531  0.49069458  1
  O2-  O292  1  0.61607395  0.27348228  -0.02367205  1
  O2-  O293  1  0.61711783  0.27536074  0.47318449  1
  O2-  O294  1  0.63223384  0.76483808  -0.02988318  1
  O2-  O295  1  0.61551010  0.76306865  0.46240293  1
  O2-  O296  1  0.38113909  0.22263212  0.02260423  1
  O2-  O297  1  0.38725043  0.23111328  0.52896346  1
  O2-  O298  1  0.37165044  0.72876578  0.01663335  1
  O2-  O299  1  0.36123721  0.73965100  0.52614401  1
  O2-  O300  1  0.88444115  0.23285722  0.02480676  1
  O2-  O301  1  0.88398356  0.22531700  0.52315633  1
  O2-  O302  1  0.87896289  0.72854008  0.01263102  1
  O2-  O303  1  0.88963099  0.73344094  0.52992835  1
  O2-  O304  1  0.26773896  0.38724592  -0.01668178  1
  O2-  O305  1  0.28270121  0.38720663  0.50828373  1
  O2-  O306  1  0.27767888  0.86803686  0.00114658  1
  O2-  O307  1  0.26178340  0.87678526  0.49841930  1
  O2-  O308  1  0.77927042  0.38754396  -0.00388785  1
  O2-  O309  1  0.77021013  0.38552407  0.50567044  1
  O2-  O310  1  0.77684742  0.86608868  -0.00889753  1
  O2-  O311  1  0.79071655  0.88385199  0.49579569  1
  O2-  O312  1  0.21646559  0.11224749  0.00266414  1
  O2-  O313  1  0.23140542  0.11494575  0.52321651  1
  O2-  O314  1  0.22968675  0.63691068  0.00589745  1
  O2-  O315  1  0.22468636  0.63658663  0.50040905  1
  O2-  O316  1  0.72475950  0.11077310  0.00759277  1
  O2-  O317  1  0.73734673  0.10781915  0.52070054  1
  O2-  O318  1  0.73772477  0.62844052  -0.01339001  1
  O2-  O319  1  0.72950637  0.61776004  0.51451597  1
