# generated using pymatgen
data_Sr64Ca21Nb43O192
_symmetry_space_group_name_H-M   'P 1'
_cell_length_a   16.58505317
_cell_length_b   16.57210363
_cell_length_c   16.72005098
_cell_angle_alpha   89.97707162
_cell_angle_beta   89.96014418
_cell_angle_gamma   90.01276321
_symmetry_Int_Tables_number   1
_chemical_formula_structural   Sr64Ca21Nb43O192
_chemical_formula_sum   'Sr64 Ca21 Nb43 O192'
_cell_volume   4595.49137277
_cell_formula_units_Z   1
loop_
 _symmetry_equiv_pos_site_id
 _symmetry_equiv_pos_as_xyz
  1  'x, y, z'
loop_
 _atom_type_symbol
 _atom_type_oxidation_number
  Sr2+  2.0
  Ca2+  2.0
  Nb5+  5.0
  O2-  -2.0
loop_
 _atom_site_type_symbol
 _atom_site_label
 _atom_site_symmetry_multiplicity
 _atom_site_fract_x
 _atom_site_fract_y
 _atom_site_fract_z
 _atom_site_occupancy
  Sr2+  Sr0  1  0.12628796  0.14133282  0.12665463  1
  Sr2+  Sr1  1  0.11404282  0.13102550  0.62195199  1
  Sr2+  Sr2  1  0.11132187  0.63482367  0.11939832  1
  Sr2+  Sr3  1  0.12345602  0.61167726  0.62061060  1
  Sr2+  Sr4  1  0.61781670  0.12694723  0.10661268  1
  Sr2+  Sr5  1  0.62492958  0.13621573  0.61821335  1
  Sr2+  Sr6  1  0.62156961  0.63026999  0.13292978  1
  Sr2+  Sr7  1  0.62599294  0.63378470  0.63086750  1
  Sr2+  Sr8  1  0.36544192  0.38462735  0.13387784  1
  Sr2+  Sr9  1  0.37026478  0.39184463  0.62544305  1
  Sr2+  Sr10  1  0.37443737  0.87869242  0.11484163  1
  Sr2+  Sr11  1  0.37016882  0.87304690  0.62401285  1
  Sr2+  Sr12  1  0.87780868  0.38833311  0.12278423  1
  Sr2+  Sr13  1  0.87683074  0.39255726  0.62694224  1
  Sr2+  Sr14  1  0.87004667  0.86653343  0.12610313  1
  Sr2+  Sr15  1  0.87764083  0.88046566  0.62158605  1
  Sr2+  Sr16  1  0.13536794  0.36344892  0.37225758  1
  Sr2+  Sr17  1  0.13178600  0.37080646  0.87389833  1
  Sr2+  Sr18  1  0.13232038  0.87230516  0.37251789  1
  Sr2+  Sr19  1  0.12741633  0.87123146  0.86349731  1
  Sr2+  Sr20  1  0.62590772  0.37576823  0.37278583  1
  Sr2+  Sr21  1  0.63317723  0.36224983  0.87900033  1
  Sr2+  Sr22  1  0.63574867  0.86716558  0.36703560  1
  Sr2+  Sr23  1  0.62618130  0.87694786  0.88713437  1
  Sr2+  Sr24  1  0.38792542  0.11223098  0.37125893  1
  Sr2+  Sr25  1  0.39246736  0.11764562  0.87473924  1
  Sr2+  Sr26  1  0.39346843  0.62357632  0.37325423  1
  Sr2+  Sr27  1  0.38352255  0.61838398  0.87224069  1
  Sr2+  Sr28  1  0.87511539  0.11767048  0.37161020  1
  Sr2+  Sr29  1  0.85859521  0.12117452  0.87582360  1
  Sr2+  Sr30  1  0.86619002  0.61684987  0.37719835  1
  Sr2+  Sr31  1  0.86925988  0.61071936  0.87968360  1
  Sr2+  Sr32  1  0.12706355  0.11473028  0.37065669  1
  Sr2+  Sr33  1  0.12190758  0.12034664  0.86516369  1
  Sr2+  Sr34  1  0.13280815  0.61994929  0.37709622  1
  Sr2+  Sr35  1  0.12395294  0.61892660  0.88270335  1
  Sr2+  Sr36  1  0.62518242  0.14780132  0.37363537  1
  Sr2+  Sr37  1  0.62691448  0.12373615  0.87529212  1
  Sr2+  Sr38  1  0.62554767  0.62227570  0.37136943  1
  Sr2+  Sr39  1  0.62734308  0.63048039  0.87160580  1
  Sr2+  Sr40  1  0.38971252  0.36147363  0.37069628  1
  Sr2+  Sr41  1  0.37958155  0.36034794  0.86918761  1
  Sr2+  Sr42  1  0.38220630  0.86275636  0.37525319  1
  Sr2+  Sr43  1  0.38803487  0.86096010  0.87578946  1
  Sr2+  Sr44  1  0.87152018  0.36813228  0.37085290  1
  Sr2+  Sr45  1  0.87530945  0.37314732  0.87788516  1
  Sr2+  Sr46  1  0.87980573  0.86391609  0.37181930  1
  Sr2+  Sr47  1  0.86395392  0.86205889  0.87866499  1
  Sr2+  Sr48  1  0.11675052  0.37683375  0.13255648  1
  Sr2+  Sr49  1  0.12667009  0.37767192  0.63071194  1
  Sr2+  Sr50  1  0.12181737  0.88167154  0.12312048  1
  Sr2+  Sr51  1  0.12106137  0.88507360  0.61878491  1
  Sr2+  Sr52  1  0.61327349  0.38917588  0.12723538  1
  Sr2+  Sr53  1  0.60975894  0.38618949  0.61738039  1
  Sr2+  Sr54  1  0.61874509  0.88313358  0.12400853  1
  Sr2+  Sr55  1  0.64437984  0.87873340  0.62547818  1
  Sr2+  Sr56  1  0.36541091  0.12445971  0.11816379  1
  Sr2+  Sr57  1  0.37653033  0.12444561  0.62789364  1
  Sr2+  Sr58  1  0.37344082  0.63199991  0.12258591  1
  Sr2+  Sr59  1  0.36790200  0.63165898  0.62829939  1
  Sr2+  Sr60  1  0.88512604  0.13167231  0.12312084  1
  Sr2+  Sr61  1  0.87341100  0.12778344  0.62000449  1
  Sr2+  Sr62  1  0.87032471  0.62237052  0.11284210  1
  Sr2+  Sr63  1  0.87460547  0.63331585  0.63381294  1
  Ca2+  Ca64  1  0.00316310  0.00337907  -0.00064042  1
  Ca2+  Ca65  1  0.50448547  -0.00337283  0.49937489  1
  Ca2+  Ca66  1  0.49830025  0.50364163  0.50068501  1
  Ca2+  Ca67  1  -0.00273728  0.49691458  0.49926416  1
  Ca2+  Ca68  1  0.49590039  0.49860268  -0.00195136  1
  Ca2+  Ca69  1  0.75131628  0.24879501  0.00441174  1
  Ca2+  Ca70  1  0.24929848  0.25188040  -0.00292955  1
  Ca2+  Ca71  1  0.74848812  0.74728828  0.00151943  1
  Ca2+  Ca72  1  0.24878223  0.24852813  0.50138583  1
  Ca2+  Ca73  1  0.24776848  0.74991985  -0.00203675  1
  Ca2+  Ca74  1  0.50055669  0.75339239  0.74731554  1
  Ca2+  Ca75  1  0.75160679  0.49638087  0.25007146  1
  Ca2+  Ca76  1  0.50065571  0.24700047  0.24360754  1
  Ca2+  Ca77  1  -0.00067371  0.74902809  0.25109077  1
  Ca2+  Ca78  1  0.74835495  0.49511823  0.75064500  1
  Ca2+  Ca79  1  0.75235396  0.00190343  0.25208275  1
  Ca2+  Ca80  1  0.50139836  0.25075923  0.74939769  1
  Ca2+  Ca81  1  0.24913060  0.50192035  0.25111965  1
  Ca2+  Ca82  1  0.75143536  -0.00138982  0.74930582  1
  Ca2+  Ca83  1  0.00041085  0.75147078  0.75118933  1
  Ca2+  Ca84  1  0.49847171  0.75468323  0.24933957  1
  Nb5+  Nb85  1  0.50003648  -0.00073623  -0.00090389  1
  Nb5+  Nb86  1  0.00207485  0.49817377  0.00035297  1
  Nb5+  Nb87  1  -0.00011260  0.00048519  0.49710784  1
  Nb5+  Nb88  1  0.25209741  0.74882051  0.49933252  1
  Nb5+  Nb89  1  0.75365187  0.25826381  0.50226479  1
  Nb5+  Nb90  1  0.75750187  0.74994570  0.49959876  1
  Nb5+  Nb91  1  -0.00354305  0.24970677  0.74309006  1
  Nb5+  Nb92  1  0.25221115  -0.00352574  0.74572834  1
  Nb5+  Nb93  1  0.00010926  0.25087734  0.24742770  1
  Nb5+  Nb94  1  0.25171852  -0.00170134  0.24406603  1
  Nb5+  Nb95  1  0.24958004  0.49756283  0.75190763  1
  Nb5+  Nb96  1  0.00243747  0.00228251  0.24525862  1
  Nb5+  Nb97  1  -0.00461899  0.00479534  0.75028382  1
  Nb5+  Nb98  1  0.00040471  0.50279741  0.25628457  1
  Nb5+  Nb99  1  0.00238948  0.50335573  0.75096220  1
  Nb5+  Nb100  1  0.50319651  -0.00326226  0.25288239  1
  Nb5+  Nb101  1  0.50689426  -0.00275184  0.74819013  1
  Nb5+  Nb102  1  0.49728362  0.50061800  0.24836839  1
  Nb5+  Nb103  1  0.50528524  0.49812054  0.75569807  1
  Nb5+  Nb104  1  0.25477756  0.24757216  0.25681507  1
  Nb5+  Nb105  1  0.24838551  0.24271682  0.74757681  1
  Nb5+  Nb106  1  0.24723363  0.74974606  0.24637900  1
  Nb5+  Nb107  1  0.24213890  0.74371398  0.75029571  1
  Nb5+  Nb108  1  0.75166338  0.24695861  0.24577904  1
  Nb5+  Nb109  1  0.74729910  0.25197106  0.74642068  1
  Nb5+  Nb110  1  0.75409227  0.74697039  0.24746392  1
  Nb5+  Nb111  1  0.74867923  0.74916302  0.75348580  1
  Nb5+  Nb112  1  -0.00232144  0.25218950  0.49485475  1
  Nb5+  Nb113  1  0.00645290  0.24910080  0.98940706  1
  Nb5+  Nb114  1  0.00773362  0.74833195  0.50141152  1
  Nb5+  Nb115  1  -0.00306359  0.75628208  0.99945558  1
  Nb5+  Nb116  1  0.49470818  0.24516621  0.50093804  1
  Nb5+  Nb117  1  0.49559502  0.25550893  1.00381545  1
  Nb5+  Nb118  1  0.51053072  0.75370484  0.50238612  1
  Nb5+  Nb119  1  0.50282550  0.74438672  0.99935616  1
  Nb5+  Nb120  1  0.24984407  0.00062082  -0.01338074  1
  Nb5+  Nb121  1  0.25248177  0.00295106  0.49635650  1
  Nb5+  Nb122  1  0.24818464  0.49988266  0.00258297  1
  Nb5+  Nb123  1  0.25363322  0.49915694  0.49246557  1
  Nb5+  Nb124  1  0.75631279  0.00189462  0.00514037  1
  Nb5+  Nb125  1  0.74877544  0.00359678  0.49475735  1
  Nb5+  Nb126  1  0.74222095  0.49320292  -0.00221772  1
  Nb5+  Nb127  1  0.74775702  0.50579200  0.50299773  1
  O2-  O128  1  0.03233343  0.01424685  0.13492949  1
  O2-  O129  1  0.01702617  0.00778921  0.62212272  1
  O2-  O130  1  0.02380192  0.49825687  0.11742390  1
  O2-  O131  1  0.02143913  0.48969343  0.63499180  1
  O2-  O132  1  0.50767459  0.01403169  0.12172771  1
  O2-  O133  1  0.51566540  0.02117186  0.63580278  1
  O2-  O134  1  0.52522807  0.51610766  0.13116092  1
  O2-  O135  1  0.52262024  0.51863097  0.63823776  1
  O2-  O136  1  -0.00780501  0.00077488  0.37754532  1
  O2-  O137  1  -0.00601074  0.01318732  0.86464992  1
  O2-  O138  1  -0.03169878  0.49623466  0.36547075  1
  O2-  O139  1  -0.01495168  0.49192424  0.87227249  1
  O2-  O140  1  0.47480145  -0.01603571  0.36500488  1
  O2-  O141  1  0.48790329  -0.01740221  0.87915352  1
  O2-  O142  1  0.46985621  0.48535809  0.36597081  1
  O2-  O143  1  0.46070722  0.48440528  0.86596365  1
  O2-  O144  1  0.26425104  0.25862149  0.13871021  1
  O2-  O145  1  0.26148592  0.27889458  0.63568660  1
  O2-  O146  1  0.27403037  0.76494226  0.13601045  1
  O2-  O147  1  0.26486245  0.76353412  0.62036258  1
  O2-  O148  1  0.76844733  0.22069922  0.13700854  1
  O2-  O149  1  0.77094973  0.23707259  0.62154281  1
  O2-  O150  1  0.77792196  0.73980398  0.13503560  1
  O2-  O151  1  0.76492267  0.73591602  0.61713102  1
  O2-  O152  1  0.21748846  0.23237242  0.36908018  1
  O2-  O153  1  0.21599096  0.24056808  0.86049613  1
  O2-  O154  1  0.22010105  0.74530957  0.38446603  1
  O2-  O155  1  0.21901614  0.74218406  0.86292025  1
  O2-  O156  1  0.73979194  0.26654186  0.38478041  1
  O2-  O157  1  0.74147774  0.25064443  0.86408565  1
  O2-  O158  1  0.72722064  0.74949899  0.38512653  1
  O2-  O159  1  0.72661607  0.76421980  0.86578144  1
  O2-  O160  1  -0.01017353  0.24339122  0.13036814  1
  O2-  O161  1  -0.01867766  0.24078189  0.62568850  1
  O2-  O162  1  -0.02702794  0.73290286  0.11698173  1
  O2-  O163  1  -0.02815186  0.75381624  0.61365629  1
  O2-  O164  1  0.48400937  0.21313676  0.11352833  1
  O2-  O165  1  0.49496702  0.21898776  0.61720990  1
  O2-  O166  1  0.47704978  0.73787851  0.11562354  1
  O2-  O167  1  0.48157538  0.72616988  0.61349653  1
  O2-  O168  1  0.25888682  0.01831175  0.38184427  1
  O2-  O169  1  0.25599547  0.02857849  0.87321212  1
  O2-  O170  1  0.26733007  0.53673645  0.38511864  1
  O2-  O171  1  0.25442487  0.53222116  0.86364338  1
  O2-  O172  1  0.78575155  -0.01432834  0.38660823  1
  O2-  O173  1  0.76444594  -0.00960603  0.88358863  1
  O2-  O174  1  0.77736234  0.48978859  0.38780012  1
  O2-  O175  1  0.77504025  0.48610562  0.88230857  1
  O2-  O176  1  0.01321779  0.25782816  0.37844146  1
  O2-  O177  1  0.01724287  0.25583753  0.87289510  1
  O2-  O178  1  0.01167083  0.77129780  0.38776681  1
  O2-  O179  1  0.02945549  0.75848599  0.88535915  1
  O2-  O180  1  0.52113896  0.26830960  0.38521952  1
  O2-  O181  1  0.51898066  0.26799938  0.88527126  1
  O2-  O182  1  0.51365862  0.77955106  0.38476384  1
  O2-  O183  1  0.51995780  0.77305778  0.88314678  1
  O2-  O184  1  0.24310390  -0.02280437  0.13145866  1
  O2-  O185  1  0.24342575  -0.02139259  0.63029175  1
  O2-  O186  1  0.23344324  0.46968766  0.11250907  1
  O2-  O187  1  0.22615758  0.49193176  0.62938527  1
  O2-  O188  1  0.72749792  0.00423629  0.11924903  1
  O2-  O189  1  0.74927814  -0.00462514  0.61190190  1
  O2-  O190  1  0.73300235  0.50679051  0.11536080  1
  O2-  O191  1  0.72159708  0.49327282  0.61721678  1
  O2-  O192  1  0.12056225  0.26629951  0.23842856  1
  O2-  O193  1  0.11913869  0.26484314  0.72885483  1
  O2-  O194  1  0.13461615  0.78738863  0.24083416  1
  O2-  O195  1  0.13461868  0.78686775  0.72693758  1
  O2-  O196  1  0.63836749  0.26773926  0.23903912  1
  O2-  O197  1  0.63757293  0.28157816  0.72844311  1
  O2-  O198  1  0.63619282  0.77104018  0.23493231  1
  O2-  O199  1  0.63399895  0.76650343  0.71971165  1
  O2-  O200  1  0.36606134  0.22665359  0.27752635  1
  O2-  O201  1  0.36163267  0.23339583  0.76927843  1
  O2-  O202  1  0.35894367  0.73874402  0.28259496  1
  O2-  O203  1  0.35897583  0.73944694  0.76279603  1
  O2-  O204  1  0.88494890  0.22971183  0.26944419  1
  O2-  O205  1  0.88361897  0.22139681  0.76414046  1
  O2-  O206  1  0.86736741  0.73133698  0.28524059  1
  O2-  O207  1  0.86563230  0.72207995  0.76850917  1
  O2-  O208  1  0.26663260  0.36377171  0.27429611  1
  O2-  O209  1  0.26158481  0.38211135  0.76696218  1
  O2-  O210  1  0.26647555  0.88479674  0.27452833  1
  O2-  O211  1  0.26689926  0.88525560  0.77110479  1
  O2-  O212  1  0.78401344  0.36056620  0.24595629  1
  O2-  O213  1  0.79052113  0.36124573  0.74398819  1
  O2-  O214  1  0.77561980  0.86573255  0.25565324  1
  O2-  O215  1  0.77800932  0.86360543  0.73329468  1
  O2-  O216  1  0.22826200  0.12066774  0.23929674  1
  O2-  O217  1  0.23170915  0.12885644  0.72454522  1
  O2-  O218  1  0.21942800  0.63805075  0.23670081  1
  O2-  O219  1  0.22601763  0.63029545  0.72927863  1
  O2-  O220  1  0.74606067  0.13550203  0.28557745  1
  O2-  O221  1  0.72617461  0.13315530  0.74633144  1
  O2-  O222  1  0.73047851  0.63072568  0.26218288  1
  O2-  O223  1  0.72535668  0.63042995  0.75055051  1
  O2-  O224  1  0.11419239  0.46864148  0.26719010  1
  O2-  O225  1  0.12515680  0.47947894  0.76658004  1
  O2-  O226  1  0.12887870  0.98844305  0.27097673  1
  O2-  O227  1  0.13054632  0.99269171  0.76015133  1
  O2-  O228  1  0.61578645  0.47700958  0.26734353  1
  O2-  O229  1  0.61435188  0.47721459  0.78294508  1
  O2-  O230  1  0.61504415  0.97130198  0.25996876  1
  O2-  O231  1  0.61677245  0.96703088  0.76219383  1
  O2-  O232  1  0.36588136  0.02672516  0.23979235  1
  O2-  O233  1  0.36617449  0.02736656  0.74223982  1
  O2-  O234  1  0.37943596  0.51922142  0.21943919  1
  O2-  O235  1  0.36239639  0.51876869  0.72878908  1
  O2-  O236  1  0.89070561  0.03006283  0.23482729  1
  O2-  O237  1  0.88547745  0.03247082  0.73601388  1
  O2-  O238  1  0.88977341  0.51427931  0.21626190  1
  O2-  O239  1  0.88750451  0.51783443  0.73391291  1
  O2-  O240  1  0.47783717  0.38019092  0.23020615  1
  O2-  O241  1  0.47456638  0.38435001  0.72870052  1
  O2-  O242  1  0.46808951  0.88689353  0.22791518  1
  O2-  O243  1  0.46309608  0.88862315  0.73895985  1
  O2-  O244  1  0.98221758  0.36948197  0.24520527  1
  O2-  O245  1  0.98411876  0.36779407  0.74751905  1
  O2-  O246  1  0.98138770  0.88862612  0.24149798  1
  O2-  O247  1  0.98134853  0.89011576  0.74639152  1
  O2-  O248  1  0.02305229  0.13006274  0.26086570  1
  O2-  O249  1  0.02705545  0.12979821  0.74731865  1
  O2-  O250  1  0.03048358  0.61452606  0.25834357  1
  O2-  O251  1  0.02817646  0.61582449  0.75139352  1
  O2-  O252  1  0.51639272  0.11376078  0.26817887  1
  O2-  O253  1  0.51124996  0.11312935  0.77721653  1
  O2-  O254  1  0.51465505  0.61926777  0.26788879  1
  O2-  O255  1  0.50761161  0.61717926  0.77518564  1
  O2-  O256  1  0.11995156  0.48172754  -0.02450214  1
  O2-  O257  1  0.13477246  0.48855135  0.48204114  1
  O2-  O258  1  0.13782370  0.97099639  -0.01638530  1
  O2-  O259  1  0.12283622  0.98379430  0.48994064  1
  O2-  O260  1  0.63087739  0.46733871  -0.01738990  1
  O2-  O261  1  0.63365706  0.47933802  0.47771429  1
  O2-  O262  1  0.61937070  0.98101801  -0.00616465  1
  O2-  O263  1  0.63961977  0.96962308  0.48238883  1
  O2-  O264  1  0.37745712  0.02023841  0.00699627  1
  O2-  O265  1  0.36495375  0.01772518  0.51717858  1
  O2-  O266  1  0.36001963  0.52853957  0.01265409  1
  O2-  O267  1  0.36271640  0.51906584  0.53229973  1
  O2-  O268  1  0.86882991  0.03003722  0.01734042  1
  O2-  O269  1  0.88319946  0.01743636  0.51453364  1
  O2-  O270  1  0.88394247  0.51330703  0.01252314  1
  O2-  O271  1  0.86449154  0.52223528  0.53110008  1
  O2-  O272  1  0.47169214  0.36561671  0.02906468  1
  O2-  O273  1  0.48655112  0.36279755  0.52393718  1
  O2-  O274  1  0.48325424  0.87985626  0.01272313  1
  O2-  O275  1  0.47328210  0.86507780  0.51947461  1
  O2-  O276  1  0.98063879  0.37486529  0.00114551  1
  O2-  O277  1  0.96536219  0.36236636  0.50311096  1
  O2-  O278  1  0.97336846  0.86958145  0.01001573  1
  O2-  O279  1  0.98387387  0.88273057  0.50645487  1
  O2-  O280  1  0.03828336  0.13744684  -0.00309506  1
  O2-  O281  1  0.01589810  0.12548690  0.49521985  1
  O2-  O282  1  0.01547980  0.61717139  -0.00759515  1
  O2-  O283  1  0.02227593  0.63431638  0.49498675  1
  O2-  O284  1  0.51856092  0.11775100  -0.01969493  1
  O2-  O285  1  0.52945910  0.13080190  0.48249206  1
  O2-  O286  1  0.52565161  0.63198914  -0.01634180  1
  O2-  O287  1  0.51033413  0.63785872  0.47217149  1
  O2-  O288  1  0.11638543  0.28074609  0.02025902  1
  O2-  O289  1  0.10975035  0.26999363  0.51991533  1
  O2-  O290  1  0.11341144  0.76389213  0.03250047  1
  O2-  O291  1  0.12070173  0.77064830  0.52112456  1
  O2-  O292  1  0.61533342  0.26775633  0.02277139  1
  O2-  O293  1  0.63701684  0.26214825  0.52034110  1
  O2-  O294  1  0.61701834  0.77048598  0.02593113  1
  O2-  O295  1  0.62617445  0.76515792  0.52143031  1
  O2-  O296  1  0.38174959  0.22972225  -0.02605300  1
  O2-  O297  1  0.38289813  0.22458524  0.48107470  1
  O2-  O298  1  0.38346288  0.73210114  -0.02425386  1
  O2-  O299  1  0.36459316  0.73710756  0.48066704  1
  O2-  O300  1  0.89067192  0.22504718  -0.01058796  1
  O2-  O301  1  0.87311476  0.22158715  0.48632250  1
  O2-  O302  1  0.88367789  0.72970346  -0.02954525  1
  O2-  O303  1  0.87159966  0.72996001  0.48142510  1
  O2-  O304  1  0.26379321  0.38986340  -0.03845929  1
  O2-  O305  1  0.27131210  0.38627392  0.47545836  1
  O2-  O306  1  0.28097596  0.88704883  -0.01453644  1
  O2-  O307  1  0.25785642  0.87745189  0.49104516  1
  O2-  O308  1  0.77961451  0.37982977  0.00964557  1
  O2-  O309  1  0.77487119  0.37058834  0.51123046  1
  O2-  O310  1  0.77332500  0.88253545  0.00773294  1
  O2-  O311  1  0.77167920  0.86627741  0.50627408  1
  O2-  O312  1  0.23630526  0.11133851  0.02633980  1
  O2-  O313  1  0.22562887  0.11263604  0.52306191  1
  O2-  O314  1  0.21506674  0.61450293  0.01111958  1
  O2-  O315  1  0.22893026  0.63366700  0.51616383  1
  O2-  O316  1  0.72309580  0.11574350  -0.01201500  1
  O2-  O317  1  0.73361231  0.11995425  0.49156720  1
  O2-  O318  1  0.73874984  0.61250131  -0.01620143  1
  O2-  O319  1  0.72986142  0.62312871  0.49484472  1
