# generated using pymatgen
data_Sr64Ca21Nb43O192
_symmetry_space_group_name_H-M   'P 1'
_cell_length_a   16.55757407
_cell_length_b   16.59256859
_cell_length_c   16.74332975
_cell_angle_alpha   90.05939020
_cell_angle_beta   90.01648457
_cell_angle_gamma   89.92359553
_symmetry_Int_Tables_number   1
_chemical_formula_structural   Sr64Ca21Nb43O192
_chemical_formula_sum   'Sr64 Ca21 Nb43 O192'
_cell_volume   4599.93316231
_cell_formula_units_Z   1
loop_
 _symmetry_equiv_pos_site_id
 _symmetry_equiv_pos_as_xyz
  1  'x, y, z'
loop_
 _atom_type_symbol
 _atom_type_oxidation_number
  Sr2+  2.0
  Ca2+  2.0
  Nb5+  5.0
  O2-  -2.0
loop_
 _atom_site_type_symbol
 _atom_site_label
 _atom_site_symmetry_multiplicity
 _atom_site_fract_x
 _atom_site_fract_y
 _atom_site_fract_z
 _atom_site_occupancy
  Sr2+  Sr0  1  0.13483338  0.12118915  0.12796742  1
  Sr2+  Sr1  1  0.12551524  0.12199252  0.62496119  1
  Sr2+  Sr2  1  0.13106851  0.61198855  0.12229565  1
  Sr2+  Sr3  1  0.12776239  0.61543295  0.63303143  1
  Sr2+  Sr4  1  0.62564763  0.12741114  0.11777423  1
  Sr2+  Sr5  1  0.62325917  0.12203322  0.62640814  1
  Sr2+  Sr6  1  0.61152571  0.60952444  0.12762543  1
  Sr2+  Sr7  1  0.61755837  0.60651384  0.62722549  1
  Sr2+  Sr8  1  0.37730711  0.35663970  0.12766721  1
  Sr2+  Sr9  1  0.37567032  0.39470916  0.62545629  1
  Sr2+  Sr10  1  0.37539611  0.85810000  0.12403930  1
  Sr2+  Sr11  1  0.37476576  0.87932497  0.62034169  1
  Sr2+  Sr12  1  0.87742642  0.37116564  0.12153112  1
  Sr2+  Sr13  1  0.87265683  0.36481924  0.62095817  1
  Sr2+  Sr14  1  0.87609095  0.87263155  0.12628470  1
  Sr2+  Sr15  1  0.87240479  0.86971190  0.62540504  1
  Sr2+  Sr16  1  0.12672886  0.38198600  0.37918128  1
  Sr2+  Sr17  1  0.11187731  0.38269428  0.87672683  1
  Sr2+  Sr18  1  0.13353524  0.88255132  0.37050388  1
  Sr2+  Sr19  1  0.13218029  0.87403049  0.88160634  1
  Sr2+  Sr20  1  0.62603200  0.38028735  0.37532638  1
  Sr2+  Sr21  1  0.62018004  0.37846741  0.87776442  1
  Sr2+  Sr22  1  0.63050099  0.88105435  0.37223184  1
  Sr2+  Sr23  1  0.63325621  0.88355564  0.88218041  1
  Sr2+  Sr24  1  0.37708134  0.13700211  0.36933570  1
  Sr2+  Sr25  1  0.36782982  0.13263144  0.86682302  1
  Sr2+  Sr26  1  0.38994164  0.63311288  0.37726556  1
  Sr2+  Sr27  1  0.37430095  0.63765527  0.87056138  1
  Sr2+  Sr28  1  0.87601887  0.12492388  0.37370865  1
  Sr2+  Sr29  1  0.87397016  0.13453902  0.86829666  1
  Sr2+  Sr30  1  0.88443525  0.63185930  0.37477096  1
  Sr2+  Sr31  1  0.88310717  0.62988714  0.88587597  1
  Sr2+  Sr32  1  0.12698925  0.12943263  0.37673801  1
  Sr2+  Sr33  1  0.12501553  0.13578504  0.86864821  1
  Sr2+  Sr34  1  0.13309368  0.62598575  0.37283949  1
  Sr2+  Sr35  1  0.11631099  0.62164159  0.88089392  1
  Sr2+  Sr36  1  0.62138439  0.13509313  0.36986314  1
  Sr2+  Sr37  1  0.62114095  0.13723221  0.87554100  1
  Sr2+  Sr38  1  0.63102550  0.62182692  0.36998809  1
  Sr2+  Sr39  1  0.62553600  0.61601721  0.87538088  1
  Sr2+  Sr40  1  0.36005294  0.38951914  0.37448560  1
  Sr2+  Sr41  1  0.37263445  0.38315526  0.87200454  1
  Sr2+  Sr42  1  0.38280154  0.88018964  0.37266046  1
  Sr2+  Sr43  1  0.36918964  0.88625437  0.88411923  1
  Sr2+  Sr44  1  0.87164194  0.36628919  0.37369008  1
  Sr2+  Sr45  1  0.87235427  0.38589029  0.87981738  1
  Sr2+  Sr46  1  0.88208780  0.87985741  0.37576292  1
  Sr2+  Sr47  1  0.87703969  0.88316160  0.87292110  1
  Sr2+  Sr48  1  0.14366076  0.36942466  0.12307130  1
  Sr2+  Sr49  1  0.13216553  0.37216437  0.63432904  1
  Sr2+  Sr50  1  0.13343635  0.86644317  0.12799003  1
  Sr2+  Sr51  1  0.12988712  0.86601277  0.62727388  1
  Sr2+  Sr52  1  0.63196927  0.36691956  0.12631868  1
  Sr2+  Sr53  1  0.62016399  0.37103473  0.62208571  1
  Sr2+  Sr54  1  0.61094242  0.86943592  0.11662293  1
  Sr2+  Sr55  1  0.62409678  0.86821771  0.62571214  1
  Sr2+  Sr56  1  0.37449778  0.12072085  0.12433751  1
  Sr2+  Sr57  1  0.37448370  0.11738203  0.62591222  1
  Sr2+  Sr58  1  0.37449635  0.61972650  0.13155534  1
  Sr2+  Sr59  1  0.37360115  0.61567689  0.62549054  1
  Sr2+  Sr60  1  0.88009463  0.12511562  0.11698582  1
  Sr2+  Sr61  1  0.87606909  0.11747262  0.62232255  1
  Sr2+  Sr62  1  0.87316016  0.61477566  0.13079391  1
  Sr2+  Sr63  1  0.86750710  0.62236686  0.62663145  1
  Ca2+  Ca64  1  0.49882238  0.49861179  0.00050597  1
  Ca2+  Ca65  1  0.49985045  0.50265414  0.49738980  1
  Ca2+  Ca66  1  0.00069601  0.50167597  0.49952110  1
  Ca2+  Ca67  1  0.00248195  -0.00090976  -0.00297186  1
  Ca2+  Ca68  1  0.49754746  0.00066309  -0.00055728  1
  Ca2+  Ca69  1  0.25159988  0.25219360  0.50310236  1
  Ca2+  Ca70  1  0.24911447  0.74651535  0.50302307  1
  Ca2+  Ca71  1  0.74933847  0.75077731  0.00122138  1
  Ca2+  Ca72  1  0.25059352  0.74741184  -0.00075176  1
  Ca2+  Ca73  1  0.24945949  0.24969380  -0.00290238  1
  Ca2+  Ca74  1  0.25210464  -0.00038429  0.25388650  1
  Ca2+  Ca75  1  -0.00066969  0.25075538  0.74926537  1
  Ca2+  Ca76  1  0.24813153  0.50389908  0.75749411  1
  Ca2+  Ca77  1  0.75129124  0.49929200  0.74884882  1
  Ca2+  Ca78  1  0.75152980  0.49812317  0.25021807  1
  Ca2+  Ca79  1  0.50450089  0.75156041  0.74734891  1
  Ca2+  Ca80  1  0.49796089  0.24931632  0.74697550  1
  Ca2+  Ca81  1  0.00044628  0.24950296  0.25127891  1
  Ca2+  Ca82  1  0.24949996  0.50187492  0.24772364  1
  Ca2+  Ca83  1  0.50219979  0.24981049  0.24910431  1
  Ca2+  Ca84  1  0.74775388  -0.00115702  0.25141596  1
  Nb5+  Nb85  1  0.50975149  0.00106201  0.50047642  1
  Nb5+  Nb86  1  -0.00281664  0.49814348  0.00310173  1
  Nb5+  Nb87  1  0.00625834  -0.00241771  0.50136448  1
  Nb5+  Nb88  1  0.75207198  0.24887492  -0.00813109  1
  Nb5+  Nb89  1  0.74995372  0.74433044  0.50043805  1
  Nb5+  Nb90  1  0.74905225  0.24387872  0.49683395  1
  Nb5+  Nb91  1  0.00600942  0.75250185  0.25567982  1
  Nb5+  Nb92  1  0.50889463  0.75104047  0.25291415  1
  Nb5+  Nb93  1  0.24238652  -0.00265821  0.74747235  1
  Nb5+  Nb94  1  -0.00055349  0.75289851  0.75543886  1
  Nb5+  Nb95  1  0.74394708  0.00047714  0.74947206  1
  Nb5+  Nb96  1  -0.00064758  0.00033761  0.24528708  1
  Nb5+  Nb97  1  -0.00355020  -0.00087559  0.74903446  1
  Nb5+  Nb98  1  -0.00082207  0.49686514  0.25282067  1
  Nb5+  Nb99  1  -0.00814061  0.50088076  0.74710940  1
  Nb5+  Nb100  1  0.49857136  -0.00085550  0.24600936  1
  Nb5+  Nb101  1  0.49448296  -0.00409946  0.75018689  1
  Nb5+  Nb102  1  0.49629254  0.49387403  0.25203457  1
  Nb5+  Nb103  1  0.50124657  0.50139104  0.75384264  1
  Nb5+  Nb104  1  0.24956834  0.24923828  0.25185856  1
  Nb5+  Nb105  1  0.25255848  0.25643573  0.74787567  1
  Nb5+  Nb106  1  0.25995627  0.74601020  0.25331179  1
  Nb5+  Nb107  1  0.25237451  0.74933737  0.74847706  1
  Nb5+  Nb108  1  0.75066954  0.24464929  0.24114360  1
  Nb5+  Nb109  1  0.75158295  0.25350604  0.74404135  1
  Nb5+  Nb110  1  0.75491190  0.75330387  0.24769700  1
  Nb5+  Nb111  1  0.75123911  0.75135204  0.74998618  1
  Nb5+  Nb112  1  0.00092746  0.25360926  0.49761161  1
  Nb5+  Nb113  1  0.00323904  0.24967505  0.99925621  1
  Nb5+  Nb114  1  0.00309911  0.75283253  0.50435499  1
  Nb5+  Nb115  1  -0.00295633  0.75140296  1.01097997  1
  Nb5+  Nb116  1  0.49537991  0.25075541  0.50138214  1
  Nb5+  Nb117  1  0.49571360  0.24608813  0.99851160  1
  Nb5+  Nb118  1  0.50423653  0.74969639  0.50329460  1
  Nb5+  Nb119  1  0.49891375  0.74941552  0.99251780  1
  Nb5+  Nb120  1  0.25005040  0.00117501  0.00437795  1
  Nb5+  Nb121  1  0.25767160  0.00292044  0.49809886  1
  Nb5+  Nb122  1  0.25776116  0.50121761  -0.00302948  1
  Nb5+  Nb123  1  0.24520259  0.50233066  0.50249597  1
  Nb5+  Nb124  1  0.75644511  -0.00002366  0.00329686  1
  Nb5+  Nb125  1  0.75353654  -0.00277242  0.50011349  1
  Nb5+  Nb126  1  0.74659378  0.50100904  0.00352218  1
  Nb5+  Nb127  1  0.75428270  0.49156657  0.50065134  1
  O2-  O128  1  -0.02525563  0.00166158  0.13344025  1
  O2-  O129  1  -0.01794919  0.00239050  0.62298100  1
  O2-  O130  1  -0.02711223  0.50251772  0.11869133  1
  O2-  O131  1  -0.01792327  0.52087370  0.63394170  1
  O2-  O132  1  0.46919346  -0.00200307  0.13575550  1
  O2-  O133  1  0.47906348  0.00669270  0.61595527  1
  O2-  O134  1  0.47886834  0.51630776  0.13496969  1
  O2-  O135  1  0.48009497  0.51052490  0.63215362  1
  O2-  O136  1  0.01763923  -0.01066420  0.38379649  1
  O2-  O137  1  0.01806426  -0.01847363  0.86041508  1
  O2-  O138  1  0.03011342  0.50569802  0.36295690  1
  O2-  O139  1  0.01001863  0.50268692  0.87730916  1
  O2-  O140  1  0.52050529  -0.00889874  0.38330681  1
  O2-  O141  1  0.51494576  -0.02010648  0.86164411  1
  O2-  O142  1  0.52930079  0.49777369  0.36568671  1
  O2-  O143  1  0.53043081  0.49837023  0.86836011  1
  O2-  O144  1  0.22677951  0.23648704  0.13221628  1
  O2-  O145  1  0.21580151  0.24124284  0.63564275  1
  O2-  O146  1  0.23784933  0.75792538  0.13551608  1
  O2-  O147  1  0.21720549  0.74192154  0.63595490  1
  O2-  O148  1  0.73854090  0.24807560  0.12376046  1
  O2-  O149  1  0.73204427  0.25947697  0.62705394  1
  O2-  O150  1  0.74104265  0.78405076  0.13825850  1
  O2-  O151  1  0.74581513  0.77185878  0.62086461  1
  O2-  O152  1  0.27952836  0.25732863  0.36837315  1
  O2-  O153  1  0.28061594  0.25517045  0.86506286  1
  O2-  O154  1  0.27101914  0.73505674  0.37100949  1
  O2-  O155  1  0.26528008  0.77500586  0.86330455  1
  O2-  O156  1  0.76716630  0.23859726  0.38260993  1
  O2-  O157  1  0.76613696  0.24181910  0.87522475  1
  O2-  O158  1  0.76573433  0.73002388  0.38339414  1
  O2-  O159  1  0.77802102  0.74445009  0.86158677  1
  O2-  O160  1  -0.00359754  0.26200564  0.11580301  1
  O2-  O161  1  0.01813426  0.24457708  0.61382997  1
  O2-  O162  1  0.01707699  0.75396330  0.12557400  1
  O2-  O163  1  0.01561528  0.75015322  0.61940936  1
  O2-  O164  1  0.52555008  0.26064115  0.11451479  1
  O2-  O165  1  0.53195561  0.24449168  0.61313128  1
  O2-  O166  1  0.51962990  0.74446013  0.13600486  1
  O2-  O167  1  0.53930603  0.74218085  0.61240047  1
  O2-  O168  1  0.22587964  -0.00100638  0.38862477  1
  O2-  O169  1  0.23785508  -0.01797993  0.86330276  1
  O2-  O170  1  0.22803604  0.49098819  0.38297538  1
  O2-  O171  1  0.22667146  0.47168752  0.88642123  1
  O2-  O172  1  0.72552050  0.01514530  0.39093649  1
  O2-  O173  1  0.73109987  0.00478851  0.86579520  1
  O2-  O174  1  0.72384939  0.50011598  0.38495567  1
  O2-  O175  1  0.73238593  0.48953687  0.88520143  1
  O2-  O176  1  -0.03444456  0.24150034  0.38550714  1
  O2-  O177  1  -0.02546128  0.25289451  0.88411380  1
  O2-  O178  1  -0.02010597  0.75746106  0.37017482  1
  O2-  O179  1  -0.02266154  0.75547455  0.86908509  1
  O2-  O180  1  0.49787993  0.23375493  0.38538899  1
  O2-  O181  1  0.49042203  0.22685339  0.88093171  1
  O2-  O182  1  0.48589893  0.76309315  0.37639342  1
  O2-  O183  1  0.47305988  0.76032546  0.88126194  1
  O2-  O184  1  0.26198037  0.01709525  0.11804698  1
  O2-  O185  1  0.26769884  0.00857414  0.62702741  1
  O2-  O186  1  0.25998740  0.52344934  0.11392935  1
  O2-  O187  1  0.26264347  0.51438915  0.62263928  1
  O2-  O188  1  0.78183427  0.00097923  0.11571241  1
  O2-  O189  1  0.76596208  0.00082486  0.62437262  1
  O2-  O190  1  0.77906851  0.49028719  0.11604900  1
  O2-  O191  1  0.78527344  0.49119366  0.61549767  1
  O2-  O192  1  0.13297813  0.27703579  0.27227939  1
  O2-  O193  1  0.13458363  0.26432549  0.78095908  1
  O2-  O194  1  0.11878404  0.77219799  0.26789283  1
  O2-  O195  1  0.11447281  0.78012700  0.76319151  1
  O2-  O196  1  0.63782437  0.27761674  0.26820762  1
  O2-  O197  1  0.63737429  0.26170787  0.77207256  1
  O2-  O198  1  0.62321103  0.76956027  0.27003006  1
  O2-  O199  1  0.64159116  0.78455095  0.76588718  1
  O2-  O200  1  0.36859549  0.22197567  0.22882180  1
  O2-  O201  1  0.36405543  0.21961996  0.72716212  1
  O2-  O202  1  0.37615523  0.72990156  0.23722087  1
  O2-  O203  1  0.36462405  0.73090389  0.72716208  1
  O2-  O204  1  0.86404075  0.20894161  0.24111370  1
  O2-  O205  1  0.86451559  0.21698882  0.73405500  1
  O2-  O206  1  0.87161340  0.73423519  0.23665670  1
  O2-  O207  1  0.87947191  0.74202750  0.72422174  1
  O2-  O208  1  0.27309934  0.36777036  0.23462157  1
  O2-  O209  1  0.27040036  0.36862942  0.73256045  1
  O2-  O210  1  0.26445911  0.86429750  0.26475640  1
  O2-  O211  1  0.26248204  0.87726936  0.72902961  1
  O2-  O212  1  0.78210798  0.36048055  0.25250628  1
  O2-  O213  1  0.78038793  0.36367935  0.75317581  1
  O2-  O214  1  0.76211612  0.86429428  0.28714065  1
  O2-  O215  1  0.77726652  0.88379919  0.75142312  1
  O2-  O216  1  0.22333974  0.13120565  0.26316999  1
  O2-  O217  1  0.23175873  0.11525613  0.75812056  1
  O2-  O218  1  0.21795308  0.63618353  0.24806485  1
  O2-  O219  1  0.22276863  0.63931715  0.77166063  1
  O2-  O220  1  0.71458745  0.13112451  0.24862548  1
  O2-  O221  1  0.73262107  0.11947662  0.74335246  1
  O2-  O222  1  0.72485280  0.63935992  0.24026101  1
  O2-  O223  1  0.73046712  0.63975094  0.73078528  1
  O2-  O224  1  0.10982046  0.48823282  0.21349702  1
  O2-  O225  1  0.11073025  0.48646732  0.73990912  1
  O2-  O226  1  0.11274034  0.96563682  0.23889841  1
  O2-  O227  1  0.12633237  0.98225978  0.72642697  1
  O2-  O228  1  0.61498013  0.48450922  0.22279796  1
  O2-  O229  1  0.61853119  0.47627038  0.72536907  1
  O2-  O230  1  0.61204417  0.96417989  0.23707524  1
  O2-  O231  1  0.63081127  0.98033832  0.72974209  1
  O2-  O232  1  0.38651806  0.01058092  0.28656490  1
  O2-  O233  1  0.37666087  0.01022061  0.76105645  1
  O2-  O234  1  0.38326861  0.52809717  0.27537483  1
  O2-  O235  1  0.38349522  0.52829086  0.77230527  1
  O2-  O236  1  0.88578190  0.00676288  0.28192449  1
  O2-  O237  1  0.87881582  0.01750687  0.76125960  1
  O2-  O238  1  0.88627067  0.53503710  0.26191465  1
  O2-  O239  1  0.88232606  0.53791680  0.77118044  1
  O2-  O240  1  0.46931990  0.38258688  0.25301650  1
  O2-  O241  1  0.47188024  0.38332085  0.75276190  1
  O2-  O242  1  0.47453834  0.86803192  0.24837258  1
  O2-  O243  1  0.49126897  0.88357865  0.71799882  1
  O2-  O244  1  0.97083845  0.38592019  0.25649435  1
  O2-  O245  1  0.96854423  0.38751374  0.74573866  1
  O2-  O246  1  0.97414215  0.86838159  0.24278488  1
  O2-  O247  1  0.98025374  0.87560317  0.73536016  1
  O2-  O248  1  0.02725052  0.11217955  0.25283577  1
  O2-  O249  1  0.02208479  0.11265516  0.75063090  1
  O2-  O250  1  0.01624720  0.63563508  0.24577674  1
  O2-  O251  1  0.02049079  0.63728053  0.75352290  1
  O2-  O252  1  0.52431485  0.11176508  0.24889197  1
  O2-  O253  1  0.52256438  0.10883265  0.74188638  1
  O2-  O254  1  0.51761975  0.63355682  0.26399321  1
  O2-  O255  1  0.52978088  0.62040265  0.75638276  1
  O2-  O256  1  0.11246311  0.48011274  0.01672756  1
  O2-  O257  1  0.13055174  0.46326241  0.52158042  1
  O2-  O258  1  0.13450371  0.96495158  0.01134023  1
  O2-  O259  1  0.11861945  0.98180347  0.52285542  1
  O2-  O260  1  0.63497172  0.47236267  0.02351157  1
  O2-  O261  1  0.63732488  0.48858228  0.52839940  1
  O2-  O262  1  0.63845552  0.98262046  0.01464675  1
  O2-  O263  1  0.62607102  0.98431300  0.52444994  1
  O2-  O264  1  0.36360051  0.02621706  -0.02697572  1
  O2-  O265  1  0.37465080  0.01684368  0.48322631  1
  O2-  O266  1  0.36689857  0.52316639  -0.03052591  1
  O2-  O267  1  0.36344750  0.53262713  0.48569186  1
  O2-  O268  1  0.86759361  0.02655346  -0.03131837  1
  O2-  O269  1  0.86949054  0.01727364  0.48845564  1
  O2-  O270  1  0.87291912  0.51378228  -0.02065898  1
  O2-  O271  1  0.86503813  0.52267260  0.47245378  1
  O2-  O272  1  0.48174385  0.36329433  -0.01882182  1
  O2-  O273  1  0.47978798  0.36501208  0.49975388  1
  O2-  O274  1  0.47856108  0.86566060  0.01841299  1
  O2-  O275  1  0.49186948  0.87711882  0.50576222  1
  O2-  O276  1  0.97356133  0.38057831  -0.00541131  1
  O2-  O277  1  0.97234548  0.36571914  0.49996931  1
  O2-  O278  1  0.96879522  0.86342479  0.00320844  1
  O2-  O279  1  0.97264065  0.87977656  0.50428024  1
  O2-  O280  1  0.02391465  0.13524279  0.00309107  1
  O2-  O281  1  0.00750985  0.11741014  0.49828871  1
  O2-  O282  1  0.01238337  0.62185352  -0.00218890  1
  O2-  O283  1  0.01183156  0.64048397  0.48539098  1
  O2-  O284  1  0.53110067  0.13058179  0.00591526  1
  O2-  O285  1  0.52713482  0.11741199  0.49883443  1
  O2-  O286  1  0.53262547  0.63528864  -0.00536797  1
  O2-  O287  1  0.52480223  0.63840852  0.48034325  1
  O2-  O288  1  0.11368573  0.28033261  -0.01371609  1
  O2-  O289  1  0.11256378  0.26038010  0.46982913  1
  O2-  O290  1  0.11017621  0.76139314  -0.02033958  1
  O2-  O291  1  0.11128245  0.78238251  0.48060381  1
  O2-  O292  1  0.63398075  0.26728260  -0.01763685  1
  O2-  O293  1  0.63362767  0.26956977  0.48444939  1
  O2-  O294  1  0.61671302  0.77998977  -0.01297322  1
  O2-  O295  1  0.63604162  0.77477366  0.48224511  1
  O2-  O296  1  0.38416181  0.22615944  0.02196145  1
  O2-  O297  1  0.38696955  0.21732380  0.51692079  1
  O2-  O298  1  0.38605863  0.72200102  0.02328955  1
  O2-  O299  1  0.39080832  0.73912525  0.52690837  1
  O2-  O300  1  0.87002921  0.22792195  0.01054509  1
  O2-  O301  1  0.86633386  0.23532882  0.52560207  1
  O2-  O302  1  0.88293072  0.71912147  0.01845991  1
  O2-  O303  1  0.87359107  0.74361502  0.51263073  1
  O2-  O304  1  0.26902777  0.38458079  0.02431461  1
  O2-  O305  1  0.28079672  0.38457130  0.50931384  1
  O2-  O306  1  0.27924963  0.88404908  0.00438305  1
  O2-  O307  1  0.26368605  0.88527739  0.51093004  1
  O2-  O308  1  0.77274223  0.36568718  -0.00011844  1
  O2-  O309  1  0.76846362  0.37283603  0.49392422  1
  O2-  O310  1  0.77485313  0.88638831  -0.01588394  1
  O2-  O311  1  0.76660408  0.88163905  0.49181418  1
  O2-  O312  1  0.21626659  0.11378424  -0.01707397  1
  O2-  O313  1  0.22367642  0.11521398  0.50522417  1
  O2-  O314  1  0.21942737  0.61475818  -0.01556320  1
  O2-  O315  1  0.20648379  0.61617018  0.50138553  1
  O2-  O316  1  0.73113932  0.12686691  0.00079747  1
  O2-  O317  1  0.73320553  0.12806833  0.51385256  1
  O2-  O318  1  0.72698371  0.61484082  0.00680109  1
  O2-  O319  1  0.73582741  0.63134304  0.51938292  1
