# generated using pymatgen
data_Sr64Ca21Nb43O192
_symmetry_space_group_name_H-M   'P 1'
_cell_length_a   16.56509765
_cell_length_b   16.54619449
_cell_length_c   16.75765410
_cell_angle_alpha   90.02095650
_cell_angle_beta   89.98337212
_cell_angle_gamma   90.00026559
_symmetry_Int_Tables_number   1
_chemical_formula_structural   Sr64Ca21Nb43O192
_chemical_formula_sum   'Sr64 Ca21 Nb43 O192'
_cell_volume   4593.09364166
_cell_formula_units_Z   1
loop_
 _symmetry_equiv_pos_site_id
 _symmetry_equiv_pos_as_xyz
  1  'x, y, z'
loop_
 _atom_type_symbol
 _atom_type_oxidation_number
  Sr2+  2.0
  Ca2+  2.0
  Nb5+  5.0
  O2-  -2.0
loop_
 _atom_site_type_symbol
 _atom_site_label
 _atom_site_symmetry_multiplicity
 _atom_site_fract_x
 _atom_site_fract_y
 _atom_site_fract_z
 _atom_site_occupancy
  Sr2+  Sr0  1  0.11966930  0.12841646  0.12855204  1
  Sr2+  Sr1  1  0.12095817  0.11601531  0.62286160  1
  Sr2+  Sr2  1  0.12694723  0.62161381  0.12431243  1
  Sr2+  Sr3  1  0.12321544  0.61685064  0.62585273  1
  Sr2+  Sr4  1  0.61950996  0.11971523  0.11828867  1
  Sr2+  Sr5  1  0.61629025  0.12838356  0.63247866  1
  Sr2+  Sr6  1  0.62421308  0.63143873  0.12513869  1
  Sr2+  Sr7  1  0.62179542  0.63336068  0.61864766  1
  Sr2+  Sr8  1  0.37128533  0.37183522  0.12443066  1
  Sr2+  Sr9  1  0.37793897  0.36191207  0.61801060  1
  Sr2+  Sr10  1  0.37544752  0.87963356  0.12370516  1
  Sr2+  Sr11  1  0.38798620  0.88081016  0.62281005  1
  Sr2+  Sr12  1  0.89099033  0.36858088  0.12166486  1
  Sr2+  Sr13  1  0.87913696  0.38867876  0.62924709  1
  Sr2+  Sr14  1  0.87862039  0.87939872  0.12295265  1
  Sr2+  Sr15  1  0.88063343  0.89182113  0.63037763  1
  Sr2+  Sr16  1  0.13219867  0.38092894  0.37220429  1
  Sr2+  Sr17  1  0.13188128  0.37763735  0.87361057  1
  Sr2+  Sr18  1  0.12251849  0.87117683  0.38107494  1
  Sr2+  Sr19  1  0.13062310  0.86410690  0.86502776  1
  Sr2+  Sr20  1  0.64022423  0.37842900  0.37698339  1
  Sr2+  Sr21  1  0.65394713  0.37379769  0.88015922  1
  Sr2+  Sr22  1  0.61978851  0.86837197  0.38099885  1
  Sr2+  Sr23  1  0.62026517  0.87166399  0.86752060  1
  Sr2+  Sr24  1  0.37326220  0.12624313  0.39699221  1
  Sr2+  Sr25  1  0.37752203  0.12478749  0.85867406  1
  Sr2+  Sr26  1  0.37439129  0.61558519  0.37638434  1
  Sr2+  Sr27  1  0.38177588  0.62140624  0.87409929  1
  Sr2+  Sr28  1  0.86867221  0.12625998  0.38033862  1
  Sr2+  Sr29  1  0.86474459  0.13886543  0.86388063  1
  Sr2+  Sr30  1  0.85734210  0.62117778  0.37530607  1
  Sr2+  Sr31  1  0.85995279  0.61637601  0.87294073  1
  Sr2+  Sr32  1  0.12311998  0.12600054  0.38020925  1
  Sr2+  Sr33  1  0.12492800  0.13400183  0.86273051  1
  Sr2+  Sr34  1  0.12515244  0.62087076  0.38509926  1
  Sr2+  Sr35  1  0.12736617  0.61978325  0.85480871  1
  Sr2+  Sr36  1  0.62086175  0.14081168  0.37688085  1
  Sr2+  Sr37  1  0.61899260  0.13578149  0.86846019  1
  Sr2+  Sr38  1  0.61329414  0.62119239  0.37751352  1
  Sr2+  Sr39  1  0.61793910  0.61743803  0.87665703  1
  Sr2+  Sr40  1  0.38179995  0.36143130  0.37172604  1
  Sr2+  Sr41  1  0.37893756  0.37029732  0.87739869  1
  Sr2+  Sr42  1  0.38123046  0.86044702  0.37544666  1
  Sr2+  Sr43  1  0.38195512  0.86494611  0.87256250  1
  Sr2+  Sr44  1  0.87696473  0.37579152  0.38082942  1
  Sr2+  Sr45  1  0.88260157  0.37855172  0.86429713  1
  Sr2+  Sr46  1  0.87081603  0.86742870  0.37734220  1
  Sr2+  Sr47  1  0.87013378  0.85859430  0.87097928  1
  Sr2+  Sr48  1  0.12380236  0.37574923  0.11899016  1
  Sr2+  Sr49  1  0.11811859  0.38786538  0.63670293  1
  Sr2+  Sr50  1  0.12872089  0.87939609  0.13007925  1
  Sr2+  Sr51  1  0.11625044  0.87749372  0.62963101  1
  Sr2+  Sr52  1  0.62937334  0.38392669  0.12521754  1
  Sr2+  Sr53  1  0.63790545  0.37333842  0.61265022  1
  Sr2+  Sr54  1  0.62669362  0.88551970  0.12629574  1
  Sr2+  Sr55  1  0.63346030  0.88202373  0.63202498  1
  Sr2+  Sr56  1  0.37520056  0.12403044  0.11791299  1
  Sr2+  Sr57  1  0.38696288  0.12591521  0.63107019  1
  Sr2+  Sr58  1  0.37870131  0.62008401  0.12620268  1
  Sr2+  Sr59  1  0.36687524  0.63230323  0.61696604  1
  Sr2+  Sr60  1  0.85656548  0.11850211  0.13387814  1
  Sr2+  Sr61  1  0.86432104  0.12617227  0.62300501  1
  Sr2+  Sr62  1  0.88624990  0.63817353  0.12881080  1
  Sr2+  Sr63  1  0.88332355  0.61735287  0.62176721  1
  Ca2+  Ca64  1  0.49872076  0.49800467  0.49982873  1
  Ca2+  Ca65  1  -0.00111673  0.50335764  0.00045712  1
  Ca2+  Ca66  1  0.00157961  0.49992934  0.49629392  1
  Ca2+  Ca67  1  -0.00081505  0.00179940  -0.00037253  1
  Ca2+  Ca68  1  0.50145814  -0.00019366  0.49812093  1
  Ca2+  Ca69  1  0.75102792  0.75103568  0.50061807  1
  Ca2+  Ca70  1  0.75439641  0.24921576  0.50002927  1
  Ca2+  Ca71  1  0.75397487  0.24604042  0.00206276  1
  Ca2+  Ca72  1  0.24792964  0.75288253  0.49662216  1
  Ca2+  Ca73  1  0.24542211  0.25164326  0.49948880  1
  Ca2+  Ca74  1  0.49901240  0.74341181  0.74903430  1
  Ca2+  Ca75  1  0.24745624  -0.00112449  0.75267724  1
  Ca2+  Ca76  1  0.00172118  0.24903868  0.74507954  1
  Ca2+  Ca77  1  0.26201235  0.50019911  0.75271925  1
  Ca2+  Ca78  1  0.75182560  -0.00031768  0.75457345  1
  Ca2+  Ca79  1  0.74109234  0.50423362  0.74785294  1
  Ca2+  Ca80  1  0.49912686  0.74894496  0.24789378  1
  Ca2+  Ca81  1  0.50073860  0.26099847  0.75318010  1
  Ca2+  Ca82  1  0.75058946  0.50027491  0.24800542  1
  Ca2+  Ca83  1  -0.00382531  0.75146644  0.75079860  1
  Ca2+  Ca84  1  0.50035397  0.24766571  0.24822930  1
  Nb5+  Nb85  1  0.50147714  0.50089690  -0.00032218  1
  Nb5+  Nb86  1  0.00034213  0.00025853  0.49793712  1
  Nb5+  Nb87  1  0.49872617  0.00141855  -0.00120338  1
  Nb5+  Nb88  1  0.24871241  0.24298682  0.00169649  1
  Nb5+  Nb89  1  0.25524676  0.74617820  0.00205670  1
  Nb5+  Nb90  1  0.75320365  0.74862401  0.00295003  1
  Nb5+  Nb91  1  0.74238691  -0.00492435  0.25525472  1
  Nb5+  Nb92  1  0.24838491  -0.00056049  0.25202353  1
  Nb5+  Nb93  1  0.25196849  0.49580590  0.24886423  1
  Nb5+  Nb94  1  0.00222757  0.75532431  0.25145027  1
  Nb5+  Nb95  1  -0.00090323  0.25345836  0.25026177  1
  Nb5+  Nb96  1  -0.00348088  0.00394605  0.25021433  1
  Nb5+  Nb97  1  -0.00475234  0.00411539  0.76099915  1
  Nb5+  Nb98  1  0.00034048  0.50780982  0.24661307  1
  Nb5+  Nb99  1  -0.00148878  0.50484907  0.75125947  1
  Nb5+  Nb100  1  0.49094447  0.00322646  0.25159096  1
  Nb5+  Nb101  1  0.50033356  -0.00229158  0.74867159  1
  Nb5+  Nb102  1  0.50214701  0.49484597  0.24929727  1
  Nb5+  Nb103  1  0.50295234  0.49837475  0.74160976  1
  Nb5+  Nb104  1  0.25102798  0.24250914  0.24608468  1
  Nb5+  Nb105  1  0.24629713  0.25435864  0.74364088  1
  Nb5+  Nb106  1  0.24856609  0.74488198  0.24788137  1
  Nb5+  Nb107  1  0.25353016  0.75493542  0.74256968  1
  Nb5+  Nb108  1  0.75125424  0.25430475  0.24649344  1
  Nb5+  Nb109  1  0.75003950  0.25171774  0.74772775  1
  Nb5+  Nb110  1  0.74533042  0.75218725  0.24930728  1
  Nb5+  Nb111  1  0.75132521  0.74443639  0.74316020  1
  Nb5+  Nb112  1  0.00367958  0.25106104  0.50072570  1
  Nb5+  Nb113  1  -0.00130264  0.24360060  0.99698298  1
  Nb5+  Nb114  1  -0.00180019  0.75164557  0.50247038  1
  Nb5+  Nb115  1  0.01101909  0.75251882  1.00152047  1
  Nb5+  Nb116  1  0.50201904  0.25054794  0.50046543  1
  Nb5+  Nb117  1  0.50219013  0.25584546  0.99900731  1
  Nb5+  Nb118  1  0.49883124  0.74954071  0.50107199  1
  Nb5+  Nb119  1  0.50406053  0.75292387  1.00584559  1
  Nb5+  Nb120  1  0.24800575  -0.00579305  -0.00038647  1
  Nb5+  Nb121  1  0.24903878  -0.00242223  0.50464806  1
  Nb5+  Nb122  1  0.25368884  0.49711325  0.00083054  1
  Nb5+  Nb123  1  0.25145200  0.49569144  0.50614900  1
  Nb5+  Nb124  1  0.74901778  -0.00465848  -0.00069813  1
  Nb5+  Nb125  1  0.74621880  -0.00169575  0.50058272  1
  Nb5+  Nb126  1  0.75423054  0.49936549  0.00978727  1
  Nb5+  Nb127  1  0.74900954  0.50334381  0.49896812  1
  O2-  O128  1  0.01418410  -0.01389317  0.13671193  1
  O2-  O129  1  0.01187247  -0.01316146  0.61248908  1
  O2-  O130  1  0.00669443  0.47505040  0.13513774  1
  O2-  O131  1  0.00942482  0.49433188  0.62997611  1
  O2-  O132  1  0.50662701  0.00078441  0.12040325  1
  O2-  O133  1  0.51171436  -0.00286592  0.63359639  1
  O2-  O134  1  0.50919069  0.49063070  0.11997505  1
  O2-  O135  1  0.52827562  0.48732082  0.63188641  1
  O2-  O136  1  -0.00078122  0.01212787  0.36887700  1
  O2-  O137  1  -0.02508579  0.02727704  0.86962297  1
  O2-  O138  1  0.01753136  0.50066548  0.36079096  1
  O2-  O139  1  -0.01711407  0.51968566  0.86892166  1
  O2-  O140  1  0.47913766  0.00371423  0.36425855  1
  O2-  O141  1  0.48887469  -0.00625496  0.88201460  1
  O2-  O142  1  0.48795766  0.50804554  0.36235340  1
  O2-  O143  1  0.47841092  0.50297510  0.88562288  1
  O2-  O144  1  0.23161626  0.27105859  0.12716847  1
  O2-  O145  1  0.23378008  0.28419262  0.63437003  1
  O2-  O146  1  0.26123170  0.77415190  0.12519409  1
  O2-  O147  1  0.27922848  0.77153928  0.63296584  1
  O2-  O148  1  0.73558234  0.21496163  0.13605719  1
  O2-  O149  1  0.72773894  0.22611874  0.63342839  1
  O2-  O150  1  0.76763576  0.73160686  0.12771894  1
  O2-  O151  1  0.76542885  0.71356942  0.63482158  1
  O2-  O152  1  0.26786255  0.23712990  0.35969310  1
  O2-  O153  1  0.26311238  0.22566942  0.88983740  1
  O2-  O154  1  0.21813821  0.74232399  0.35806859  1
  O2-  O155  1  0.22108123  0.73633616  0.89389994  1
  O2-  O156  1  0.78004171  0.26018491  0.36065147  1
  O2-  O157  1  0.77895583  0.27245284  0.87037146  1
  O2-  O158  1  0.74075455  0.77929130  0.36174791  1
  O2-  O159  1  0.73143804  0.77469511  0.89357465  1
  O2-  O160  1  0.02032768  0.26049904  0.12823564  1
  O2-  O161  1  0.03580209  0.25444970  0.61013016  1
  O2-  O162  1  -0.01688908  0.76774218  0.13156759  1
  O2-  O163  1  -0.02908866  0.76579580  0.61272704  1
  O2-  O164  1  0.51464616  0.23996970  0.11326554  1
  O2-  O165  1  0.52025793  0.25771851  0.61904729  1
  O2-  O166  1  0.46415018  0.74676179  0.11480513  1
  O2-  O167  1  0.46888714  0.74535350  0.61674322  1
  O2-  O168  1  0.25909496  0.02534096  0.36295822  1
  O2-  O169  1  0.25501324  0.02954551  0.89181076  1
  O2-  O170  1  0.24738647  0.52169068  0.36282311  1
  O2-  O171  1  0.26167917  0.52817361  0.89023646  1
  O2-  O172  1  0.76266509  -0.02513703  0.36890677  1
  O2-  O173  1  0.76000808  -0.03467600  0.89059594  1
  O2-  O174  1  0.76412677  0.47238692  0.37860387  1
  O2-  O175  1  0.76606733  0.48609419  0.89211085  1
  O2-  O176  1  -0.01936559  0.23439978  0.36359901  1
  O2-  O177  1  -0.01517913  0.23436144  0.88368205  1
  O2-  O178  1  0.02564959  0.74279189  0.36547047  1
  O2-  O179  1  0.02684709  0.73829604  0.88967173  1
  O2-  O180  1  0.47760965  0.23633884  0.38106471  1
  O2-  O181  1  0.46795348  0.24354153  0.88834590  1
  O2-  O182  1  0.52637539  0.75180820  0.37997272  1
  O2-  O183  1  0.51527562  0.74640610  0.88988960  1
  O2-  O184  1  0.24747890  -0.00934246  0.12591832  1
  O2-  O185  1  0.23528182  -0.02728494  0.61496740  1
  O2-  O186  1  0.25179909  0.48544976  0.12517510  1
  O2-  O187  1  0.25145790  0.47512043  0.61869267  1
  O2-  O188  1  0.73072382  0.01083694  0.13268494  1
  O2-  O189  1  0.73654579  0.02080720  0.61355557  1
  O2-  O190  1  0.71311228  0.51660839  0.11817929  1
  O2-  O191  1  0.73499706  0.52889113  0.61398751  1
  O2-  O192  1  0.12287912  0.25829488  0.26166076  1
  O2-  O193  1  0.13292302  0.26407582  0.78211408  1
  O2-  O194  1  0.12270929  0.76126338  0.22417558  1
  O2-  O195  1  0.13367081  0.77504907  0.73826070  1
  O2-  O196  1  0.63810743  0.26323043  0.27101169  1
  O2-  O197  1  0.63397398  0.26381147  0.77924145  1
  O2-  O198  1  0.63463823  0.76899067  0.22412521  1
  O2-  O199  1  0.63535527  0.77350808  0.73993905  1
  O2-  O200  1  0.36337018  0.23795485  0.22156949  1
  O2-  O201  1  0.36315814  0.23035633  0.73958537  1
  O2-  O202  1  0.36181139  0.74014527  0.27002153  1
  O2-  O203  1  0.36269068  0.73496425  0.78372066  1
  O2-  O204  1  0.88229968  0.23736408  0.22421288  1
  O2-  O205  1  0.86838476  0.22972305  0.73187864  1
  O2-  O206  1  0.88266188  0.73786934  0.26263117  1
  O2-  O207  1  0.86394489  0.73423351  0.78486009  1
  O2-  O208  1  0.25988919  0.37875617  0.26189275  1
  O2-  O209  1  0.26267056  0.36556563  0.78699274  1
  O2-  O210  1  0.26208522  0.88205170  0.25814061  1
  O2-  O211  1  0.26175326  0.86634173  0.78702444  1
  O2-  O212  1  0.76787725  0.36413697  0.21791078  1
  O2-  O213  1  0.76315210  0.36893720  0.72653252  1
  O2-  O214  1  0.77078741  0.87728450  0.22897996  1
  O2-  O215  1  0.77188737  0.86363238  0.73166481  1
  O2-  O216  1  0.23377729  0.12701342  0.22949712  1
  O2-  O217  1  0.22533955  0.13536477  0.73577824  1
  O2-  O218  1  0.24055437  0.63033519  0.22548627  1
  O2-  O219  1  0.22818251  0.63773238  0.73708453  1
  O2-  O220  1  0.74880175  0.11318244  0.26915937  1
  O2-  O221  1  0.73819330  0.13194082  0.78007007  1
  O2-  O222  1  0.73553915  0.63757598  0.26898375  1
  O2-  O223  1  0.73142402  0.63582893  0.78795855  1
  O2-  O224  1  0.13211532  0.49573845  0.23919384  1
  O2-  O225  1  0.12023288  0.48623582  0.76414101  1
  O2-  O226  1  0.13017235  0.99145389  0.25623664  1
  O2-  O227  1  0.11219871  0.97551852  0.76139916  1
  O2-  O228  1  0.61438875  0.46725858  0.25605349  1
  O2-  O229  1  0.61042554  0.46751271  0.78061111  1
  O2-  O230  1  0.62765365  0.97532873  0.26323275  1
  O2-  O231  1  0.61748293  0.97902581  0.76412745  1
  O2-  O232  1  0.37450817  0.02233761  0.23382496  1
  O2-  O233  1  0.38129353  0.02022424  0.74352562  1
  O2-  O234  1  0.36869349  0.52068296  0.23971529  1
  O2-  O235  1  0.39080169  0.54628758  0.73895805  1
  O2-  O236  1  0.87955135  0.00618405  0.24102240  1
  O2-  O237  1  0.88336156  0.01951392  0.72221094  1
  O2-  O238  1  0.88616097  0.52392505  0.24599192  1
  O2-  O239  1  0.87879551  0.51949112  0.73608443  1
  O2-  O240  1  0.46540976  0.38195764  0.24213687  1
  O2-  O241  1  0.45252063  0.38953659  0.74981631  1
  O2-  O242  1  0.48361805  0.88584105  0.23930881  1
  O2-  O243  1  0.47679684  0.88046873  0.75415526  1
  O2-  O244  1  0.98635312  0.37104210  0.26043744  1
  O2-  O245  1  0.98398199  0.38376945  0.75370099  1
  O2-  O246  1  0.99536615  0.87493843  0.26465647  1
  O2-  O247  1  0.97380471  0.88506174  0.76200789  1
  O2-  O248  1  0.01200036  0.12201533  0.23939229  1
  O2-  O249  1  0.02532314  0.11559855  0.73342876  1
  O2-  O250  1  0.01718985  0.62628616  0.23415474  1
  O2-  O251  1  0.02168091  0.62155568  0.73463709  1
  O2-  O252  1  0.53351150  0.11231759  0.24269454  1
  O2-  O253  1  0.51591097  0.11835156  0.75742274  1
  O2-  O254  1  0.51588149  0.61313936  0.23250756  1
  O2-  O255  1  0.54039582  0.61437035  0.74950707  1
  O2-  O256  1  0.13688692  0.49777322  0.00182442  1
  O2-  O257  1  0.13452482  0.47168481  0.49446899  1
  O2-  O258  1  0.13571167  0.97108996  -0.00274368  1
  O2-  O259  1  0.12228567  0.98143477  0.48332966  1
  O2-  O260  1  0.61818050  0.48764885  -0.01507492  1
  O2-  O261  1  0.63322005  0.47638236  0.48498842  1
  O2-  O262  1  0.61874266  0.97716056  -0.00213363  1
  O2-  O263  1  0.63563327  0.97044906  0.48759558  1
  O2-  O264  1  0.37752718  0.00751771  0.01361257  1
  O2-  O265  1  0.36310012  0.02317475  0.51453521  1
  O2-  O266  1  0.37637718  0.51141801  0.01767919  1
  O2-  O267  1  0.36502668  0.53180092  0.50194663  1
  O2-  O268  1  0.86058559  0.00781656  0.02697598  1
  O2-  O269  1  0.88227964  0.02095888  0.50128881  1
  O2-  O270  1  0.86375219  0.52139553  0.03110634  1
  O2-  O271  1  0.86922395  0.52736056  0.50170768  1
  O2-  O272  1  0.48547291  0.37367914  0.00306334  1
  O2-  O273  1  0.46941805  0.36553920  0.49515369  1
  O2-  O274  1  0.48513858  0.87173253  0.00374781  1
  O2-  O275  1  0.47176958  0.86819589  0.49563876  1
  O2-  O276  1  0.98374576  0.36379136  -0.00873239  1
  O2-  O277  1  0.97509609  0.36332373  0.49346046  1
  O2-  O278  1  0.97325010  0.86368034  -0.00776446  1
  O2-  O279  1  0.98289876  0.88089626  0.47810189  1
  O2-  O280  1  0.04385428  0.13420938  0.00492304  1
  O2-  O281  1  0.02458718  0.11888585  0.49906563  1
  O2-  O282  1  0.00473020  0.63893576  0.03187932  1
  O2-  O283  1  0.02457924  0.63836268  0.50759421  1
  O2-  O284  1  0.50950625  0.12005253  -0.00339829  1
  O2-  O285  1  0.52929299  0.13132959  0.50455176  1
  O2-  O286  1  0.50864663  0.62279596  0.00738903  1
  O2-  O287  1  0.52661337  0.63258631  0.50080763  1
  O2-  O288  1  0.13353438  0.27445381  -0.00860070  1
  O2-  O289  1  0.11335290  0.25993062  0.45672426  1
  O2-  O290  1  0.12515533  0.76771226  0.02621236  1
  O2-  O291  1  0.11341630  0.78348583  0.51027545  1
  O2-  O292  1  0.61536981  0.26008641  -0.02183972  1
  O2-  O293  1  0.61902317  0.27271192  0.47726515  1
  O2-  O294  1  0.61826879  0.75818040  0.03062591  1
  O2-  O295  1  0.61652583  0.77646205  0.52689805  1
  O2-  O296  1  0.36746107  0.24912066  0.02546326  1
  O2-  O297  1  0.38071233  0.22435595  0.52122094  1
  O2-  O298  1  0.36974988  0.73991194  -0.01900081  1
  O2-  O299  1  0.38114853  0.72894867  0.47045076  1
  O2-  O300  1  0.88896716  0.21858412  0.02424582  1
  O2-  O301  1  0.88983870  0.21835148  0.50641658  1
  O2-  O302  1  0.86756083  0.73460755  -0.01157693  1
  O2-  O303  1  0.88736547  0.73748983  0.46408306  1
  O2-  O304  1  0.26397422  0.38050505  -0.01316563  1
  O2-  O305  1  0.27464185  0.38547144  0.46931594  1
  O2-  O306  1  0.27164204  0.87714377  -0.00975540  1
  O2-  O307  1  0.26364558  0.88875951  0.46211499  1
  O2-  O308  1  0.75613416  0.38306985  0.02796215  1
  O2-  O309  1  0.77191124  0.38395634  0.52475172  1
  O2-  O310  1  0.75239057  0.86888509  0.03250889  1
  O2-  O311  1  0.78354538  0.88593732  0.51451542  1
  O2-  O312  1  0.24033185  0.12835359  0.02867522  1
  O2-  O313  1  0.22120114  0.11407493  0.50264974  1
  O2-  O314  1  0.24857384  0.63173636  0.02966801  1
  O2-  O315  1  0.22137228  0.61591637  0.50937651  1
  O2-  O316  1  0.72657399  0.10822880  -0.01614106  1
  O2-  O317  1  0.74104724  0.11193537  0.46695955  1
  O2-  O318  1  0.72908445  0.63019106  -0.00896770  1
  O2-  O319  1  0.73096241  0.61913651  0.46506205  1
