# generated using pymatgen
data_Sr64Ca21Nb43O192
_symmetry_space_group_name_H-M   'P 1'
_cell_length_a   16.54941383
_cell_length_b   16.54476470
_cell_length_c   16.68707805
_cell_angle_alpha   89.99356168
_cell_angle_beta   90.04895742
_cell_angle_gamma   90.01057558
_symmetry_Int_Tables_number   1
_chemical_formula_structural   Sr64Ca21Nb43O192
_chemical_formula_sum   'Sr64 Ca21 Nb43 O192'
_cell_volume   4569.02294964
_cell_formula_units_Z   1
loop_
 _symmetry_equiv_pos_site_id
 _symmetry_equiv_pos_as_xyz
  1  'x, y, z'
loop_
 _atom_type_symbol
 _atom_type_oxidation_number
  Sr2+  2.0
  Ca2+  2.0
  Nb5+  5.0
  O2-  -2.0
loop_
 _atom_site_type_symbol
 _atom_site_label
 _atom_site_symmetry_multiplicity
 _atom_site_fract_x
 _atom_site_fract_y
 _atom_site_fract_z
 _atom_site_occupancy
  Sr2+  Sr0  1  0.12546821  0.11661675  0.12776460  1
  Sr2+  Sr1  1  0.12027213  0.12041958  0.61964337  1
  Sr2+  Sr2  1  0.12538940  0.61768968  0.13664767  1
  Sr2+  Sr3  1  0.12813471  0.61141355  0.63376444  1
  Sr2+  Sr4  1  0.61359981  0.12220054  0.13140074  1
  Sr2+  Sr5  1  0.62582895  0.12150063  0.62470488  1
  Sr2+  Sr6  1  0.62253663  0.61705281  0.11947964  1
  Sr2+  Sr7  1  0.61700945  0.62130503  0.62538551  1
  Sr2+  Sr8  1  0.38731461  0.35358904  0.12582759  1
  Sr2+  Sr9  1  0.38362190  0.36717603  0.62519868  1
  Sr2+  Sr10  1  0.37060717  0.88182979  0.12793378  1
  Sr2+  Sr11  1  0.37915783  0.87386983  0.62642108  1
  Sr2+  Sr12  1  0.85944352  0.36851951  0.12738278  1
  Sr2+  Sr13  1  0.86496211  0.35879495  0.62283265  1
  Sr2+  Sr14  1  0.87511641  0.86517209  0.12777614  1
  Sr2+  Sr15  1  0.87315347  0.86781901  0.62764213  1
  Sr2+  Sr16  1  0.12836912  0.38267070  0.37173157  1
  Sr2+  Sr17  1  0.13412215  0.37581915  0.86766838  1
  Sr2+  Sr18  1  0.13092499  0.87373286  0.38150757  1
  Sr2+  Sr19  1  0.11810957  0.87776469  0.87657746  1
  Sr2+  Sr20  1  0.62874409  0.38226112  0.37660380  1
  Sr2+  Sr21  1  0.62865264  0.38727577  0.87084355  1
  Sr2+  Sr22  1  0.62504539  0.87860868  0.37806019  1
  Sr2+  Sr23  1  0.63624614  0.88533083  0.87196547  1
  Sr2+  Sr24  1  0.38155747  0.13355666  0.36118313  1
  Sr2+  Sr25  1  0.36003173  0.14165282  0.88177959  1
  Sr2+  Sr26  1  0.36813883  0.62997218  0.38608410  1
  Sr2+  Sr27  1  0.36216006  0.62999739  0.87838967  1
  Sr2+  Sr28  1  0.88550937  0.13416086  0.37292505  1
  Sr2+  Sr29  1  0.88314225  0.12325985  0.87877693  1
  Sr2+  Sr30  1  0.89453744  0.63016121  0.37948803  1
  Sr2+  Sr31  1  0.88212558  0.63364293  0.87382355  1
  Sr2+  Sr32  1  0.13244814  0.14000197  0.37385232  1
  Sr2+  Sr33  1  0.11812472  0.13816755  0.87602770  1
  Sr2+  Sr34  1  0.12740014  0.60334121  0.37321212  1
  Sr2+  Sr35  1  0.12559398  0.60155029  0.87787944  1
  Sr2+  Sr36  1  0.62447994  0.13843471  0.37100540  1
  Sr2+  Sr37  1  0.63029205  0.12381032  0.86621831  1
  Sr2+  Sr38  1  0.61829014  0.63181287  0.38134553  1
  Sr2+  Sr39  1  0.61691218  0.63312361  0.88095859  1
  Sr2+  Sr40  1  0.37358335  0.37707612  0.38312568  1
  Sr2+  Sr41  1  0.37480276  0.37896141  0.87979835  1
  Sr2+  Sr42  1  0.37641694  0.89334241  0.37886507  1
  Sr2+  Sr43  1  0.36392286  0.88197553  0.87367773  1
  Sr2+  Sr44  1  0.87724845  0.39136860  0.37839450  1
  Sr2+  Sr45  1  0.88584521  0.38383851  0.87402496  1
  Sr2+  Sr46  1  0.88543187  0.88569168  0.37863814  1
  Sr2+  Sr47  1  0.88096168  0.88532773  0.87593958  1
  Sr2+  Sr48  1  0.12905770  0.36854654  0.13533050  1
  Sr2+  Sr49  1  0.12481404  0.36390675  0.62933158  1
  Sr2+  Sr50  1  0.12547987  0.86992485  0.12745078  1
  Sr2+  Sr51  1  0.13238251  0.86516734  0.62689947  1
  Sr2+  Sr52  1  0.62079427  0.37520256  0.11275856  1
  Sr2+  Sr53  1  0.63108886  0.36942597  0.62016820  1
  Sr2+  Sr54  1  0.62218007  0.86105554  0.12495101  1
  Sr2+  Sr55  1  0.61640813  0.87155955  0.62770238  1
  Sr2+  Sr56  1  0.36786325  0.11783752  0.12760127  1
  Sr2+  Sr57  1  0.39038938  0.11842918  0.62368034  1
  Sr2+  Sr58  1  0.38282426  0.61952403  0.12273370  1
  Sr2+  Sr59  1  0.38366700  0.61849622  0.62329579  1
  Sr2+  Sr60  1  0.86388369  0.11348481  0.12816503  1
  Sr2+  Sr61  1  0.86429481  0.12185670  0.61840406  1
  Sr2+  Sr62  1  0.85994103  0.62256582  0.12547754  1
  Sr2+  Sr63  1  0.86339482  0.62059346  0.63004307  1
  Ca2+  Ca64  1  -0.00118643  0.50152186  0.50524387  1
  Ca2+  Ca65  1  0.50062359  -0.00018784  -0.00284426  1
  Ca2+  Ca66  1  0.50149594  0.00131748  0.49956746  1
  Ca2+  Ca67  1  0.00183370  -0.00102783  0.50144017  1
  Ca2+  Ca68  1  -0.00126104  0.49972430  0.00395626  1
  Ca2+  Ca69  1  0.24544423  0.25166359  0.00215894  1
  Ca2+  Ca70  1  0.74795953  0.24674242  -0.00471359  1
  Ca2+  Ca71  1  0.75233489  0.75016047  0.50014197  1
  Ca2+  Ca72  1  0.25171540  0.24879597  0.50232346  1
  Ca2+  Ca73  1  0.25065565  0.74932391  0.49970326  1
  Ca2+  Ca74  1  0.25572067  0.50083678  0.74871042  1
  Ca2+  Ca75  1  0.24805353  0.00329644  0.75208523  1
  Ca2+  Ca76  1  0.75034616  -0.00317063  0.24970727  1
  Ca2+  Ca77  1  -0.00186009  0.25087824  0.24893605  1
  Ca2+  Ca78  1  0.49849760  0.74497900  0.24955363  1
  Ca2+  Ca79  1  0.26026287  0.50382945  0.24860074  1
  Ca2+  Ca80  1  0.50030320  0.74633981  0.75312057  1
  Ca2+  Ca81  1  0.50066587  0.25165282  0.75351157  1
  Ca2+  Ca82  1  0.50220759  0.25606494  0.25252742  1
  Ca2+  Ca83  1  0.74517566  0.50162197  0.25213271  1
  Ca2+  Ca84  1  0.74760545  0.50041350  0.75030411  1
  Nb5+  Nb85  1  -0.00006433  0.00118033  0.00185126  1
  Nb5+  Nb86  1  0.49856007  0.49926475  -0.00394964  1
  Nb5+  Nb87  1  0.50248709  0.49934027  0.49586223  1
  Nb5+  Nb88  1  0.74612623  0.75296475  -0.00353924  1
  Nb5+  Nb89  1  0.24090949  0.75026774  -0.00087629  1
  Nb5+  Nb90  1  0.75057283  0.24731254  0.49497663  1
  Nb5+  Nb91  1  0.00231726  0.75225254  0.25641324  1
  Nb5+  Nb92  1  0.75363083  -0.00173582  0.74580253  1
  Nb5+  Nb93  1  -0.00371521  0.24396192  0.74814194  1
  Nb5+  Nb94  1  0.00289056  0.74729113  0.75728126  1
  Nb5+  Nb95  1  0.24547607  -0.00002082  0.25200903  1
  Nb5+  Nb96  1  0.00293125  -0.00027100  0.25360733  1
  Nb5+  Nb97  1  -0.00235263  -0.00289491  0.74582958  1
  Nb5+  Nb98  1  -0.00382904  0.49754771  0.24424881  1
  Nb5+  Nb99  1  -0.00325356  0.49175421  0.74732332  1
  Nb5+  Nb100  1  0.50540060  -0.00486107  0.24680090  1
  Nb5+  Nb101  1  0.49341157  0.00166767  0.75796824  1
  Nb5+  Nb102  1  0.50165311  0.50033787  0.24613236  1
  Nb5+  Nb103  1  0.49947686  0.49836337  0.74606436  1
  Nb5+  Nb104  1  0.25120258  0.25436045  0.24716742  1
  Nb5+  Nb105  1  0.25267986  0.24745698  0.74422261  1
  Nb5+  Nb106  1  0.25227041  0.75206463  0.24922411  1
  Nb5+  Nb107  1  0.25160646  0.74710387  0.74674366  1
  Nb5+  Nb108  1  0.74842052  0.25056605  0.24487692  1
  Nb5+  Nb109  1  0.75139736  0.25073779  0.75403547  1
  Nb5+  Nb110  1  0.75178838  0.74854057  0.25669957  1
  Nb5+  Nb111  1  0.74870557  0.75322254  0.74927359  1
  Nb5+  Nb112  1  0.00096844  0.25631016  0.49576814  1
  Nb5+  Nb113  1  -0.00384532  0.25324963  1.00608853  1
  Nb5+  Nb114  1  0.00298149  0.74856620  0.51302347  1
  Nb5+  Nb115  1  -0.00099635  0.74889196  1.00410749  1
  Nb5+  Nb116  1  0.49981704  0.24829871  0.50357896  1
  Nb5+  Nb117  1  0.50432800  0.24331478  0.99708964  1
  Nb5+  Nb118  1  0.49788433  0.75243208  0.49985429  1
  Nb5+  Nb119  1  0.48689500  0.75016521  1.00177604  1
  Nb5+  Nb120  1  0.24773116  0.00071249  -0.00302069  1
  Nb5+  Nb121  1  0.25372809  0.00338021  0.50832277  1
  Nb5+  Nb122  1  0.25041719  0.49531122  0.00817143  1
  Nb5+  Nb123  1  0.24869826  0.49806761  0.50347279  1
  Nb5+  Nb124  1  0.74720264  -0.00306897  0.00254884  1
  Nb5+  Nb125  1  0.74725913  -0.00030184  0.49131082  1
  Nb5+  Nb126  1  0.75364890  0.50003747  -0.00722022  1
  Nb5+  Nb127  1  0.74909690  0.50504020  0.50158611  1
  O2-  O128  1  -0.01563107  0.00987463  0.11964316  1
  O2-  O129  1  -0.02581218  0.01633804  0.63551451  1
  O2-  O130  1  -0.01448668  0.53808820  0.13363438  1
  O2-  O131  1  -0.01516997  0.53349725  0.63785359  1
  O2-  O132  1  0.47605196  0.01242792  0.13111313  1
  O2-  O133  1  0.48024992  -0.00545770  0.63706285  1
  O2-  O134  1  0.48917955  0.50094872  0.12694344  1
  O2-  O135  1  0.48578891  0.49942201  0.62775898  1
  O2-  O136  1  0.01873185  -0.02540259  0.36454782  1
  O2-  O137  1  0.01236364  -0.00813489  0.87573562  1
  O2-  O138  1  0.01617453  0.48627625  0.36484673  1
  O2-  O139  1  0.02061996  0.48115928  0.86618235  1
  O2-  O140  1  0.51528577  -0.01606540  0.36543929  1
  O2-  O141  1  0.53841751  -0.00103422  0.86659393  1
  O2-  O142  1  0.51845276  0.49939813  0.38006962  1
  O2-  O143  1  0.51377550  0.49664378  0.88057699  1
  O2-  O144  1  0.21838976  0.23527321  0.13356879  1
  O2-  O145  1  0.21248571  0.23721496  0.63353763  1
  O2-  O146  1  0.22259624  0.74251851  0.11634878  1
  O2-  O147  1  0.22268817  0.73680744  0.63547173  1
  O2-  O148  1  0.73341752  0.27449888  0.13211224  1
  O2-  O149  1  0.73768471  0.25682234  0.62798099  1
  O2-  O150  1  0.74729870  0.77350483  0.11315014  1
  O2-  O151  1  0.74335877  0.78295491  0.63666661  1
  O2-  O152  1  0.27488902  0.24767942  0.36521833  1
  O2-  O153  1  0.26385141  0.26942112  0.86501415  1
  O2-  O154  1  0.27389900  0.77155952  0.35983321  1
  O2-  O155  1  0.26525793  0.76558359  0.87925982  1
  O2-  O156  1  0.76507954  0.22462037  0.38219018  1
  O2-  O157  1  0.76864307  0.21627403  0.86315181  1
  O2-  O158  1  0.76653052  0.71633049  0.36468021  1
  O2-  O159  1  0.76922115  0.73508825  0.87498488  1
  O2-  O160  1  0.02826771  0.24099667  0.11454473  1
  O2-  O161  1  0.01515345  0.23722517  0.62863391  1
  O2-  O162  1  0.01913244  0.74407994  0.11793278  1
  O2-  O163  1  0.01948539  0.74119110  0.62985319  1
  O2-  O164  1  0.52403442  0.25734573  0.11666796  1
  O2-  O165  1  0.52363434  0.26458058  0.61916895  1
  O2-  O166  1  0.52668554  0.74279129  0.11262638  1
  O2-  O167  1  0.52444513  0.74697025  0.61799414  1
  O2-  O168  1  0.22825305  -0.01235005  0.36576910  1
  O2-  O169  1  0.23009933  -0.02599561  0.88516899  1
  O2-  O170  1  0.24340410  0.47863849  0.38153179  1
  O2-  O171  1  0.24236063  0.48685170  0.88817348  1
  O2-  O172  1  0.71324817  0.01388621  0.38278878  1
  O2-  O173  1  0.73901773  0.01008738  0.87647979  1
  O2-  O174  1  0.71616823  0.50858372  0.38772721  1
  O2-  O175  1  0.71657336  0.51988098  0.88279688  1
  O2-  O176  1  -0.02953280  0.26904163  0.38450573  1
  O2-  O177  1  -0.02867204  0.25585298  0.86655333  1
  O2-  O178  1  -0.01534052  0.76816032  0.36856134  1
  O2-  O179  1  -0.01505148  0.76838050  0.87254923  1
  O2-  O180  1  0.47941576  0.25473527  0.38755641  1
  O2-  O181  1  0.46658779  0.25158613  0.88523440  1
  O2-  O182  1  0.48197035  0.73140932  0.38326846  1
  O2-  O183  1  0.48613274  0.73037821  0.88769136  1
  O2-  O184  1  0.25866248  0.00721509  0.12010560  1
  O2-  O185  1  0.28111933  0.01411268  0.61941888  1
  O2-  O186  1  0.26171258  0.53806367  0.11581830  1
  O2-  O187  1  0.26480178  0.53054150  0.61620899  1
  O2-  O188  1  0.77871330  -0.02053939  0.11318935  1
  O2-  O189  1  0.77916880  -0.01199420  0.63144997  1
  O2-  O190  1  0.76105379  0.48905273  0.11163475  1
  O2-  O191  1  0.76702940  0.47499285  0.61600611  1
  O2-  O192  1  0.13293250  0.26771524  0.27668854  1
  O2-  O193  1  0.11039170  0.27027596  0.76610829  1
  O2-  O194  1  0.12212567  0.77712205  0.25606266  1
  O2-  O195  1  0.11726178  0.77879236  0.76269504  1
  O2-  O196  1  0.63639388  0.26486815  0.28232273  1
  O2-  O197  1  0.63738891  0.26376239  0.77015409  1
  O2-  O198  1  0.63948269  0.77865312  0.26220282  1
  O2-  O199  1  0.63775094  0.77073835  0.77273228  1
  O2-  O200  1  0.36599544  0.22638837  0.22621709  1
  O2-  O201  1  0.36392459  0.22402553  0.72589989  1
  O2-  O202  1  0.36086229  0.74034889  0.21266657  1
  O2-  O203  1  0.36397868  0.72372369  0.73643897  1
  O2-  O204  1  0.86542428  0.21989403  0.23516566  1
  O2-  O205  1  0.87620804  0.23304386  0.72517695  1
  O2-  O206  1  0.88627892  0.73317020  0.22882205  1
  O2-  O207  1  0.88260267  0.73997434  0.73536055  1
  O2-  O208  1  0.26560516  0.36778586  0.22857778  1
  O2-  O209  1  0.25721156  0.36659141  0.72768809  1
  O2-  O210  1  0.25473900  0.87845785  0.22866890  1
  O2-  O211  1  0.26724699  0.86614575  0.73858834  1
  O2-  O212  1  0.78074283  0.36408089  0.26889013  1
  O2-  O213  1  0.77616152  0.36260316  0.76926056  1
  O2-  O214  1  0.78675102  0.86194069  0.26280829  1
  O2-  O215  1  0.77476881  0.87760674  0.76966866  1
  O2-  O216  1  0.22894941  0.11779221  0.25263687  1
  O2-  O217  1  0.22114357  0.13522754  0.77092961  1
  O2-  O218  1  0.22373536  0.64067083  0.26088789  1
  O2-  O219  1  0.21928085  0.63635874  0.77260151  1
  O2-  O220  1  0.72513172  0.13111663  0.23156425  1
  O2-  O221  1  0.73863451  0.11703715  0.73368419  1
  O2-  O222  1  0.73940628  0.63872526  0.21490985  1
  O2-  O223  1  0.74212307  0.63876008  0.72714823  1
  O2-  O224  1  0.11794213  0.48950472  0.23266685  1
  O2-  O225  1  0.11565282  0.48836894  0.73088485  1
  O2-  O226  1  0.12407918  0.98536205  0.22323373  1
  O2-  O227  1  0.11219010  0.98732616  0.72870094  1
  O2-  O228  1  0.61382843  0.45742394  0.23857050  1
  O2-  O229  1  0.61446258  0.46098521  0.73850390  1
  O2-  O230  1  0.61655755  0.97673346  0.22134986  1
  O2-  O231  1  0.63874500  0.97535486  0.73521087  1
  O2-  O232  1  0.36365274  0.01255962  0.26228800  1
  O2-  O233  1  0.38418888  0.02579773  0.78550067  1
  O2-  O234  1  0.39120653  0.54675329  0.26341277  1
  O2-  O235  1  0.38755870  0.53629903  0.76599673  1
  O2-  O236  1  0.88752184  0.01766368  0.26525773  1
  O2-  O237  1  0.87573345  0.01360728  0.77384680  1
  O2-  O238  1  0.88295257  0.52450701  0.27113439  1
  O2-  O239  1  0.88403278  0.51921127  0.77524656  1
  O2-  O240  1  0.45871884  0.38875982  0.25753520  1
  O2-  O241  1  0.46243183  0.38510972  0.75858508  1
  O2-  O242  1  0.47198122  0.88052711  0.24253319  1
  O2-  O243  1  0.47777481  0.88170969  0.75744260  1
  O2-  O244  1  0.97958038  0.38574093  0.21931197  1
  O2-  O245  1  0.97757061  0.37586035  0.73246819  1
  O2-  O246  1  0.98827507  0.87491446  0.22918865  1
  O2-  O247  1  0.98058973  0.87939205  0.74201090  1
  O2-  O248  1  0.02548799  0.11427476  0.26133029  1
  O2-  O249  1  0.00990145  0.12628503  0.76260921  1
  O2-  O250  1  0.02349939  0.63647076  0.26502676  1
  O2-  O251  1  0.01675399  0.63358645  0.77182508  1
  O2-  O252  1  0.51305790  0.11568444  0.26169912  1
  O2-  O253  1  0.52958922  0.11547178  0.74304266  1
  O2-  O254  1  0.54640327  0.61264404  0.25008646  1
  O2-  O255  1  0.53978227  0.61181228  0.75325602  1
  O2-  O256  1  0.13445028  0.48277552  0.02028468  1
  O2-  O257  1  0.13479025  0.47903887  0.51908689  1
  O2-  O258  1  0.11914602  0.98001563  0.01594472  1
  O2-  O259  1  0.13631179  0.97337113  0.52164196  1
  O2-  O260  1  0.61980878  0.48990805  0.01439300  1
  O2-  O261  1  0.62190640  0.48143477  0.52171018  1
  O2-  O262  1  0.63727706  0.96377363  0.01441453  1
  O2-  O263  1  0.63747527  0.98577909  0.53470172  1
  O2-  O264  1  0.36244550  0.01644681  -0.01895219  1
  O2-  O265  1  0.36486296  0.02913821  0.46877903  1
  O2-  O266  1  0.37789295  0.52060477  -0.01120715  1
  O2-  O267  1  0.38474911  0.51763181  0.48864286  1
  O2-  O268  1  0.87971434  0.00881754  -0.01760734  1
  O2-  O269  1  0.86329666  0.02521055  0.47817369  1
  O2-  O270  1  0.86506939  0.52604645  -0.02390174  1
  O2-  O271  1  0.86277324  0.51470283  0.47547349  1
  O2-  O272  1  0.47921812  0.38201057  0.00460669  1
  O2-  O273  1  0.48726199  0.37896355  0.50033439  1
  O2-  O274  1  0.47343249  0.86449059  -0.00018669  1
  O2-  O275  1  0.47643310  0.86641411  0.49967557  1
  O2-  O276  1  0.96527680  0.36498267  0.01155137  1
  O2-  O277  1  0.97664646  0.36811290  0.52735348  1
  O2-  O278  1  0.98767700  0.87439772  0.00421302  1
  O2-  O279  1  0.96783185  0.86366677  0.50987133  1
  O2-  O280  1  0.01636803  0.11830911  -0.01052392  1
  O2-  O281  1  0.01448827  0.13730682  0.48783118  1
  O2-  O282  1  0.01719212  0.63827960  -0.02289698  1
  O2-  O283  1  0.02441736  0.63727145  0.47723582  1
  O2-  O284  1  0.53604216  0.13258526  -0.00518957  1
  O2-  O285  1  0.52529140  0.13472282  0.50368656  1
  O2-  O286  1  0.51255983  0.62036509  0.00618926  1
  O2-  O287  1  0.52270774  0.61750074  0.50619779  1
  O2-  O288  1  0.10819751  0.26550750  -0.03278470  1
  O2-  O289  1  0.11415102  0.27757388  0.48057582  1
  O2-  O290  1  0.12458325  0.77056208  -0.01741666  1
  O2-  O291  1  0.11573378  0.78060199  0.49319934  1
  O2-  O292  1  0.61520964  0.28094629  -0.02624939  1
  O2-  O293  1  0.63039397  0.26595838  0.48451970  1
  O2-  O294  1  0.63070013  0.76636302  -0.01935394  1
  O2-  O295  1  0.61751156  0.76488986  0.47655233  1
  O2-  O296  1  0.38398895  0.22712773  0.02387379  1
  O2-  O297  1  0.38660578  0.23516741  0.52960211  1
  O2-  O298  1  0.37165846  0.73109402  0.01740552  1
  O2-  O299  1  0.38407399  0.72373614  0.52176106  1
  O2-  O300  1  0.88376271  0.21595119  0.01606591  1
  O2-  O301  1  0.86930776  0.23496082  0.51884044  1
  O2-  O302  1  0.88091632  0.73635376  0.01049829  1
  O2-  O303  1  0.88583238  0.71827236  0.51753895  1
  O2-  O304  1  0.27437607  0.38479816  0.02818487  1
  O2-  O305  1  0.28219430  0.38443874  0.51538803  1
  O2-  O306  1  0.26541109  0.87064037  0.01284463  1
  O2-  O307  1  0.27973149  0.88547576  0.50404633  1
  O2-  O308  1  0.76814570  0.38534146  -0.02373822  1
  O2-  O309  1  0.76316752  0.36752060  0.48616958  1
  O2-  O310  1  0.77150035  0.86997081  -0.02355195  1
  O2-  O311  1  0.76732565  0.88545913  0.47692480  1
  O2-  O312  1  0.22457862  0.11461477  -0.01369825  1
  O2-  O313  1  0.21604180  0.11584641  0.49322320  1
  O2-  O314  1  0.23597524  0.63268605  -0.01940261  1
  O2-  O315  1  0.24034984  0.61532488  0.47211769  1
  O2-  O316  1  0.72927801  0.11027549  0.01902004  1
  O2-  O317  1  0.73363384  0.12716806  0.51741594  1
  O2-  O318  1  0.73720513  0.63341533  0.01246577  1
  O2-  O319  1  0.73192804  0.61570103  0.52816627  1
