# generated using pymatgen
data_Sr64Ca21Nb43O192
_symmetry_space_group_name_H-M   'P 1'
_cell_length_a   16.57496716
_cell_length_b   16.56821799
_cell_length_c   16.72618013
_cell_angle_alpha   90.03808657
_cell_angle_beta   90.02696409
_cell_angle_gamma   89.99085327
_symmetry_Int_Tables_number   1
_chemical_formula_structural   Sr64Ca21Nb43O192
_chemical_formula_sum   'Sr64 Ca21 Nb43 O192'
_cell_volume   4593.30301718
_cell_formula_units_Z   1
loop_
 _symmetry_equiv_pos_site_id
 _symmetry_equiv_pos_as_xyz
  1  'x, y, z'
loop_
 _atom_type_symbol
 _atom_type_oxidation_number
  Sr2+  2.0
  Ca2+  2.0
  Nb5+  5.0
  O2-  -2.0
loop_
 _atom_site_type_symbol
 _atom_site_label
 _atom_site_symmetry_multiplicity
 _atom_site_fract_x
 _atom_site_fract_y
 _atom_site_fract_z
 _atom_site_occupancy
  Sr2+  Sr0  1  0.12099468  0.12607747  0.12045192  1
  Sr2+  Sr1  1  0.11386812  0.13799877  0.62511638  1
  Sr2+  Sr2  1  0.11586499  0.64674022  0.12689035  1
  Sr2+  Sr3  1  0.11583939  0.62674974  0.61393548  1
  Sr2+  Sr4  1  0.61631955  0.12940287  0.11674903  1
  Sr2+  Sr5  1  0.62595225  0.12711129  0.62113174  1
  Sr2+  Sr6  1  0.63757067  0.63432874  0.13012467  1
  Sr2+  Sr7  1  0.62310044  0.63199516  0.62472780  1
  Sr2+  Sr8  1  0.37250295  0.37227723  0.13078908  1
  Sr2+  Sr9  1  0.36605512  0.38305144  0.62241314  1
  Sr2+  Sr10  1  0.37707032  0.88469312  0.11862662  1
  Sr2+  Sr11  1  0.37532947  0.87638207  0.62785051  1
  Sr2+  Sr12  1  0.88277513  0.38806819  0.12264539  1
  Sr2+  Sr13  1  0.88738798  0.37929492  0.62589157  1
  Sr2+  Sr14  1  0.87367006  0.86309014  0.12277182  1
  Sr2+  Sr15  1  0.86808747  0.87997578  0.62853219  1
  Sr2+  Sr16  1  0.12224908  0.37735611  0.37689730  1
  Sr2+  Sr17  1  0.13957941  0.37036285  0.87576005  1
  Sr2+  Sr18  1  0.13825309  0.86958836  0.37047582  1
  Sr2+  Sr19  1  0.13656689  0.86107340  0.88151720  1
  Sr2+  Sr20  1  0.62837136  0.37742080  0.37177257  1
  Sr2+  Sr21  1  0.64713929  0.36867375  0.88004808  1
  Sr2+  Sr22  1  0.62627549  0.87632412  0.37190657  1
  Sr2+  Sr23  1  0.62218008  0.87748358  0.87877038  1
  Sr2+  Sr24  1  0.37505522  0.11946769  0.38141859  1
  Sr2+  Sr25  1  0.37558425  0.12673752  0.87940636  1
  Sr2+  Sr26  1  0.36537837  0.62101047  0.38130985  1
  Sr2+  Sr27  1  0.37246205  0.62147256  0.86343948  1
  Sr2+  Sr28  1  0.87739746  0.12324152  0.36593713  1
  Sr2+  Sr29  1  0.86078967  0.12509818  0.86929974  1
  Sr2+  Sr30  1  0.85712196  0.61961310  0.38301772  1
  Sr2+  Sr31  1  0.86603285  0.61040819  0.87903255  1
  Sr2+  Sr32  1  0.12228719  0.10943591  0.37208129  1
  Sr2+  Sr33  1  0.13349965  0.12533664  0.86973958  1
  Sr2+  Sr34  1  0.13187340  0.62092724  0.37645071  1
  Sr2+  Sr35  1  0.12639249  0.61949835  0.88251196  1
  Sr2+  Sr36  1  0.61507670  0.12887824  0.37619495  1
  Sr2+  Sr37  1  0.61547765  0.12227999  0.87040896  1
  Sr2+  Sr38  1  0.62164566  0.60981723  0.37922837  1
  Sr2+  Sr39  1  0.61631743  0.60755758  0.87257394  1
  Sr2+  Sr40  1  0.38372652  0.38979809  0.36755241  1
  Sr2+  Sr41  1  0.37525949  0.38656101  0.87548723  1
  Sr2+  Sr42  1  0.37909507  0.86623947  0.37786780  1
  Sr2+  Sr43  1  0.38671480  0.86141525  0.86995281  1
  Sr2+  Sr44  1  0.87926873  0.37533052  0.36364704  1
  Sr2+  Sr45  1  0.88233647  0.37620670  0.88260492  1
  Sr2+  Sr46  1  0.87342451  0.86637785  0.36482503  1
  Sr2+  Sr47  1  0.86548890  0.87322427  0.87597760  1
  Sr2+  Sr48  1  0.12416331  0.37648725  0.12029543  1
  Sr2+  Sr49  1  0.12328698  0.37726391  0.62674138  1
  Sr2+  Sr50  1  0.12222605  0.88508757  0.12924950  1
  Sr2+  Sr51  1  0.11422468  0.88442933  0.62005381  1
  Sr2+  Sr52  1  0.62339980  0.37449730  0.13146529  1
  Sr2+  Sr53  1  0.63409792  0.38373826  0.63617768  1
  Sr2+  Sr54  1  0.63486826  0.88724902  0.12558418  1
  Sr2+  Sr55  1  0.62595920  0.88183155  0.62585155  1
  Sr2+  Sr56  1  0.36180162  0.12459204  0.12139792  1
  Sr2+  Sr57  1  0.36126445  0.11556362  0.62296106  1
  Sr2+  Sr58  1  0.37020489  0.62662510  0.14216736  1
  Sr2+  Sr59  1  0.36337842  0.63326761  0.62273709  1
  Sr2+  Sr60  1  0.87988355  0.13306161  0.12720211  1
  Sr2+  Sr61  1  0.87936401  0.13008174  0.62708718  1
  Sr2+  Sr62  1  0.87976758  0.62099300  0.11629748  1
  Sr2+  Sr63  1  0.86522097  0.62742470  0.63008557  1
  Ca2+  Ca64  1  0.49777346  0.50087735  0.00252716  1
  Ca2+  Ca65  1  -0.00492689  0.00002927  0.50196049  1
  Ca2+  Ca66  1  -0.00446071  0.50250536  0.49742140  1
  Ca2+  Ca67  1  -0.00316272  0.00327899  -0.00442860  1
  Ca2+  Ca68  1  0.50121310  0.49911345  0.50387368  1
  Ca2+  Ca69  1  0.25543555  0.74890149  0.00003563  1
  Ca2+  Ca70  1  0.24924272  0.24808934  0.49774557  1
  Ca2+  Ca71  1  0.75210227  0.24689186  0.00534256  1
  Ca2+  Ca72  1  0.75064517  0.24758060  0.49552309  1
  Ca2+  Ca73  1  0.74722185  0.74837417  -0.00460227  1
  Ca2+  Ca74  1  0.00038858  0.74663877  0.75052619  1
  Ca2+  Ca75  1  0.24732074  -0.00227872  0.75311664  1
  Ca2+  Ca76  1  0.75081567  0.00666070  0.25179472  1
  Ca2+  Ca77  1  -0.00014290  0.74922372  0.25654656  1
  Ca2+  Ca78  1  0.49994040  0.25044476  0.74741876  1
  Ca2+  Ca79  1  0.50078028  0.75261579  0.25033307  1
  Ca2+  Ca80  1  0.24807748  0.49798936  0.24644881  1
  Ca2+  Ca81  1  0.24734343  0.50093465  0.74715698  1
  Ca2+  Ca82  1  0.75452955  0.49857675  0.24768984  1
  Ca2+  Ca83  1  0.25251882  0.00159224  0.25091932  1
  Ca2+  Ca84  1  0.75045702  0.50106962  0.75116001  1
  Nb5+  Nb85  1  0.49959935  -0.00147554  0.49728249  1
  Nb5+  Nb86  1  0.00679091  0.50124305  -0.00031457  1
  Nb5+  Nb87  1  0.49741679  -0.00033961  -0.00492988  1
  Nb5+  Nb88  1  0.24374289  0.75162748  0.50242707  1
  Nb5+  Nb89  1  0.74090715  0.75373808  0.50134754  1
  Nb5+  Nb90  1  0.25111972  0.25072000  0.00059747  1
  Nb5+  Nb91  1  0.50408605  0.74699122  0.74949870  1
  Nb5+  Nb92  1  0.49042134  0.24360171  0.25042279  1
  Nb5+  Nb93  1  -0.00051456  0.24967736  0.24498953  1
  Nb5+  Nb94  1  -0.00100916  0.25201079  0.74996250  1
  Nb5+  Nb95  1  0.74646867  0.00096939  0.75025644  1
  Nb5+  Nb96  1  -0.00381288  -0.00332271  0.24847319  1
  Nb5+  Nb97  1  -0.00112650  -0.00338443  0.75735007  1
  Nb5+  Nb98  1  0.00707545  0.50215238  0.25030246  1
  Nb5+  Nb99  1  0.00570849  0.50299879  0.75052369  1
  Nb5+  Nb100  1  0.49819692  -0.00016508  0.24406871  1
  Nb5+  Nb101  1  0.50026540  0.00159761  0.74425093  1
  Nb5+  Nb102  1  0.50523452  0.50314307  0.24658913  1
  Nb5+  Nb103  1  0.49740498  0.49391197  0.74789243  1
  Nb5+  Nb104  1  0.24386610  0.24689144  0.25215092  1
  Nb5+  Nb105  1  0.25454691  0.24809183  0.74636859  1
  Nb5+  Nb106  1  0.25498277  0.75389458  0.24504526  1
  Nb5+  Nb107  1  0.24386399  0.75222853  0.74625299  1
  Nb5+  Nb108  1  0.74226920  0.25031696  0.25196264  1
  Nb5+  Nb109  1  0.75207570  0.25429943  0.74737366  1
  Nb5+  Nb110  1  0.75248344  0.74971344  0.24784548  1
  Nb5+  Nb111  1  0.74630219  0.75028757  0.75370630  1
  Nb5+  Nb112  1  -0.00103496  0.25052730  0.49014179  1
  Nb5+  Nb113  1  0.00339654  0.24846098  0.99408253  1
  Nb5+  Nb114  1  -0.01079812  0.75155716  0.50094207  1
  Nb5+  Nb115  1  -0.00147304  0.75578542  0.99770047  1
  Nb5+  Nb116  1  0.49841538  0.25261537  0.50293878  1
  Nb5+  Nb117  1  0.49715765  0.25441393  0.99876637  1
  Nb5+  Nb118  1  0.49686507  0.74994414  0.49988610  1
  Nb5+  Nb119  1  0.50126521  0.74545469  1.00560568  1
  Nb5+  Nb120  1  0.24789058  -0.00462119  -0.00557333  1
  Nb5+  Nb121  1  0.24355578  -0.00168443  0.50240338  1
  Nb5+  Nb122  1  0.25347528  0.50739751  0.00433796  1
  Nb5+  Nb123  1  0.25048553  0.49303490  0.49733076  1
  Nb5+  Nb124  1  0.75090820  0.00618853  0.00366542  1
  Nb5+  Nb125  1  0.74865876  -0.00085173  0.50018280  1
  Nb5+  Nb126  1  0.74590874  0.49679004  0.00119848  1
  Nb5+  Nb127  1  0.75176084  0.49315011  0.50531148  1
  O2-  O128  1  0.02140007  0.01113102  0.13186106  1
  O2-  O129  1  0.01628766  0.02084146  0.64234372  1
  O2-  O130  1  0.01718404  0.50107223  0.11921730  1
  O2-  O131  1  0.01043970  0.49183324  0.63458889  1
  O2-  O132  1  0.50847584  -0.00141249  0.12541791  1
  O2-  O133  1  0.50895510  -0.00440446  0.62695258  1
  O2-  O134  1  0.50178231  0.47253532  0.13370775  1
  O2-  O135  1  0.53344167  0.49996887  0.63573625  1
  O2-  O136  1  -0.02463157  0.00270937  0.36745084  1
  O2-  O137  1  -0.04589496  0.00418974  0.86487492  1
  O2-  O138  1  -0.00719123  0.48520149  0.36259764  1
  O2-  O139  1  -0.00826254  0.49593686  0.87892885  1
  O2-  O140  1  0.49086009  0.00062066  0.37938113  1
  O2-  O141  1  0.49081811  0.00221444  0.87627272  1
  O2-  O142  1  0.49803995  0.49632234  0.36590781  1
  O2-  O143  1  0.47808778  0.51261967  0.86610180  1
  O2-  O144  1  0.24959140  0.27015634  0.11864196  1
  O2-  O145  1  0.24876181  0.27537298  0.63417748  1
  O2-  O146  1  0.27983065  0.77041305  0.13349391  1
  O2-  O147  1  0.27482981  0.76577641  0.61988294  1
  O2-  O148  1  0.74720098  0.20848487  0.13931709  1
  O2-  O149  1  0.74894317  0.21688221  0.63522162  1
  O2-  O150  1  0.77039374  0.72993867  0.13416155  1
  O2-  O151  1  0.76068232  0.73769335  0.62247658  1
  O2-  O152  1  0.24674777  0.21639075  0.36300841  1
  O2-  O153  1  0.24722275  0.22989846  0.87894003  1
  O2-  O154  1  0.23405519  0.73399616  0.38435946  1
  O2-  O155  1  0.23264025  0.72991466  0.86089990  1
  O2-  O156  1  0.75804929  0.29013290  0.36392007  1
  O2-  O157  1  0.76713291  0.26846693  0.86609310  1
  O2-  O158  1  0.73808145  0.77730642  0.38549846  1
  O2-  O159  1  0.73326346  0.77946422  0.86346745  1
  O2-  O160  1  0.00800538  0.24228760  0.12572584  1
  O2-  O161  1  -0.00319248  0.24886456  0.62982506  1
  O2-  O162  1  -0.01954677  0.73669595  0.11636844  1
  O2-  O163  1  -0.01090066  0.71598279  0.61656650  1
  O2-  O164  1  0.50019595  0.24647811  0.12510809  1
  O2-  O165  1  0.52885531  0.25673351  0.61294031  1
  O2-  O166  1  0.46812272  0.74867346  0.11441184  1
  O2-  O167  1  0.48650126  0.74959974  0.62415984  1
  O2-  O168  1  0.26014368  0.02045819  0.38794071  1
  O2-  O169  1  0.26011675  0.03397001  0.88451447  1
  O2-  O170  1  0.25165212  0.52441158  0.38091548  1
  O2-  O171  1  0.26087055  0.51369839  0.88463728  1
  O2-  O172  1  0.76563211  -0.02342762  0.38992786  1
  O2-  O173  1  0.75735154  -0.01867182  0.87082742  1
  O2-  O174  1  0.77391244  0.48761329  0.38520995  1
  O2-  O175  1  0.76989673  0.47705142  0.88395484  1
  O2-  O176  1  0.00515764  0.25819697  0.37148889  1
  O2-  O177  1  0.00127949  0.26323674  0.87745583  1
  O2-  O178  1  0.01295923  0.78640434  0.39035383  1
  O2-  O179  1  0.03390694  0.74879103  0.88482536  1
  O2-  O180  1  0.48224975  0.23258673  0.36802200  1
  O2-  O181  1  0.49269855  0.23859165  0.88429682  1
  O2-  O182  1  0.51656708  0.76847616  0.38681580  1
  O2-  O183  1  0.52446195  0.75514792  0.86609461  1
  O2-  O184  1  0.24987380  -0.02112146  0.11347186  1
  O2-  O185  1  0.25116961  -0.02887319  0.61802942  1
  O2-  O186  1  0.24787262  0.46543513  0.11292831  1
  O2-  O187  1  0.24252088  0.47147754  0.61477889  1
  O2-  O188  1  0.72239427  0.01673031  0.11517224  1
  O2-  O189  1  0.71935406  0.00871252  0.63298678  1
  O2-  O190  1  0.74779184  0.53184918  0.11392619  1
  O2-  O191  1  0.72986720  0.52653649  0.61772209  1
  O2-  O192  1  0.12844628  0.27243243  0.24947830  1
  O2-  O193  1  0.11745435  0.26926495  0.75078039  1
  O2-  O194  1  0.13583698  0.77482430  0.23808281  1
  O2-  O195  1  0.13507687  0.78224813  0.72802344  1
  O2-  O196  1  0.62489264  0.26511329  0.25280398  1
  O2-  O197  1  0.63649462  0.26888814  0.76053841  1
  O2-  O198  1  0.63534615  0.77613228  0.23397781  1
  O2-  O199  1  0.62326860  0.76797638  0.72432544  1
  O2-  O200  1  0.37639862  0.22543070  0.23762534  1
  O2-  O201  1  0.36523202  0.21638377  0.74468794  1
  O2-  O202  1  0.36760655  0.72567101  0.27675362  1
  O2-  O203  1  0.38539418  0.73291911  0.75958820  1
  O2-  O204  1  0.88377520  0.23231143  0.25184278  1
  O2-  O205  1  0.87688802  0.22658786  0.74998420  1
  O2-  O206  1  0.86600377  0.73262663  0.28251104  1
  O2-  O207  1  0.86204798  0.73417443  0.76238068  1
  O2-  O208  1  0.28089897  0.35852428  0.26224253  1
  O2-  O209  1  0.26715488  0.36218133  0.77613931  1
  O2-  O210  1  0.26998098  0.86785067  0.27767176  1
  O2-  O211  1  0.28072628  0.86403160  0.76452947  1
  O2-  O212  1  0.76669785  0.36143959  0.21452811  1
  O2-  O213  1  0.76757235  0.36583889  0.71980429  1
  O2-  O214  1  0.77501970  0.86920079  0.23788882  1
  O2-  O215  1  0.75831925  0.87758451  0.73300063  1
  O2-  O216  1  0.23517273  0.13536295  0.21528295  1
  O2-  O217  1  0.21741338  0.13453500  0.73479686  1
  O2-  O218  1  0.23283066  0.63521857  0.22799481  1
  O2-  O219  1  0.23737041  0.63691527  0.71858806  1
  O2-  O220  1  0.74266759  0.13845317  0.29580555  1
  O2-  O221  1  0.73308933  0.11872677  0.77237768  1
  O2-  O222  1  0.72632803  0.63580083  0.27509007  1
  O2-  O223  1  0.72280273  0.63712174  0.76564864  1
  O2-  O224  1  0.11815021  0.46157332  0.25031187  1
  O2-  O225  1  0.11570650  0.46152253  0.76276107  1
  O2-  O226  1  0.11517430  0.98530791  0.27163686  1
  O2-  O227  1  0.10958315  0.98178645  0.78719984  1
  O2-  O228  1  0.62108335  0.47109148  0.25307936  1
  O2-  O229  1  0.61487270  0.47405785  0.77798038  1
  O2-  O230  1  0.61415097  0.98235384  0.26482469  1
  O2-  O231  1  0.62196123  0.98037567  0.76719902  1
  O2-  O232  1  0.38734911  0.03796455  0.24811026  1
  O2-  O233  1  0.38560491  0.01984107  0.74471707  1
  O2-  O234  1  0.38490364  0.51631615  0.24774902  1
  O2-  O235  1  0.38461028  0.52811753  0.72734629  1
  O2-  O236  1  0.88390310  0.03505065  0.23405310  1
  O2-  O237  1  0.86204774  0.01584731  0.72920725  1
  O2-  O238  1  0.89058677  0.51219990  0.22682108  1
  O2-  O239  1  0.88706067  0.52599186  0.74639594  1
  O2-  O240  1  0.48473323  0.36083849  0.25566056  1
  O2-  O241  1  0.46443248  0.38268990  0.74349743  1
  O2-  O242  1  0.46823912  0.88788009  0.24621235  1
  O2-  O243  1  0.48768574  0.87537899  0.74787128  1
  O2-  O244  1  0.98280458  0.36796450  0.23947061  1
  O2-  O245  1  0.97003248  0.36929449  0.75337225  1
  O2-  O246  1  0.97300368  0.88429214  0.23569588  1
  O2-  O247  1  0.97463913  0.88450583  0.74164086  1
  O2-  O248  1  0.02559039  0.13353972  0.25674344  1
  O2-  O249  1  0.01234093  0.13293098  0.76557963  1
  O2-  O250  1  0.03435486  0.61446306  0.25523326  1
  O2-  O251  1  0.04047082  0.61248185  0.75706176  1
  O2-  O252  1  0.52996964  0.12720285  0.24460453  1
  O2-  O253  1  0.52796586  0.11466521  0.74459597  1
  O2-  O254  1  0.52830563  0.61614135  0.23552079  1
  O2-  O255  1  0.52485939  0.63103115  0.74783868  1
  O2-  O256  1  0.12547205  0.47805705  -0.01380857  1
  O2-  O257  1  0.13166491  0.49021373  0.49157129  1
  O2-  O258  1  0.13361379  0.97729897  -0.01327380  1
  O2-  O259  1  0.13185580  0.97286365  0.48880549  1
  O2-  O260  1  0.63291319  0.47244277  -0.00685770  1
  O2-  O261  1  0.63608938  0.48880722  0.47820577  1
  O2-  O262  1  0.61601355  0.98219820  -0.00876937  1
  O2-  O263  1  0.61926077  0.97353680  0.49292783  1
  O2-  O264  1  0.37813356  0.01802379  0.00995019  1
  O2-  O265  1  0.38006123  0.01204673  0.51000481  1
  O2-  O266  1  0.36552684  0.53464608  0.01514717  1
  O2-  O267  1  0.36635449  0.52405074  0.51118320  1
  O2-  O268  1  0.86179780  0.03395037  0.01437929  1
  O2-  O269  1  0.85907817  0.01129381  0.53233367  1
  O2-  O270  1  0.88555357  0.51234300  0.00863954  1
  O2-  O271  1  0.86438454  0.53291059  0.51580623  1
  O2-  O272  1  0.46438680  0.36443274  -0.00128141  1
  O2-  O273  1  0.46663817  0.36325768  0.49615339  1
  O2-  O274  1  0.47658997  0.88105920  -0.00125764  1
  O2-  O275  1  0.48218450  0.87690841  0.50982655  1
  O2-  O276  1  0.99100955  0.37346827  0.00790359  1
  O2-  O277  1  0.96266608  0.36473450  0.49755394  1
  O2-  O278  1  0.96989880  0.86797953  -0.00026482  1
  O2-  O279  1  0.98821692  0.86534956  0.53847486  1
  O2-  O280  1  0.03363123  0.13681698  -0.01011002  1
  O2-  O281  1  0.03382430  0.13506256  0.49394880  1
  O2-  O282  1  0.02350254  0.61840520  -0.00238256  1
  O2-  O283  1  0.02108025  0.63907503  0.47520996  1
  O2-  O284  1  0.51222766  0.12118632  0.00227716  1
  O2-  O285  1  0.52142797  0.11502470  0.50471919  1
  O2-  O286  1  0.53639614  0.63541017  0.00521019  1
  O2-  O287  1  0.52044830  0.63689799  0.49759838  1
  O2-  O288  1  0.12946022  0.27121875  0.00008898  1
  O2-  O289  1  0.11387648  0.28359143  0.50538738  1
  O2-  O290  1  0.11807186  0.77439502  0.02566828  1
  O2-  O291  1  0.13082092  0.76749023  0.52194232  1
  O2-  O292  1  0.61280595  0.27121041  0.00288933  1
  O2-  O293  1  0.61082387  0.25800041  0.46612976  1
  O2-  O294  1  0.61288625  0.78424889  0.01728550  1
  O2-  O295  1  0.62438313  0.76794327  0.51929499  1
  O2-  O296  1  0.37063182  0.22579159  0.00491883  1
  O2-  O297  1  0.38622660  0.21291908  0.51009802  1
  O2-  O298  1  0.39080011  0.73510986  -0.03739246  1
  O2-  O299  1  0.37899375  0.73705712  0.48652014  1
  O2-  O300  1  0.88976515  0.23001262  0.00350659  1
  O2-  O301  1  0.88554560  0.21213440  0.49558201  1
  O2-  O302  1  0.88508506  0.72529225  -0.02524965  1
  O2-  O303  1  0.87186831  0.74261780  0.48676727  1
  O2-  O304  1  0.26890053  0.36851142  -0.02105672  1
  O2-  O305  1  0.27187633  0.38195434  0.47076043  1
  O2-  O306  1  0.27289887  0.88412280  -0.03085092  1
  O2-  O307  1  0.26815265  0.87020348  0.48154815  1
  O2-  O308  1  0.77164956  0.38180385  0.02237777  1
  O2-  O309  1  0.76259895  0.38215612  0.53323661  1
  O2-  O310  1  0.76802614  0.88731907  0.01178429  1
  O2-  O311  1  0.75402248  0.87477836  0.52677553  1
  O2-  O312  1  0.23377855  0.12862679  0.01872985  1
  O2-  O313  1  0.23216134  0.11194260  0.52972583  1
  O2-  O314  1  0.21893297  0.61618229  0.02130710  1
  O2-  O315  1  0.23755660  0.63231631  0.51863639  1
  O2-  O316  1  0.72161621  0.11606370  -0.02946645  1
  O2-  O317  1  0.71931776  0.11034414  0.49023432  1
  O2-  O318  1  0.73573156  0.61427608  -0.03049101  1
  O2-  O319  1  0.73174955  0.63753947  0.48217340  1
