# generated using pymatgen
data_Sr64Ca21Nb43O192
_symmetry_space_group_name_H-M   'P 1'
_cell_length_a   16.56768234
_cell_length_b   16.58393478
_cell_length_c   16.75798659
_cell_angle_alpha   90.02543023
_cell_angle_beta   89.98809037
_cell_angle_gamma   89.95547720
_symmetry_Int_Tables_number   1
_chemical_formula_structural   Sr64Ca21Nb43O192
_chemical_formula_sum   'Sr64 Ca21 Nb43 O192'
_cell_volume   4604.37826677
_cell_formula_units_Z   1
loop_
 _symmetry_equiv_pos_site_id
 _symmetry_equiv_pos_as_xyz
  1  'x, y, z'
loop_
 _atom_type_symbol
 _atom_type_oxidation_number
  Sr2+  2.0
  Ca2+  2.0
  Nb5+  5.0
  O2-  -2.0
loop_
 _atom_site_type_symbol
 _atom_site_label
 _atom_site_symmetry_multiplicity
 _atom_site_fract_x
 _atom_site_fract_y
 _atom_site_fract_z
 _atom_site_occupancy
  Sr2+  Sr0  1  0.12198046  0.12480593  0.12477366  1
  Sr2+  Sr1  1  0.12003998  0.15401663  0.62465841  1
  Sr2+  Sr2  1  0.11923103  0.61328321  0.12368096  1
  Sr2+  Sr3  1  0.12296146  0.63158646  0.62484103  1
  Sr2+  Sr4  1  0.62279743  0.14046932  0.12854403  1
  Sr2+  Sr5  1  0.63888315  0.13612130  0.62345908  1
  Sr2+  Sr6  1  0.62334908  0.61837294  0.12264629  1
  Sr2+  Sr7  1  0.62593821  0.62896419  0.62074226  1
  Sr2+  Sr8  1  0.37365280  0.37742048  0.12290174  1
  Sr2+  Sr9  1  0.37559428  0.39411840  0.63261349  1
  Sr2+  Sr10  1  0.36885674  0.88484748  0.11338694  1
  Sr2+  Sr11  1  0.37082674  0.87915965  0.62901927  1
  Sr2+  Sr12  1  0.88356931  0.38291434  0.12950629  1
  Sr2+  Sr13  1  0.88185887  0.36265891  0.61711771  1
  Sr2+  Sr14  1  0.88297817  0.89714853  0.12455049  1
  Sr2+  Sr15  1  0.88190654  0.87243358  0.62686526  1
  Sr2+  Sr16  1  0.12996691  0.36430442  0.38208965  1
  Sr2+  Sr17  1  0.13922962  0.37151460  0.87413845  1
  Sr2+  Sr18  1  0.14800367  0.87423896  0.37518401  1
  Sr2+  Sr19  1  0.10474348  0.87197221  0.87831160  1
  Sr2+  Sr20  1  0.61653017  0.37768415  0.37377320  1
  Sr2+  Sr21  1  0.61971568  0.36942745  0.86394868  1
  Sr2+  Sr22  1  0.63678828  0.87485053  0.38094182  1
  Sr2+  Sr23  1  0.61554779  0.87904303  0.86892539  1
  Sr2+  Sr24  1  0.37353152  0.12287544  0.36561348  1
  Sr2+  Sr25  1  0.37622799  0.12037197  0.88416000  1
  Sr2+  Sr26  1  0.37955047  0.62659745  0.36294520  1
  Sr2+  Sr27  1  0.37635489  0.62323675  0.89246826  1
  Sr2+  Sr28  1  0.87009087  0.11348128  0.37137494  1
  Sr2+  Sr29  1  0.85724417  0.11414721  0.87356334  1
  Sr2+  Sr30  1  0.86094649  0.62498722  0.36843482  1
  Sr2+  Sr31  1  0.87266363  0.62121459  0.88395643  1
  Sr2+  Sr32  1  0.11578303  0.11789627  0.37756630  1
  Sr2+  Sr33  1  0.13461988  0.12537943  0.87288962  1
  Sr2+  Sr34  1  0.14338408  0.62927471  0.36460487  1
  Sr2+  Sr35  1  0.11484793  0.61552983  0.87936148  1
  Sr2+  Sr36  1  0.60986690  0.11820484  0.37859497  1
  Sr2+  Sr37  1  0.62434492  0.12325234  0.86212168  1
  Sr2+  Sr38  1  0.62156749  0.62301640  0.37049454  1
  Sr2+  Sr39  1  0.61504299  0.63756274  0.87911463  1
  Sr2+  Sr40  1  0.38204710  0.36501131  0.37068089  1
  Sr2+  Sr41  1  0.37127897  0.35313386  0.88024479  1
  Sr2+  Sr42  1  0.37536759  0.88993136  0.38241095  1
  Sr2+  Sr43  1  0.37785495  0.85536713  0.86963948  1
  Sr2+  Sr44  1  0.86991060  0.36969640  0.37144883  1
  Sr2+  Sr45  1  0.87896316  0.36002337  0.87803435  1
  Sr2+  Sr46  1  0.88376523  0.87176111  0.37113722  1
  Sr2+  Sr47  1  0.87241286  0.87746696  0.87917274  1
  Sr2+  Sr48  1  0.11870971  0.37892226  0.11754490  1
  Sr2+  Sr49  1  0.12489901  0.38387456  0.62644063  1
  Sr2+  Sr50  1  0.12027826  0.88753129  0.13118401  1
  Sr2+  Sr51  1  0.12180860  0.87414072  0.62823009  1
  Sr2+  Sr52  1  0.64149977  0.37635440  0.12822782  1
  Sr2+  Sr53  1  0.63558555  0.38402489  0.62491804  1
  Sr2+  Sr54  1  0.63826896  0.87466165  0.10782769  1
  Sr2+  Sr55  1  0.63125698  0.87628891  0.62636292  1
  Sr2+  Sr56  1  0.36993373  0.13270017  0.12163758  1
  Sr2+  Sr57  1  0.37454805  0.13261161  0.62412218  1
  Sr2+  Sr58  1  0.35365918  0.62591816  0.12560668  1
  Sr2+  Sr59  1  0.36339342  0.62450346  0.62359276  1
  Sr2+  Sr60  1  0.88245566  0.13149885  0.12789085  1
  Sr2+  Sr61  1  0.88532122  0.12774921  0.62930119  1
  Sr2+  Sr62  1  0.88239737  0.62069950  0.12802644  1
  Sr2+  Sr63  1  0.87365092  0.62591887  0.62138140  1
  Ca2+  Ca64  1  -0.00226583  0.00355763  -0.00413831  1
  Ca2+  Ca65  1  0.50285384  0.49659758  0.00001761  1
  Ca2+  Ca66  1  -0.00307856  0.50360232  0.49756553  1
  Ca2+  Ca67  1  0.50057378  0.00050123  -0.00036934  1
  Ca2+  Ca68  1  -0.00009929  -0.00169681  0.50257562  1
  Ca2+  Ca69  1  0.75029351  0.24852287  0.00003575  1
  Ca2+  Ca70  1  0.75246565  0.74892476  -0.00190627  1
  Ca2+  Ca71  1  0.75073329  0.24756962  0.49448024  1
  Ca2+  Ca72  1  0.25280760  0.25158463  0.49859254  1
  Ca2+  Ca73  1  0.24474933  0.74915974  -0.00342066  1
  Ca2+  Ca74  1  0.75485275  0.50321868  0.74960599  1
  Ca2+  Ca75  1  0.00238945  0.25166803  0.25088794  1
  Ca2+  Ca76  1  0.24895685  0.00072437  0.75004189  1
  Ca2+  Ca77  1  0.25042128  0.49644670  0.25148132  1
  Ca2+  Ca78  1  0.25237092  0.00170017  0.24917235  1
  Ca2+  Ca79  1  0.74590713  0.00221635  0.25244118  1
  Ca2+  Ca80  1  0.50195239  0.75160530  0.25210995  1
  Ca2+  Ca81  1  0.25031856  0.50379020  0.75272355  1
  Ca2+  Ca82  1  0.49839988  0.25021138  0.74643237  1
  Ca2+  Ca83  1  0.00127693  0.74936289  0.25013204  1
  Ca2+  Ca84  1  0.00076473  0.25270387  0.75288402  1
  Nb5+  Nb85  1  -0.00294540  0.49643289  -0.00043936  1
  Nb5+  Nb86  1  0.49959813  0.50627465  0.50080076  1
  Nb5+  Nb87  1  0.49904398  0.00477243  0.50666394  1
  Nb5+  Nb88  1  0.75482482  0.75118895  0.50033133  1
  Nb5+  Nb89  1  0.24730435  0.24673198  0.00267093  1
  Nb5+  Nb90  1  0.25690660  0.74876178  0.50169193  1
  Nb5+  Nb91  1  0.50177727  0.24897936  0.25052797  1
  Nb5+  Nb92  1  0.74967307  0.49979460  0.24763362  1
  Nb5+  Nb93  1  -0.00911974  0.74704200  0.75102917  1
  Nb5+  Nb94  1  0.49564343  0.74790948  0.74514280  1
  Nb5+  Nb95  1  0.74935062  -0.00306736  0.74670433  1
  Nb5+  Nb96  1  0.00007617  0.00086595  0.25220035  1
  Nb5+  Nb97  1  0.00255425  0.00020335  0.75096499  1
  Nb5+  Nb98  1  0.00140868  0.50095208  0.25920006  1
  Nb5+  Nb99  1  -0.00490024  0.49822164  0.74892179  1
  Nb5+  Nb100  1  0.50247682  -0.00701935  0.24684926  1
  Nb5+  Nb101  1  0.49986090  0.00388862  0.74350156  1
  Nb5+  Nb102  1  0.50332463  0.49932578  0.24458679  1
  Nb5+  Nb103  1  0.50146612  0.50126044  0.75539036  1
  Nb5+  Nb104  1  0.24619628  0.25156717  0.24842991  1
  Nb5+  Nb105  1  0.25487858  0.25326418  0.74377398  1
  Nb5+  Nb106  1  0.25156777  0.75420406  0.24323034  1
  Nb5+  Nb107  1  0.24306023  0.75094125  0.75154942  1
  Nb5+  Nb108  1  0.75065685  0.24540804  0.25712910  1
  Nb5+  Nb109  1  0.75389040  0.25607162  0.74555272  1
  Nb5+  Nb110  1  0.74609784  0.75165754  0.24186086  1
  Nb5+  Nb111  1  0.74484188  0.74989536  0.75021642  1
  Nb5+  Nb112  1  0.00011610  0.25022280  0.49483096  1
  Nb5+  Nb113  1  0.00098511  0.24511331  0.99539164  1
  Nb5+  Nb114  1  0.00465738  0.74800813  0.49648992  1
  Nb5+  Nb115  1  0.00052852  0.74802299  1.00332993  1
  Nb5+  Nb116  1  0.49715270  0.25968008  0.50387770  1
  Nb5+  Nb117  1  0.50396275  0.24998478  1.00152260  1
  Nb5+  Nb118  1  0.50235319  0.75552018  0.50079126  1
  Nb5+  Nb119  1  0.50297663  0.75176974  1.00841826  1
  Nb5+  Nb120  1  0.25024712  -0.00727932  -0.00502629  1
  Nb5+  Nb121  1  0.24662246  0.00317759  0.50777156  1
  Nb5+  Nb122  1  0.25002781  0.50043182  0.00222738  1
  Nb5+  Nb123  1  0.24780043  0.49770461  0.49346027  1
  Nb5+  Nb124  1  0.74452067  0.00492111  0.00697804  1
  Nb5+  Nb125  1  0.75101773  0.00071194  0.50182008  1
  Nb5+  Nb126  1  0.74947674  0.49139365  -0.00801694  1
  Nb5+  Nb127  1  0.75058684  0.50096617  0.49915381  1
  O2-  O128  1  0.01302822  -0.00313504  0.13047602  1
  O2-  O129  1  0.00023754  -0.02660453  0.63727980  1
  O2-  O130  1  0.01005531  0.48916194  0.12176893  1
  O2-  O131  1  0.01236927  0.49332103  0.63526593  1
  O2-  O132  1  0.52407939  -0.02354534  0.13720306  1
  O2-  O133  1  0.51175325  -0.02922449  0.62345851  1
  O2-  O134  1  0.52690132  0.48232179  0.13434973  1
  O2-  O135  1  0.51618760  0.48144753  0.61611767  1
  O2-  O136  1  -0.02231070  0.00601223  0.36889213  1
  O2-  O137  1  -0.03347507  0.00319716  0.86264975  1
  O2-  O138  1  -0.02756894  0.52141509  0.36634234  1
  O2-  O139  1  -0.01712061  0.50927810  0.88144836  1
  O2-  O140  1  0.47867131  0.01437482  0.39099027  1
  O2-  O141  1  0.49775840  0.01881006  0.85951346  1
  O2-  O142  1  0.48984273  0.50939062  0.37954592  1
  O2-  O143  1  0.49621079  0.53052362  0.86493346  1
  O2-  O144  1  0.27448037  0.26528978  0.11953670  1
  O2-  O145  1  0.28209737  0.26868039  0.63323143  1
  O2-  O146  1  0.24422649  0.78137502  0.13213587  1
  O2-  O147  1  0.23408931  0.76699825  0.61976168  1
  O2-  O148  1  0.75858607  0.22464314  0.13902265  1
  O2-  O149  1  0.77249967  0.22576976  0.63024074  1
  O2-  O150  1  0.72177152  0.73084181  0.13270260  1
  O2-  O151  1  0.73906985  0.73385348  0.62427525  1
  O2-  O152  1  0.23024784  0.22998107  0.36164022  1
  O2-  O153  1  0.23193516  0.24125542  0.88358394  1
  O2-  O154  1  0.26143302  0.72804161  0.38598377  1
  O2-  O155  1  0.27277188  0.73032400  0.86035013  1
  O2-  O156  1  0.73372543  0.28885270  0.36542890  1
  O2-  O157  1  0.72823718  0.26733771  0.86245376  1
  O2-  O158  1  0.76649500  0.77206088  0.38602797  1
  O2-  O159  1  0.76940032  0.76668335  0.86098668  1
  O2-  O160  1  -0.01662853  0.25400312  0.11310569  1
  O2-  O161  1  -0.02075256  0.24893007  0.61680819  1
  O2-  O162  1  0.02956794  0.75588558  0.11342351  1
  O2-  O163  1  0.01308628  0.76529951  0.63347073  1
  O2-  O164  1  0.47951816  0.26128790  0.13477916  1
  O2-  O165  1  0.46670422  0.26666053  0.61394214  1
  O2-  O166  1  0.52438028  0.76934486  0.11845023  1
  O2-  O167  1  0.51479333  0.76169537  0.62401283  1
  O2-  O168  1  0.27188804  0.01234194  0.39055701  1
  O2-  O169  1  0.25782761  0.03234545  0.88322560  1
  O2-  O170  1  0.26795847  0.53425914  0.38374313  1
  O2-  O171  1  0.25280875  0.52440919  0.88675137  1
  O2-  O172  1  0.76594054  -0.02926203  0.38970943  1
  O2-  O173  1  0.76025637  -0.01893475  0.86285618  1
  O2-  O174  1  0.76179235  0.48926321  0.37420631  1
  O2-  O175  1  0.77707229  0.47282376  0.88307388  1
  O2-  O176  1  0.03570426  0.24919728  0.38203123  1
  O2-  O177  1  0.03125853  0.26538825  0.88394284  1
  O2-  O178  1  -0.01787496  0.72957040  0.38708516  1
  O2-  O179  1  -0.02197714  0.73416294  0.86877150  1
  O2-  O180  1  0.52224238  0.24586504  0.37334305  1
  O2-  O181  1  0.52100291  0.23756170  0.88710342  1
  O2-  O182  1  0.48922623  0.72979153  0.39055544  1
  O2-  O183  1  0.48745969  0.73429445  0.86226245  1
  O2-  O184  1  0.23976466  -0.02214736  0.11489680  1
  O2-  O185  1  0.24173606  -0.03452343  0.61727291  1
  O2-  O186  1  0.22916030  0.47976264  0.11814753  1
  O2-  O187  1  0.24450756  0.48025812  0.61193015  1
  O2-  O188  1  0.72136728  0.02340965  0.11755328  1
  O2-  O189  1  0.72713396  0.00708315  0.62290986  1
  O2-  O190  1  0.73204282  0.51514680  0.13109516  1
  O2-  O191  1  0.73277304  0.52349303  0.61241407  1
  O2-  O192  1  0.13717806  0.27741570  0.22595759  1
  O2-  O193  1  0.13572800  0.27716489  0.73105966  1
  O2-  O194  1  0.13643626  0.76273891  0.27678970  1
  O2-  O195  1  0.12820158  0.77093078  0.76220839  1
  O2-  O196  1  0.62296200  0.26557464  0.23187065  1
  O2-  O197  1  0.63375714  0.26298038  0.72450279  1
  O2-  O198  1  0.63714768  0.75747350  0.28576543  1
  O2-  O199  1  0.62771530  0.77161183  0.75525486  1
  O2-  O200  1  0.38390098  0.23584768  0.26803394  1
  O2-  O201  1  0.36709203  0.22576509  0.77792808  1
  O2-  O202  1  0.36727177  0.72189917  0.24347530  1
  O2-  O203  1  0.38212558  0.73666457  0.72648666  1
  O2-  O204  1  0.86592862  0.23502450  0.27123832  1
  O2-  O205  1  0.86601215  0.22769169  0.77465100  1
  O2-  O206  1  0.86052125  0.72526082  0.24782513  1
  O2-  O207  1  0.87519282  0.73625494  0.72936394  1
  O2-  O208  1  0.28242149  0.36421763  0.25994334  1
  O2-  O209  1  0.27024442  0.36919150  0.77308012  1
  O2-  O210  1  0.27353810  0.86594411  0.27676054  1
  O2-  O211  1  0.27891537  0.86316872  0.75477217  1
  O2-  O212  1  0.76430255  0.38005358  0.23128294  1
  O2-  O213  1  0.77103455  0.36799436  0.72303526  1
  O2-  O214  1  0.75928309  0.86628882  0.22404547  1
  O2-  O215  1  0.76252834  0.87404196  0.72620706  1
  O2-  O216  1  0.24457700  0.13645427  0.22061277  1
  O2-  O217  1  0.22575900  0.13711891  0.73486529  1
  O2-  O218  1  0.22892561  0.63351446  0.23102398  1
  O2-  O219  1  0.24028711  0.63747133  0.72031729  1
  O2-  O220  1  0.72948066  0.13600532  0.28786395  1
  O2-  O221  1  0.73267816  0.11574563  0.75852957  1
  O2-  O222  1  0.73382396  0.61962309  0.26848793  1
  O2-  O223  1  0.72690902  0.63695979  0.76503958  1
  O2-  O224  1  0.11450366  0.48320357  0.27843156  1
  O2-  O225  1  0.11144843  0.48633002  0.77246583  1
  O2-  O226  1  0.11754167  0.97291268  0.26604359  1
  O2-  O227  1  0.11353044  0.97426849  0.76862216  1
  O2-  O228  1  0.62902860  0.48239357  0.26801023  1
  O2-  O229  1  0.61830452  0.47775604  0.75159836  1
  O2-  O230  1  0.61258548  0.99360930  0.28860832  1
  O2-  O231  1  0.62632857  0.97870228  0.75349812  1
  O2-  O232  1  0.38949904  0.02714516  0.23874221  1
  O2-  O233  1  0.38602578  0.01573334  0.72729542  1
  O2-  O234  1  0.38886557  0.51502925  0.23196305  1
  O2-  O235  1  0.38898230  0.51945039  0.72467278  1
  O2-  O236  1  0.87956921  0.02735875  0.23256893  1
  O2-  O237  1  0.86662735  0.01108189  0.72944805  1
  O2-  O238  1  0.86736114  0.51612240  0.23643619  1
  O2-  O239  1  0.88679389  0.54633072  0.74789427  1
  O2-  O240  1  0.49342325  0.37540285  0.26711396  1
  O2-  O241  1  0.48070915  0.38661133  0.77185844  1
  O2-  O242  1  0.47866437  0.88439080  0.27324818  1
  O2-  O243  1  0.48829330  0.87050018  0.75986092  1
  O2-  O244  1  0.97276280  0.38635992  0.25468455  1
  O2-  O245  1  0.96153409  0.38802840  0.75391828  1
  O2-  O246  1  0.97047671  0.88178446  0.24826173  1
  O2-  O247  1  0.98233299  0.86626888  0.76827798  1
  O2-  O248  1  0.02984081  0.11803990  0.24905279  1
  O2-  O249  1  0.01881118  0.11414546  0.73859080  1
  O2-  O250  1  0.00974535  0.61444765  0.22678449  1
  O2-  O251  1  0.02881619  0.63371186  0.74612208  1
  O2-  O252  1  0.52145987  0.13064142  0.24577523  1
  O2-  O253  1  0.52396373  0.11460832  0.72064100  1
  O2-  O254  1  0.52732069  0.61336955  0.24605738  1
  O2-  O255  1  0.52502825  0.63077551  0.73225655  1
  O2-  O256  1  0.11856637  0.48327097  -0.01300612  1
  O2-  O257  1  0.13321637  0.49093569  0.48000470  1
  O2-  O258  1  0.13196042  0.97892197  -0.01528021  1
  O2-  O259  1  0.13544596  0.98084468  0.48495554  1
  O2-  O260  1  0.63630182  0.46599274  -0.01882468  1
  O2-  O261  1  0.62312017  0.49467163  0.48233483  1
  O2-  O262  1  0.63294482  0.97140723  -0.01719707  1
  O2-  O263  1  0.61590522  0.98051178  0.49111035  1
  O2-  O264  1  0.36612395  0.02045905  0.01687399  1
  O2-  O265  1  0.37849518  0.00238647  0.52669463  1
  O2-  O266  1  0.36590566  0.51378686  0.01714528  1
  O2-  O267  1  0.38166377  0.50864090  0.51517786  1
  O2-  O268  1  0.86322333  0.02767412  0.01551956  1
  O2-  O269  1  0.86219706  0.02100486  0.52029829  1
  O2-  O270  1  0.87686590  0.51561492  0.01737678  1
  O2-  O271  1  0.86135747  0.53021328  0.50446154  1
  O2-  O272  1  0.47030291  0.36309169  -0.00372017  1
  O2-  O273  1  0.49214658  0.37541242  0.48423381  1
  O2-  O274  1  0.47316218  0.86505407  -0.01604981  1
  O2-  O275  1  0.48449634  0.86974224  0.49032640  1
  O2-  O276  1  0.98169074  0.37767422  -0.00243621  1
  O2-  O277  1  0.97171650  0.36901488  0.49171415  1
  O2-  O278  1  0.98097193  0.86308393  -0.01077020  1
  O2-  O279  1  0.97380427  0.86166552  0.49784704  1
  O2-  O280  1  0.03251690  0.13472769  -0.00373797  1
  O2-  O281  1  0.02863620  0.13209852  0.50494681  1
  O2-  O282  1  0.01624403  0.61801878  0.00625188  1
  O2-  O283  1  0.00348196  0.63734986  0.53231875  1
  O2-  O284  1  0.50432141  0.13495468  0.02886207  1
  O2-  O285  1  0.51009599  0.11968418  0.52302478  1
  O2-  O286  1  0.52731649  0.63308540  0.00599452  1
  O2-  O287  1  0.50960169  0.62323043  0.51679417  1
  O2-  O288  1  0.13037108  0.26866608  0.02145276  1
  O2-  O289  1  0.12007164  0.27893917  0.52379772  1
  O2-  O290  1  0.11282818  0.74937156  -0.03772245  1
  O2-  O291  1  0.12255172  0.75967593  0.48843036  1
  O2-  O292  1  0.61489227  0.26612359  0.02811526  1
  O2-  O293  1  0.61343926  0.25645074  0.52157438  1
  O2-  O294  1  0.61684708  0.77083124  -0.02689026  1
  O2-  O295  1  0.62077362  0.76259881  0.49529685  1
  O2-  O296  1  0.36926664  0.23246247  -0.01452615  1
  O2-  O297  1  0.38763399  0.23111428  0.46912459  1
  O2-  O298  1  0.38523136  0.72356041  0.01002930  1
  O2-  O299  1  0.37481421  0.74022745  0.52032970  1
  O2-  O300  1  0.88732733  0.22983048  -0.02726584  1
  O2-  O301  1  0.88483430  0.22614854  0.47034996  1
  O2-  O302  1  0.88584153  0.71993341  0.01206343  1
  O2-  O303  1  0.86858425  0.73765959  0.51771264  1
  O2-  O304  1  0.26028204  0.37579156  -0.01497339  1
  O2-  O305  1  0.26636592  0.38578205  0.46696624  1
  O2-  O306  1  0.27419390  0.88173910  -0.02605442  1
  O2-  O307  1  0.26357043  0.86648612  0.48323288  1
  O2-  O308  1  0.77225359  0.38143304  0.03121303  1
  O2-  O309  1  0.76119875  0.38715084  0.51807254  1
  O2-  O310  1  0.77383039  0.88656988  0.01770856  1
  O2-  O311  1  0.75141288  0.87119564  0.52390300  1
  O2-  O312  1  0.23105822  0.13102759  0.01762962  1
  O2-  O313  1  0.24142813  0.11593868  0.53197718  1
  O2-  O314  1  0.23194533  0.61622056  0.02469159  1
  O2-  O315  1  0.23985128  0.62841489  0.52122837  1
  O2-  O316  1  0.72797444  0.11518563  -0.03405558  1
  O2-  O317  1  0.72196335  0.11085520  0.48234685  1
  O2-  O318  1  0.73274881  0.60946991  -0.01716848  1
  O2-  O319  1  0.72985463  0.63488781  0.48062465  1
