# generated using pymatgen
data_Sr64Ca21Nb43O192
_symmetry_space_group_name_H-M   'P 1'
_cell_length_a   16.56387367
_cell_length_b   16.59557348
_cell_length_c   16.72978083
_cell_angle_alpha   90.02893564
_cell_angle_beta   90.00419766
_cell_angle_gamma   90.01872621
_symmetry_Int_Tables_number   1
_chemical_formula_structural   Sr64Ca21Nb43O192
_chemical_formula_sum   'Sr64 Ca21 Nb43 O192'
_cell_volume   4598.79812675
_cell_formula_units_Z   1
loop_
 _symmetry_equiv_pos_site_id
 _symmetry_equiv_pos_as_xyz
  1  'x, y, z'
loop_
 _atom_type_symbol
 _atom_type_oxidation_number
  Sr2+  2.0
  Ca2+  2.0
  Nb5+  5.0
  O2-  -2.0
loop_
 _atom_site_type_symbol
 _atom_site_label
 _atom_site_symmetry_multiplicity
 _atom_site_fract_x
 _atom_site_fract_y
 _atom_site_fract_z
 _atom_site_occupancy
  Sr2+  Sr0  1  0.11204212  0.12575289  0.12215378  1
  Sr2+  Sr1  1  0.11803315  0.12610427  0.62681041  1
  Sr2+  Sr2  1  0.12084864  0.60906194  0.12816766  1
  Sr2+  Sr3  1  0.11873770  0.61423343  0.62332883  1
  Sr2+  Sr4  1  0.62450320  0.12037290  0.12702233  1
  Sr2+  Sr5  1  0.62504240  0.12776104  0.61912261  1
  Sr2+  Sr6  1  0.63389830  0.61270033  0.12126553  1
  Sr2+  Sr7  1  0.62525389  0.60985104  0.63086671  1
  Sr2+  Sr8  1  0.37216853  0.36659012  0.13523042  1
  Sr2+  Sr9  1  0.35943550  0.36152636  0.62508882  1
  Sr2+  Sr10  1  0.37310964  0.86182608  0.12444621  1
  Sr2+  Sr11  1  0.37541956  0.87209807  0.61371631  1
  Sr2+  Sr12  1  0.88367592  0.36923027  0.12688008  1
  Sr2+  Sr13  1  0.86538217  0.37397371  0.62282636  1
  Sr2+  Sr14  1  0.87413552  0.86865197  0.12579560  1
  Sr2+  Sr15  1  0.88060941  0.87080312  0.62762508  1
  Sr2+  Sr16  1  0.13784662  0.39162711  0.37336792  1
  Sr2+  Sr17  1  0.13686277  0.38189162  0.87093856  1
  Sr2+  Sr18  1  0.12114950  0.87569833  0.37555291  1
  Sr2+  Sr19  1  0.14350174  0.87762800  0.87391559  1
  Sr2+  Sr20  1  0.61664143  0.37324516  0.36996822  1
  Sr2+  Sr21  1  0.62352768  0.38535824  0.87727610  1
  Sr2+  Sr22  1  0.61722085  0.88649204  0.37139639  1
  Sr2+  Sr23  1  0.62375161  0.88021052  0.87391241  1
  Sr2+  Sr24  1  0.37477845  0.12633296  0.37381794  1
  Sr2+  Sr25  1  0.36686750  0.11970897  0.87261913  1
  Sr2+  Sr26  1  0.37019056  0.62153246  0.37197782  1
  Sr2+  Sr27  1  0.38529743  0.63625442  0.87483606  1
  Sr2+  Sr28  1  0.86414189  0.13240639  0.37352086  1
  Sr2+  Sr29  1  0.88331661  0.12996287  0.89717547  1
  Sr2+  Sr30  1  0.88798539  0.62924362  0.38350077  1
  Sr2+  Sr31  1  0.88531079  0.63092450  0.87255566  1
  Sr2+  Sr32  1  0.12730974  0.13109882  0.37593022  1
  Sr2+  Sr33  1  0.12969490  0.14553956  0.87352852  1
  Sr2+  Sr34  1  0.12765950  0.61912921  0.36503448  1
  Sr2+  Sr35  1  0.13033532  0.63198334  0.87476105  1
  Sr2+  Sr36  1  0.62091966  0.13350750  0.37137710  1
  Sr2+  Sr37  1  0.61502508  0.13872395  0.87863022  1
  Sr2+  Sr38  1  0.62101088  0.61849274  0.37322165  1
  Sr2+  Sr39  1  0.62875100  0.62312698  0.87297192  1
  Sr2+  Sr40  1  0.38103606  0.39656440  0.37642188  1
  Sr2+  Sr41  1  0.37328045  0.35576729  0.86934888  1
  Sr2+  Sr42  1  0.37611606  0.86835665  0.37172280  1
  Sr2+  Sr43  1  0.38093506  0.88305662  0.87466431  1
  Sr2+  Sr44  1  0.87272627  0.38105525  0.37631165  1
  Sr2+  Sr45  1  0.88174794  0.38596937  0.88056108  1
  Sr2+  Sr46  1  0.87700775  0.88526322  0.37269069  1
  Sr2+  Sr47  1  0.87528965  0.86885094  0.87509447  1
  Sr2+  Sr48  1  0.11636645  0.37366145  0.12243480  1
  Sr2+  Sr49  1  0.12022436  0.36474122  0.62793871  1
  Sr2+  Sr50  1  0.13258240  0.86609016  0.13249812  1
  Sr2+  Sr51  1  0.11706487  0.87729215  0.62426545  1
  Sr2+  Sr52  1  0.62444217  0.36703838  0.11917364  1
  Sr2+  Sr53  1  0.63163845  0.36975176  0.63653024  1
  Sr2+  Sr54  1  0.63666215  0.87296472  0.12998988  1
  Sr2+  Sr55  1  0.62826272  0.87080812  0.61913456  1
  Sr2+  Sr56  1  0.36270972  0.11416608  0.12603861  1
  Sr2+  Sr57  1  0.34969653  0.11768680  0.62479950  1
  Sr2+  Sr58  1  0.36597625  0.61209352  0.12092968  1
  Sr2+  Sr59  1  0.37177333  0.61446053  0.61938547  1
  Sr2+  Sr60  1  0.87167675  0.11471340  0.12922242  1
  Sr2+  Sr61  1  0.88035530  0.12437194  0.62130747  1
  Sr2+  Sr62  1  0.88695404  0.62248591  0.12238417  1
  Sr2+  Sr63  1  0.87019154  0.62463397  0.62904406  1
  Ca2+  Ca64  1  0.00177231  0.49968284  -0.00185244  1
  Ca2+  Ca65  1  0.49468465  0.49996718  -0.00118002  1
  Ca2+  Ca66  1  0.50314696  0.49877892  0.50332663  1
  Ca2+  Ca67  1  0.00142282  0.49970468  0.50268816  1
  Ca2+  Ca68  1  -0.00012450  -0.00393258  -0.00118435  1
  Ca2+  Ca69  1  0.24915207  0.75125517  0.50370854  1
  Ca2+  Ca70  1  0.75004342  0.75340195  0.49973605  1
  Ca2+  Ca71  1  0.75086584  0.24848652  0.00262350  1
  Ca2+  Ca72  1  0.24935228  0.24979076  0.49367754  1
  Ca2+  Ca73  1  0.24856924  0.24990765  0.00514022  1
  Ca2+  Ca74  1  0.25214180  0.49544614  0.24684320  1
  Ca2+  Ca75  1  0.50296427  0.74979157  0.24601355  1
  Ca2+  Ca76  1  0.75225728  0.50102180  0.25035002  1
  Ca2+  Ca77  1  -0.00783360  0.25116812  0.74969376  1
  Ca2+  Ca78  1  0.25169418  0.50312172  0.75210687  1
  Ca2+  Ca79  1  0.49984433  0.24582835  0.74622611  1
  Ca2+  Ca80  1  0.24762776  -0.00467126  0.74968822  1
  Ca2+  Ca81  1  -0.00431457  0.24912243  0.25325347  1
  Ca2+  Ca82  1  -0.00030103  0.75181783  0.24854934  1
  Ca2+  Ca83  1  0.25120792  -0.00001902  0.24867508  1
  Ca2+  Ca84  1  0.75057173  0.00101953  0.74836988  1
  Nb5+  Nb85  1  -0.00404297  0.00246770  0.49897790  1
  Nb5+  Nb86  1  0.49507651  0.00450908  0.49473454  1
  Nb5+  Nb87  1  0.50092387  0.00095048  -0.00388432  1
  Nb5+  Nb88  1  0.25767960  0.74690463  -0.00047199  1
  Nb5+  Nb89  1  0.74746192  0.25161000  0.49803343  1
  Nb5+  Nb90  1  0.75148231  0.74636376  0.00220424  1
  Nb5+  Nb91  1  0.50693763  0.75428741  0.74893152  1
  Nb5+  Nb92  1  0.75205679  0.49946081  0.75221145  1
  Nb5+  Nb93  1  0.49803212  0.24656919  0.24881471  1
  Nb5+  Nb94  1  0.00843688  0.75096904  0.75232443  1
  Nb5+  Nb95  1  0.75024579  0.00045695  0.25184806  1
  Nb5+  Nb96  1  0.00407804  -0.00203627  0.24892040  1
  Nb5+  Nb97  1  -0.00368416  0.00109791  0.75432581  1
  Nb5+  Nb98  1  -0.00290983  0.49792097  0.25424776  1
  Nb5+  Nb99  1  0.00230193  0.49652446  0.74516673  1
  Nb5+  Nb100  1  0.49830294  0.00129907  0.24414544  1
  Nb5+  Nb101  1  0.50507361  0.00123997  0.74082458  1
  Nb5+  Nb102  1  0.50586380  0.50417620  0.24573400  1
  Nb5+  Nb103  1  0.49483279  0.49960118  0.75372469  1
  Nb5+  Nb104  1  0.24067249  0.25090995  0.25125105  1
  Nb5+  Nb105  1  0.24728798  0.24845976  0.74835971  1
  Nb5+  Nb106  1  0.25392437  0.74732669  0.25288826  1
  Nb5+  Nb107  1  0.25906237  0.75122996  0.74689798  1
  Nb5+  Nb108  1  0.74854054  0.25217975  0.24746435  1
  Nb5+  Nb109  1  0.75252896  0.24847994  0.76070983  1
  Nb5+  Nb110  1  0.75112615  0.74763323  0.25530120  1
  Nb5+  Nb111  1  0.75309904  0.74912963  0.74942387  1
  Nb5+  Nb112  1  -0.00160618  0.25514047  0.49554165  1
  Nb5+  Nb113  1  -0.00070387  0.25126470  0.99818649  1
  Nb5+  Nb114  1  0.00171797  0.75155434  0.49866828  1
  Nb5+  Nb115  1  0.01043681  0.75352399  0.99827311  1
  Nb5+  Nb116  1  0.49976458  0.24863591  0.50026835  1
  Nb5+  Nb117  1  0.49506718  0.24915279  0.99990074  1
  Nb5+  Nb118  1  0.50378896  0.74691339  0.49699012  1
  Nb5+  Nb119  1  0.50857823  0.75374185  0.99981547  1
  Nb5+  Nb120  1  0.24360031  -0.00257597  0.00286500  1
  Nb5+  Nb121  1  0.24111260  -0.00255558  0.49809060  1
  Nb5+  Nb122  1  0.25252172  0.49526281  -0.00335016  1
  Nb5+  Nb123  1  0.25237875  0.50034297  0.50533405  1
  Nb5+  Nb124  1  0.74685961  -0.00198548  -0.00299959  1
  Nb5+  Nb125  1  0.74507677  0.00334393  0.50149963  1
  Nb5+  Nb126  1  0.75420820  0.49840511  0.00393451  1
  Nb5+  Nb127  1  0.74363669  0.50372217  0.49616939  1
  O2-  O128  1  -0.00731352  0.01474610  0.13513972  1
  O2-  O129  1  0.01265253  0.00872934  0.61646912  1
  O2-  O130  1  -0.02369347  0.50344566  0.13440385  1
  O2-  O131  1  -0.01779614  0.53293212  0.63401457  1
  O2-  O132  1  0.49389767  -0.00434667  0.12719488  1
  O2-  O133  1  0.49710514  -0.00238135  0.62339877  1
  O2-  O134  1  0.47472746  0.49183619  0.13293822  1
  O2-  O135  1  0.49261370  0.51955310  0.63891765  1
  O2-  O136  1  0.00590712  -0.01620441  0.38024145  1
  O2-  O137  1  -0.03098041  -0.00825231  0.86474101  1
  O2-  O138  1  0.02658648  0.49559581  0.37122558  1
  O2-  O139  1  0.01434038  0.48551647  0.86162315  1
  O2-  O140  1  0.51090626  0.00892962  0.37822559  1
  O2-  O141  1  0.51589543  0.00427144  0.87892499  1
  O2-  O142  1  0.52766987  0.49845569  0.36614984  1
  O2-  O143  1  0.52999164  0.50820002  0.86619544  1
  O2-  O144  1  0.23872678  0.28411158  0.13563778  1
  O2-  O145  1  0.23327382  0.26731056  0.62958619  1
  O2-  O146  1  0.24268863  0.76990927  0.11537274  1
  O2-  O147  1  0.24341377  0.78424425  0.63907177  1
  O2-  O148  1  0.71939195  0.23799020  0.13545429  1
  O2-  O149  1  0.72102979  0.24314165  0.61299738  1
  O2-  O150  1  0.72194412  0.74106168  0.11658294  1
  O2-  O151  1  0.72687874  0.73646032  0.63772748  1
  O2-  O152  1  0.26054186  0.21399884  0.36316104  1
  O2-  O153  1  0.26687849  0.23020604  0.86755341  1
  O2-  O154  1  0.26756052  0.73358915  0.36698669  1
  O2-  O155  1  0.25970324  0.72616160  0.87957838  1
  O2-  O156  1  0.76471239  0.26013711  0.37310444  1
  O2-  O157  1  0.78239954  0.26427269  0.86823746  1
  O2-  O158  1  0.78450306  0.75681151  0.36488683  1
  O2-  O159  1  0.75983441  0.75639242  0.87724997  1
  O2-  O160  1  0.02406766  0.24731138  0.11758216  1
  O2-  O161  1  0.01094915  0.23225818  0.61152376  1
  O2-  O162  1  0.02233921  0.74803209  0.11253988  1
  O2-  O163  1  0.01637100  0.74520142  0.63379863  1
  O2-  O164  1  0.52313537  0.25118366  0.12916173  1
  O2-  O165  1  0.52879611  0.25494941  0.61145326  1
  O2-  O166  1  0.51346472  0.77708961  0.11195767  1
  O2-  O167  1  0.52085471  0.76145145  0.63317926  1
  O2-  O168  1  0.24441111  0.02227615  0.38315165  1
  O2-  O169  1  0.24820913  0.01276553  0.88648879  1
  O2-  O170  1  0.23353243  0.51527180  0.38512217  1
  O2-  O171  1  0.21751398  0.51598615  0.88426534  1
  O2-  O172  1  0.74535673  -0.01709588  0.37449591  1
  O2-  O173  1  0.74801619  -0.02716237  0.88526377  1
  O2-  O174  1  0.72060343  0.48537409  0.38527403  1
  O2-  O175  1  0.73356827  0.49004468  0.87193723  1
  O2-  O176  1  -0.03704106  0.24503143  0.38586814  1
  O2-  O177  1  -0.03319876  0.25530586  0.88143278  1
  O2-  O178  1  -0.01704611  0.76577573  0.38588031  1
  O2-  O179  1  -0.01696849  0.75787547  0.87213659  1
  O2-  O180  1  0.48980319  0.23104678  0.37065591  1
  O2-  O181  1  0.47649122  0.23001866  0.88527879  1
  O2-  O182  1  0.47947231  0.74349710  0.38446133  1
  O2-  O183  1  0.48435856  0.75797938  0.87603881  1
  O2-  O184  1  0.27597601  -0.02300379  0.11365225  1
  O2-  O185  1  0.26441095  -0.02065507  0.61545896  1
  O2-  O186  1  0.27971043  0.48711360  0.11415116  1
  O2-  O187  1  0.28377284  0.48829695  0.62067991  1
  O2-  O188  1  0.74730927  0.01100635  0.13123688  1
  O2-  O189  1  0.74663068  0.03335038  0.61230635  1
  O2-  O190  1  0.76921727  0.52683568  0.11488211  1
  O2-  O191  1  0.76817769  0.51078082  0.63191925  1
  O2-  O192  1  0.13031183  0.27108718  0.27414777  1
  O2-  O193  1  0.12891152  0.26987905  0.76682925  1
  O2-  O194  1  0.13682792  0.77792891  0.25924396  1
  O2-  O195  1  0.12161078  0.76881001  0.76849508  1
  O2-  O196  1  0.62522620  0.25860976  0.27146179  1
  O2-  O197  1  0.63634020  0.27664568  0.76805466  1
  O2-  O198  1  0.63831426  0.78383209  0.26317115  1
  O2-  O199  1  0.62292775  0.76780588  0.77056525  1
  O2-  O200  1  0.38474827  0.22494624  0.23198016  1
  O2-  O201  1  0.36716320  0.23002577  0.72663317  1
  O2-  O202  1  0.36922813  0.72405071  0.22472067  1
  O2-  O203  1  0.37574546  0.73155924  0.73920837  1
  O2-  O204  1  0.85993474  0.22027736  0.23362226  1
  O2-  O205  1  0.85765106  0.24310073  0.71036012  1
  O2-  O206  1  0.86137688  0.73905360  0.21227420  1
  O2-  O207  1  0.86998014  0.72912217  0.74205381  1
  O2-  O208  1  0.27946297  0.36119289  0.27592310  1
  O2-  O209  1  0.27000695  0.36714820  0.76481660  1
  O2-  O210  1  0.28287079  0.86512362  0.25430164  1
  O2-  O211  1  0.26320390  0.86245054  0.78552089  1
  O2-  O212  1  0.76924540  0.36485154  0.23767996  1
  O2-  O213  1  0.76347989  0.38111811  0.73997929  1
  O2-  O214  1  0.76790837  0.88123357  0.23723755  1
  O2-  O215  1  0.76833605  0.86305873  0.73996270  1
  O2-  O216  1  0.23142372  0.13513919  0.21529163  1
  O2-  O217  1  0.22619954  0.12942334  0.73424142  1
  O2-  O218  1  0.22660563  0.63266554  0.23128217  1
  O2-  O219  1  0.22311382  0.64020306  0.73622322  1
  O2-  O220  1  0.73049984  0.11893583  0.26535791  1
  O2-  O221  1  0.73205085  0.13539812  0.77013662  1
  O2-  O222  1  0.72096003  0.63649786  0.25844469  1
  O2-  O223  1  0.73389751  0.62411019  0.76215551  1
  O2-  O224  1  0.11597848  0.47396967  0.23265465  1
  O2-  O225  1  0.11559897  0.48482133  0.72424142  1
  O2-  O226  1  0.11632276  0.96900896  0.24581923  1
  O2-  O227  1  0.10985355  0.96621072  0.75037896  1
  O2-  O228  1  0.61850922  0.47028872  0.22350851  1
  O2-  O229  1  0.63057624  0.49001066  0.73505461  1
  O2-  O230  1  0.62588123  0.98421649  0.24764116  1
  O2-  O231  1  0.61619578  0.96054300  0.74348254  1
  O2-  O232  1  0.38745711  0.02836768  0.25903905  1
  O2-  O233  1  0.38928762  0.01766149  0.76075482  1
  O2-  O234  1  0.38859981  0.51275189  0.27345148  1
  O2-  O235  1  0.38563323  0.52839459  0.77269194  1
  O2-  O236  1  0.86852533  0.02078643  0.26131925  1
  O2-  O237  1  0.88476395  0.00392797  0.71663787  1
  O2-  O238  1  0.88131569  0.52550183  0.28324603  1
  O2-  O239  1  0.87083367  0.51729132  0.76859130  1
  O2-  O240  1  0.48648087  0.36323707  0.25734619  1
  O2-  O241  1  0.48128811  0.38474966  0.75314468  1
  O2-  O242  1  0.48601371  0.88765645  0.26438844  1
  O2-  O243  1  0.47572885  0.87248975  0.75213603  1
  O2-  O244  1  0.96516917  0.38189210  0.25326541  1
  O2-  O245  1  0.97671225  0.38605473  0.72458647  1
  O2-  O246  1  0.96597033  0.88548011  0.24777061  1
  O2-  O247  1  0.97621169  0.86582675  0.74401783  1
  O2-  O248  1  0.02030768  0.11311268  0.26802681  1
  O2-  O249  1  0.01896326  0.11408661  0.75846310  1
  O2-  O250  1  0.02086580  0.61914662  0.25404497  1
  O2-  O251  1  0.01264920  0.63118976  0.76630977  1
  O2-  O252  1  0.52723229  0.12219463  0.24478951  1
  O2-  O253  1  0.53754520  0.11208497  0.74577410  1
  O2-  O254  1  0.53221321  0.61675244  0.24079505  1
  O2-  O255  1  0.51823579  0.63729401  0.75660137  1
  O2-  O256  1  0.13536545  0.49054961  0.02867473  1
  O2-  O257  1  0.13619857  0.47458749  0.52623067  1
  O2-  O258  1  0.13343206  0.96389196  0.01129243  1
  O2-  O259  1  0.12605062  0.97479318  0.50005873  1
  O2-  O260  1  0.63466271  0.48420505  0.01358547  1
  O2-  O261  1  0.63589197  0.47877682  0.53656521  1
  O2-  O262  1  0.62272092  0.97546017  0.01412355  1
  O2-  O263  1  0.62819288  0.98405922  0.50353959  1
  O2-  O264  1  0.38378721  0.01995110  -0.00927825  1
  O2-  O265  1  0.38227317  0.02742406  0.49514421  1
  O2-  O266  1  0.36313807  0.53612300  -0.02149725  1
  O2-  O267  1  0.37264355  0.52840934  0.48345411  1
  O2-  O268  1  0.86070036  0.01532363  0.00872475  1
  O2-  O269  1  0.87856338  0.02323576  0.49384370  1
  O2-  O270  1  0.86454104  0.52286668  -0.02857896  1
  O2-  O271  1  0.86205009  0.51424134  0.48602774  1
  O2-  O272  1  0.47427447  0.36274610  -0.00372912  1
  O2-  O273  1  0.48738921  0.36184069  0.48426614  1
  O2-  O274  1  0.48121415  0.88153355  -0.00845440  1
  O2-  O275  1  0.48143013  0.88605475  0.49584917  1
  O2-  O276  1  0.97155222  0.36727690  0.00689549  1
  O2-  O277  1  0.96807402  0.36536830  0.50958676  1
  O2-  O278  1  0.96640519  0.86240972  0.00051880  1
  O2-  O279  1  0.97763651  0.88202320  0.51263726  1
  O2-  O280  1  0.02340134  0.12996643  -0.01691715  1
  O2-  O281  1  0.02189341  0.11914416  0.48905086  1
  O2-  O282  1  0.00687662  0.63700090  -0.01509020  1
  O2-  O283  1  0.02572802  0.63875056  0.48774554  1
  O2-  O284  1  0.52565005  0.11815459  0.00864417  1
  O2-  O285  1  0.52842478  0.12050497  0.50298368  1
  O2-  O286  1  0.51896631  0.63956525  0.00701055  1
  O2-  O287  1  0.53427471  0.63740506  0.50528248  1
  O2-  O288  1  0.11548888  0.27238119  -0.02711312  1
  O2-  O289  1  0.11064431  0.27291855  0.47390749  1
  O2-  O290  1  0.12498367  0.76886568  -0.02082817  1
  O2-  O291  1  0.11512029  0.78641304  0.49934123  1
  O2-  O292  1  0.61400378  0.26608318  -0.02116568  1
  O2-  O293  1  0.62704967  0.25620055  0.47166731  1
  O2-  O294  1  0.62232772  0.77096421  -0.02107891  1
  O2-  O295  1  0.61513732  0.78871976  0.48900169  1
  O2-  O296  1  0.38421613  0.22279902  0.02909029  1
  O2-  O297  1  0.38837579  0.22183600  0.51555839  1
  O2-  O298  1  0.37544527  0.73593865  0.00980023  1
  O2-  O299  1  0.39030983  0.74170693  0.53045720  1
  O2-  O300  1  0.88226199  0.21777350  0.02454541  1
  O2-  O301  1  0.86299194  0.22769439  0.51438356  1
  O2-  O302  1  0.86584621  0.73055277  0.01270406  1
  O2-  O303  1  0.88612481  0.73569350  0.52743197  1
  O2-  O304  1  0.26981486  0.38383253  -0.02672059  1
  O2-  O305  1  0.27912552  0.38260535  0.48715208  1
  O2-  O306  1  0.26915436  0.86895525  -0.02029826  1
  O2-  O307  1  0.27876148  0.88619718  0.47956804  1
  O2-  O308  1  0.77221681  0.38473939  0.01553628  1
  O2-  O309  1  0.76344810  0.36899037  0.50587582  1
  O2-  O310  1  0.75940697  0.86939758  0.01675566  1
  O2-  O311  1  0.77238874  0.89120381  0.51845203  1
  O2-  O312  1  0.22630197  0.11139273  0.02055056  1
  O2-  O313  1  0.23026579  0.11420211  0.52423853  1
  O2-  O314  1  0.22981446  0.63442584  0.01888207  1
  O2-  O315  1  0.23251449  0.61913421  0.52584697  1
  O2-  O316  1  0.72351882  0.11097812  -0.01562892  1
  O2-  O317  1  0.73696720  0.12417819  0.47383136  1
  O2-  O318  1  0.72507031  0.63059100  -0.01123103  1
  O2-  O319  1  0.72507504  0.61788779  0.49094174  1
