# generated using pymatgen
data_Sr64Ca21Nb43O192
_symmetry_space_group_name_H-M   'P 1'
_cell_length_a   16.60569483
_cell_length_b   16.59790997
_cell_length_c   16.71202205
_cell_angle_alpha   90.05100423
_cell_angle_beta   89.95448322
_cell_angle_gamma   90.06215102
_symmetry_Int_Tables_number   1
_chemical_formula_structural   Sr64Ca21Nb43O192
_chemical_formula_sum   'Sr64 Ca21 Nb43 O192'
_cell_volume   4606.15865487
_cell_formula_units_Z   1
loop_
 _symmetry_equiv_pos_site_id
 _symmetry_equiv_pos_as_xyz
  1  'x, y, z'
loop_
 _atom_type_symbol
 _atom_type_oxidation_number
  Sr2+  2.0
  Ca2+  2.0
  Nb5+  5.0
  O2-  -2.0
loop_
 _atom_site_type_symbol
 _atom_site_label
 _atom_site_symmetry_multiplicity
 _atom_site_fract_x
 _atom_site_fract_y
 _atom_site_fract_z
 _atom_site_occupancy
  Sr2+  Sr0  1  0.12639871  0.11020466  0.12744122  1
  Sr2+  Sr1  1  0.13312394  0.11781529  0.62892649  1
  Sr2+  Sr2  1  0.13546197  0.62450474  0.11812658  1
  Sr2+  Sr3  1  0.12781171  0.61629404  0.61468810  1
  Sr2+  Sr4  1  0.62870929  0.10816901  0.11806898  1
  Sr2+  Sr5  1  0.62677042  0.11797922  0.62488409  1
  Sr2+  Sr6  1  0.62608177  0.60936393  0.12709486  1
  Sr2+  Sr7  1  0.64285832  0.60900056  0.62710179  1
  Sr2+  Sr8  1  0.38827198  0.37353003  0.12652679  1
  Sr2+  Sr9  1  0.38065255  0.36052489  0.62767917  1
  Sr2+  Sr10  1  0.37486909  0.86525473  0.11717908  1
  Sr2+  Sr11  1  0.38513647  0.86954966  0.62675748  1
  Sr2+  Sr12  1  0.88431747  0.36694220  0.12344920  1
  Sr2+  Sr13  1  0.88068589  0.36607963  0.62162364  1
  Sr2+  Sr14  1  0.88003327  0.86801224  0.12922377  1
  Sr2+  Sr15  1  0.87789418  0.85906317  0.62586387  1
  Sr2+  Sr16  1  0.11957001  0.38010069  0.36986701  1
  Sr2+  Sr17  1  0.10984636  0.38391149  0.87456310  1
  Sr2+  Sr18  1  0.11675246  0.88755785  0.37151335  1
  Sr2+  Sr19  1  0.11119948  0.87232836  0.87517082  1
  Sr2+  Sr20  1  0.61399352  0.38610013  0.37330264  1
  Sr2+  Sr21  1  0.61438334  0.37970691  0.86745213  1
  Sr2+  Sr22  1  0.60919627  0.88039162  0.37736356  1
  Sr2+  Sr23  1  0.61073457  0.88085519  0.86782114  1
  Sr2+  Sr24  1  0.35958946  0.13001330  0.37629224  1
  Sr2+  Sr25  1  0.36354234  0.13801661  0.87838102  1
  Sr2+  Sr26  1  0.37691920  0.63458675  0.36847279  1
  Sr2+  Sr27  1  0.36253481  0.63489148  0.87002878  1
  Sr2+  Sr28  1  0.87020170  0.13390184  0.37652348  1
  Sr2+  Sr29  1  0.87073547  0.12561149  0.87027925  1
  Sr2+  Sr30  1  0.86387432  0.62346014  0.38008395  1
  Sr2+  Sr31  1  0.87134112  0.62748952  0.88403441  1
  Sr2+  Sr32  1  0.12255518  0.13756964  0.37072778  1
  Sr2+  Sr33  1  0.11460224  0.13421816  0.87082363  1
  Sr2+  Sr34  1  0.11549175  0.63305394  0.37154701  1
  Sr2+  Sr35  1  0.12099140  0.63010969  0.87228647  1
  Sr2+  Sr36  1  0.61762526  0.13209271  0.37579666  1
  Sr2+  Sr37  1  0.62113690  0.13983772  0.87926797  1
  Sr2+  Sr38  1  0.61430727  0.63490888  0.37271547  1
  Sr2+  Sr39  1  0.61607731  0.63151396  0.87723955  1
  Sr2+  Sr40  1  0.36795781  0.38647422  0.37337944  1
  Sr2+  Sr41  1  0.37034126  0.38931689  0.86521227  1
  Sr2+  Sr42  1  0.37073254  0.88366340  0.37540969  1
  Sr2+  Sr43  1  0.36251922  0.87921871  0.87069905  1
  Sr2+  Sr44  1  0.87089093  0.37820039  0.37169719  1
  Sr2+  Sr45  1  0.87108199  0.37978725  0.88952082  1
  Sr2+  Sr46  1  0.86331186  0.87825264  0.37279594  1
  Sr2+  Sr47  1  0.87021733  0.89045261  0.86883818  1
  Sr2+  Sr48  1  0.13361823  0.36461415  0.12317753  1
  Sr2+  Sr49  1  0.14561078  0.37237979  0.62292524  1
  Sr2+  Sr50  1  0.13508208  0.86532885  0.12558566  1
  Sr2+  Sr51  1  0.12812470  0.86030555  0.62818339  1
  Sr2+  Sr52  1  0.63485423  0.37479493  0.12219177  1
  Sr2+  Sr53  1  0.63051250  0.36149769  0.62790589  1
  Sr2+  Sr54  1  0.63612493  0.86724178  0.12432487  1
  Sr2+  Sr55  1  0.63434285  0.86987032  0.62387319  1
  Sr2+  Sr56  1  0.37579656  0.11440937  0.11424938  1
  Sr2+  Sr57  1  0.38402885  0.11900899  0.62665392  1
  Sr2+  Sr58  1  0.38806857  0.62256045  0.12161976  1
  Sr2+  Sr59  1  0.37533085  0.61104985  0.63379740  1
  Sr2+  Sr60  1  0.88022612  0.12290491  0.12189583  1
  Sr2+  Sr61  1  0.88317270  0.11480895  0.62128122  1
  Sr2+  Sr62  1  0.88682863  0.62191616  0.12301143  1
  Sr2+  Sr63  1  0.88676584  0.62243256  0.62156077  1
  Ca2+  Ca64  1  -0.00185837  0.00050319  0.00046720  1
  Ca2+  Ca65  1  0.49798703  -0.00054654  -0.00297525  1
  Ca2+  Ca66  1  -0.00112883  0.00060892  0.50136213  1
  Ca2+  Ca67  1  0.50144906  0.50024680  0.50300812  1
  Ca2+  Ca68  1  0.49823060  0.50138301  -0.00461336  1
  Ca2+  Ca69  1  0.75043836  0.74973417  -0.00067126  1
  Ca2+  Ca70  1  0.25060639  0.24971348  0.49977336  1
  Ca2+  Ca71  1  0.25193455  0.74793498  0.49591409  1
  Ca2+  Ca72  1  0.24950910  0.25152564  0.00016436  1
  Ca2+  Ca73  1  0.74825831  0.25076867  0.00328614  1
  Ca2+  Ca74  1  -0.00410992  0.25397398  0.74650605  1
  Ca2+  Ca75  1  -0.00011183  0.74450443  0.75031581  1
  Ca2+  Ca76  1  0.24444738  0.49950824  0.75194267  1
  Ca2+  Ca77  1  0.00171577  0.75126910  0.25068594  1
  Ca2+  Ca78  1  0.50179051  0.75582523  0.24560777  1
  Ca2+  Ca79  1  0.50077593  0.75017520  0.74690436  1
  Ca2+  Ca80  1  0.50185441  0.24860778  0.25081173  1
  Ca2+  Ca81  1  0.75310940  0.49839517  0.24915154  1
  Ca2+  Ca82  1  0.25025499  -0.00053069  0.74971472  1
  Ca2+  Ca83  1  0.25010188  0.50116540  0.24750396  1
  Ca2+  Ca84  1  0.75586873  0.49703116  0.75321831  1
  Nb5+  Nb85  1  0.00127233  0.49766647  0.49261528  1
  Nb5+  Nb86  1  0.00330539  0.50243927  -0.00165818  1
  Nb5+  Nb87  1  0.49742113  0.00249253  0.49912508  1
  Nb5+  Nb88  1  0.74892749  0.24277665  0.50056896  1
  Nb5+  Nb89  1  0.24961299  0.75027702  -0.00252302  1
  Nb5+  Nb90  1  0.74748672  0.74279202  0.49899596  1
  Nb5+  Nb91  1  0.24492839  -0.00203124  0.24911941  1
  Nb5+  Nb92  1  0.00086899  0.25002631  0.25150804  1
  Nb5+  Nb93  1  0.49799145  0.24620725  0.75031672  1
  Nb5+  Nb94  1  0.74561312  0.00078278  0.24721949  1
  Nb5+  Nb95  1  0.74813388  0.00084993  0.74126875  1
  Nb5+  Nb96  1  -0.01032721  0.00248945  0.25694085  1
  Nb5+  Nb97  1  0.00367629  -0.00176194  0.74465946  1
  Nb5+  Nb98  1  0.00208950  0.50082754  0.24330275  1
  Nb5+  Nb99  1  -0.00318741  0.49755520  0.73942744  1
  Nb5+  Nb100  1  0.49082530  0.00390606  0.24905216  1
  Nb5+  Nb101  1  0.49861830  0.00429881  0.75448170  1
  Nb5+  Nb102  1  0.50052926  0.50116080  0.25098700  1
  Nb5+  Nb103  1  0.50460905  0.50502982  0.74498367  1
  Nb5+  Nb104  1  0.25816277  0.24838880  0.24393358  1
  Nb5+  Nb105  1  0.24282998  0.25238238  0.75491412  1
  Nb5+  Nb106  1  0.25163162  0.74818439  0.25090659  1
  Nb5+  Nb107  1  0.24802532  0.74881814  0.74226282  1
  Nb5+  Nb108  1  0.74978068  0.24787924  0.25161448  1
  Nb5+  Nb109  1  0.75294015  0.24821294  0.75071781  1
  Nb5+  Nb110  1  0.74746507  0.74420135  0.25014781  1
  Nb5+  Nb111  1  0.75034579  0.74763922  0.75390316  1
  Nb5+  Nb112  1  0.00470705  0.25328791  0.50173358  1
  Nb5+  Nb113  1  0.00057934  0.24766253  0.99937639  1
  Nb5+  Nb114  1  -0.00051811  0.75445061  0.49317894  1
  Nb5+  Nb115  1  -0.00301354  0.75334347  0.99950756  1
  Nb5+  Nb116  1  0.49667362  0.24770495  0.49839660  1
  Nb5+  Nb117  1  0.50099178  0.25375709  1.00494261  1
  Nb5+  Nb118  1  0.49954365  0.74339708  0.50581374  1
  Nb5+  Nb119  1  0.50407776  0.75473194  0.99566501  1
  Nb5+  Nb120  1  0.24115937  -0.00038314  -0.00721964  1
  Nb5+  Nb121  1  0.24702371  -0.00288562  0.50280180  1
  Nb5+  Nb122  1  0.25346152  0.49866706  0.00223617  1
  Nb5+  Nb123  1  0.25548492  0.50346629  0.49643956  1
  Nb5+  Nb124  1  0.74640487  -0.00303138  -0.00986307  1
  Nb5+  Nb125  1  0.74801975  -0.00437007  0.49551423  1
  Nb5+  Nb126  1  0.74720380  0.50075041  0.00230419  1
  Nb5+  Nb127  1  0.75148594  0.48723379  0.50418605  1
  O2-  O128  1  -0.02464649  -0.00529922  0.13997177  1
  O2-  O129  1  -0.03588619  -0.01620874  0.63330950  1
  O2-  O130  1  -0.02285969  0.48779533  0.13072111  1
  O2-  O131  1  -0.02307443  0.48745473  0.62448566  1
  O2-  O132  1  0.47395746  -0.00897733  0.13640850  1
  O2-  O133  1  0.48320725  -0.00609656  0.62122840  1
  O2-  O134  1  0.47928287  0.49074229  0.13229342  1
  O2-  O135  1  0.46942790  0.48062210  0.63352467  1
  O2-  O136  1  0.02597160  0.02123473  0.36835566  1
  O2-  O137  1  0.01042222  0.02221675  0.86265191  1
  O2-  O138  1  0.02288778  0.50810257  0.37863624  1
  O2-  O139  1  0.01998812  0.51072915  0.88499426  1
  O2-  O140  1  0.52055837  0.01633242  0.38193484  1
  O2-  O141  1  0.53266476  0.01719246  0.86309402  1
  O2-  O142  1  0.52649616  0.51309291  0.36973365  1
  O2-  O143  1  0.53132323  0.50702650  0.86207734  1
  O2-  O144  1  0.21786192  0.22768355  0.13549097  1
  O2-  O145  1  0.22827085  0.23328943  0.63592879  1
  O2-  O146  1  0.23055117  0.74565273  0.12153580  1
  O2-  O147  1  0.22300434  0.73651504  0.62991922  1
  O2-  O148  1  0.73022083  0.22317758  0.14163243  1
  O2-  O149  1  0.72826127  0.23357804  0.61816811  1
  O2-  O150  1  0.72233063  0.73617503  0.13718067  1
  O2-  O151  1  0.73052980  0.74272340  0.61729054  1
  O2-  O152  1  0.27052098  0.26035854  0.36203971  1
  O2-  O153  1  0.28164310  0.26615463  0.86648041  1
  O2-  O154  1  0.28186325  0.76023828  0.36265577  1
  O2-  O155  1  0.26457870  0.76560993  0.88068148  1
  O2-  O156  1  0.77471385  0.25572814  0.38234462  1
  O2-  O157  1  0.77338035  0.25522766  0.86396376  1
  O2-  O158  1  0.77160264  0.76240864  0.38184164  1
  O2-  O159  1  0.77850001  0.76804111  0.86302975  1
  O2-  O160  1  0.01201726  0.26684002  0.13511392  1
  O2-  O161  1  0.01395980  0.28620795  0.61270726  1
  O2-  O162  1  0.01598854  0.76935873  0.11584767  1
  O2-  O163  1  0.01248659  0.75839644  0.61100547  1
  O2-  O164  1  0.51489328  0.28104607  0.11615956  1
  O2-  O165  1  0.51864032  0.26013481  0.62279105  1
  O2-  O166  1  0.50813395  0.78791524  0.11140455  1
  O2-  O167  1  0.51374316  0.78626403  0.61347632  1
  O2-  O168  1  0.24333940  -0.02256243  0.37089975  1
  O2-  O169  1  0.22537616  -0.02782700  0.88297623  1
  O2-  O170  1  0.23631120  0.47192286  0.38299245  1
  O2-  O171  1  0.22080113  0.48419995  0.88980935  1
  O2-  O172  1  0.73254735  -0.01846653  0.38070439  1
  O2-  O173  1  0.73282952  -0.02203147  0.87522833  1
  O2-  O174  1  0.74054468  0.47934806  0.38772645  1
  O2-  O175  1  0.74618476  0.46388686  0.88690144  1
  O2-  O176  1  -0.01678136  0.23574240  0.37667956  1
  O2-  O177  1  -0.01877269  0.23364649  0.88629542  1
  O2-  O178  1  -0.01753426  0.71586544  0.38298179  1
  O2-  O179  1  -0.00442972  0.71838851  0.88608969  1
  O2-  O180  1  0.48726277  0.22042880  0.38617999  1
  O2-  O181  1  0.49124253  0.22327279  0.86391887  1
  O2-  O182  1  0.49068255  0.73980636  0.38739831  1
  O2-  O183  1  0.48706285  0.72095110  0.88078323  1
  O2-  O184  1  0.26302213  0.01636819  0.13282591  1
  O2-  O185  1  0.26574065  0.02396844  0.61370626  1
  O2-  O186  1  0.25995969  0.53574688  0.11462273  1
  O2-  O187  1  0.25056151  0.52549554  0.61564335  1
  O2-  O188  1  0.76643371  0.02183366  0.13694235  1
  O2-  O189  1  0.75813480  0.01935482  0.62532272  1
  O2-  O190  1  0.76664534  0.53565048  0.11673589  1
  O2-  O191  1  0.77524756  0.52156704  0.61483592  1
  O2-  O192  1  0.11889939  0.26123909  0.27169498  1
  O2-  O193  1  0.13089366  0.26942021  0.77735398  1
  O2-  O194  1  0.13809917  0.78450563  0.26407698  1
  O2-  O195  1  0.13384373  0.77788988  0.76550575  1
  O2-  O196  1  0.63940607  0.26547702  0.28083448  1
  O2-  O197  1  0.62726542  0.25894573  0.76088350  1
  O2-  O198  1  0.63801615  0.77969498  0.27327098  1
  O2-  O199  1  0.63709040  0.78202438  0.75799099  1
  O2-  O200  1  0.36737844  0.21911455  0.22454788  1
  O2-  O201  1  0.38352758  0.22964989  0.72933594  1
  O2-  O202  1  0.36624096  0.73544816  0.22117742  1
  O2-  O203  1  0.36673092  0.72609700  0.73166129  1
  O2-  O204  1  0.87823283  0.22378834  0.24244139  1
  O2-  O205  1  0.86214071  0.21923643  0.72461758  1
  O2-  O206  1  0.86526851  0.74293050  0.23018900  1
  O2-  O207  1  0.86346758  0.73779188  0.71895142  1
  O2-  O208  1  0.27053038  0.36225306  0.22505201  1
  O2-  O209  1  0.27382559  0.36549716  0.73052648  1
  O2-  O210  1  0.27524133  0.88295382  0.23513075  1
  O2-  O211  1  0.27820172  0.86614450  0.73513721  1
  O2-  O212  1  0.77695696  0.35925610  0.23698234  1
  O2-  O213  1  0.76431755  0.35976117  0.72472126  1
  O2-  O214  1  0.77406385  0.88471245  0.24287414  1
  O2-  O215  1  0.76786310  0.88336477  0.73132457  1
  O2-  O216  1  0.23458503  0.11796702  0.26936616  1
  O2-  O217  1  0.23315311  0.13340950  0.77359324  1
  O2-  O218  1  0.22186697  0.63712846  0.26161925  1
  O2-  O219  1  0.23428655  0.63512106  0.77427871  1
  O2-  O220  1  0.74034180  0.11843177  0.27943930  1
  O2-  O221  1  0.72698558  0.11927147  0.76407855  1
  O2-  O222  1  0.73562792  0.63409300  0.27899863  1
  O2-  O223  1  0.72329042  0.63564491  0.76322579  1
  O2-  O224  1  0.11367635  0.46481893  0.23939744  1
  O2-  O225  1  0.11045464  0.46070921  0.73910773  1
  O2-  O226  1  0.12921094  0.98379996  0.23665139  1
  O2-  O227  1  0.11531447  0.98058634  0.72013696  1
  O2-  O228  1  0.61954514  0.47378267  0.23050623  1
  O2-  O229  1  0.61905791  0.47354284  0.72356930  1
  O2-  O230  1  0.63220135  0.98247575  0.23351647  1
  O2-  O231  1  0.62732044  0.98387910  0.72930943  1
  O2-  O232  1  0.37764681  0.02221639  0.27145531  1
  O2-  O233  1  0.38656721  0.02773315  0.77058185  1
  O2-  O234  1  0.38338725  0.52605775  0.26993819  1
  O2-  O235  1  0.38624810  0.51621823  0.77352793  1
  O2-  O236  1  0.87541944  0.01837478  0.27752034  1
  O2-  O237  1  0.86328309  0.01798233  0.76734380  1
  O2-  O238  1  0.88957431  0.51124294  0.27833303  1
  O2-  O239  1  0.88775680  0.53733225  0.76770031  1
  O2-  O240  1  0.47561005  0.38244823  0.26987223  1
  O2-  O241  1  0.48730291  0.36342334  0.76235941  1
  O2-  O242  1  0.49134780  0.89075218  0.27769910  1
  O2-  O243  1  0.48136128  0.88921836  0.76224921  1
  O2-  O244  1  0.97976757  0.36727046  0.26590637  1
  O2-  O245  1  0.96257692  0.38623886  0.77182794  1
  O2-  O246  1  0.98393028  0.88757049  0.27451631  1
  O2-  O247  1  0.98084205  0.88306653  0.77041721  1
  O2-  O248  1  0.01721857  0.12692296  0.23929624  1
  O2-  O249  1  0.01533390  0.11821599  0.72562219  1
  O2-  O250  1  0.02527259  0.61339323  0.23348030  1
  O2-  O251  1  0.03538742  0.61068123  0.73524811  1
  O2-  O252  1  0.53293683  0.11357702  0.24123364  1
  O2-  O253  1  0.51918021  0.12481948  0.72678389  1
  O2-  O254  1  0.52660028  0.62058205  0.23899503  1
  O2-  O255  1  0.52507664  0.61612175  0.72381648  1
  O2-  O256  1  0.11916267  0.48605213  0.02788464  1
  O2-  O257  1  0.11337459  0.47510723  0.51747041  1
  O2-  O258  1  0.13044950  0.98027263  0.03127754  1
  O2-  O259  1  0.13534731  0.97032866  0.51599261  1
  O2-  O260  1  0.63346194  0.48918319  0.02197998  1
  O2-  O261  1  0.63806354  0.48129591  0.52580985  1
  O2-  O262  1  0.63360385  0.97997073  0.02679000  1
  O2-  O263  1  0.62742615  0.98890688  0.51791021  1
  O2-  O264  1  0.35904513  0.01938292  -0.01280888  1
  O2-  O265  1  0.38321008  0.02453409  0.48405609  1
  O2-  O266  1  0.36283258  0.52231365  -0.02530465  1
  O2-  O267  1  0.36645953  0.52963351  0.48066088  1
  O2-  O268  1  0.86326265  0.02291584  -0.01653180  1
  O2-  O269  1  0.86097648  0.02240188  0.48495841  1
  O2-  O270  1  0.88288203  0.51658918  -0.01056144  1
  O2-  O271  1  0.87743733  0.51026244  0.48232790  1
  O2-  O272  1  0.47264859  0.36472178  -0.02872490  1
  O2-  O273  1  0.48664776  0.36226204  0.48053119  1
  O2-  O274  1  0.47301574  0.86775331  -0.03289446  1
  O2-  O275  1  0.48726934  0.88498937  0.48392035  1
  O2-  O276  1  0.98387987  0.38063470  -0.00519824  1
  O2-  O277  1  0.97562217  0.37651935  0.48053738  1
  O2-  O278  1  0.98053295  0.86549800  -0.02525362  1
  O2-  O279  1  0.97338927  0.86535462  0.47683549  1
  O2-  O280  1  0.02011699  0.13620558  0.02188234  1
  O2-  O281  1  0.01369926  0.13882550  0.52382478  1
  O2-  O282  1  0.01622853  0.61958954  0.02319767  1
  O2-  O283  1  0.00951108  0.61557624  0.51425128  1
  O2-  O284  1  0.52474746  0.13543187  0.01364458  1
  O2-  O285  1  0.52428328  0.12356181  0.51587527  1
  O2-  O286  1  0.51463915  0.63874334  0.02580910  1
  O2-  O287  1  0.53639266  0.63625038  0.52074217  1
  O2-  O288  1  0.11387311  0.27892041  -0.01195922  1
  O2-  O289  1  0.11535503  0.26852038  0.47509284  1
  O2-  O290  1  0.12559739  0.76758395  -0.01276263  1
  O2-  O291  1  0.11370803  0.76979862  0.47526888  1
  O2-  O292  1  0.61618276  0.27396244  -0.02510643  1
  O2-  O293  1  0.63162288  0.26627401  0.48185638  1
  O2-  O294  1  0.61723731  0.77318210  -0.02399621  1
  O2-  O295  1  0.63274146  0.77204617  0.48327568  1
  O2-  O296  1  0.38427135  0.22369011  0.01280225  1
  O2-  O297  1  0.38562416  0.22923871  0.52308392  1
  O2-  O298  1  0.36683988  0.73487062  0.01447476  1
  O2-  O299  1  0.38725785  0.72170967  0.52208633  1
  O2-  O300  1  0.88461242  0.24392254  0.02815299  1
  O2-  O301  1  0.87041681  0.23612026  0.51882598  1
  O2-  O302  1  0.88461051  0.72852833  0.01903790  1
  O2-  O303  1  0.86930063  0.73539778  0.51611660  1
  O2-  O304  1  0.26771482  0.38737619  0.02959681  1
  O2-  O305  1  0.26949044  0.38561352  0.52260767  1
  O2-  O306  1  0.26288080  0.87367260  0.01523777  1
  O2-  O307  1  0.28654503  0.88530443  0.50911555  1
  O2-  O308  1  0.76851450  0.38503241  0.03346774  1
  O2-  O309  1  0.76750506  0.37143535  0.51895588  1
  O2-  O310  1  0.77203658  0.88600108  0.02633802  1
  O2-  O311  1  0.76594531  0.88093563  0.51573926  1
  O2-  O312  1  0.21977186  0.11442475  -0.01838790  1
  O2-  O313  1  0.23383730  0.11208227  0.47309408  1
  O2-  O314  1  0.22776521  0.63313234  -0.01579531  1
  O2-  O315  1  0.21366453  0.61408148  0.47823666  1
  O2-  O316  1  0.72568874  0.11459785  -0.01001393  1
  O2-  O317  1  0.73206274  0.12590318  0.48712123  1
  O2-  O318  1  0.73891441  0.61533275  -0.03441220  1
  O2-  O319  1  0.73510776  0.62760108  0.48498145  1
