# generated using pymatgen
data_Sr64Ca21Nb43O192
_symmetry_space_group_name_H-M   'P 1'
_cell_length_a   16.59060808
_cell_length_b   16.58855269
_cell_length_c   16.76558678
_cell_angle_alpha   89.93527803
_cell_angle_beta   89.95081028
_cell_angle_gamma   89.85970861
_symmetry_Int_Tables_number   1
_chemical_formula_structural   Sr64Ca21Nb43O192
_chemical_formula_sum   'Sr64 Ca21 Nb43 O192'
_cell_volume   4614.10868991
_cell_formula_units_Z   1
loop_
 _symmetry_equiv_pos_site_id
 _symmetry_equiv_pos_as_xyz
  1  'x, y, z'
loop_
 _atom_type_symbol
 _atom_type_oxidation_number
  Sr2+  2.0
  Ca2+  2.0
  Nb5+  5.0
  O2-  -2.0
loop_
 _atom_site_type_symbol
 _atom_site_label
 _atom_site_symmetry_multiplicity
 _atom_site_fract_x
 _atom_site_fract_y
 _atom_site_fract_z
 _atom_site_occupancy
  Sr2+  Sr0  1  0.12004326  0.12534101  0.12991210  1
  Sr2+  Sr1  1  0.12171695  0.12858935  0.61884255  1
  Sr2+  Sr2  1  0.11876512  0.61489698  0.12220430  1
  Sr2+  Sr3  1  0.11752988  0.61112209  0.62048350  1
  Sr2+  Sr4  1  0.61887911  0.11506480  0.11506405  1
  Sr2+  Sr5  1  0.62504662  0.12456820  0.63064534  1
  Sr2+  Sr6  1  0.61266908  0.61193360  0.12628847  1
  Sr2+  Sr7  1  0.61692695  0.60693183  0.62676730  1
  Sr2+  Sr8  1  0.36841205  0.37474512  0.12456628  1
  Sr2+  Sr9  1  0.36709952  0.36383965  0.62610889  1
  Sr2+  Sr10  1  0.37474271  0.87411717  0.13114906  1
  Sr2+  Sr11  1  0.36550751  0.86557266  0.62074328  1
  Sr2+  Sr12  1  0.86722125  0.36165437  0.12676987  1
  Sr2+  Sr13  1  0.87240253  0.36926796  0.61958467  1
  Sr2+  Sr14  1  0.86887545  0.87138492  0.12992295  1
  Sr2+  Sr15  1  0.86357489  0.88602558  0.61729203  1
  Sr2+  Sr16  1  0.13882693  0.37444971  0.37518200  1
  Sr2+  Sr17  1  0.13593889  0.37819011  0.87289874  1
  Sr2+  Sr18  1  0.13467501  0.87752006  0.37296461  1
  Sr2+  Sr19  1  0.14490647  0.87838325  0.87318802  1
  Sr2+  Sr20  1  0.63598220  0.38846416  0.36803691  1
  Sr2+  Sr21  1  0.62304432  0.37535305  0.87250187  1
  Sr2+  Sr22  1  0.62320433  0.87726465  0.36820720  1
  Sr2+  Sr23  1  0.64118315  0.87769058  0.87964964  1
  Sr2+  Sr24  1  0.38345064  0.13161310  0.37649048  1
  Sr2+  Sr25  1  0.38710456  0.11774632  0.87228718  1
  Sr2+  Sr26  1  0.39565023  0.63099591  0.37848434  1
  Sr2+  Sr27  1  0.38324958  0.63518388  0.86719691  1
  Sr2+  Sr28  1  0.88406976  0.13332689  0.37320525  1
  Sr2+  Sr29  1  0.88095296  0.12463010  0.87370371  1
  Sr2+  Sr30  1  0.88503666  0.62903007  0.38005529  1
  Sr2+  Sr31  1  0.87272216  0.62836665  0.87388571  1
  Sr2+  Sr32  1  0.13749285  0.13719557  0.37143826  1
  Sr2+  Sr33  1  0.13099100  0.11680775  0.87199062  1
  Sr2+  Sr34  1  0.12822287  0.63397045  0.36923152  1
  Sr2+  Sr35  1  0.13314248  0.63750370  0.88057318  1
  Sr2+  Sr36  1  0.63259106  0.12626203  0.38127427  1
  Sr2+  Sr37  1  0.63449596  0.13004773  0.87236129  1
  Sr2+  Sr38  1  0.62848871  0.62718755  0.37374032  1
  Sr2+  Sr39  1  0.62999562  0.63864684  0.87368525  1
  Sr2+  Sr40  1  0.38008503  0.38145632  0.37939465  1
  Sr2+  Sr41  1  0.38539820  0.38915688  0.87370622  1
  Sr2+  Sr42  1  0.38614620  0.87786214  0.37454541  1
  Sr2+  Sr43  1  0.37367146  0.86959989  0.86150718  1
  Sr2+  Sr44  1  0.87741766  0.39420111  0.37251311  1
  Sr2+  Sr45  1  0.88486329  0.37713501  0.87287765  1
  Sr2+  Sr46  1  0.87681606  0.87001972  0.37216636  1
  Sr2+  Sr47  1  0.87893049  0.87145689  0.87304874  1
  Sr2+  Sr48  1  0.12989892  0.37806422  0.12449798  1
  Sr2+  Sr49  1  0.12036373  0.36527029  0.62305334  1
  Sr2+  Sr50  1  0.11814111  0.87083710  0.12722956  1
  Sr2+  Sr51  1  0.12624634  0.88026497  0.63090278  1
  Sr2+  Sr52  1  0.61213515  0.36171278  0.12592654  1
  Sr2+  Sr53  1  0.60367226  0.36725969  0.63207147  1
  Sr2+  Sr54  1  0.61304380  0.86916737  0.12559311  1
  Sr2+  Sr55  1  0.61779510  0.88028624  0.61256565  1
  Sr2+  Sr56  1  0.37456874  0.11665842  0.13349853  1
  Sr2+  Sr57  1  0.39313795  0.12176414  0.62002346  1
  Sr2+  Sr58  1  0.36398924  0.61496923  0.13043601  1
  Sr2+  Sr59  1  0.36148663  0.61845496  0.62922261  1
  Sr2+  Sr60  1  0.86901191  0.12180174  0.12261558  1
  Sr2+  Sr61  1  0.87462790  0.12981167  0.63046448  1
  Sr2+  Sr62  1  0.86632249  0.62346936  0.12206978  1
  Sr2+  Sr63  1  0.86401279  0.61616600  0.61559399  1
  Ca2+  Ca64  1  -0.00073288  0.00315910  0.50176354  1
  Ca2+  Ca65  1  0.50167028  0.50106601  -0.00001418  1
  Ca2+  Ca66  1  0.49880157  -0.00155531  -0.00255845  1
  Ca2+  Ca67  1  0.50112833  -0.00068148  0.49870344  1
  Ca2+  Ca68  1  0.49708525  0.49929763  0.50222605  1
  Ca2+  Ca69  1  0.75016575  0.25131862  0.50153830  1
  Ca2+  Ca70  1  0.24893497  0.24824308  -0.00366396  1
  Ca2+  Ca71  1  0.25211663  0.74672786  0.49550321  1
  Ca2+  Ca72  1  0.25059024  0.75401197  0.00420515  1
  Ca2+  Ca73  1  0.74925752  0.74991674  0.49812140  1
  Ca2+  Ca74  1  0.50440365  0.75235519  0.74867578  1
  Ca2+  Ca75  1  -0.00056732  0.74981077  0.74801513  1
  Ca2+  Ca76  1  0.24910016  0.50334325  0.25571854  1
  Ca2+  Ca77  1  -0.00110963  0.25175490  0.24873340  1
  Ca2+  Ca78  1  0.49780371  0.24920145  0.75360776  1
  Ca2+  Ca79  1  0.24622912  0.49543264  0.75127310  1
  Ca2+  Ca80  1  0.50212280  0.24874808  0.25210873  1
  Ca2+  Ca81  1  0.75044439  0.00168261  0.24674036  1
  Ca2+  Ca82  1  0.24797333  -0.00311104  0.25045609  1
  Ca2+  Ca83  1  0.75199467  0.50070963  0.24574986  1
  Ca2+  Ca84  1  0.74978276  0.50050360  0.75193229  1
  Nb5+  Nb85  1  -0.00015390  -0.00496427  -0.00167396  1
  Nb5+  Nb86  1  0.00473870  0.49757032  0.49243477  1
  Nb5+  Nb87  1  -0.00240738  0.49259541  -0.00446239  1
  Nb5+  Nb88  1  0.25210397  0.24673863  0.50147189  1
  Nb5+  Nb89  1  0.74897218  0.24800602  -0.00084970  1
  Nb5+  Nb90  1  0.74888226  0.74798681  0.00515852  1
  Nb5+  Nb91  1  0.75336312  0.00070106  0.74999044  1
  Nb5+  Nb92  1  0.50609174  0.74884966  0.24951173  1
  Nb5+  Nb93  1  0.00313812  0.74955719  0.24955477  1
  Nb5+  Nb94  1  0.25745522  0.00542148  0.74567326  1
  Nb5+  Nb95  1  0.00076760  0.25008992  0.75162087  1
  Nb5+  Nb96  1  0.00003345  -0.00024231  0.25524404  1
  Nb5+  Nb97  1  0.00234462  0.00039976  0.74983349  1
  Nb5+  Nb98  1  -0.00411447  0.49938537  0.23760808  1
  Nb5+  Nb99  1  0.00034341  0.50218317  0.74641718  1
  Nb5+  Nb100  1  0.50400026  0.00358503  0.25160795  1
  Nb5+  Nb101  1  0.50878210  -0.00336697  0.75230067  1
  Nb5+  Nb102  1  0.49610153  0.49508243  0.24870069  1
  Nb5+  Nb103  1  0.49738731  0.50178624  0.75117864  1
  Nb5+  Nb104  1  0.25209132  0.25165505  0.24506451  1
  Nb5+  Nb105  1  0.25296666  0.24277732  0.75186055  1
  Nb5+  Nb106  1  0.25965258  0.74822667  0.24973502  1
  Nb5+  Nb107  1  0.24433540  0.74512422  0.74386610  1
  Nb5+  Nb108  1  0.74969939  0.24587136  0.25587424  1
  Nb5+  Nb109  1  0.75224496  0.25511536  0.75454356  1
  Nb5+  Nb110  1  0.75408609  0.74662923  0.25014626  1
  Nb5+  Nb111  1  0.74779389  0.75218204  0.74222997  1
  Nb5+  Nb112  1  -0.00113096  0.25240656  0.49337792  1
  Nb5+  Nb113  1  0.00139380  0.24442374  0.99782848  1
  Nb5+  Nb114  1  0.00350345  0.75228460  0.50447099  1
  Nb5+  Nb115  1  -0.00156021  0.74474045  0.99971949  1
  Nb5+  Nb116  1  0.50703613  0.25415391  0.49618151  1
  Nb5+  Nb117  1  0.49295052  0.24673935  1.00119977  1
  Nb5+  Nb118  1  0.50609077  0.74741313  0.50762029  1
  Nb5+  Nb119  1  0.49401757  0.74739122  1.00285599  1
  Nb5+  Nb120  1  0.25271567  0.00388328  0.00035209  1
  Nb5+  Nb121  1  0.24966970  -0.00087669  0.49532444  1
  Nb5+  Nb122  1  0.25282600  0.50446824  -0.00488206  1
  Nb5+  Nb123  1  0.24960746  0.50181664  0.50079225  1
  Nb5+  Nb124  1  0.75424993  -0.00382940  -0.00179431  1
  Nb5+  Nb125  1  0.75364707  0.00367776  0.49233819  1
  Nb5+  Nb126  1  0.75131882  0.49260083  0.00079980  1
  Nb5+  Nb127  1  0.74446909  0.49561071  0.50603209  1
  O2-  O128  1  0.01188753  0.01924189  0.11104601  1
  O2-  O129  1  0.00406153  0.03163486  0.63896724  1
  O2-  O130  1  -0.01754852  0.52349347  0.12542464  1
  O2-  O131  1  -0.01564266  0.51679735  0.63269140  1
  O2-  O132  1  0.49656114  0.02079347  0.13209515  1
  O2-  O133  1  0.51483099  0.02226114  0.63533700  1
  O2-  O134  1  0.48199681  0.52410387  0.13333263  1
  O2-  O135  1  0.48184694  0.53071086  0.63464257  1
  O2-  O136  1  -0.01665276  -0.02086771  0.36595198  1
  O2-  O137  1  -0.01547507  -0.00979534  0.87210110  1
  O2-  O138  1  0.01722860  0.47636843  0.38091542  1
  O2-  O139  1  0.01474666  0.47711142  0.88335508  1
  O2-  O140  1  0.50256730  -0.02811146  0.36596443  1
  O2-  O141  1  0.47745111  -0.02216209  0.86493560  1
  O2-  O142  1  0.51820348  0.48527731  0.36589918  1
  O2-  O143  1  0.51337190  0.47330086  0.86827480  1
  O2-  O144  1  0.24498836  0.27641367  0.13268029  1
  O2-  O145  1  0.23457987  0.26111704  0.62611972  1
  O2-  O146  1  0.24369331  0.78911718  0.13733161  1
  O2-  O147  1  0.23567975  0.77925728  0.63054814  1
  O2-  O148  1  0.74691305  0.27033879  0.11421633  1
  O2-  O149  1  0.74885502  0.26378020  0.63937031  1
  O2-  O150  1  0.74319978  0.78275021  0.12093080  1
  O2-  O151  1  0.73993051  0.78593141  0.63439046  1
  O2-  O152  1  0.25735195  0.22994897  0.38440629  1
  O2-  O153  1  0.24887224  0.21619261  0.86331379  1
  O2-  O154  1  0.26279895  0.71016585  0.36249942  1
  O2-  O155  1  0.26189006  0.73680994  0.86391747  1
  O2-  O156  1  0.75749728  0.21999015  0.36734640  1
  O2-  O157  1  0.76059771  0.22762803  0.87750055  1
  O2-  O158  1  0.76023476  0.71850029  0.36136361  1
  O2-  O159  1  0.76858249  0.74085094  0.88835711  1
  O2-  O160  1  0.00212858  0.22824839  0.11241519  1
  O2-  O161  1  0.00742469  0.23485901  0.63317595  1
  O2-  O162  1  0.01330212  0.73744609  0.12598977  1
  O2-  O163  1  0.02861091  0.73373559  0.61383837  1
  O2-  O164  1  0.52501069  0.23135725  0.11611096  1
  O2-  O165  1  0.51464761  0.23074450  0.61563672  1
  O2-  O166  1  0.52004532  0.73479661  0.12950740  1
  O2-  O167  1  0.53853635  0.73836092  0.61689986  1
  O2-  O168  1  0.23811217  0.02302838  0.38426331  1
  O2-  O169  1  0.25287070  0.02285258  0.86561002  1
  O2-  O170  1  0.20922475  0.50697742  0.39019767  1
  O2-  O171  1  0.21184241  0.51381211  0.88402637  1
  O2-  O172  1  0.76941786  0.02781937  0.38144204  1
  O2-  O173  1  0.75395145  0.01922435  0.87543470  1
  O2-  O174  1  0.73195280  0.51221368  0.38682472  1
  O2-  O175  1  0.73889188  0.53045067  0.89034411  1
  O2-  O176  1  -0.01793942  0.27815451  0.38409990  1
  O2-  O177  1  -0.00967394  0.26703176  0.87463698  1
  O2-  O178  1  -0.02157847  0.75655230  0.36565556  1
  O2-  O179  1  -0.02394280  0.75677974  0.88728330  1
  O2-  O180  1  0.46924344  0.26296273  0.38548389  1
  O2-  O181  1  0.49145872  0.27692704  0.88650851  1
  O2-  O182  1  0.48364585  0.76175310  0.36559156  1
  O2-  O183  1  0.48054727  0.76312690  0.88852169  1
  O2-  O184  1  0.24601856  -0.02124152  0.11199166  1
  O2-  O185  1  0.24581842  -0.01330859  0.62855093  1
  O2-  O186  1  0.26038173  0.48125943  0.11348728  1
  O2-  O187  1  0.26637019  0.47599765  0.61610031  1
  O2-  O188  1  0.76124879  -0.00880779  0.11144145  1
  O2-  O189  1  0.73692653  -0.01855963  0.63718898  1
  O2-  O190  1  0.78796588  0.49130130  0.11194623  1
  O2-  O191  1  0.78284942  0.48706120  0.61950031  1
  O2-  O192  1  0.13321587  0.26777531  0.26685459  1
  O2-  O193  1  0.11806690  0.26287250  0.75826632  1
  O2-  O194  1  0.11861811  0.76510160  0.26279127  1
  O2-  O195  1  0.13139265  0.77670589  0.76668905  1
  O2-  O196  1  0.63562404  0.28320396  0.26063217  1
  O2-  O197  1  0.63558158  0.26280234  0.76565416  1
  O2-  O198  1  0.62544767  0.76528954  0.25925807  1
  O2-  O199  1  0.63821729  0.77017407  0.78293838  1
  O2-  O200  1  0.36635650  0.21976638  0.24352622  1
  O2-  O201  1  0.36340858  0.21757797  0.73575646  1
  O2-  O202  1  0.37650241  0.73524502  0.23179863  1
  O2-  O203  1  0.36488954  0.73897259  0.73246992  1
  O2-  O204  1  0.86691007  0.21650843  0.23877191  1
  O2-  O205  1  0.87519789  0.22682863  0.75052678  1
  O2-  O206  1  0.87306773  0.73464066  0.23168597  1
  O2-  O207  1  0.86408446  0.73126753  0.74518518  1
  O2-  O208  1  0.27115213  0.36570109  0.27649112  1
  O2-  O209  1  0.26653516  0.35668883  0.76935926  1
  O2-  O210  1  0.26109325  0.86159363  0.28846048  1
  O2-  O211  1  0.26213328  0.88729864  0.76229530  1
  O2-  O212  1  0.78170199  0.36325272  0.25997396  1
  O2-  O213  1  0.77053729  0.36550572  0.77707546  1
  O2-  O214  1  0.76693034  0.86397890  0.26911224  1
  O2-  O215  1  0.76809935  0.88208598  0.77362222  1
  O2-  O216  1  0.22514151  0.13291288  0.23458165  1
  O2-  O217  1  0.21771983  0.12047309  0.73083804  1
  O2-  O218  1  0.22971721  0.63766472  0.21739612  1
  O2-  O219  1  0.22511437  0.63264970  0.72630598  1
  O2-  O220  1  0.71948660  0.13615681  0.22191619  1
  O2-  O221  1  0.73203759  0.11989850  0.74108377  1
  O2-  O222  1  0.73412498  0.63666595  0.21341395  1
  O2-  O223  1  0.72720507  0.63843997  0.73013183  1
  O2-  O224  1  0.11264940  0.48920324  0.23489699  1
  O2-  O225  1  0.11065236  0.46146828  0.74028907  1
  O2-  O226  1  0.11229500  0.96717313  0.24261049  1
  O2-  O227  1  0.11832992  0.98550753  0.75902129  1
  O2-  O228  1  0.61583698  0.48354074  0.22831898  1
  O2-  O229  1  0.61637904  0.47895820  0.72993268  1
  O2-  O230  1  0.61811309  0.97050393  0.23924451  1
  O2-  O231  1  0.62520205  0.98039719  0.76539430  1
  O2-  O232  1  0.38307427  0.00893296  0.25122819  1
  O2-  O233  1  0.37045204  0.02558229  0.74055495  1
  O2-  O234  1  0.38213387  0.52921976  0.26888462  1
  O2-  O235  1  0.37847053  0.51849721  0.77438644  1
  O2-  O236  1  0.88806624  0.00792147  0.22339325  1
  O2-  O237  1  0.86958906  0.01965060  0.74574840  1
  O2-  O238  1  0.88717826  0.51938540  0.27896264  1
  O2-  O239  1  0.88759448  0.50931120  0.77952727  1
  O2-  O240  1  0.47057069  0.38317462  0.23423380  1
  O2-  O241  1  0.47602385  0.38249216  0.72680323  1
  O2-  O242  1  0.48539499  0.86686550  0.23101186  1
  O2-  O243  1  0.47663955  0.88615096  0.72450473  1
  O2-  O244  1  0.97921488  0.38580622  0.22547704  1
  O2-  O245  1  0.97379743  0.36610840  0.73847713  1
  O2-  O246  1  0.98158815  0.86664278  0.23156116  1
  O2-  O247  1  0.97722775  0.88901741  0.73006022  1
  O2-  O248  1  0.02175986  0.11278772  0.26766595  1
  O2-  O249  1  0.00817303  0.12804428  0.77461159  1
  O2-  O250  1  0.01312406  0.62810878  0.26058803  1
  O2-  O251  1  0.02791430  0.61163695  0.76902951  1
  O2-  O252  1  0.52410276  0.11457850  0.27646106  1
  O2-  O253  1  0.51509436  0.11448200  0.77593450  1
  O2-  O254  1  0.51912479  0.63059344  0.26513727  1
  O2-  O255  1  0.51911929  0.61826627  0.77589441  1
  O2-  O256  1  0.11198672  0.48796632  0.02465148  1
  O2-  O257  1  0.11848351  0.48203095  0.52939881  1
  O2-  O258  1  0.11549146  0.98332047  -0.02061043  1
  O2-  O259  1  0.13239798  0.97786100  0.51014370  1
  O2-  O260  1  0.64002543  0.48054442  0.02533217  1
  O2-  O261  1  0.63379371  0.47409508  0.52799879  1
  O2-  O262  1  0.63835626  0.98632136  -0.00287087  1
  O2-  O263  1  0.63870880  0.97199745  0.49259801  1
  O2-  O264  1  0.36315154  0.03309406  0.00067814  1
  O2-  O265  1  0.36381695  0.03018668  0.50461101  1
  O2-  O266  1  0.36429466  0.52712545  -0.02321047  1
  O2-  O267  1  0.36088473  0.51066742  0.47141453  1
  O2-  O268  1  0.87929036  0.02533142  -0.00427352  1
  O2-  O269  1  0.86542085  0.02091738  0.52985940  1
  O2-  O270  1  0.88226554  0.52426202  -0.01657438  1
  O2-  O271  1  0.88751441  0.51678534  0.48702660  1
  O2-  O272  1  0.48231624  0.36528531  0.02724768  1
  O2-  O273  1  0.47274411  0.36571470  0.52244579  1
  O2-  O274  1  0.48960896  0.86354002  0.02891557  1
  O2-  O275  1  0.47492368  0.86396000  0.51411190  1
  O2-  O276  1  0.97536552  0.38035807  0.01715391  1
  O2-  O277  1  0.98876246  0.37646581  0.52390574  1
  O2-  O278  1  0.97815182  0.88161746  0.01415564  1
  O2-  O279  1  0.98151074  0.86449623  0.51587839  1
  O2-  O280  1  0.01309111  0.12999267  -0.02437030  1
  O2-  O281  1  0.01922374  0.13823653  0.47398969  1
  O2-  O282  1  0.01410450  0.62864738  -0.01073088  1
  O2-  O283  1  0.02469478  0.61521540  0.48545937  1
  O2-  O284  1  0.52961500  0.13497443  -0.02329038  1
  O2-  O285  1  0.51658740  0.13482312  0.47911412  1
  O2-  O286  1  0.53666380  0.63713867  -0.00922476  1
  O2-  O287  1  0.52420181  0.63258053  0.47757017  1
  O2-  O288  1  0.11086975  0.28030348  -0.00525211  1
  O2-  O289  1  0.12120357  0.26847642  0.49718988  1
  O2-  O290  1  0.11036693  0.77477200  -0.00952999  1
  O2-  O291  1  0.11456900  0.75973111  0.46420272  1
  O2-  O292  1  0.63645489  0.27459434  -0.01397285  1
  O2-  O293  1  0.61707834  0.28076634  0.47875967  1
  O2-  O294  1  0.63533748  0.77451298  -0.00910941  1
  O2-  O295  1  0.61770614  0.77497386  0.47304369  1
  O2-  O296  1  0.38251946  0.21842672  0.01285354  1
  O2-  O297  1  0.36558659  0.23179798  0.51893589  1
  O2-  O298  1  0.38430601  0.72220989  0.02228110  1
  O2-  O299  1  0.38782247  0.72131893  0.51833328  1
  O2-  O300  1  0.87517791  0.24299365  0.00147072  1
  O2-  O301  1  0.88642258  0.23214401  0.51742119  1
  O2-  O302  1  0.87628297  0.74408013  0.02443726  1
  O2-  O303  1  0.88959311  0.71964606  0.50556701  1
  O2-  O304  1  0.26330197  0.38487210  -0.02589531  1
  O2-  O305  1  0.25807120  0.36757630  0.48531370  1
  O2-  O306  1  0.26430894  0.88964926  -0.03237058  1
  O2-  O307  1  0.27454286  0.88581394  0.48220411  1
  O2-  O308  1  0.77173327  0.37919763  -0.02237927  1
  O2-  O309  1  0.77994886  0.38356878  0.48420034  1
  O2-  O310  1  0.77411517  0.88205586  -0.01905932  1
  O2-  O311  1  0.78289000  0.88488795  0.48637773  1
  O2-  O312  1  0.20964149  0.11423876  0.01065179  1
  O2-  O313  1  0.22308982  0.13026364  0.51345401  1
  O2-  O314  1  0.22193693  0.61938623  0.01538804  1
  O2-  O315  1  0.23319697  0.61323513  0.52727544  1
  O2-  O316  1  0.73884944  0.13065276  0.01235563  1
  O2-  O317  1  0.72215536  0.11609539  0.52019076  1
  O2-  O318  1  0.73977134  0.63433778  0.02301381  1
  O2-  O319  1  0.73777870  0.61477361  0.52470723  1
