# generated using pymatgen
data_Sr64Ca21Nb43O192
_symmetry_space_group_name_H-M   'P 1'
_cell_length_a   16.53246798
_cell_length_b   16.53734409
_cell_length_c   16.67345086
_cell_angle_alpha   89.98939092
_cell_angle_beta   90.00038753
_cell_angle_gamma   89.98126518
_symmetry_Int_Tables_number   1
_chemical_formula_structural   Sr64Ca21Nb43O192
_chemical_formula_sum   'Sr64 Ca21 Nb43 O192'
_cell_volume   4558.57302340
_cell_formula_units_Z   1
loop_
 _symmetry_equiv_pos_site_id
 _symmetry_equiv_pos_as_xyz
  1  'x, y, z'
loop_
 _atom_type_symbol
 _atom_type_oxidation_number
  Sr2+  2.0
  Ca2+  2.0
  Nb5+  5.0
  O2-  -2.0
loop_
 _atom_site_type_symbol
 _atom_site_label
 _atom_site_symmetry_multiplicity
 _atom_site_fract_x
 _atom_site_fract_y
 _atom_site_fract_z
 _atom_site_occupancy
  Sr2+  Sr0  1  0.13181702  0.11735634  0.12590617  1
  Sr2+  Sr1  1  0.11895260  0.13123470  0.60686331  1
  Sr2+  Sr2  1  0.11716061  0.62072688  0.12380433  1
  Sr2+  Sr3  1  0.12141665  0.62858918  0.62657713  1
  Sr2+  Sr4  1  0.61357459  0.12447667  0.12709138  1
  Sr2+  Sr5  1  0.62527331  0.11594728  0.62841648  1
  Sr2+  Sr6  1  0.63235234  0.62287034  0.12751375  1
  Sr2+  Sr7  1  0.62868574  0.62255794  0.62498744  1
  Sr2+  Sr8  1  0.38346654  0.37964798  0.12265091  1
  Sr2+  Sr9  1  0.38188923  0.39853050  0.62612315  1
  Sr2+  Sr10  1  0.37825480  0.86993144  0.12563964  1
  Sr2+  Sr11  1  0.38344357  0.87852780  0.62465570  1
  Sr2+  Sr12  1  0.87057801  0.38517616  0.12776727  1
  Sr2+  Sr13  1  0.87130732  0.35305477  0.62550428  1
  Sr2+  Sr14  1  0.87607633  0.87181379  0.12095254  1
  Sr2+  Sr15  1  0.87350079  0.87703112  0.62919290  1
  Sr2+  Sr16  1  0.12532451  0.36124686  0.38146643  1
  Sr2+  Sr17  1  0.13228539  0.36988865  0.87876703  1
  Sr2+  Sr18  1  0.13041801  0.87253224  0.36585763  1
  Sr2+  Sr19  1  0.12011723  0.87205769  0.86856282  1
  Sr2+  Sr20  1  0.62041873  0.37028295  0.36976995  1
  Sr2+  Sr21  1  0.62975279  0.36438170  0.87461111  1
  Sr2+  Sr22  1  0.61580790  0.87638271  0.38395142  1
  Sr2+  Sr23  1  0.62479730  0.86931425  0.88727879  1
  Sr2+  Sr24  1  0.36340421  0.12788747  0.37496333  1
  Sr2+  Sr25  1  0.36709156  0.13441563  0.87464887  1
  Sr2+  Sr26  1  0.36603519  0.61376431  0.38190105  1
  Sr2+  Sr27  1  0.35996542  0.61145893  0.86464698  1
  Sr2+  Sr28  1  0.90011447  0.13081736  0.37759011  1
  Sr2+  Sr29  1  0.84914441  0.12033470  0.87562547  1
  Sr2+  Sr30  1  0.87359062  0.62653461  0.38207704  1
  Sr2+  Sr31  1  0.87850219  0.62572209  0.87111836  1
  Sr2+  Sr32  1  0.13003203  0.11556652  0.36748613  1
  Sr2+  Sr33  1  0.12670898  0.11428602  0.88220924  1
  Sr2+  Sr34  1  0.11744179  0.60317758  0.37905828  1
  Sr2+  Sr35  1  0.11834513  0.60884174  0.87215213  1
  Sr2+  Sr36  1  0.61786702  0.12667251  0.37558148  1
  Sr2+  Sr37  1  0.62358082  0.12879307  0.87189870  1
  Sr2+  Sr38  1  0.62844865  0.62127663  0.37504559  1
  Sr2+  Sr39  1  0.62933872  0.61809694  0.87840800  1
  Sr2+  Sr40  1  0.37385442  0.37283544  0.37504883  1
  Sr2+  Sr41  1  0.37521620  0.37438649  0.86704116  1
  Sr2+  Sr42  1  0.37039508  0.87245769  0.37558626  1
  Sr2+  Sr43  1  0.36531714  0.87612216  0.87446172  1
  Sr2+  Sr44  1  0.87520041  0.37250933  0.37328021  1
  Sr2+  Sr45  1  0.87898230  0.36740268  0.87136443  1
  Sr2+  Sr46  1  0.86877716  0.88280010  0.38627162  1
  Sr2+  Sr47  1  0.87849998  0.88075584  0.87373760  1
  Sr2+  Sr48  1  0.11733146  0.37527788  0.11819199  1
  Sr2+  Sr49  1  0.12845640  0.38516966  0.61181373  1
  Sr2+  Sr50  1  0.11940497  0.87629145  0.12593370  1
  Sr2+  Sr51  1  0.14038792  0.86668708  0.63242067  1
  Sr2+  Sr52  1  0.63447265  0.37942411  0.13404052  1
  Sr2+  Sr53  1  0.62385351  0.37033651  0.63592781  1
  Sr2+  Sr54  1  0.60574697  0.86433475  0.12999698  1
  Sr2+  Sr55  1  0.62680163  0.87367894  0.61766392  1
  Sr2+  Sr56  1  0.37428371  0.12628560  0.12731400  1
  Sr2+  Sr57  1  0.38316744  0.12410163  0.62931927  1
  Sr2+  Sr58  1  0.38460896  0.63836804  0.12679378  1
  Sr2+  Sr59  1  0.35430399  0.62663151  0.62478428  1
  Sr2+  Sr60  1  0.87673275  0.12001067  0.12160593  1
  Sr2+  Sr61  1  0.86962740  0.12601046  0.62117589  1
  Sr2+  Sr62  1  0.87103983  0.63022839  0.12703287  1
  Sr2+  Sr63  1  0.87950921  0.63732553  0.62579885  1
  Ca2+  Ca64  1  -0.00691603  0.50025239  0.50313982  1
  Ca2+  Ca65  1  0.00220362  -0.00417520  0.49949314  1
  Ca2+  Ca66  1  0.49744287  0.00062327  -0.00267741  1
  Ca2+  Ca67  1  0.49970135  0.49874755  -0.00099414  1
  Ca2+  Ca68  1  0.50383111  0.49908869  0.49957206  1
  Ca2+  Ca69  1  0.74586717  0.25021192  0.49608841  1
  Ca2+  Ca70  1  0.24864933  0.74838889  -0.00042514  1
  Ca2+  Ca71  1  0.25443321  0.24775079  0.50337114  1
  Ca2+  Ca72  1  0.74844107  0.25079600  0.00425193  1
  Ca2+  Ca73  1  0.24819986  0.75158118  0.49689763  1
  Ca2+  Ca74  1  0.24740523  0.49537580  0.24760906  1
  Ca2+  Ca75  1  0.24475320  0.49473850  0.74993953  1
  Ca2+  Ca76  1  0.00018728  0.25175487  0.24603671  1
  Ca2+  Ca77  1  0.74803411  -0.00526472  0.75000493  1
  Ca2+  Ca78  1  0.49941417  0.74763405  0.25404102  1
  Ca2+  Ca79  1  0.50358833  0.75245398  0.75053338  1
  Ca2+  Ca80  1  0.24947691  0.00432755  0.75049090  1
  Ca2+  Ca81  1  0.75143013  0.50066918  0.75020804  1
  Ca2+  Ca82  1  0.74955107  -0.00223836  0.24944645  1
  Ca2+  Ca83  1  0.00006247  0.74941626  0.24742802  1
  Ca2+  Ca84  1  0.00437439  0.24576397  0.75112772  1
  Nb5+  Nb85  1  -0.00581210  0.49324367  -0.00152924  1
  Nb5+  Nb86  1  0.49818832  0.00290812  0.49956354  1
  Nb5+  Nb87  1  -0.00045792  -0.00169246  -0.00066909  1
  Nb5+  Nb88  1  0.75103636  0.75171289  0.00507422  1
  Nb5+  Nb89  1  0.75019771  0.75022571  0.50573055  1
  Nb5+  Nb90  1  0.25094141  0.25062743  0.00218604  1
  Nb5+  Nb91  1  -0.00090056  0.75143005  0.74996744  1
  Nb5+  Nb92  1  0.49766412  0.24978207  0.25361291  1
  Nb5+  Nb93  1  0.75298983  0.50156667  0.25390628  1
  Nb5+  Nb94  1  0.49923177  0.24998595  0.75353232  1
  Nb5+  Nb95  1  0.25439311  -0.00268907  0.24790745  1
  Nb5+  Nb96  1  -0.00118165  0.00075704  0.24974879  1
  Nb5+  Nb97  1  0.00337661  0.00458878  0.74663023  1
  Nb5+  Nb98  1  -0.00154217  0.49741684  0.25346853  1
  Nb5+  Nb99  1  -0.00412408  0.49534960  0.74563713  1
  Nb5+  Nb100  1  0.49819718  -0.00091938  0.24950082  1
  Nb5+  Nb101  1  0.50262340  -0.00181784  0.75606842  1
  Nb5+  Nb102  1  0.49713462  0.50363290  0.24672270  1
  Nb5+  Nb103  1  0.50451946  0.50683749  0.75131827  1
  Nb5+  Nb104  1  0.24998528  0.25344759  0.24680319  1
  Nb5+  Nb105  1  0.24748699  0.24849678  0.74384766  1
  Nb5+  Nb106  1  0.24833395  0.74019193  0.25181207  1
  Nb5+  Nb107  1  0.25340542  0.74946381  0.75318266  1
  Nb5+  Nb108  1  0.75096556  0.24321587  0.24872394  1
  Nb5+  Nb109  1  0.75106043  0.24528696  0.75135242  1
  Nb5+  Nb110  1  0.75604263  0.75411154  0.25804555  1
  Nb5+  Nb111  1  0.74659154  0.75368500  0.75694635  1
  Nb5+  Nb112  1  -0.00161223  0.24927604  0.50116964  1
  Nb5+  Nb113  1  -0.00252389  0.24176996  0.99742831  1
  Nb5+  Nb114  1  0.00329247  0.75746741  0.49615075  1
  Nb5+  Nb115  1  0.00005468  0.74481917  0.99836280  1
  Nb5+  Nb116  1  0.49798036  0.25245908  0.50689042  1
  Nb5+  Nb117  1  0.50049438  0.25330123  1.00445342  1
  Nb5+  Nb118  1  0.50023747  0.74497070  0.50087166  1
  Nb5+  Nb119  1  0.49537234  0.74362808  0.99310188  1
  Nb5+  Nb120  1  0.25199496  -0.00216812  0.00050737  1
  Nb5+  Nb121  1  0.25055299  -0.00057379  0.50432760  1
  Nb5+  Nb122  1  0.24943220  0.50154398  0.00731133  1
  Nb5+  Nb123  1  0.24912134  0.49927422  0.49835112  1
  Nb5+  Nb124  1  0.74236475  -0.00233318  0.00789152  1
  Nb5+  Nb125  1  0.74991704  0.00424459  0.49533284  1
  Nb5+  Nb126  1  0.75220995  0.49803465  -0.00324984  1
  Nb5+  Nb127  1  0.74966369  0.49709020  0.50384150  1
  O2-  O128  1  -0.00898656  0.01681377  0.11884717  1
  O2-  O129  1  -0.02217802  0.01074519  0.63434001  1
  O2-  O130  1  0.01389857  0.49940719  0.11884363  1
  O2-  O131  1  0.02700758  0.50409291  0.63583539  1
  O2-  O132  1  0.47935210  0.00595669  0.13344816  1
  O2-  O133  1  0.48033664  0.00123682  0.61728169  1
  O2-  O134  1  0.52117307  0.47710049  0.13384576  1
  O2-  O135  1  0.52509237  0.48536804  0.63463327  1
  O2-  O136  1  0.02075469  -0.01739132  0.36219650  1
  O2-  O137  1  0.02393913  -0.00498683  0.88375908  1
  O2-  O138  1  -0.03008452  0.50611606  0.36585100  1
  O2-  O139  1  -0.02814755  0.50074592  0.88013650  1
  O2-  O140  1  0.51487107  0.01040318  0.37368874  1
  O2-  O141  1  0.53707168  0.00092529  0.86550114  1
  O2-  O142  1  0.47946385  0.49690069  0.36347116  1
  O2-  O143  1  0.46866958  0.50503448  0.86616643  1
  O2-  O144  1  0.25860324  0.23062654  0.12447358  1
  O2-  O145  1  0.25136325  0.21066753  0.63638111  1
  O2-  O146  1  0.27163361  0.74142552  0.13433116  1
  O2-  O147  1  0.23699241  0.73072793  0.63443696  1
  O2-  O148  1  0.75326582  0.27162678  0.13529466  1
  O2-  O149  1  0.74876808  0.25277941  0.63260832  1
  O2-  O150  1  0.76442610  0.75242010  0.12264920  1
  O2-  O151  1  0.75575946  0.74966939  0.62479854  1
  O2-  O152  1  0.25056070  0.26032381  0.36444853  1
  O2-  O153  1  0.25400785  0.27097659  0.88469300  1
  O2-  O154  1  0.24846211  0.77900402  0.36380638  1
  O2-  O155  1  0.24446436  0.78117636  0.86712784  1
  O2-  O156  1  0.73398600  0.26505831  0.36193391  1
  O2-  O157  1  0.73384459  0.24137908  0.87110285  1
  O2-  O158  1  0.74795386  0.75166434  0.37571888  1
  O2-  O159  1  0.74097038  0.74821550  0.87601014  1
  O2-  O160  1  -0.00922662  0.25762466  0.11193844  1
  O2-  O161  1  -0.01014251  0.22442730  0.61896606  1
  O2-  O162  1  -0.02083416  0.74350165  0.11184024  1
  O2-  O163  1  -0.00602324  0.75076458  0.63085558  1
  O2-  O164  1  0.48921086  0.24755276  0.12388277  1
  O2-  O165  1  0.49974843  0.24928915  0.62556840  1
  O2-  O166  1  0.48889620  0.75988429  0.11522160  1
  O2-  O167  1  0.50411556  0.77621983  0.61494972  1
  O2-  O168  1  0.24164676  -0.01369605  0.36722840  1
  O2-  O169  1  0.23053660  -0.01665569  0.88710709  1
  O2-  O170  1  0.27579967  0.48636558  0.38087894  1
  O2-  O171  1  0.26372795  0.47836402  0.89090259  1
  O2-  O172  1  0.72978420  -0.02285435  0.38185398  1
  O2-  O173  1  0.73666562  0.00160590  0.88906740  1
  O2-  O174  1  0.77665220  0.50781921  0.36816456  1
  O2-  O175  1  0.77195940  0.52070849  0.88542163  1
  O2-  O176  1  -0.00212820  0.26694685  0.38109325  1
  O2-  O177  1  0.01262258  0.27105237  0.88477198  1
  O2-  O178  1  -0.00080086  0.75878650  0.38174962  1
  O2-  O179  1  -0.00033503  0.75753241  0.87630721  1
  O2-  O180  1  0.50501004  0.24598932  0.37235629  1
  O2-  O181  1  0.50333171  0.24768291  0.87373328  1
  O2-  O182  1  0.51604289  0.75570080  0.38577251  1
  O2-  O183  1  0.53456704  0.74388353  0.88320815  1
  O2-  O184  1  0.26316703  0.01886809  0.12614685  1
  O2-  O185  1  0.26626700  0.02122685  0.61561790  1
  O2-  O186  1  0.20601829  0.50003655  0.11707694  1
  O2-  O187  1  0.22365671  0.51659378  0.61751158  1
  O2-  O188  1  0.78669390  -0.00538639  0.11689617  1
  O2-  O189  1  0.77085094  -0.00128165  0.61302092  1
  O2-  O190  1  0.73529532  0.50129125  0.12244874  1
  O2-  O191  1  0.71765733  0.49607268  0.61460625  1
  O2-  O192  1  0.13657382  0.27576086  0.23699183  1
  O2-  O193  1  0.13733099  0.28322434  0.74108116  1
  O2-  O194  1  0.13582783  0.78019396  0.23738609  1
  O2-  O195  1  0.11846522  0.76898766  0.75093191  1
  O2-  O196  1  0.61590424  0.27016192  0.23900514  1
  O2-  O197  1  0.62040792  0.26956935  0.74892518  1
  O2-  O198  1  0.63906106  0.77054421  0.24181576  1
  O2-  O199  1  0.63830649  0.79147316  0.74599555  1
  O2-  O200  1  0.37967391  0.22464781  0.25164502  1
  O2-  O201  1  0.38165777  0.22696966  0.75271649  1
  O2-  O202  1  0.36746735  0.71688844  0.26625551  1
  O2-  O203  1  0.36785587  0.72574565  0.75549277  1
  O2-  O204  1  0.86350024  0.21640616  0.25405937  1
  O2-  O205  1  0.86639000  0.22108869  0.75664764  1
  O2-  O206  1  0.86598555  0.71196227  0.25545467  1
  O2-  O207  1  0.87755346  0.72722047  0.75579062  1
  O2-  O208  1  0.28585692  0.36346207  0.23519135  1
  O2-  O209  1  0.28422964  0.36125085  0.73739524  1
  O2-  O210  1  0.27842476  0.88415057  0.23532904  1
  O2-  O211  1  0.27009162  0.86755713  0.72632477  1
  O2-  O212  1  0.77009719  0.38252994  0.25109231  1
  O2-  O213  1  0.77002134  0.36513162  0.75909465  1
  O2-  O214  1  0.79062048  0.86369233  0.25116195  1
  O2-  O215  1  0.78783876  0.86506886  0.75361807  1
  O2-  O216  1  0.23709990  0.12653997  0.25686108  1
  O2-  O217  1  0.23877891  0.13904561  0.78905247  1
  O2-  O218  1  0.21543732  0.63061650  0.26449649  1
  O2-  O219  1  0.23172614  0.63184118  0.77590012  1
  O2-  O220  1  0.71493555  0.13345143  0.24305025  1
  O2-  O221  1  0.72400286  0.12831629  0.74917242  1
  O2-  O222  1  0.72738509  0.62227376  0.24964261  1
  O2-  O223  1  0.72506535  0.63765007  0.74660136  1
  O2-  O224  1  0.11014922  0.46954726  0.27365998  1
  O2-  O225  1  0.10951593  0.48413401  0.78274274  1
  O2-  O226  1  0.13526551  0.98659831  0.23323710  1
  O2-  O227  1  0.11512854  0.96371208  0.74270441  1
  O2-  O228  1  0.63208616  0.47982531  0.26424591  1
  O2-  O229  1  0.61635418  0.47610695  0.78093844  1
  O2-  O230  1  0.61264050  0.98035836  0.23292566  1
  O2-  O231  1  0.61292287  0.98723801  0.71386424  1
  O2-  O232  1  0.37394799  0.02563925  0.26296836  1
  O2-  O233  1  0.38775279  0.03110192  0.76166016  1
  O2-  O234  1  0.38457458  0.52274747  0.22445749  1
  O2-  O235  1  0.38385158  0.51991899  0.72675734  1
  O2-  O236  1  0.88711859  0.02456660  0.26486679  1
  O2-  O237  1  0.88998391  0.01455125  0.78018367  1
  O2-  O238  1  0.86952090  0.51938021  0.22447926  1
  O2-  O239  1  0.88485045  0.53418834  0.73558769  1
  O2-  O240  1  0.47865435  0.36818735  0.25478036  1
  O2-  O241  1  0.48207954  0.36817617  0.75051205  1
  O2-  O242  1  0.47344402  0.88533459  0.25622151  1
  O2-  O243  1  0.46988240  0.88675977  0.75944311  1
  O2-  O244  1  0.96515664  0.38441084  0.24129479  1
  O2-  O245  1  0.96672195  0.38317049  0.74323486  1
  O2-  O246  1  0.99237104  0.88682775  0.22032039  1
  O2-  O247  1  0.97857789  0.87105071  0.75325116  1
  O2-  O248  1  0.03061654  0.11681972  0.24990666  1
  O2-  O249  1  0.04165638  0.11328237  0.75556349  1
  O2-  O250  1  0.02253706  0.61367434  0.24189174  1
  O2-  O251  1  0.01970116  0.63116004  0.75596370  1
  O2-  O252  1  0.51907368  0.12776217  0.24815165  1
  O2-  O253  1  0.52323751  0.12928814  0.74621280  1
  O2-  O254  1  0.53026559  0.61407341  0.24307520  1
  O2-  O255  1  0.53286192  0.61868002  0.74585131  1
  O2-  O256  1  0.11190728  0.48214320  -0.02024394  1
  O2-  O257  1  0.12951519  0.47707193  0.47572315  1
  O2-  O258  1  0.12594676  0.99255281  0.02159728  1
  O2-  O259  1  0.13777927  0.97317054  0.51465833  1
  O2-  O260  1  0.63798510  0.48195143  -0.01943473  1
  O2-  O261  1  0.63915596  0.48957251  0.46023407  1
  O2-  O262  1  0.63306582  0.97117744  0.02856130  1
  O2-  O263  1  0.62068708  0.97999187  0.51136255  1
  O2-  O264  1  0.36369538  0.02656322  -0.01741636  1
  O2-  O265  1  0.38151422  0.02356265  0.48265796  1
  O2-  O266  1  0.36022826  0.51641112  0.03422473  1
  O2-  O267  1  0.36748262  0.52329519  0.52087408  1
  O2-  O268  1  0.88434729  0.02035959  -0.01568415  1
  O2-  O269  1  0.86412636  0.01930760  0.47198505  1
  O2-  O270  1  0.87727980  0.52367961  0.02085774  1
  O2-  O271  1  0.86009534  0.53729429  0.51496413  1
  O2-  O272  1  0.46320031  0.36441235  -0.00863385  1
  O2-  O273  1  0.46635433  0.36397065  0.49805054  1
  O2-  O274  1  0.47555109  0.86452683  -0.01325540  1
  O2-  O275  1  0.48377463  0.88418251  0.48737679  1
  O2-  O276  1  0.97506620  0.37878580  0.00245548  1
  O2-  O277  1  0.97430463  0.36620147  0.51723738  1
  O2-  O278  1  0.98414739  0.88071994  0.00488081  1
  O2-  O279  1  0.96007869  0.86688149  0.50845525  1
  O2-  O280  1  0.02458531  0.12723566  -0.00337151  1
  O2-  O281  1  0.02646210  0.12956179  0.47908654  1
  O2-  O282  1  0.01472630  0.62757714  -0.00762625  1
  O2-  O283  1  0.01976392  0.63885894  0.50586842  1
  O2-  O284  1  0.52468275  0.13647054  -0.00301429  1
  O2-  O285  1  0.52819763  0.12399031  0.50317196  1
  O2-  O286  1  0.53361844  0.63221477  0.01315205  1
  O2-  O287  1  0.53216202  0.63455255  0.50753241  1
  O2-  O288  1  0.12829708  0.26579319  0.00854141  1
  O2-  O289  1  0.11774361  0.26977200  0.51351693  1
  O2-  O290  1  0.11249146  0.77197471  0.00898679  1
  O2-  O291  1  0.11426900  0.78781421  0.50393068  1
  O2-  O292  1  0.61233014  0.28485815  0.00971353  1
  O2-  O293  1  0.61277439  0.28103241  0.50022347  1
  O2-  O294  1  0.63541162  0.77623816  0.01132660  1
  O2-  O295  1  0.63182742  0.77493760  0.50218368  1
  O2-  O296  1  0.37103808  0.22624868  -0.00094454  1
  O2-  O297  1  0.38674170  0.21479229  0.49645132  1
  O2-  O298  1  0.38480616  0.71365812  -0.02279898  1
  O2-  O299  1  0.38596313  0.72438239  0.49795267  1
  O2-  O300  1  0.88356140  0.22047991  -0.01325450  1
  O2-  O301  1  0.87917219  0.21989605  0.49755853  1
  O2-  O302  1  0.87311478  0.73822922  -0.01544074  1
  O2-  O303  1  0.86891554  0.72848271  0.49680396  1
  O2-  O304  1  0.25942289  0.36950334  0.02441771  1
  O2-  O305  1  0.26733718  0.38194544  0.52149317  1
  O2-  O306  1  0.27254173  0.88549812  0.01893196  1
  O2-  O307  1  0.28780741  0.88619577  0.50627892  1
  O2-  O308  1  0.78134739  0.38630944  -0.00738159  1
  O2-  O309  1  0.78112262  0.38631720  0.49814431  1
  O2-  O310  1  0.77503717  0.87300379  -0.00551840  1
  O2-  O311  1  0.76855350  0.87029180  0.50465403  1
  O2-  O312  1  0.22917555  0.12913625  -0.00731829  1
  O2-  O313  1  0.23291827  0.11309197  0.47468477  1
  O2-  O314  1  0.22278678  0.61325606  -0.01151315  1
  O2-  O315  1  0.22979080  0.61843461  0.47693060  1
  O2-  O316  1  0.72830268  0.11442319  0.01475449  1
  O2-  O317  1  0.71858410  0.11532405  0.49452159  1
  O2-  O318  1  0.73568860  0.63219792  0.00631543  1
  O2-  O319  1  0.72454934  0.63222676  0.49826229  1
