# generated using pymatgen
data_Sr64Ca21Nb43O192
_symmetry_space_group_name_H-M   'P 1'
_cell_length_a   16.56168410
_cell_length_b   16.54292333
_cell_length_c   16.68069877
_cell_angle_alpha   89.95388522
_cell_angle_beta   89.99562503
_cell_angle_gamma   89.91814295
_symmetry_Int_Tables_number   1
_chemical_formula_structural   Sr64Ca21Nb43O192
_chemical_formula_sum   'Sr64 Ca21 Nb43 O192'
_cell_volume   4570.14951258
_cell_formula_units_Z   1
loop_
 _symmetry_equiv_pos_site_id
 _symmetry_equiv_pos_as_xyz
  1  'x, y, z'
loop_
 _atom_type_symbol
 _atom_type_oxidation_number
  Sr2+  2.0
  Ca2+  2.0
  Nb5+  5.0
  O2-  -2.0
loop_
 _atom_site_type_symbol
 _atom_site_label
 _atom_site_symmetry_multiplicity
 _atom_site_fract_x
 _atom_site_fract_y
 _atom_site_fract_z
 _atom_site_occupancy
  Sr2+  Sr0  1  0.11578169  0.12318223  0.11401835  1
  Sr2+  Sr1  1  0.11796816  0.11188279  0.62442671  1
  Sr2+  Sr2  1  0.11858635  0.62339334  0.14126451  1
  Sr2+  Sr3  1  0.11599379  0.62033554  0.62228902  1
  Sr2+  Sr4  1  0.62068390  0.11040395  0.12939187  1
  Sr2+  Sr5  1  0.62454849  0.12365307  0.62056173  1
  Sr2+  Sr6  1  0.62090678  0.61680822  0.11572848  1
  Sr2+  Sr7  1  0.61555566  0.60787318  0.62423601  1
  Sr2+  Sr8  1  0.35980189  0.36596230  0.12810105  1
  Sr2+  Sr9  1  0.37660660  0.36599426  0.62828754  1
  Sr2+  Sr10  1  0.37412641  0.86705446  0.11483663  1
  Sr2+  Sr11  1  0.36169643  0.87550881  0.63238888  1
  Sr2+  Sr12  1  0.87194911  0.36394666  0.12075764  1
  Sr2+  Sr13  1  0.86274278  0.36540531  0.62176233  1
  Sr2+  Sr14  1  0.86621113  0.86187965  0.12789657  1
  Sr2+  Sr15  1  0.87311933  0.87929610  0.62379051  1
  Sr2+  Sr16  1  0.14072001  0.38283897  0.37237995  1
  Sr2+  Sr17  1  0.13755073  0.39135370  0.87411851  1
  Sr2+  Sr18  1  0.13976624  0.88032593  0.37914158  1
  Sr2+  Sr19  1  0.14527509  0.87234118  0.87241662  1
  Sr2+  Sr20  1  0.62973065  0.38159476  0.37603248  1
  Sr2+  Sr21  1  0.62700355  0.37523883  0.86939041  1
  Sr2+  Sr22  1  0.62887545  0.87218133  0.37562864  1
  Sr2+  Sr23  1  0.62420694  0.87960553  0.87394559  1
  Sr2+  Sr24  1  0.38416321  0.13480791  0.36554919  1
  Sr2+  Sr25  1  0.37941172  0.12668534  0.87618211  1
  Sr2+  Sr26  1  0.37875524  0.62585201  0.37464979  1
  Sr2+  Sr27  1  0.36872014  0.62329908  0.87350269  1
  Sr2+  Sr28  1  0.88507100  0.12613408  0.37180034  1
  Sr2+  Sr29  1  0.88760216  0.12673250  0.87290542  1
  Sr2+  Sr30  1  0.88970809  0.63479018  0.37562402  1
  Sr2+  Sr31  1  0.89010198  0.63379111  0.87396817  1
  Sr2+  Sr32  1  0.12821346  0.13923730  0.38076249  1
  Sr2+  Sr33  1  0.13577976  0.13554580  0.87407400  1
  Sr2+  Sr34  1  0.13730602  0.62586664  0.37272650  1
  Sr2+  Sr35  1  0.12480951  0.62600151  0.86739816  1
  Sr2+  Sr36  1  0.63398644  0.13337268  0.36897146  1
  Sr2+  Sr37  1  0.62722791  0.12766574  0.87127290  1
  Sr2+  Sr38  1  0.62879520  0.63029748  0.38178271  1
  Sr2+  Sr39  1  0.63959606  0.63257666  0.87170177  1
  Sr2+  Sr40  1  0.37858471  0.38272558  0.36444010  1
  Sr2+  Sr41  1  0.38399479  0.37162773  0.87582327  1
  Sr2+  Sr42  1  0.38222914  0.86257541  0.38110183  1
  Sr2+  Sr43  1  0.38423580  0.88414654  0.87669178  1
  Sr2+  Sr44  1  0.87845600  0.38589834  0.37426396  1
  Sr2+  Sr45  1  0.88418554  0.39158830  0.87832482  1
  Sr2+  Sr46  1  0.87960748  0.88461292  0.37019115  1
  Sr2+  Sr47  1  0.87896669  0.86687897  0.87462125  1
  Sr2+  Sr48  1  0.11157380  0.37684015  0.13298154  1
  Sr2+  Sr49  1  0.11907698  0.37033615  0.62470951  1
  Sr2+  Sr50  1  0.14115182  0.86845732  0.12714910  1
  Sr2+  Sr51  1  0.12313442  0.87085067  0.62235325  1
  Sr2+  Sr52  1  0.61115932  0.36802189  0.12190476  1
  Sr2+  Sr53  1  0.61656034  0.37042530  0.62044158  1
  Sr2+  Sr54  1  0.61560118  0.86829177  0.12393913  1
  Sr2+  Sr55  1  0.62396150  0.87591167  0.62501283  1
  Sr2+  Sr56  1  0.36175281  0.11385698  0.12379223  1
  Sr2+  Sr57  1  0.35286587  0.12268150  0.62987308  1
  Sr2+  Sr58  1  0.35550543  0.62487649  0.12564876  1
  Sr2+  Sr59  1  0.37715024  0.61738178  0.61732225  1
  Sr2+  Sr60  1  0.87053678  0.11973616  0.12350284  1
  Sr2+  Sr61  1  0.87941257  0.11849268  0.62008738  1
  Sr2+  Sr62  1  0.87609532  0.62076937  0.11643282  1
  Sr2+  Sr63  1  0.87547017  0.63033136  0.63835895  1
  Ca2+  Ca64  1  0.49636565  0.50131372  0.00137206  1
  Ca2+  Ca65  1  0.49951720  0.00199227  0.49900143  1
  Ca2+  Ca66  1  -0.00045944  0.50121684  0.49889961  1
  Ca2+  Ca67  1  -0.00355632  -0.00310026  -0.00129644  1
  Ca2+  Ca68  1  0.00347480  0.50335210  0.00043756  1
  Ca2+  Ca69  1  0.75386351  0.75099197  0.50325134  1
  Ca2+  Ca70  1  0.25029178  0.74870136  0.50323062  1
  Ca2+  Ca71  1  0.25264944  0.25161985  0.49825467  1
  Ca2+  Ca72  1  0.24930441  0.74596599  -0.00028972  1
  Ca2+  Ca73  1  0.25031518  0.25388244  -0.00005504  1
  Ca2+  Ca74  1  0.24921672  0.00046828  0.75183866  1
  Ca2+  Ca75  1  0.24955773  0.00015138  0.25220590  1
  Ca2+  Ca76  1  -0.00429852  0.24925977  0.75069891  1
  Ca2+  Ca77  1  0.50480036  0.74593566  0.24823605  1
  Ca2+  Ca78  1  0.74814241  0.49944200  0.24685677  1
  Ca2+  Ca79  1  0.49992939  0.24905199  0.24640252  1
  Ca2+  Ca80  1  -0.00045011  0.75356376  0.25037209  1
  Ca2+  Ca81  1  0.74987931  0.49763288  0.75018595  1
  Ca2+  Ca82  1  -0.00286895  0.24957010  0.25160530  1
  Ca2+  Ca83  1  0.50234720  0.74859317  0.74926128  1
  Ca2+  Ca84  1  0.25164896  0.50074275  0.74550052  1
  Nb5+  Nb85  1  0.00120890  -0.00271710  0.49809393  1
  Nb5+  Nb86  1  0.49985195  0.00233424  0.00105344  1
  Nb5+  Nb87  1  0.50108363  0.49760051  0.49772120  1
  Nb5+  Nb88  1  0.74743092  0.24142483  -0.00590702  1
  Nb5+  Nb89  1  0.75188780  0.24937614  0.49284821  1
  Nb5+  Nb90  1  0.74886204  0.74541989  -0.00027961  1
  Nb5+  Nb91  1  0.75040026  -0.00171149  0.24516631  1
  Nb5+  Nb92  1  0.75017765  0.00120969  0.74685401  1
  Nb5+  Nb93  1  0.25127461  0.49986065  0.25035153  1
  Nb5+  Nb94  1  0.00487047  0.75509200  0.75010835  1
  Nb5+  Nb95  1  0.50007583  0.24656054  0.74882339  1
  Nb5+  Nb96  1  0.00332288  -0.00091325  0.24532292  1
  Nb5+  Nb97  1  0.00252088  -0.00350189  0.75265854  1
  Nb5+  Nb98  1  -0.00616501  0.50197020  0.25478900  1
  Nb5+  Nb99  1  -0.00264890  0.49558098  0.74398898  1
  Nb5+  Nb100  1  0.49688545  -0.00421752  0.25464361  1
  Nb5+  Nb101  1  0.49926015  0.00238797  0.74612210  1
  Nb5+  Nb102  1  0.49973528  0.50279769  0.24330732  1
  Nb5+  Nb103  1  0.50334338  0.50106200  0.75468428  1
  Nb5+  Nb104  1  0.24358262  0.24319507  0.24524374  1
  Nb5+  Nb105  1  0.24286908  0.25522192  0.75207678  1
  Nb5+  Nb106  1  0.25543775  0.75384720  0.25483615  1
  Nb5+  Nb107  1  0.25628222  0.74541262  0.74879754  1
  Nb5+  Nb108  1  0.74891759  0.25093094  0.24195930  1
  Nb5+  Nb109  1  0.74942989  0.24742275  0.74593683  1
  Nb5+  Nb110  1  0.74689079  0.74304154  0.25031635  1
  Nb5+  Nb111  1  0.74976460  0.75415986  0.74750183  1
  Nb5+  Nb112  1  -0.00038922  0.25491394  0.50204773  1
  Nb5+  Nb113  1  0.00363374  0.25398754  0.99265270  1
  Nb5+  Nb114  1  0.00024674  0.75071178  0.49670602  1
  Nb5+  Nb115  1  0.00506806  0.75506656  1.00203240  1
  Nb5+  Nb116  1  0.49889773  0.24828525  0.49818698  1
  Nb5+  Nb117  1  0.50014929  0.24615610  1.00355973  1
  Nb5+  Nb118  1  0.50063264  0.75599866  0.50639290  1
  Nb5+  Nb119  1  0.50296666  0.74465895  0.99418662  1
  Nb5+  Nb120  1  0.24482178  -0.00188388  0.00103543  1
  Nb5+  Nb121  1  0.25570822  0.00638800  0.49525634  1
  Nb5+  Nb122  1  0.24902492  0.50280233  -0.00032574  1
  Nb5+  Nb123  1  0.25030617  0.49408009  0.50411329  1
  Nb5+  Nb124  1  0.74994141  -0.00268913  -0.00481782  1
  Nb5+  Nb125  1  0.75028774  -0.00004813  0.49293584  1
  Nb5+  Nb126  1  0.75001013  0.48975927  -0.00100517  1
  Nb5+  Nb127  1  0.75037003  0.50548613  0.49847433  1
  O2-  O128  1  -0.00795662  0.02797537  0.13475879  1
  O2-  O129  1  -0.01144031  0.01059165  0.62690302  1
  O2-  O130  1  -0.00295873  0.53007977  0.13638208  1
  O2-  O131  1  -0.01285298  0.53454549  0.63153281  1
  O2-  O132  1  0.49548818  0.02377390  0.11842061  1
  O2-  O133  1  0.50563343  0.02472338  0.63393691  1
  O2-  O134  1  0.48694052  0.54055348  0.13597833  1
  O2-  O135  1  0.48964580  0.50882669  0.62242969  1
  O2-  O136  1  0.00212008  -0.02315552  0.38255390  1
  O2-  O137  1  -0.01301309  -0.02381549  0.86442663  1
  O2-  O138  1  0.01438179  0.46636134  0.36693118  1
  O2-  O139  1  0.02009581  0.48783501  0.86158928  1
  O2-  O140  1  0.50500770  -0.03581317  0.36536853  1
  O2-  O141  1  0.51029941  -0.01152730  0.87685452  1
  O2-  O142  1  0.50651018  0.46894360  0.38265888  1
  O2-  O143  1  0.50657574  0.46995784  0.86659179  1
  O2-  O144  1  0.22763993  0.28075643  0.13277991  1
  O2-  O145  1  0.24608668  0.27899476  0.63483430  1
  O2-  O146  1  0.25612877  0.77062374  0.13430347  1
  O2-  O147  1  0.24428330  0.78017959  0.63561507  1
  O2-  O148  1  0.72904266  0.26339675  0.12738453  1
  O2-  O149  1  0.73127061  0.26211943  0.63126966  1
  O2-  O150  1  0.74050059  0.76885400  0.11624980  1
  O2-  O151  1  0.75335947  0.78483499  0.63676763  1
  O2-  O152  1  0.26784332  0.22548312  0.36273321  1
  O2-  O153  1  0.26739287  0.22495786  0.86558104  1
  O2-  O154  1  0.25264939  0.72433956  0.36971427  1
  O2-  O155  1  0.24444217  0.72236349  0.86658596  1
  O2-  O156  1  0.76566116  0.22801915  0.38103853  1
  O2-  O157  1  0.75942102  0.22333918  0.88019912  1
  O2-  O158  1  0.76068468  0.73075901  0.36475871  1
  O2-  O159  1  0.75916240  0.74378838  0.87578473  1
  O2-  O160  1  0.01427301  0.23555822  0.11137613  1
  O2-  O161  1  0.01216199  0.22205224  0.61582314  1
  O2-  O162  1  0.00485645  0.73090708  0.11447138  1
  O2-  O163  1  0.01007511  0.74258706  0.63012235  1
  O2-  O164  1  0.53219328  0.23083337  0.11366057  1
  O2-  O165  1  0.52610980  0.23932330  0.63229404  1
  O2-  O166  1  0.52830866  0.73948064  0.11000816  1
  O2-  O167  1  0.50969532  0.71567440  0.61749065  1
  O2-  O168  1  0.21764185  0.01882108  0.38416596  1
  O2-  O169  1  0.24243426  0.02451482  0.88486833  1
  O2-  O170  1  0.24317311  0.51737163  0.37270533  1
  O2-  O171  1  0.23474422  0.52046879  0.88427206  1
  O2-  O172  1  0.74120787  0.01439666  0.37589985  1
  O2-  O173  1  0.73787335  0.01396409  0.87862207  1
  O2-  O174  1  0.71864474  0.50421855  0.38361633  1
  O2-  O175  1  0.71525946  0.50379773  0.88486728  1
  O2-  O176  1  -0.03873074  0.25725901  0.39074327  1
  O2-  O177  1  -0.04179853  0.26150267  0.88226224  1
  O2-  O178  1  -0.02264446  0.77040217  0.38525602  1
  O2-  O179  1  -0.00564820  0.77033039  0.87051319  1
  O2-  O180  1  0.47904072  0.26338451  0.38595856  1
  O2-  O181  1  0.49065311  0.25707643  0.87436657  1
  O2-  O182  1  0.50425433  0.76793167  0.38630305  1
  O2-  O183  1  0.49807791  0.78223246  0.88236362  1
  O2-  O184  1  0.26970549  -0.02391970  0.11721520  1
  O2-  O185  1  0.26010808  -0.01423323  0.61506173  1
  O2-  O186  1  0.26823214  0.48762427  0.13285054  1
  O2-  O187  1  0.27447480  0.47314992  0.61415283  1
  O2-  O188  1  0.75897240  -0.00850239  0.12615845  1
  O2-  O189  1  0.75385890  -0.00877501  0.62862631  1
  O2-  O190  1  0.78399988  0.49375664  0.11355228  1
  O2-  O191  1  0.76444468  0.47842204  0.61320133  1
  O2-  O192  1  0.13010282  0.26807077  0.27609179  1
  O2-  O193  1  0.13027756  0.27641531  0.76864994  1
  O2-  O194  1  0.13463749  0.76493665  0.24976196  1
  O2-  O195  1  0.11973931  0.77706509  0.75688367  1
  O2-  O196  1  0.63621190  0.26174526  0.27838989  1
  O2-  O197  1  0.62728669  0.25974778  0.77026546  1
  O2-  O198  1  0.63718207  0.78540907  0.25390334  1
  O2-  O199  1  0.63667579  0.78024428  0.75942754  1
  O2-  O200  1  0.36426941  0.23275972  0.22490612  1
  O2-  O201  1  0.38486742  0.22791840  0.73641368  1
  O2-  O202  1  0.37182111  0.72627057  0.24737896  1
  O2-  O203  1  0.36858121  0.71932790  0.74266665  1
  O2-  O204  1  0.86214044  0.21959835  0.23513492  1
  O2-  O205  1  0.86036896  0.21644726  0.73519180  1
  O2-  O206  1  0.86213991  0.73278381  0.22520299  1
  O2-  O207  1  0.87476730  0.74048814  0.75042508  1
  O2-  O208  1  0.26394076  0.37998532  0.26630078  1
  O2-  O209  1  0.27690898  0.36746399  0.77529940  1
  O2-  O210  1  0.27117280  0.86694651  0.28023628  1
  O2-  O211  1  0.27302761  0.86485518  0.77657848  1
  O2-  O212  1  0.77467766  0.36193339  0.26319705  1
  O2-  O213  1  0.77097081  0.35821668  0.77195766  1
  O2-  O214  1  0.77066347  0.88174515  0.26233927  1
  O2-  O215  1  0.76905263  0.88564145  0.76994913  1
  O2-  O216  1  0.22279487  0.13177828  0.22017448  1
  O2-  O217  1  0.22902375  0.13649860  0.72682165  1
  O2-  O218  1  0.23704426  0.62108681  0.23492744  1
  O2-  O219  1  0.21885974  0.63488259  0.72686567  1
  O2-  O220  1  0.72704652  0.12062131  0.23987396  1
  O2-  O221  1  0.72272037  0.12056098  0.74302361  1
  O2-  O222  1  0.71609916  0.63441442  0.23046676  1
  O2-  O223  1  0.73300164  0.63951935  0.73296775  1
  O2-  O224  1  0.13086827  0.48768545  0.24191384  1
  O2-  O225  1  0.11637165  0.48240092  0.72592207  1
  O2-  O226  1  0.11372839  0.96766890  0.23999884  1
  O2-  O227  1  0.11450522  0.97138423  0.74386222  1
  O2-  O228  1  0.61325315  0.47432331  0.23371179  1
  O2-  O229  1  0.61669896  0.47258251  0.72867897  1
  O2-  O230  1  0.62947611  0.98083789  0.24090987  1
  O2-  O231  1  0.62764777  0.98162456  0.74834998  1
  O2-  O232  1  0.38470388  0.02621723  0.25785522  1
  O2-  O233  1  0.38573083  0.02608598  0.75795465  1
  O2-  O234  1  0.37397875  0.51396589  0.26632684  1
  O2-  O235  1  0.38690697  0.52392308  0.75599055  1
  O2-  O236  1  0.86682035  0.02274580  0.25962605  1
  O2-  O237  1  0.86737717  0.02300202  0.75145572  1
  O2-  O238  1  0.88118245  0.52174499  0.27452707  1
  O2-  O239  1  0.88258594  0.52445831  0.76864005  1
  O2-  O240  1  0.47549201  0.38475446  0.22799130  1
  O2-  O241  1  0.48496169  0.36552922  0.73875596  1
  O2-  O242  1  0.48491491  0.88549023  0.21540420  1
  O2-  O243  1  0.48091437  0.88754994  0.73298932  1
  O2-  O244  1  0.98077014  0.38523698  0.22324894  1
  O2-  O245  1  0.97311387  0.38390298  0.72436348  1
  O2-  O246  1  0.96262526  0.88811054  0.24044595  1
  O2-  O247  1  0.97391054  0.87455768  0.73316664  1
  O2-  O248  1  0.01371754  0.11114945  0.28256426  1
  O2-  O249  1  0.01977656  0.11181474  0.76768102  1
  O2-  O250  1  0.01892311  0.61822759  0.28088107  1
  O2-  O251  1  0.01399628  0.63672230  0.76369779  1
  O2-  O252  1  0.52570505  0.11227113  0.26793385  1
  O2-  O253  1  0.52223865  0.12657614  0.76657864  1
  O2-  O254  1  0.51633125  0.61065644  0.28880824  1
  O2-  O255  1  0.53317620  0.61235445  0.76794682  1
  O2-  O256  1  0.13596487  0.46524242  0.01402876  1
  O2-  O257  1  0.13538808  0.47494531  0.51273214  1
  O2-  O258  1  0.13159682  0.97822508  0.01344942  1
  O2-  O259  1  0.11541818  0.98195548  0.51506150  1
  O2-  O260  1  0.63442520  0.48730750  0.03311482  1
  O2-  O261  1  0.62196452  0.47736104  0.51443028  1
  O2-  O262  1  0.62815174  0.98817286  0.01218079  1
  O2-  O263  1  0.63640352  0.98029909  0.50825685  1
  O2-  O264  1  0.38356872  0.01733683  -0.01045388  1
  O2-  O265  1  0.36677849  0.03482375  0.48103921  1
  O2-  O266  1  0.36575584  0.53809985  -0.00549242  1
  O2-  O267  1  0.38217079  0.51390866  0.48889064  1
  O2-  O268  1  0.85992399  0.03130627  -0.00414032  1
  O2-  O269  1  0.87276118  0.02162380  0.49691936  1
  O2-  O270  1  0.86240697  0.52017893  -0.02908064  1
  O2-  O271  1  0.86328249  0.51647197  0.47208800  1
  O2-  O272  1  0.48550081  0.36201562  0.01819470  1
  O2-  O273  1  0.49267342  0.36957291  0.52304517  1
  O2-  O274  1  0.49229309  0.88364540  0.01511365  1
  O2-  O275  1  0.47433186  0.86688352  0.53105905  1
  O2-  O276  1  0.97244064  0.36845819  0.01167054  1
  O2-  O277  1  0.98022949  0.36579477  0.52892006  1
  O2-  O278  1  0.96082721  0.86502072  0.01104845  1
  O2-  O279  1  0.97490278  0.87990026  0.51735566  1
  O2-  O280  1  0.01446598  0.13341472  -0.02458671  1
  O2-  O281  1  0.00903271  0.11810428  0.48583445  1
  O2-  O282  1  0.01074466  0.64000733  -0.02901998  1
  O2-  O283  1  0.02815380  0.63773384  0.48119349  1
  O2-  O284  1  0.52331165  0.12244588  -0.01929600  1
  O2-  O285  1  0.53156371  0.13654242  0.48626475  1
  O2-  O286  1  0.52708648  0.63493952  -0.03028756  1
  O2-  O287  1  0.52338202  0.61285990  0.48586383  1
  O2-  O288  1  0.11469015  0.27077678  -0.03363528  1
  O2-  O289  1  0.11196773  0.26765837  0.47864937  1
  O2-  O290  1  0.11578204  0.78568811  -0.00380177  1
  O2-  O291  1  0.11446711  0.78285307  0.49733161  1
  O2-  O292  1  0.62946751  0.26973312  -0.01804717  1
  O2-  O293  1  0.63178132  0.26793251  0.49018099  1
  O2-  O294  1  0.63282402  0.77358349  -0.01629403  1
  O2-  O295  1  0.62017976  0.77639430  0.50127290  1
  O2-  O296  1  0.38818652  0.22169291  0.01360619  1
  O2-  O297  1  0.38946779  0.22988513  0.52838752  1
  O2-  O298  1  0.38842989  0.73533177  0.00823481  1
  O2-  O299  1  0.38620387  0.72279818  0.49867256  1
  O2-  O300  1  0.86070540  0.23430694  0.02333501  1
  O2-  O301  1  0.86478883  0.23713198  0.52851505  1
  O2-  O302  1  0.86738678  0.73187365  0.00345564  1
  O2-  O303  1  0.88623603  0.72408948  0.52084185  1
  O2-  O304  1  0.28675904  0.38741816  -0.01101047  1
  O2-  O305  1  0.27104907  0.38260719  0.46667206  1
  O2-  O306  1  0.27320055  0.88334823  -0.02357677  1
  O2-  O307  1  0.26863010  0.88746730  0.47835248  1
  O2-  O308  1  0.76483665  0.37197579  -0.01326573  1
  O2-  O309  1  0.76730066  0.36772619  0.48405917  1
  O2-  O310  1  0.76705621  0.88180124  -0.01165228  1
  O2-  O311  1  0.77640825  0.88730254  0.48487605  1
  O2-  O312  1  0.23741289  0.11660108  0.02509865  1
  O2-  O313  1  0.22235943  0.11964480  0.52143849  1
  O2-  O314  1  0.22014562  0.61542832  0.03147517  1
  O2-  O315  1  0.23690265  0.61180380  0.51992071  1
  O2-  O316  1  0.72454780  0.12763187  0.01666067  1
  O2-  O317  1  0.73565930  0.12583068  0.51414894  1
  O2-  O318  1  0.72967548  0.63081779  0.00810958  1
  O2-  O319  1  0.72458998  0.61615565  0.51791753  1
