# generated using pymatgen
data_Sr64Ca21Nb43O192
_symmetry_space_group_name_H-M   'P 1'
_cell_length_a   16.60208553
_cell_length_b   16.58428635
_cell_length_c   16.77895008
_cell_angle_alpha   90.03635803
_cell_angle_beta   89.93239315
_cell_angle_gamma   90.00735876
_symmetry_Int_Tables_number   1
_chemical_formula_structural   Sr64Ca21Nb43O192
_chemical_formula_sum   'Sr64 Ca21 Nb43 O192'
_cell_volume   4619.80690413
_cell_formula_units_Z   1
loop_
 _symmetry_equiv_pos_site_id
 _symmetry_equiv_pos_as_xyz
  1  'x, y, z'
loop_
 _atom_type_symbol
 _atom_type_oxidation_number
  Sr2+  2.0
  Ca2+  2.0
  Nb5+  5.0
  O2-  -2.0
loop_
 _atom_site_type_symbol
 _atom_site_label
 _atom_site_symmetry_multiplicity
 _atom_site_fract_x
 _atom_site_fract_y
 _atom_site_fract_z
 _atom_site_occupancy
  Sr2+  Sr0  1  0.12614501  0.14045434  0.12688196  1
  Sr2+  Sr1  1  0.12116761  0.13453701  0.62617770  1
  Sr2+  Sr2  1  0.12387095  0.62684838  0.12228451  1
  Sr2+  Sr3  1  0.11246310  0.62345519  0.62474400  1
  Sr2+  Sr4  1  0.61933175  0.13892556  0.12201113  1
  Sr2+  Sr5  1  0.61848099  0.12775462  0.62905112  1
  Sr2+  Sr6  1  0.61775903  0.61725491  0.11576521  1
  Sr2+  Sr7  1  0.62189234  0.61728453  0.62922113  1
  Sr2+  Sr8  1  0.38294503  0.37861243  0.13225706  1
  Sr2+  Sr9  1  0.36844225  0.37262764  0.61727278  1
  Sr2+  Sr10  1  0.36201134  0.86523917  0.12555798  1
  Sr2+  Sr11  1  0.36494855  0.88071458  0.62338322  1
  Sr2+  Sr12  1  0.86774472  0.37030744  0.12573922  1
  Sr2+  Sr13  1  0.87780581  0.38814347  0.62050577  1
  Sr2+  Sr14  1  0.86244469  0.88553374  0.12768173  1
  Sr2+  Sr15  1  0.86061009  0.88659557  0.62486522  1
  Sr2+  Sr16  1  0.13295552  0.38141755  0.37266838  1
  Sr2+  Sr17  1  0.13099324  0.37397245  0.88788238  1
  Sr2+  Sr18  1  0.11377693  0.87228741  0.37500733  1
  Sr2+  Sr19  1  0.12889389  0.86948284  0.87124230  1
  Sr2+  Sr20  1  0.62374136  0.37469032  0.36158519  1
  Sr2+  Sr21  1  0.63574608  0.37700161  0.87374097  1
  Sr2+  Sr22  1  0.61024997  0.86928007  0.37443405  1
  Sr2+  Sr23  1  0.62425310  0.87199174  0.87997367  1
  Sr2+  Sr24  1  0.38521167  0.12266054  0.37330712  1
  Sr2+  Sr25  1  0.37834243  0.11401712  0.87864267  1
  Sr2+  Sr26  1  0.38509077  0.63297849  0.36978342  1
  Sr2+  Sr27  1  0.39845271  0.62098031  0.87331490  1
  Sr2+  Sr28  1  0.88872430  0.11582125  0.37303691  1
  Sr2+  Sr29  1  0.87905813  0.13000956  0.87572609  1
  Sr2+  Sr30  1  0.87767978  0.62892045  0.37507812  1
  Sr2+  Sr31  1  0.88393966  0.63836040  0.87292191  1
  Sr2+  Sr32  1  0.12984891  0.11657594  0.37341701  1
  Sr2+  Sr33  1  0.13058381  0.11157698  0.88020853  1
  Sr2+  Sr34  1  0.13447252  0.63675557  0.37205939  1
  Sr2+  Sr35  1  0.12824934  0.62917800  0.87721007  1
  Sr2+  Sr36  1  0.62204676  0.11311927  0.37631848  1
  Sr2+  Sr37  1  0.62820983  0.12007721  0.87711785  1
  Sr2+  Sr38  1  0.63682871  0.61618152  0.37034673  1
  Sr2+  Sr39  1  0.63242806  0.64056920  0.87284207  1
  Sr2+  Sr40  1  0.38766505  0.38036395  0.37491155  1
  Sr2+  Sr41  1  0.37910132  0.38344485  0.86801761  1
  Sr2+  Sr42  1  0.37920365  0.86769851  0.37477264  1
  Sr2+  Sr43  1  0.37709476  0.87209500  0.86965018  1
  Sr2+  Sr44  1  0.87450795  0.39446786  0.36454008  1
  Sr2+  Sr45  1  0.88534478  0.37615214  0.88140487  1
  Sr2+  Sr46  1  0.87708141  0.88727980  0.36458235  1
  Sr2+  Sr47  1  0.87977558  0.87909252  0.88113370  1
  Sr2+  Sr48  1  0.10396680  0.38272313  0.12511725  1
  Sr2+  Sr49  1  0.13039073  0.37351316  0.62529058  1
  Sr2+  Sr50  1  0.12204312  0.86799079  0.13682259  1
  Sr2+  Sr51  1  0.12332450  0.87670869  0.62655735  1
  Sr2+  Sr52  1  0.61355139  0.37165378  0.12704339  1
  Sr2+  Sr53  1  0.64783549  0.37292165  0.62096694  1
  Sr2+  Sr54  1  0.61961724  0.86724082  0.11797170  1
  Sr2+  Sr55  1  0.61024388  0.87310866  0.62408201  1
  Sr2+  Sr56  1  0.37116906  0.13286781  0.12417720  1
  Sr2+  Sr57  1  0.36127327  0.13060499  0.62510491  1
  Sr2+  Sr58  1  0.36509946  0.61730117  0.12782386  1
  Sr2+  Sr59  1  0.36716958  0.61823217  0.62804577  1
  Sr2+  Sr60  1  0.85858300  0.12712458  0.13037285  1
  Sr2+  Sr61  1  0.86354973  0.13758532  0.62636862  1
  Sr2+  Sr62  1  0.86209231  0.63460135  0.12507616  1
  Sr2+  Sr63  1  0.86260871  0.62338518  0.62292077  1
  Ca2+  Ca64  1  0.49900621  -0.00062340  0.00303827  1
  Ca2+  Ca65  1  -0.00534264  0.50459941  -0.00398581  1
  Ca2+  Ca66  1  0.50124240  0.49707547  0.50125700  1
  Ca2+  Ca67  1  0.50367408  0.49792666  -0.00200013  1
  Ca2+  Ca68  1  0.00074249  0.00015761  0.00032395  1
  Ca2+  Ca69  1  0.25301432  0.74990057  0.50138362  1
  Ca2+  Ca70  1  0.24816949  0.75040407  -0.00260848  1
  Ca2+  Ca71  1  0.24986804  0.25142434  -0.00201474  1
  Ca2+  Ca72  1  0.74951684  0.75358458  0.49897090  1
  Ca2+  Ca73  1  0.75516009  0.24786739  0.49677786  1
  Ca2+  Ca74  1  0.50209303  0.75009535  0.24556849  1
  Ca2+  Ca75  1  0.24791935  0.49831529  0.25316363  1
  Ca2+  Ca76  1  0.74349236  -0.00100998  0.25121984  1
  Ca2+  Ca77  1  0.49682950  0.25339849  0.74807967  1
  Ca2+  Ca78  1  -0.00156332  0.25244735  0.25550293  1
  Ca2+  Ca79  1  0.75179402  0.50317729  0.23978818  1
  Ca2+  Ca80  1  0.49988053  0.75015048  0.74929813  1
  Ca2+  Ca81  1  0.75140318  0.50090492  0.75689765  1
  Ca2+  Ca82  1  -0.00412260  0.74905939  0.25288036  1
  Ca2+  Ca83  1  0.25330443  -0.00017781  0.25419488  1
  Ca2+  Ca84  1  0.75169020  -0.00165802  0.75137829  1
  Nb5+  Nb85  1  0.49020572  -0.00117381  0.50339317  1
  Nb5+  Nb86  1  0.00369156  0.50567074  0.49731137  1
  Nb5+  Nb87  1  -0.00190865  0.00542852  0.50755299  1
  Nb5+  Nb88  1  0.75329149  0.75770762  -0.00338135  1
  Nb5+  Nb89  1  0.74969806  0.25595183  -0.00204006  1
  Nb5+  Nb90  1  0.24835159  0.24764628  0.49614711  1
  Nb5+  Nb91  1  0.24578300  0.49537277  0.75040437  1
  Nb5+  Nb92  1  -0.00237837  0.75825953  0.74469627  1
  Nb5+  Nb93  1  0.25229794  -0.00273311  0.75043582  1
  Nb5+  Nb94  1  0.00079968  0.25798060  0.74896815  1
  Nb5+  Nb95  1  0.49800224  0.24636375  0.25127748  1
  Nb5+  Nb96  1  0.00628221  0.00490108  0.24097886  1
  Nb5+  Nb97  1  0.00191722  0.00739646  0.74647842  1
  Nb5+  Nb98  1  -0.00150608  0.50650370  0.24487730  1
  Nb5+  Nb99  1  0.00303557  0.50688485  0.74977387  1
  Nb5+  Nb100  1  0.49961314  -0.00083136  0.24429247  1
  Nb5+  Nb101  1  0.50182843  -0.00151581  0.75272194  1
  Nb5+  Nb102  1  0.50193965  0.50533356  0.25342348  1
  Nb5+  Nb103  1  0.50574882  0.49370742  0.74674480  1
  Nb5+  Nb104  1  0.24914818  0.25416173  0.24447236  1
  Nb5+  Nb105  1  0.24682770  0.24408448  0.75302560  1
  Nb5+  Nb106  1  0.25129189  0.74823357  0.24999869  1
  Nb5+  Nb107  1  0.24881336  0.74086435  0.74588748  1
  Nb5+  Nb108  1  0.74773327  0.24541123  0.25831800  1
  Nb5+  Nb109  1  0.74961049  0.25360369  0.75013695  1
  Nb5+  Nb110  1  0.74738832  0.75031440  0.25273946  1
  Nb5+  Nb111  1  0.74996522  0.75612784  0.74699197  1
  Nb5+  Nb112  1  0.00264182  0.25467372  0.50156008  1
  Nb5+  Nb113  1  -0.00268650  0.24732150  1.00617332  1
  Nb5+  Nb114  1  -0.00507810  0.76035377  0.50329252  1
  Nb5+  Nb115  1  0.00040398  0.75261754  1.00510069  1
  Nb5+  Nb116  1  0.50174626  0.24837379  0.50332783  1
  Nb5+  Nb117  1  0.49823831  0.25093288  0.99197575  1
  Nb5+  Nb118  1  0.50691594  0.73950080  0.50103804  1
  Nb5+  Nb119  1  0.49485493  0.74688927  1.00165831  1
  Nb5+  Nb120  1  0.24815523  -0.00317192  0.00837541  1
  Nb5+  Nb121  1  0.24664207  0.00006764  0.50019365  1
  Nb5+  Nb122  1  0.24968185  0.49632211  0.00318925  1
  Nb5+  Nb123  1  0.24680606  0.50486312  0.50134278  1
  Nb5+  Nb124  1  0.74949725  0.00769230  0.00074840  1
  Nb5+  Nb125  1  0.73808898  -0.00122657  0.50118638  1
  Nb5+  Nb126  1  0.75033577  0.50989734  -0.00356916  1
  Nb5+  Nb127  1  0.74788514  0.49646738  0.49836936  1
  O2-  O128  1  0.03242689  0.02257107  0.13253853  1
  O2-  O129  1  0.03366485  0.00580884  0.62482647  1
  O2-  O130  1  -0.00565124  0.53418606  0.13362344  1
  O2-  O131  1  -0.00996861  0.51300316  0.62251117  1
  O2-  O132  1  0.52955176  0.01429119  0.13621475  1
  O2-  O133  1  0.51974359  0.01321951  0.62016230  1
  O2-  O134  1  0.48135887  0.51220733  0.13594801  1
  O2-  O135  1  0.48389045  0.52603893  0.63350771  1
  O2-  O136  1  -0.00906134  -0.01743922  0.39397214  1
  O2-  O137  1  -0.00942005  -0.01757307  0.85757873  1
  O2-  O138  1  0.00890617  0.47061200  0.38722177  1
  O2-  O139  1  0.02100855  0.47665864  0.85802982  1
  O2-  O140  1  0.47676067  -0.01107550  0.38584486  1
  O2-  O141  1  0.47333642  -0.01054534  0.86434858  1
  O2-  O142  1  0.51178876  0.47534405  0.36859337  1
  O2-  O143  1  0.50274499  0.47065898  0.86385538  1
  O2-  O144  1  0.27891394  0.26523077  0.13451282  1
  O2-  O145  1  0.26201995  0.26208127  0.63008472  1
  O2-  O146  1  0.23913108  0.77074296  0.13129223  1
  O2-  O147  1  0.24884063  0.77842912  0.63583041  1
  O2-  O148  1  0.76586486  0.25788162  0.11535007  1
  O2-  O149  1  0.77251234  0.27473617  0.63776149  1
  O2-  O150  1  0.75466201  0.76975589  0.11332563  1
  O2-  O151  1  0.75604753  0.77139969  0.63369699  1
  O2-  O152  1  0.22854292  0.23274106  0.38435635  1
  O2-  O153  1  0.21490603  0.23908776  0.86321893  1
  O2-  O154  1  0.26255612  0.72436965  0.36849537  1
  O2-  O155  1  0.23008783  0.74711244  0.86061743  1
  O2-  O156  1  0.71686052  0.23518182  0.36704920  1
  O2-  O157  1  0.73755034  0.22706781  0.87944685  1
  O2-  O158  1  0.74396505  0.72501696  0.36473810  1
  O2-  O159  1  0.76051927  0.73421268  0.87468542  1
  O2-  O160  1  -0.02039336  0.22328644  0.11664202  1
  O2-  O161  1  -0.00899106  0.22876029  0.62788054  1
  O2-  O162  1  0.00535448  0.72839574  0.11605959  1
  O2-  O163  1  0.00201461  0.72914155  0.62560993  1
  O2-  O164  1  0.48869716  0.23208337  0.13311503  1
  O2-  O165  1  0.47776873  0.22741101  0.61429049  1
  O2-  O166  1  0.52211540  0.72824734  0.11392281  1
  O2-  O167  1  0.52078489  0.73261783  0.61831143  1
  O2-  O168  1  0.26314260  0.02891204  0.39098371  1
  O2-  O169  1  0.26123764  0.02051088  0.86428138  1
  O2-  O170  1  0.22101822  0.51200328  0.38987922  1
  O2-  O171  1  0.22052400  0.51045408  0.86133456  1
  O2-  O172  1  0.76416490  0.03086912  0.38909379  1
  O2-  O173  1  0.78205163  0.01498896  0.88553071  1
  O2-  O174  1  0.74915683  0.51583814  0.38151993  1
  O2-  O175  1  0.70598010  0.51031424  0.88605065  1
  O2-  O176  1  0.02682481  0.26460910  0.39053159  1
  O2-  O177  1  0.01035233  0.27188403  0.86525938  1
  O2-  O178  1  -0.01393649  0.77857518  0.38891024  1
  O2-  O179  1  -0.00301260  0.77061848  0.86241628  1
  O2-  O180  1  0.50775906  0.25857248  0.37674500  1
  O2-  O181  1  0.51632379  0.27310345  0.88275846  1
  O2-  O182  1  0.49070130  0.76750113  0.38407352  1
  O2-  O183  1  0.49566800  0.77691422  0.88463608  1
  O2-  O184  1  0.23571442  -0.02700364  0.11885431  1
  O2-  O185  1  0.24225325  -0.01279402  0.62667623  1
  O2-  O186  1  0.27031219  0.48145908  0.11496679  1
  O2-  O187  1  0.26210344  0.47970267  0.62470247  1
  O2-  O188  1  0.72905306  -0.02637348  0.11280089  1
  O2-  O189  1  0.73231428  -0.03032488  0.61703813  1
  O2-  O190  1  0.79442937  0.49652113  0.10735291  1
  O2-  O191  1  0.76322722  0.48185618  0.61881335  1
  O2-  O192  1  0.13514090  0.27284189  0.22671398  1
  O2-  O193  1  0.11986441  0.25932223  0.72872395  1
  O2-  O194  1  0.13214788  0.77143934  0.26442538  1
  O2-  O195  1  0.11906747  0.76318189  0.74048610  1
  O2-  O196  1  0.61899633  0.26524063  0.23616727  1
  O2-  O197  1  0.63546253  0.27197238  0.73740751  1
  O2-  O198  1  0.63430447  0.78860238  0.24664957  1
  O2-  O199  1  0.63710456  0.77882072  0.75963170  1
  O2-  O200  1  0.37793736  0.22978274  0.26549404  1
  O2-  O201  1  0.35956352  0.23330186  0.77346415  1
  O2-  O202  1  0.36894322  0.72024700  0.23537775  1
  O2-  O203  1  0.36318662  0.72485776  0.75322246  1
  O2-  O204  1  0.86203768  0.22880776  0.27320622  1
  O2-  O205  1  0.88376344  0.23083555  0.76104276  1
  O2-  O206  1  0.86449430  0.72031952  0.24551666  1
  O2-  O207  1  0.88362635  0.72466981  0.74439088  1
  O2-  O208  1  0.26935647  0.36246499  0.28461448  1
  O2-  O209  1  0.25359498  0.37622396  0.76088988  1
  O2-  O210  1  0.27925942  0.86538837  0.26584255  1
  O2-  O211  1  0.26803493  0.88133182  0.76251420  1
  O2-  O212  1  0.76214400  0.36310404  0.25220688  1
  O2-  O213  1  0.77046101  0.36438747  0.78601513  1
  O2-  O214  1  0.78136473  0.86586026  0.25696485  1
  O2-  O215  1  0.78879991  0.86605886  0.76727236  1
  O2-  O216  1  0.22950528  0.13685412  0.24114612  1
  O2-  O217  1  0.23151787  0.12699828  0.73317572  1
  O2-  O218  1  0.22497525  0.63021277  0.22797308  1
  O2-  O219  1  0.22824444  0.62616139  0.72779403  1
  O2-  O220  1  0.73073304  0.13415300  0.22127724  1
  O2-  O221  1  0.73879115  0.13521769  0.73571369  1
  O2-  O222  1  0.72105798  0.63752760  0.21839030  1
  O2-  O223  1  0.73377454  0.63638237  0.73549200  1
  O2-  O224  1  0.11318017  0.47277152  0.24590064  1
  O2-  O225  1  0.12526712  0.49248249  0.72056301  1
  O2-  O226  1  0.11770182  0.98255831  0.27789731  1
  O2-  O227  1  0.13018650  0.98313430  0.75756119  1
  O2-  O228  1  0.61700786  0.47358788  0.23883416  1
  O2-  O229  1  0.61600310  0.46994913  0.72943908  1
  O2-  O230  1  0.61040734  0.98932464  0.28545313  1
  O2-  O231  1  0.61461740  0.97724374  0.76706918  1
  O2-  O232  1  0.38738659  0.03632257  0.24146331  1
  O2-  O233  1  0.36910671  0.02225122  0.73272572  1
  O2-  O234  1  0.38283837  0.51374762  0.27110718  1
  O2-  O235  1  0.35949487  0.52110888  0.76155205  1
  O2-  O236  1  0.88635598  0.02046460  0.24505777  1
  O2-  O237  1  0.89087309  0.01717834  0.71948515  1
  O2-  O238  1  0.88412973  0.51710189  0.27449952  1
  O2-  O239  1  0.88821864  0.51487880  0.75700808  1
  O2-  O240  1  0.48175611  0.36620489  0.24325069  1
  O2-  O241  1  0.45960529  0.38501769  0.73062138  1
  O2-  O242  1  0.47179995  0.88712005  0.23790155  1
  O2-  O243  1  0.47393214  0.88606559  0.72464295  1
  O2-  O244  1  0.97368739  0.38528416  0.22976580  1
  O2-  O245  1  0.98948649  0.37204048  0.72711216  1
  O2-  O246  1  0.98466334  0.88693547  0.23273595  1
  O2-  O247  1  0.98837695  0.87279014  0.72429310  1
  O2-  O248  1  0.01607604  0.11777065  0.28034032  1
  O2-  O249  1  0.02157094  0.12172211  0.76156928  1
  O2-  O250  1  0.01938850  0.61525749  0.28565495  1
  O2-  O251  1  0.02127168  0.62239318  0.76259232  1
  O2-  O252  1  0.51985675  0.12936088  0.26806078  1
  O2-  O253  1  0.51814754  0.11657209  0.75845323  1
  O2-  O254  1  0.52511094  0.61667664  0.27070355  1
  O2-  O255  1  0.51753680  0.61219339  0.77351669  1
  O2-  O256  1  0.12971837  0.47463354  0.00991132  1
  O2-  O257  1  0.12201726  0.47693270  0.51773824  1
  O2-  O258  1  0.13583802  0.97894283  -0.02737094  1
  O2-  O259  1  0.13177506  0.97870573  0.49243879  1
  O2-  O260  1  0.63968871  0.48521812  0.03580637  1
  O2-  O261  1  0.63608854  0.46536136  0.50280978  1
  O2-  O262  1  0.63527377  0.99013363  -0.03115495  1
  O2-  O263  1  0.62251041  0.98649800  0.48297732  1
  O2-  O264  1  0.36445585  0.03195503  0.01058498  1
  O2-  O265  1  0.37639851  0.02156247  0.52259871  1
  O2-  O266  1  0.36347792  0.51903404  -0.02497641  1
  O2-  O267  1  0.36162415  0.51161504  0.48516744  1
  O2-  O268  1  0.86658569  0.01399587  0.03085753  1
  O2-  O269  1  0.88668368  0.02051905  0.52641769  1
  O2-  O270  1  0.86185520  0.51014570  -0.04752102  1
  O2-  O271  1  0.88490101  0.51646156  0.49334934  1
  O2-  O272  1  0.48954148  0.36283113  0.02889192  1
  O2-  O273  1  0.47089926  0.36016702  0.50689848  1
  O2-  O274  1  0.48897771  0.86502960  0.02786030  1
  O2-  O275  1  0.47799258  0.88296683  0.51820531  1
  O2-  O276  1  0.97463013  0.36548783  0.01258364  1
  O2-  O277  1  0.99020221  0.36781502  0.52290712  1
  O2-  O278  1  0.96741690  0.86544068  0.01030468  1
  O2-  O279  1  0.98482356  0.87475059  0.53002328  1
  O2-  O280  1  0.00826135  0.13643576  -0.03325791  1
  O2-  O281  1  0.02714406  0.11801578  0.49368269  1
  O2-  O282  1  0.01036803  0.63875656  -0.03256517  1
  O2-  O283  1  0.02616268  0.61822045  0.48429781  1
  O2-  O284  1  0.52877690  0.13661447  -0.00735357  1
  O2-  O285  1  0.51092853  0.12302949  0.48346227  1
  O2-  O286  1  0.52354191  0.63252820  -0.02657543  1
  O2-  O287  1  0.53666321  0.63056277  0.48011519  1
  O2-  O288  1  0.11155235  0.26733536  0.02040974  1
  O2-  O289  1  0.12745931  0.25511196  0.52557988  1
  O2-  O290  1  0.11260598  0.77915314  -0.00360244  1
  O2-  O291  1  0.11400475  0.76352058  0.49781924  1
  O2-  O292  1  0.63084385  0.26606050  0.01186245  1
  O2-  O293  1  0.61472125  0.26025306  0.52169862  1
  O2-  O294  1  0.63464427  0.76405756  -0.01197504  1
  O2-  O295  1  0.61701321  0.78859576  0.49757870  1
  O2-  O296  1  0.38524990  0.22738563  -0.01595480  1
  O2-  O297  1  0.36490794  0.22799936  0.48925612  1
  O2-  O298  1  0.38246857  0.72296569  0.01044572  1
  O2-  O299  1  0.38911111  0.72249460  0.51231133  1
  O2-  O300  1  0.87063920  0.23691061  -0.01861818  1
  O2-  O301  1  0.89252020  0.22055893  0.48959702  1
  O2-  O302  1  0.87255734  0.72971265  -0.00283594  1
  O2-  O303  1  0.88633634  0.71658426  0.50581801  1
  O2-  O304  1  0.26397229  0.38348850  -0.03418838  1
  O2-  O305  1  0.25828002  0.36688977  0.49049774  1
  O2-  O306  1  0.28217326  0.88567135  -0.01996584  1
  O2-  O307  1  0.27747754  0.88850964  0.48888731  1
  O2-  O308  1  0.76256216  0.37079826  -0.01834120  1
  O2-  O309  1  0.78372440  0.38124511  0.48454350  1
  O2-  O310  1  0.76538470  0.87272740  -0.02123944  1
  O2-  O311  1  0.78319891  0.89031490  0.48091106  1
  O2-  O312  1  0.22153824  0.11648755  0.01436759  1
  O2-  O313  1  0.23523594  0.12504558  0.52496158  1
  O2-  O314  1  0.22115863  0.61373589  0.00646149  1
  O2-  O315  1  0.23025833  0.61466436  0.52941067  1
  O2-  O316  1  0.73470413  0.12453844  0.01566449  1
  O2-  O317  1  0.73785184  0.11422857  0.53429316  1
  O2-  O318  1  0.73830187  0.62678986  0.01079832  1
  O2-  O319  1  0.73173988  0.61344442  0.52139398  1
