# generated using pymatgen
data_Sr64Ca21Nb43O192
_symmetry_space_group_name_H-M   'P 1'
_cell_length_a   16.59452080
_cell_length_b   16.56513735
_cell_length_c   16.73722079
_cell_angle_alpha   89.99582748
_cell_angle_beta   89.98828096
_cell_angle_gamma   90.03012370
_symmetry_Int_Tables_number   1
_chemical_formula_structural   Sr64Ca21Nb43O192
_chemical_formula_sum   'Sr64 Ca21 Nb43 O192'
_cell_volume   4600.90251787
_cell_formula_units_Z   1
loop_
 _symmetry_equiv_pos_site_id
 _symmetry_equiv_pos_as_xyz
  1  'x, y, z'
loop_
 _atom_type_symbol
 _atom_type_oxidation_number
  Sr2+  2.0
  Ca2+  2.0
  Nb5+  5.0
  O2-  -2.0
loop_
 _atom_site_type_symbol
 _atom_site_label
 _atom_site_symmetry_multiplicity
 _atom_site_fract_x
 _atom_site_fract_y
 _atom_site_fract_z
 _atom_site_occupancy
  Sr2+  Sr0  1  0.13227121  0.10802041  0.12162872  1
  Sr2+  Sr1  1  0.12831723  0.10548352  0.62792882  1
  Sr2+  Sr2  1  0.12528526  0.63938386  0.12885867  1
  Sr2+  Sr3  1  0.12804419  0.62877645  0.62453631  1
  Sr2+  Sr4  1  0.63202720  0.11606967  0.12744342  1
  Sr2+  Sr5  1  0.63115915  0.12418543  0.62458898  1
  Sr2+  Sr6  1  0.62629142  0.61547647  0.12446684  1
  Sr2+  Sr7  1  0.62415748  0.62438692  0.63463196  1
  Sr2+  Sr8  1  0.37360742  0.37426211  0.12703746  1
  Sr2+  Sr9  1  0.37134152  0.37299704  0.63025505  1
  Sr2+  Sr10  1  0.37372508  0.87881045  0.12219008  1
  Sr2+  Sr11  1  0.36874485  0.86779466  0.62346824  1
  Sr2+  Sr12  1  0.87329171  0.36682576  0.13286371  1
  Sr2+  Sr13  1  0.87620406  0.37484414  0.61861393  1
  Sr2+  Sr14  1  0.88599299  0.86155737  0.12142959  1
  Sr2+  Sr15  1  0.88476088  0.86416453  0.63199969  1
  Sr2+  Sr16  1  0.10953261  0.38897743  0.37507134  1
  Sr2+  Sr17  1  0.10368545  0.37720916  0.87429302  1
  Sr2+  Sr18  1  0.10432764  0.87795569  0.37337899  1
  Sr2+  Sr19  1  0.09877418  0.87975900  0.87208064  1
  Sr2+  Sr20  1  0.62500020  0.37226957  0.38335708  1
  Sr2+  Sr21  1  0.62191949  0.37785036  0.87007529  1
  Sr2+  Sr22  1  0.61780098  0.88172528  0.38111346  1
  Sr2+  Sr23  1  0.63162833  0.88125496  0.87141255  1
  Sr2+  Sr24  1  0.37634241  0.12493207  0.37916346  1
  Sr2+  Sr25  1  0.36410051  0.13265819  0.87432433  1
  Sr2+  Sr26  1  0.36564954  0.62910818  0.36624417  1
  Sr2+  Sr27  1  0.38325888  0.62886791  0.88302816  1
  Sr2+  Sr28  1  0.88250198  0.12762568  0.37456636  1
  Sr2+  Sr29  1  0.89247207  0.12381928  0.86945487  1
  Sr2+  Sr30  1  0.86033222  0.63165077  0.37155261  1
  Sr2+  Sr31  1  0.87267974  0.62942792  0.87743019  1
  Sr2+  Sr32  1  0.12538600  0.12457636  0.36199957  1
  Sr2+  Sr33  1  0.12441697  0.12573513  0.86576161  1
  Sr2+  Sr34  1  0.12245261  0.63458913  0.38497731  1
  Sr2+  Sr35  1  0.11347326  0.63311313  0.87720796  1
  Sr2+  Sr36  1  0.61885299  0.12523070  0.38115353  1
  Sr2+  Sr37  1  0.61810607  0.13966260  0.87699291  1
  Sr2+  Sr38  1  0.61713076  0.64029426  0.37106002  1
  Sr2+  Sr39  1  0.62301360  0.64305018  0.87514960  1
  Sr2+  Sr40  1  0.37805389  0.37729111  0.36751987  1
  Sr2+  Sr41  1  0.37834535  0.38629978  0.88105439  1
  Sr2+  Sr42  1  0.37494239  0.87366581  0.38318376  1
  Sr2+  Sr43  1  0.38290039  0.88942754  0.87195707  1
  Sr2+  Sr44  1  0.86261969  0.38119845  0.37710094  1
  Sr2+  Sr45  1  0.87129101  0.38804961  0.87606394  1
  Sr2+  Sr46  1  0.86833807  0.88536000  0.37326878  1
  Sr2+  Sr47  1  0.86546539  0.87439613  0.87668271  1
  Sr2+  Sr48  1  0.11199236  0.36919190  0.12834734  1
  Sr2+  Sr49  1  0.10966688  0.38108095  0.62248649  1
  Sr2+  Sr50  1  0.11769396  0.87440233  0.11998810  1
  Sr2+  Sr51  1  0.12525138  0.87250977  0.62692240  1
  Sr2+  Sr52  1  0.63179478  0.36781503  0.12879546  1
  Sr2+  Sr53  1  0.63898933  0.36584450  0.62501645  1
  Sr2+  Sr54  1  0.64320245  0.87390800  0.12316188  1
  Sr2+  Sr55  1  0.63289603  0.86665008  0.62509552  1
  Sr2+  Sr56  1  0.36937262  0.12807172  0.12364837  1
  Sr2+  Sr57  1  0.36471798  0.11855815  0.63033637  1
  Sr2+  Sr58  1  0.36687934  0.61428314  0.12448316  1
  Sr2+  Sr59  1  0.36110723  0.62525595  0.61882124  1
  Sr2+  Sr60  1  0.89007234  0.11342264  0.12860578  1
  Sr2+  Sr61  1  0.88798135  0.12180544  0.62450726  1
  Sr2+  Sr62  1  0.88199761  0.61784166  0.12379359  1
  Sr2+  Sr63  1  0.88852469  0.60816834  0.63118636  1
  Ca2+  Ca64  1  -0.00262330  0.50231010  0.49496483  1
  Ca2+  Ca65  1  0.00043796  -0.00010037  0.49897322  1
  Ca2+  Ca66  1  0.49743859  0.49902092  0.50143000  1
  Ca2+  Ca67  1  0.00115122  0.00060014  -0.00093617  1
  Ca2+  Ca68  1  0.00131280  0.49857033  0.00456985  1
  Ca2+  Ca69  1  0.74778459  0.75065552  0.50197378  1
  Ca2+  Ca70  1  0.74790585  0.24756973  0.00033627  1
  Ca2+  Ca71  1  0.25100086  0.75060628  -0.00198043  1
  Ca2+  Ca72  1  0.25168150  0.24959267  0.49661881  1
  Ca2+  Ca73  1  0.74843584  0.74706240  0.00369912  1
  Ca2+  Ca74  1  0.49954960  0.75135067  0.24750406  1
  Ca2+  Ca75  1  0.74921068  0.00381068  0.74872579  1
  Ca2+  Ca76  1  0.25178354  -0.00502060  0.75201544  1
  Ca2+  Ca77  1  0.75040884  0.00278300  0.25121929  1
  Ca2+  Ca78  1  0.24987577  0.49869877  0.75415392  1
  Ca2+  Ca79  1  0.25500139  0.00044853  0.24768157  1
  Ca2+  Ca80  1  0.00096420  0.24857216  0.25190887  1
  Ca2+  Ca81  1  0.74715458  0.49934572  0.75024492  1
  Ca2+  Ca82  1  -0.00016187  0.25109723  0.74622998  1
  Ca2+  Ca83  1  0.00014551  0.74820133  0.74829657  1
  Ca2+  Ca84  1  -0.00276398  0.74526411  0.25259477  1
  Nb5+  Nb85  1  0.49817161  0.00111913  0.51102424  1
  Nb5+  Nb86  1  0.50221726  0.00656707  0.00459724  1
  Nb5+  Nb87  1  0.50360413  0.50518511  0.00130072  1
  Nb5+  Nb88  1  0.24677831  0.75431063  0.49854587  1
  Nb5+  Nb89  1  0.24748975  0.25455753  -0.00063486  1
  Nb5+  Nb90  1  0.75271851  0.24577254  0.49955391  1
  Nb5+  Nb91  1  0.74129678  0.49957727  0.25208204  1
  Nb5+  Nb92  1  0.49590885  0.75998595  0.75092924  1
  Nb5+  Nb93  1  0.24220751  0.49801622  0.24790885  1
  Nb5+  Nb94  1  0.50213066  0.24919931  0.25342333  1
  Nb5+  Nb95  1  0.49642675  0.25620738  0.75384344  1
  Nb5+  Nb96  1  0.00176102  -0.00190373  0.24933720  1
  Nb5+  Nb97  1  -0.00170344  -0.00138277  0.74740137  1
  Nb5+  Nb98  1  -0.01165869  0.49996723  0.25183204  1
  Nb5+  Nb99  1  0.00079098  0.49947193  0.75336698  1
  Nb5+  Nb100  1  0.49714740  -0.00088373  0.25372535  1
  Nb5+  Nb101  1  0.50473889  0.00964824  0.75498914  1
  Nb5+  Nb102  1  0.49740670  0.49943579  0.25099531  1
  Nb5+  Nb103  1  0.49603434  0.50750063  0.74870507  1
  Nb5+  Nb104  1  0.24964353  0.25386203  0.24895775  1
  Nb5+  Nb105  1  0.24637118  0.25714504  0.74598378  1
  Nb5+  Nb106  1  0.25376588  0.75729132  0.24840125  1
  Nb5+  Nb107  1  0.25147652  0.74694896  0.75597031  1
  Nb5+  Nb108  1  0.74684233  0.24610824  0.25260827  1
  Nb5+  Nb109  1  0.75311806  0.24874423  0.75295974  1
  Nb5+  Nb110  1  0.74988175  0.75552734  0.24988903  1
  Nb5+  Nb111  1  0.75343302  0.74553644  0.74542832  1
  Nb5+  Nb112  1  0.00887983  0.25145409  0.49837285  1
  Nb5+  Nb113  1  -0.00669157  0.24607262  0.99977165  1
  Nb5+  Nb114  1  -0.01074876  0.74500067  0.50091725  1
  Nb5+  Nb115  1  0.00033342  0.74767351  0.99873777  1
  Nb5+  Nb116  1  0.49668826  0.24862311  0.50907342  1
  Nb5+  Nb117  1  0.49963514  0.25563298  1.00559763  1
  Nb5+  Nb118  1  0.49945181  0.74701890  0.50185236  1
  Nb5+  Nb119  1  0.50104305  0.76079295  1.00336708  1
  Nb5+  Nb120  1  0.25459156  -0.00345268  -0.00347546  1
  Nb5+  Nb121  1  0.24629751  -0.00045546  0.49780071  1
  Nb5+  Nb122  1  0.24534366  0.49840921  0.00306761  1
  Nb5+  Nb123  1  0.25674653  0.49372121  0.49936681  1
  Nb5+  Nb124  1  0.75680502  0.00613233  0.00025732  1
  Nb5+  Nb125  1  0.75415345  -0.00029194  0.50265234  1
  Nb5+  Nb126  1  0.74939966  0.49817247  0.00032638  1
  Nb5+  Nb127  1  0.74387250  0.50497528  0.49952677  1
  O2-  O128  1  -0.01618233  -0.02240472  0.13179510  1
  O2-  O129  1  -0.01072586  -0.02565545  0.63082241  1
  O2-  O130  1  -0.01735613  0.46780046  0.13671071  1
  O2-  O131  1  -0.01831962  0.48184225  0.63152669  1
  O2-  O132  1  0.48049304  0.00453139  0.11822065  1
  O2-  O133  1  0.48327932  0.00840811  0.62558617  1
  O2-  O134  1  0.48556076  0.50371208  0.12349706  1
  O2-  O135  1  0.46676556  0.50457061  0.63838850  1
  O2-  O136  1  0.02266273  0.01916572  0.36676129  1
  O2-  O137  1  0.01579273  0.01957555  0.86649502  1
  O2-  O138  1  0.02622533  0.52139279  0.36085054  1
  O2-  O139  1  0.01955448  0.51649583  0.87035523  1
  O2-  O140  1  0.51178477  0.00235003  0.37076359  1
  O2-  O141  1  0.52184810  -0.00049444  0.87190219  1
  O2-  O142  1  0.51372243  0.48388578  0.36375966  1
  O2-  O143  1  0.52029946  0.49283253  0.88417456  1
  O2-  O144  1  0.25687283  0.26650928  0.12380211  1
  O2-  O145  1  0.25489120  0.26629649  0.63217537  1
  O2-  O146  1  0.22992998  0.76563808  0.13532212  1
  O2-  O147  1  0.23893379  0.76505839  0.61754474  1
  O2-  O148  1  0.72802332  0.24075095  0.13803992  1
  O2-  O149  1  0.73619312  0.23448695  0.61666720  1
  O2-  O150  1  0.71667368  0.73200295  0.13840773  1
  O2-  O151  1  0.71389330  0.73845525  0.63323660  1
  O2-  O152  1  0.27631158  0.24127889  0.36062280  1
  O2-  O153  1  0.25618105  0.24367441  0.88102381  1
  O2-  O154  1  0.27512009  0.74712943  0.37984873  1
  O2-  O155  1  0.26740904  0.72125595  0.86559620  1
  O2-  O156  1  0.74725761  0.26850949  0.37689782  1
  O2-  O157  1  0.75461478  0.27660564  0.86398111  1
  O2-  O158  1  0.77650103  0.76202788  0.36849169  1
  O2-  O159  1  0.76802817  0.75409479  0.86517603  1
  O2-  O160  1  -0.00312874  0.27391939  0.11625038  1
  O2-  O161  1  -0.00749478  0.28069763  0.61383359  1
  O2-  O162  1  0.01691439  0.76911651  0.11764573  1
  O2-  O163  1  0.01910943  0.77244326  0.61403314  1
  O2-  O164  1  0.51392532  0.24918002  0.12055600  1
  O2-  O165  1  0.50724247  0.25073792  0.62554228  1
  O2-  O166  1  0.52861504  0.76091330  0.11380452  1
  O2-  O167  1  0.51463670  0.75746040  0.63000039  1
  O2-  O168  1  0.25554569  0.00775692  0.38166563  1
  O2-  O169  1  0.24489662  0.02546381  0.88473011  1
  O2-  O170  1  0.23871214  0.50413022  0.36657212  1
  O2-  O171  1  0.23364687  0.51043126  0.89064642  1
  O2-  O172  1  0.73029742  -0.02042901  0.38660546  1
  O2-  O173  1  0.74520081  -0.02322061  0.88459769  1
  O2-  O174  1  0.73330621  0.47649700  0.37063034  1
  O2-  O175  1  0.73611692  0.47422784  0.88818227  1
  O2-  O176  1  0.00326076  0.21486573  0.38487874  1
  O2-  O177  1  0.01041233  0.22485048  0.88255782  1
  O2-  O178  1  -0.01167503  0.71828384  0.38503788  1
  O2-  O179  1  -0.01314476  0.72430050  0.88106873  1
  O2-  O180  1  0.49045628  0.24831532  0.37064409  1
  O2-  O181  1  0.48971361  0.24761556  0.87139143  1
  O2-  O182  1  0.47754762  0.74622154  0.38733697  1
  O2-  O183  1  0.47534001  0.75278488  0.87069574  1
  O2-  O184  1  0.28152829  0.00243006  0.11192338  1
  O2-  O185  1  0.27172328  -0.00442742  0.61513533  1
  O2-  O186  1  0.27422367  0.48820714  0.13082120  1
  O2-  O187  1  0.27240495  0.49167273  0.61379169  1
  O2-  O188  1  0.75660257  0.03014649  0.11812416  1
  O2-  O189  1  0.75286469  0.03649994  0.61340650  1
  O2-  O190  1  0.75985670  0.51810638  0.13528192  1
  O2-  O191  1  0.76157077  0.51794631  0.61273694  1
  O2-  O192  1  0.13877525  0.28081176  0.26031356  1
  O2-  O193  1  0.13579407  0.28273581  0.75544639  1
  O2-  O194  1  0.13925659  0.75444548  0.27804644  1
  O2-  O195  1  0.13836331  0.77032891  0.76489384  1
  O2-  O196  1  0.61932585  0.27892534  0.26026192  1
  O2-  O197  1  0.61521019  0.27208807  0.75472118  1
  O2-  O198  1  0.63284219  0.76618521  0.28291584  1
  O2-  O199  1  0.61309886  0.76682873  0.77007026  1
  O2-  O200  1  0.38525668  0.23952495  0.23269520  1
  O2-  O201  1  0.38347885  0.22098013  0.74180937  1
  O2-  O202  1  0.36552331  0.71752740  0.23459128  1
  O2-  O203  1  0.38314572  0.72539821  0.73098752  1
  O2-  O204  1  0.86173556  0.23143970  0.24781678  1
  O2-  O205  1  0.86341419  0.21964172  0.74295775  1
  O2-  O206  1  0.86180023  0.72014876  0.23079786  1
  O2-  O207  1  0.86446083  0.72601343  0.72189460  1
  O2-  O208  1  0.27794431  0.37820037  0.25462178  1
  O2-  O209  1  0.29116592  0.36439496  0.76281047  1
  O2-  O210  1  0.28591813  0.86697686  0.25603519  1
  O2-  O211  1  0.28737813  0.86004943  0.75472308  1
  O2-  O212  1  0.76383116  0.37694565  0.24022426  1
  O2-  O213  1  0.75980222  0.36304383  0.71856434  1
  O2-  O214  1  0.76936130  0.86737523  0.22749961  1
  O2-  O215  1  0.76113004  0.86473482  0.73401110  1
  O2-  O216  1  0.23158041  0.13919251  0.23420161  1
  O2-  O217  1  0.23443842  0.13736911  0.74380943  1
  O2-  O218  1  0.23766907  0.61622464  0.24057356  1
  O2-  O219  1  0.24347742  0.63367050  0.72094134  1
  O2-  O220  1  0.71939125  0.13638039  0.27134978  1
  O2-  O221  1  0.71175816  0.13873704  0.76005380  1
  O2-  O222  1  0.73022185  0.61551976  0.27438826  1
  O2-  O223  1  0.71722156  0.63143089  0.76070040  1
  O2-  O224  1  0.13022664  0.47792383  0.23357680  1
  O2-  O225  1  0.11778658  0.47097844  0.73890444  1
  O2-  O226  1  0.12198875  0.97310242  0.23372414  1
  O2-  O227  1  0.11954018  0.97387541  0.73866365  1
  O2-  O228  1  0.62577193  0.48120582  0.23212152  1
  O2-  O229  1  0.60823323  0.47282255  0.73735594  1
  O2-  O230  1  0.61085428  0.98669434  0.22540431  1
  O2-  O231  1  0.61269562  0.97326959  0.73037945  1
  O2-  O232  1  0.38941801  0.04379796  0.25230863  1
  O2-  O233  1  0.38824603  0.01845129  0.76674144  1
  O2-  O234  1  0.38096389  0.51362119  0.26164871  1
  O2-  O235  1  0.38656732  0.51176420  0.78975109  1
  O2-  O236  1  0.88438255  0.02672466  0.26381916  1
  O2-  O237  1  0.88230267  0.02792727  0.75469137  1
  O2-  O238  1  0.87149389  0.51337934  0.26816338  1
  O2-  O239  1  0.88049483  0.52446974  0.76881454  1
  O2-  O240  1  0.48555442  0.37386833  0.23780679  1
  O2-  O241  1  0.47498859  0.37022508  0.75109016  1
  O2-  O242  1  0.46800929  0.88793302  0.24986102  1
  O2-  O243  1  0.47744103  0.87529103  0.74976140  1
  O2-  O244  1  0.98487941  0.38228128  0.27844944  1
  O2-  O245  1  0.97496662  0.38217791  0.77430534  1
  O2-  O246  1  0.98006675  0.88073830  0.27467792  1
  O2-  O247  1  0.97384181  0.88143887  0.77355965  1
  O2-  O248  1  0.02687965  0.11604581  0.22630309  1
  O2-  O249  1  0.02364237  0.11669396  0.72842109  1
  O2-  O250  1  0.00939554  0.61082567  0.21645938  1
  O2-  O251  1  0.02348682  0.61604901  0.73005596  1
  O2-  O252  1  0.52775123  0.13423119  0.24692932  1
  O2-  O253  1  0.52435078  0.12470824  0.74854484  1
  O2-  O254  1  0.52298242  0.61332740  0.24971138  1
  O2-  O255  1  0.51886460  0.62259869  0.75558203  1
  O2-  O256  1  0.13724709  0.46979164  0.02258432  1
  O2-  O257  1  0.13862919  0.48148603  0.50468590  1
  O2-  O258  1  0.14071279  0.98278669  0.01449211  1
  O2-  O259  1  0.13598209  0.96776593  0.50765549  1
  O2-  O260  1  0.61775366  0.47745666  0.02353295  1
  O2-  O261  1  0.63114701  0.46805893  0.51202862  1
  O2-  O262  1  0.61496564  0.97563459  0.01228345  1
  O2-  O263  1  0.61814098  0.98381778  0.51331878  1
  O2-  O264  1  0.38596382  0.01779709  -0.02544674  1
  O2-  O265  1  0.38276724  0.01955484  0.48796276  1
  O2-  O266  1  0.38253787  0.51259223  -0.01058596  1
  O2-  O267  1  0.36669986  0.53363244  0.47706384  1
  O2-  O268  1  0.86767543  0.03307047  -0.01048236  1
  O2-  O269  1  0.86521994  0.02272565  0.48175111  1
  O2-  O270  1  0.86291739  0.52136084  -0.00956054  1
  O2-  O271  1  0.86039810  0.51047286  0.47397398  1
  O2-  O272  1  0.48108801  0.37230774  0.00409587  1
  O2-  O273  1  0.47135418  0.36069470  0.49995304  1
  O2-  O274  1  0.47729087  0.87682145  -0.00235642  1
  O2-  O275  1  0.48021815  0.88313846  0.50112887  1
  O2-  O276  1  0.98531623  0.36365735  -0.02736517  1
  O2-  O277  1  0.97649039  0.36453196  0.47098998  1
  O2-  O278  1  0.97638676  0.86660191  -0.02096863  1
  O2-  O279  1  0.97907848  0.86189567  0.47350094  1
  O2-  O280  1  0.02933025  0.13464601  0.02202647  1
  O2-  O281  1  0.01382366  0.13563773  0.53307050  1
  O2-  O282  1  0.03025847  0.63142052  0.01569221  1
  O2-  O283  1  0.03000186  0.63339992  0.51769447  1
  O2-  O284  1  0.51818899  0.12416863  0.00056982  1
  O2-  O285  1  0.52245416  0.12113756  0.49846020  1
  O2-  O286  1  0.51894465  0.62201498  -0.00250895  1
  O2-  O287  1  0.52478884  0.63508183  0.50989639  1
  O2-  O288  1  0.13486860  0.27465128  0.00026885  1
  O2-  O289  1  0.11971328  0.28030196  0.49348188  1
  O2-  O290  1  0.11889141  0.77346375  -0.02196477  1
  O2-  O291  1  0.13412316  0.77107300  0.47953306  1
  O2-  O292  1  0.61208306  0.26772933  -0.02148036  1
  O2-  O293  1  0.61791807  0.26127431  0.49280836  1
  O2-  O294  1  0.61294926  0.76630013  -0.03276217  1
  O2-  O295  1  0.61157393  0.78008498  0.48771623  1
  O2-  O296  1  0.38196908  0.23245505  0.00191853  1
  O2-  O297  1  0.38645510  0.21185424  0.50876804  1
  O2-  O298  1  0.38910392  0.72624135  0.01718788  1
  O2-  O299  1  0.37869251  0.74238976  0.52292539  1
  O2-  O300  1  0.88119831  0.22110546  0.00093093  1
  O2-  O301  1  0.86665763  0.22741337  0.49987192  1
  O2-  O302  1  0.88237798  0.72571253  0.01947101  1
  O2-  O303  1  0.88013964  0.72182037  0.52597385  1
  O2-  O304  1  0.28082271  0.37402142  -0.00294638  1
  O2-  O305  1  0.28443201  0.38367395  0.48472514  1
  O2-  O306  1  0.28296342  0.88522385  -0.01252119  1
  O2-  O307  1  0.27696300  0.87433514  0.49441843  1
  O2-  O308  1  0.76093683  0.38374917  0.03216646  1
  O2-  O309  1  0.76299562  0.36669416  0.51155197  1
  O2-  O310  1  0.76437652  0.88641492  0.02615447  1
  O2-  O311  1  0.76913099  0.88749991  0.52938600  1
  O2-  O312  1  0.24501215  0.13522693  0.01386675  1
  O2-  O313  1  0.22326460  0.11471114  0.50533181  1
  O2-  O314  1  0.24123299  0.61232210  0.02685242  1
  O2-  O315  1  0.23583769  0.63384849  0.50479123  1
  O2-  O316  1  0.71100371  0.11465086  -0.01504219  1
  O2-  O317  1  0.72746545  0.12954500  0.47918619  1
  O2-  O318  1  0.71471973  0.61096449  -0.00443737  1
  O2-  O319  1  0.72039738  0.61513222  0.47646346  1
