# generated using pymatgen
data_Sr64Ca21Nb43O192
_symmetry_space_group_name_H-M   'P 1'
_cell_length_a   16.53606020
_cell_length_b   16.53560053
_cell_length_c   16.66189024
_cell_angle_alpha   90.03681658
_cell_angle_beta   89.94038931
_cell_angle_gamma   89.96771298
_symmetry_Int_Tables_number   1
_chemical_formula_structural   Sr64Ca21Nb43O192
_chemical_formula_sum   'Sr64 Ca21 Nb43 O192'
_cell_volume   4555.91792890
_cell_formula_units_Z   1
loop_
 _symmetry_equiv_pos_site_id
 _symmetry_equiv_pos_as_xyz
  1  'x, y, z'
loop_
 _atom_type_symbol
 _atom_type_oxidation_number
  Sr2+  2.0
  Ca2+  2.0
  Nb5+  5.0
  O2-  -2.0
loop_
 _atom_site_type_symbol
 _atom_site_label
 _atom_site_symmetry_multiplicity
 _atom_site_fract_x
 _atom_site_fract_y
 _atom_site_fract_z
 _atom_site_occupancy
  Sr2+  Sr0  1  0.13591910  0.13096555  0.12525318  1
  Sr2+  Sr1  1  0.13310308  0.13344818  0.63038003  1
  Sr2+  Sr2  1  0.12851562  0.63514472  0.12530881  1
  Sr2+  Sr3  1  0.13284926  0.63184593  0.61720223  1
  Sr2+  Sr4  1  0.62811800  0.14390946  0.12235303  1
  Sr2+  Sr5  1  0.62753071  0.13567565  0.61872758  1
  Sr2+  Sr6  1  0.63165067  0.62043852  0.13064670  1
  Sr2+  Sr7  1  0.63001280  0.62895977  0.63768552  1
  Sr2+  Sr8  1  0.38662885  0.38142291  0.12815631  1
  Sr2+  Sr9  1  0.38034646  0.38731845  0.62011471  1
  Sr2+  Sr10  1  0.37597857  0.88724358  0.12411665  1
  Sr2+  Sr11  1  0.38220802  0.88894466  0.63286032  1
  Sr2+  Sr12  1  0.87877219  0.38554472  0.12485495  1
  Sr2+  Sr13  1  0.88641988  0.38561361  0.62359904  1
  Sr2+  Sr14  1  0.89067921  0.88569320  0.12786597  1
  Sr2+  Sr15  1  0.87760453  0.88951620  0.62385622  1
  Sr2+  Sr16  1  0.12653345  0.36592487  0.37328714  1
  Sr2+  Sr17  1  0.11089086  0.37097459  0.87682296  1
  Sr2+  Sr18  1  0.10628160  0.86770314  0.37700023  1
  Sr2+  Sr19  1  0.12045574  0.86368692  0.87020274  1
  Sr2+  Sr20  1  0.61578017  0.37222411  0.36746782  1
  Sr2+  Sr21  1  0.62006505  0.36433339  0.87316116  1
  Sr2+  Sr22  1  0.62811847  0.87097958  0.38181864  1
  Sr2+  Sr23  1  0.61572295  0.86962153  0.87635402  1
  Sr2+  Sr24  1  0.36724277  0.11951154  0.38290512  1
  Sr2+  Sr25  1  0.36515348  0.11013353  0.87532742  1
  Sr2+  Sr26  1  0.36973313  0.61695441  0.37627715  1
  Sr2+  Sr27  1  0.36176346  0.62259513  0.87347926  1
  Sr2+  Sr28  1  0.85751944  0.11401240  0.37141203  1
  Sr2+  Sr29  1  0.86400615  0.12414032  0.87400414  1
  Sr2+  Sr30  1  0.86138209  0.62029576  0.37798067  1
  Sr2+  Sr31  1  0.86717851  0.61099181  0.87451247  1
  Sr2+  Sr32  1  0.12399501  0.11078021  0.37745943  1
  Sr2+  Sr33  1  0.11009933  0.11955643  0.86635402  1
  Sr2+  Sr34  1  0.11410903  0.61599903  0.37505870  1
  Sr2+  Sr35  1  0.12470671  0.60836766  0.87819594  1
  Sr2+  Sr36  1  0.61443936  0.11448330  0.37930526  1
  Sr2+  Sr37  1  0.62527899  0.11412789  0.88264489  1
  Sr2+  Sr38  1  0.62315525  0.62290253  0.37122010  1
  Sr2+  Sr39  1  0.61268271  0.61796398  0.87307038  1
  Sr2+  Sr40  1  0.36605983  0.35638298  0.37421248  1
  Sr2+  Sr41  1  0.36317656  0.37220609  0.87499248  1
  Sr2+  Sr42  1  0.37487685  0.87005018  0.38132045  1
  Sr2+  Sr43  1  0.36875685  0.86095347  0.87403873  1
  Sr2+  Sr44  1  0.86638049  0.36776005  0.38222457  1
  Sr2+  Sr45  1  0.87421131  0.36108473  0.87290408  1
  Sr2+  Sr46  1  0.86819126  0.86884113  0.37425663  1
  Sr2+  Sr47  1  0.85901968  0.87014974  0.87584202  1
  Sr2+  Sr48  1  0.13286700  0.38776579  0.12563067  1
  Sr2+  Sr49  1  0.14022211  0.37792721  0.62156977  1
  Sr2+  Sr50  1  0.13594663  0.87925222  0.12589159  1
  Sr2+  Sr51  1  0.13502586  0.88535117  0.62451675  1
  Sr2+  Sr52  1  0.63853173  0.38127751  0.12390609  1
  Sr2+  Sr53  1  0.63574680  0.38644631  0.62691418  1
  Sr2+  Sr54  1  0.63442712  0.88225173  0.12693896  1
  Sr2+  Sr55  1  0.64091534  0.87928072  0.63001255  1
  Sr2+  Sr56  1  0.38401480  0.12510570  0.12373018  1
  Sr2+  Sr57  1  0.37299893  0.13062028  0.62120885  1
  Sr2+  Sr58  1  0.38317777  0.63695094  0.12746425  1
  Sr2+  Sr59  1  0.38844694  0.62515826  0.62909432  1
  Sr2+  Sr60  1  0.88217307  0.13874832  0.12863914  1
  Sr2+  Sr61  1  0.89494662  0.13049174  0.62709968  1
  Sr2+  Sr62  1  0.88384289  0.62805739  0.12322350  1
  Sr2+  Sr63  1  0.87742965  0.63039321  0.62172050  1
  Ca2+  Ca64  1  0.00186893  0.49982569  0.49677592  1
  Ca2+  Ca65  1  0.50442669  0.50215833  0.49924390  1
  Ca2+  Ca66  1  -0.00089437  0.00062350  0.49979389  1
  Ca2+  Ca67  1  0.50114981  0.50129816  -0.00052840  1
  Ca2+  Ca68  1  -0.00010760  0.00018205  -0.00072799  1
  Ca2+  Ca69  1  0.25056588  0.75190320  0.49759225  1
  Ca2+  Ca70  1  0.75094457  0.25030727  0.50048412  1
  Ca2+  Ca71  1  0.24904076  0.25034751  -0.00244183  1
  Ca2+  Ca72  1  0.74840663  0.74819028  0.50126789  1
  Ca2+  Ca73  1  0.74716096  0.74827764  -0.00026554  1
  Ca2+  Ca74  1  0.00159780  0.25354200  0.25046267  1
  Ca2+  Ca75  1  0.24957738  -0.00152926  0.25134290  1
  Ca2+  Ca76  1  0.25066207  0.49961549  0.25117538  1
  Ca2+  Ca77  1  0.75232519  0.49853123  0.75449280  1
  Ca2+  Ca78  1  0.24856332  0.49979022  0.74839428  1
  Ca2+  Ca79  1  0.49947033  0.24683776  0.25134930  1
  Ca2+  Ca80  1  0.25051603  0.00007799  0.75150395  1
  Ca2+  Ca81  1  0.50073365  0.24657781  0.75118926  1
  Ca2+  Ca82  1  0.74586856  -0.00068697  0.24633479  1
  Ca2+  Ca83  1  0.74835956  0.00328634  0.74911054  1
  Ca2+  Ca84  1  0.00137376  0.74732625  0.75177189  1
  Nb5+  Nb85  1  -0.00006422  0.50015640  0.00004071  1
  Nb5+  Nb86  1  0.50110828  -0.00176146  0.00524021  1
  Nb5+  Nb87  1  0.50130596  -0.00130978  0.50866427  1
  Nb5+  Nb88  1  0.24772374  0.75057102  0.00151484  1
  Nb5+  Nb89  1  0.24952087  0.24925768  0.50073655  1
  Nb5+  Nb90  1  0.75040395  0.25256383  0.00055752  1
  Nb5+  Nb91  1  0.00370018  0.74933804  0.24828876  1
  Nb5+  Nb92  1  0.75264638  0.49913344  0.25105843  1
  Nb5+  Nb93  1  0.50536301  0.75336848  0.25342189  1
  Nb5+  Nb94  1  0.00076261  0.25306135  0.74677350  1
  Nb5+  Nb95  1  0.49941090  0.75085250  0.75554021  1
  Nb5+  Nb96  1  0.00133216  0.00782800  0.24633548  1
  Nb5+  Nb97  1  -0.00400331  -0.00799318  0.75506624  1
  Nb5+  Nb98  1  -0.00277510  0.49944285  0.25267651  1
  Nb5+  Nb99  1  0.00619563  0.50206132  0.74334078  1
  Nb5+  Nb100  1  0.49945977  -0.00105478  0.25537462  1
  Nb5+  Nb101  1  0.50425743  0.00282002  0.75616358  1
  Nb5+  Nb102  1  0.49696090  0.50041317  0.25031767  1
  Nb5+  Nb103  1  0.49747070  0.49344784  0.75521445  1
  Nb5+  Nb104  1  0.25173808  0.24641124  0.24324439  1
  Nb5+  Nb105  1  0.25335258  0.25128849  0.75436157  1
  Nb5+  Nb106  1  0.25482028  0.75203250  0.25339445  1
  Nb5+  Nb107  1  0.24963735  0.74764348  0.74303147  1
  Nb5+  Nb108  1  0.74671938  0.24890929  0.25417807  1
  Nb5+  Nb109  1  0.75171588  0.24872751  0.74359193  1
  Nb5+  Nb110  1  0.75781754  0.74922520  0.24446086  1
  Nb5+  Nb111  1  0.75524027  0.74685661  0.75352183  1
  Nb5+  Nb112  1  0.00147852  0.24530226  0.49170859  1
  Nb5+  Nb113  1  0.00228936  0.25115185  1.00373369  1
  Nb5+  Nb114  1  -0.00369250  0.75201532  0.50660758  1
  Nb5+  Nb115  1  -0.00404932  0.74780787  0.99594370  1
  Nb5+  Nb116  1  0.50033043  0.25570633  0.50327408  1
  Nb5+  Nb117  1  0.49384271  0.25036110  0.99457905  1
  Nb5+  Nb118  1  0.49986463  0.75155861  0.51001998  1
  Nb5+  Nb119  1  0.49972693  0.75396738  1.00755189  1
  Nb5+  Nb120  1  0.24374646  -0.00015506  -0.00584848  1
  Nb5+  Nb121  1  0.24966039  -0.00401152  0.49984401  1
  Nb5+  Nb122  1  0.25705909  0.50062987  0.00708213  1
  Nb5+  Nb123  1  0.25031013  0.50429087  0.49506938  1
  Nb5+  Nb124  1  0.75470442  0.00016315  0.00714445  1
  Nb5+  Nb125  1  0.75140365  0.00336433  0.50221493  1
  Nb5+  Nb126  1  0.74887670  0.49805871  -0.00295021  1
  Nb5+  Nb127  1  0.74867887  0.50036606  0.50547850  1
  O2-  O128  1  0.01775006  -0.02895914  0.13267877  1
  O2-  O129  1  0.01408389  -0.02561810  0.63625638  1
  O2-  O130  1  0.00834409  0.48288525  0.12450032  1
  O2-  O131  1  0.01851473  0.47403111  0.63301001  1
  O2-  O132  1  0.51260528  -0.02326974  0.11831356  1
  O2-  O133  1  0.51748158  -0.01900893  0.62178880  1
  O2-  O134  1  0.52162088  0.48468433  0.13507853  1
  O2-  O135  1  0.52034404  0.48567428  0.63714646  1
  O2-  O136  1  -0.02189046  0.02123995  0.36361188  1
  O2-  O137  1  -0.01766259  0.03144191  0.86745735  1
  O2-  O138  1  -0.01865816  0.53055675  0.36241006  1
  O2-  O139  1  -0.01242517  0.51923198  0.88296966  1
  O2-  O140  1  0.48283113  0.01028265  0.37075994  1
  O2-  O141  1  0.48771440  0.01471729  0.87188505  1
  O2-  O142  1  0.49887798  0.53628346  0.36347007  1
  O2-  O143  1  0.48386311  0.53177294  0.86805748  1
  O2-  O144  1  0.26550694  0.22091939  0.13068357  1
  O2-  O145  1  0.25685024  0.22870809  0.62296311  1
  O2-  O146  1  0.26088964  0.72717519  0.12162654  1
  O2-  O147  1  0.26471341  0.71849610  0.63238253  1
  O2-  O148  1  0.76395508  0.23607153  0.12369551  1
  O2-  O149  1  0.76727718  0.21703804  0.63448850  1
  O2-  O150  1  0.75132853  0.71497687  0.13198277  1
  O2-  O151  1  0.75326519  0.71995903  0.63579681  1
  O2-  O152  1  0.23784866  0.26524781  0.38200538  1
  O2-  O153  1  0.23527508  0.28337725  0.86490658  1
  O2-  O154  1  0.23889151  0.78507913  0.36244933  1
  O2-  O155  1  0.24159458  0.76920014  0.88282505  1
  O2-  O156  1  0.73610213  0.28122235  0.36529611  1
  O2-  O157  1  0.74268797  0.27482243  0.88342220  1
  O2-  O158  1  0.73661427  0.76436620  0.35976510  1
  O2-  O159  1  0.73352596  0.77927007  0.86738424  1
  O2-  O160  1  -0.02578626  0.26796234  0.11519830  1
  O2-  O161  1  -0.01833203  0.26606149  0.63094076  1
  O2-  O162  1  -0.01520177  0.75862166  0.12232769  1
  O2-  O163  1  -0.02984398  0.76482484  0.61805060  1
  O2-  O164  1  0.47991796  0.25292006  0.11352331  1
  O2-  O165  1  0.46861108  0.25174016  0.61785253  1
  O2-  O166  1  0.47831012  0.76929696  0.12231723  1
  O2-  O167  1  0.47738534  0.76466277  0.62452122  1
  O2-  O168  1  0.28337256  -0.00827097  0.38547255  1
  O2-  O169  1  0.28262506  -0.01896920  0.88393321  1
  O2-  O170  1  0.28086654  0.47815890  0.38241791  1
  O2-  O171  1  0.26687931  0.49088620  0.88904444  1
  O2-  O172  1  0.76230621  -0.02004080  0.38228831  1
  O2-  O173  1  0.76421247  -0.00781972  0.88886815  1
  O2-  O174  1  0.77096706  0.48551437  0.36601420  1
  O2-  O175  1  0.78158264  0.47961115  0.88764487  1
  O2-  O176  1  0.03481303  0.23391178  0.38289414  1
  O2-  O177  1  0.01323049  0.24510035  0.87716737  1
  O2-  O178  1  0.01705090  0.73383412  0.36370792  1
  O2-  O179  1  0.03207729  0.73062702  0.88730158  1
  O2-  O180  1  0.52110739  0.23475507  0.38743136  1
  O2-  O181  1  0.53503336  0.23371405  0.88556556  1
  O2-  O182  1  0.51980221  0.74395473  0.36747943  1
  O2-  O183  1  0.51056350  0.74355727  0.87389820  1
  O2-  O184  1  0.23529926  0.01407600  0.11163098  1
  O2-  O185  1  0.23535616  0.01960594  0.61582138  1
  O2-  O186  1  0.21946879  0.51687880  0.11793531  1
  O2-  O187  1  0.22292136  0.51039766  0.61278830  1
  O2-  O188  1  0.70941824  0.01844349  0.11417390  1
  O2-  O189  1  0.71404246  0.01557659  0.61441022  1
  O2-  O190  1  0.73675139  0.50943685  0.12313827  1
  O2-  O191  1  0.72862684  0.51460365  0.61849332  1
  O2-  O192  1  0.13632133  0.28187172  0.23438966  1
  O2-  O193  1  0.11951270  0.27235857  0.73738571  1
  O2-  O194  1  0.11961822  0.76523921  0.23102306  1
  O2-  O195  1  0.13617468  0.77597783  0.73258352  1
  O2-  O196  1  0.63262858  0.27400467  0.22685128  1
  O2-  O197  1  0.63774702  0.27512619  0.73315584  1
  O2-  O198  1  0.61954274  0.76727410  0.23172420  1
  O2-  O199  1  0.61564191  0.76827867  0.73608257  1
  O2-  O200  1  0.36628615  0.22423790  0.27416278  1
  O2-  O201  1  0.36500369  0.22424566  0.77110012  1
  O2-  O202  1  0.37226461  0.73094189  0.26243782  1
  O2-  O203  1  0.37763130  0.73067263  0.76484021  1
  O2-  O204  1  0.86446488  0.23004180  0.26392264  1
  O2-  O205  1  0.88028092  0.23327922  0.76825053  1
  O2-  O206  1  0.87329815  0.72822197  0.25750367  1
  O2-  O207  1  0.86703272  0.72415032  0.77254338  1
  O2-  O208  1  0.28119705  0.36449530  0.23323342  1
  O2-  O209  1  0.26986811  0.36449672  0.72109231  1
  O2-  O210  1  0.25990933  0.86388932  0.21608460  1
  O2-  O211  1  0.27716659  0.86375098  0.73799531  1
  O2-  O212  1  0.76589724  0.38101698  0.23041498  1
  O2-  O213  1  0.78006947  0.36431194  0.73331329  1
  O2-  O214  1  0.76849179  0.86188726  0.22038852  1
  O2-  O215  1  0.76982279  0.86442028  0.72684765  1
  O2-  O216  1  0.21907564  0.13309243  0.26692126  1
  O2-  O217  1  0.22192086  0.13644258  0.76561700  1
  O2-  O218  1  0.22570716  0.63800987  0.26810207  1
  O2-  O219  1  0.23498557  0.63597413  0.77912497  1
  O2-  O220  1  0.72344394  0.13546595  0.26939624  1
  O2-  O221  1  0.73629688  0.13807012  0.78400011  1
  O2-  O222  1  0.73283544  0.62107518  0.26475545  1
  O2-  O223  1  0.72195745  0.63313029  0.77602180  1
  O2-  O224  1  0.11174805  0.48292788  0.26561787  1
  O2-  O225  1  0.11659926  0.47958905  0.77973801  1
  O2-  O226  1  0.11380330  0.97650690  0.27406055  1
  O2-  O227  1  0.11548592  0.98366526  0.77195739  1
  O2-  O228  1  0.63000818  0.49026367  0.26154049  1
  O2-  O229  1  0.61682586  0.48302961  0.77507311  1
  O2-  O230  1  0.61095330  0.96067362  0.26049286  1
  O2-  O231  1  0.61555399  0.96558627  0.76309092  1
  O2-  O232  1  0.38606998  0.01009045  0.22273240  1
  O2-  O233  1  0.38931784  0.01791719  0.72731145  1
  O2-  O234  1  0.38561547  0.52513383  0.23053230  1
  O2-  O235  1  0.38277733  0.51924767  0.73095175  1
  O2-  O236  1  0.88136095  0.01460446  0.22514980  1
  O2-  O237  1  0.88257834  0.02106378  0.72783947  1
  O2-  O238  1  0.87013835  0.52158460  0.22903373  1
  O2-  O239  1  0.88860677  0.52414938  0.73815884  1
  O2-  O240  1  0.48302274  0.38724032  0.27339251  1
  O2-  O241  1  0.47638844  0.38123072  0.77541517  1
  O2-  O242  1  0.47116754  0.86820260  0.25868363  1
  O2-  O243  1  0.47667585  0.87154461  0.76085236  1
  O2-  O244  1  0.96834843  0.38806209  0.26706165  1
  O2-  O245  1  0.98224651  0.37429299  0.76730704  1
  O2-  O246  1  0.97611518  0.86438698  0.26255369  1
  O2-  O247  1  0.97531335  0.88109401  0.78099057  1
  O2-  O248  1  0.02178851  0.11887999  0.22252821  1
  O2-  O249  1  0.01863525  0.13430034  0.73545097  1
  O2-  O250  1  0.01025120  0.62705185  0.22603191  1
  O2-  O251  1  0.03190857  0.61529514  0.72992315  1
  O2-  O252  1  0.52667522  0.10970292  0.23500991  1
  O2-  O253  1  0.53472656  0.11247222  0.73727380  1
  O2-  O254  1  0.51310350  0.63649264  0.22649814  1
  O2-  O255  1  0.51473397  0.63359938  0.73470351  1
  O2-  O256  1  0.11959857  0.48394568  -0.01249162  1
  O2-  O257  1  0.13550894  0.47598457  0.47237904  1
  O2-  O258  1  0.13386873  0.96969039  -0.02305243  1
  O2-  O259  1  0.13649726  0.98187957  0.47660618  1
  O2-  O260  1  0.63632100  0.47043786  -0.01590290  1
  O2-  O261  1  0.63680724  0.46550419  0.47993635  1
  O2-  O262  1  0.61769260  0.98356970  -0.02195276  1
  O2-  O263  1  0.61533111  0.98641412  0.47652578  1
  O2-  O264  1  0.38055336  0.01768865  0.01423332  1
  O2-  O265  1  0.38175089  0.01923314  0.51758891  1
  O2-  O266  1  0.36768541  0.52687975  0.02649424  1
  O2-  O267  1  0.36816729  0.51971430  0.52175826  1
  O2-  O268  1  0.86498634  0.02628888  0.02786858  1
  O2-  O269  1  0.86369832  0.02378105  0.52240314  1
  O2-  O270  1  0.87774519  0.51625888  0.01965878  1
  O2-  O271  1  0.86727462  0.52575025  0.51282061  1
  O2-  O272  1  0.47600256  0.36494546  -0.01760441  1
  O2-  O273  1  0.47454524  0.36674105  0.48518393  1
  O2-  O274  1  0.47728843  0.87843778  -0.01863276  1
  O2-  O275  1  0.47822042  0.88044225  0.48881096  1
  O2-  O276  1  0.97992414  0.38070090  -0.01491965  1
  O2-  O277  1  0.98298436  0.36266931  0.48743540  1
  O2-  O278  1  0.97573406  0.86187925  -0.01687956  1
  O2-  O279  1  0.97877669  0.86625246  0.47220060  1
  O2-  O280  1  0.02208598  0.13744169  0.01649263  1
  O2-  O281  1  0.02226299  0.13428951  0.52927545  1
  O2-  O282  1  0.01725614  0.62093969  0.02043353  1
  O2-  O283  1  0.02808188  0.63605949  0.51100092  1
  O2-  O284  1  0.51836107  0.11800403  0.01389772  1
  O2-  O285  1  0.51510434  0.11939732  0.51146054  1
  O2-  O286  1  0.52102400  0.64012839  0.01692457  1
  O2-  O287  1  0.52371128  0.63887514  0.52063482  1
  O2-  O288  1  0.11476081  0.27978684  0.01672033  1
  O2-  O289  1  0.12981054  0.26588731  0.51828511  1
  O2-  O290  1  0.12890047  0.76522883  0.01996020  1
  O2-  O291  1  0.11555254  0.77848235  0.51635878  1
  O2-  O292  1  0.63004578  0.26732588  0.01879425  1
  O2-  O293  1  0.61365604  0.26759971  0.53096215  1
  O2-  O294  1  0.61176819  0.78275706  0.01109127  1
  O2-  O295  1  0.61261164  0.78284168  0.50779348  1
  O2-  O296  1  0.38391610  0.22287643  -0.02778766  1
  O2-  O297  1  0.37102927  0.22962362  0.48563355  1
  O2-  O298  1  0.37476455  0.73582910  -0.01242049  1
  O2-  O299  1  0.38843266  0.73677135  0.47098490  1
  O2-  O300  1  0.87353617  0.23575526  -0.01552643  1
  O2-  O301  1  0.88779826  0.22346669  0.47532028  1
  O2-  O302  1  0.88436096  0.72030672  -0.01813124  1
  O2-  O303  1  0.88280861  0.72585188  0.47882533  1
  O2-  O304  1  0.27396396  0.38560541  0.02410968  1
  O2-  O305  1  0.26969963  0.36742165  0.51706483  1
  O2-  O306  1  0.26723517  0.86977057  0.01840490  1
  O2-  O307  1  0.27355578  0.88469675  0.52494056  1
  O2-  O308  1  0.76923796  0.37220261  0.02239829  1
  O2-  O309  1  0.78096001  0.38320545  0.51563627  1
  O2-  O310  1  0.77034487  0.88551388  0.02397109  1
  O2-  O311  1  0.76318092  0.88403694  0.52029575  1
  O2-  O312  1  0.22778765  0.11405870  -0.02703309  1
  O2-  O313  1  0.23741866  0.12627705  0.48426717  1
  O2-  O314  1  0.23391543  0.62959526  -0.01508695  1
  O2-  O315  1  0.23247939  0.61748493  0.47148659  1
  O2-  O316  1  0.73374553  0.13266828  -0.01187411  1
  O2-  O317  1  0.72642361  0.11798143  0.47390068  1
  O2-  O318  1  0.72872149  0.61170465  -0.01895774  1
  O2-  O319  1  0.72725414  0.61351109  0.47393971  1
