# generated using pymatgen
data_Sr64Ca21Nb43O192
_symmetry_space_group_name_H-M   'P 1'
_cell_length_a   16.55613270
_cell_length_b   16.55440006
_cell_length_c   16.71145838
_cell_angle_alpha   90.02941537
_cell_angle_beta   90.01511386
_cell_angle_gamma   89.99569741
_symmetry_Int_Tables_number   1
_chemical_formula_structural   Sr64Ca21Nb43O192
_chemical_formula_sum   'Sr64 Ca21 Nb43 O192'
_cell_volume   4580.22299592
_cell_formula_units_Z   1
loop_
 _symmetry_equiv_pos_site_id
 _symmetry_equiv_pos_as_xyz
  1  'x, y, z'
loop_
 _atom_type_symbol
 _atom_type_oxidation_number
  Sr2+  2.0
  Ca2+  2.0
  Nb5+  5.0
  O2-  -2.0
loop_
 _atom_site_type_symbol
 _atom_site_label
 _atom_site_symmetry_multiplicity
 _atom_site_fract_x
 _atom_site_fract_y
 _atom_site_fract_z
 _atom_site_occupancy
  Sr2+  Sr0  1  0.12851943  0.12378377  0.13360396  1
  Sr2+  Sr1  1  0.12537532  0.12320859  0.62545146  1
  Sr2+  Sr2  1  0.11631071  0.62918040  0.12959198  1
  Sr2+  Sr3  1  0.12360887  0.59393071  0.62500674  1
  Sr2+  Sr4  1  0.62902797  0.12230004  0.12627216  1
  Sr2+  Sr5  1  0.63166865  0.12562782  0.62659769  1
  Sr2+  Sr6  1  0.62375395  0.61465116  0.12393706  1
  Sr2+  Sr7  1  0.62800941  0.63966997  0.62144666  1
  Sr2+  Sr8  1  0.37481545  0.36374068  0.12449949  1
  Sr2+  Sr9  1  0.37640262  0.37026370  0.61592780  1
  Sr2+  Sr10  1  0.37331209  0.89340498  0.13911577  1
  Sr2+  Sr11  1  0.37581519  0.86888762  0.62613201  1
  Sr2+  Sr12  1  0.86066532  0.36026648  0.12355095  1
  Sr2+  Sr13  1  0.87242123  0.38619685  0.63447848  1
  Sr2+  Sr14  1  0.87654700  0.86639031  0.12711515  1
  Sr2+  Sr15  1  0.87297000  0.87922474  0.62034715  1
  Sr2+  Sr16  1  0.13836143  0.38209293  0.37951633  1
  Sr2+  Sr17  1  0.14550915  0.38022651  0.87037023  1
  Sr2+  Sr18  1  0.13885273  0.87443352  0.37404517  1
  Sr2+  Sr19  1  0.14553738  0.87743476  0.87214521  1
  Sr2+  Sr20  1  0.63384646  0.38476761  0.37808294  1
  Sr2+  Sr21  1  0.63138581  0.38055543  0.86988174  1
  Sr2+  Sr22  1  0.60704827  0.86609286  0.37270186  1
  Sr2+  Sr23  1  0.63410151  0.86150503  0.87237754  1
  Sr2+  Sr24  1  0.36859100  0.12426440  0.36016374  1
  Sr2+  Sr25  1  0.37711318  0.12885958  0.87446942  1
  Sr2+  Sr26  1  0.35020283  0.62845686  0.37318717  1
  Sr2+  Sr27  1  0.35558861  0.62394806  0.87847338  1
  Sr2+  Sr28  1  0.87631685  0.12039891  0.39168260  1
  Sr2+  Sr29  1  0.87620040  0.12216343  0.87819378  1
  Sr2+  Sr30  1  0.88185800  0.63290152  0.36719203  1
  Sr2+  Sr31  1  0.87504164  0.63238530  0.87459127  1
  Sr2+  Sr32  1  0.12875766  0.14859053  0.37828018  1
  Sr2+  Sr33  1  0.13147502  0.12262982  0.87085346  1
  Sr2+  Sr34  1  0.12710077  0.61968375  0.37245678  1
  Sr2+  Sr35  1  0.13414547  0.62999855  0.88344463  1
  Sr2+  Sr36  1  0.60993061  0.12006049  0.37728482  1
  Sr2+  Sr37  1  0.62347968  0.12380153  0.86949400  1
  Sr2+  Sr38  1  0.62418240  0.62507329  0.37504696  1
  Sr2+  Sr39  1  0.62170421  0.62220562  0.87644995  1
  Sr2+  Sr40  1  0.37132939  0.37147798  0.37656000  1
  Sr2+  Sr41  1  0.38600709  0.38720113  0.87818897  1
  Sr2+  Sr42  1  0.37276233  0.88315171  0.37489261  1
  Sr2+  Sr43  1  0.36988628  0.85896264  0.86988288  1
  Sr2+  Sr44  1  0.87583113  0.38934220  0.37276542  1
  Sr2+  Sr45  1  0.88086515  0.37764862  0.87236183  1
  Sr2+  Sr46  1  0.87588566  0.87454445  0.37568112  1
  Sr2+  Sr47  1  0.87606655  0.88025884  0.87989709  1
  Sr2+  Sr48  1  0.11881427  0.35879148  0.13502544  1
  Sr2+  Sr49  1  0.11213365  0.36343069  0.62418812  1
  Sr2+  Sr50  1  0.11639999  0.87588806  0.12680253  1
  Sr2+  Sr51  1  0.13167997  0.88033390  0.62781523  1
  Sr2+  Sr52  1  0.61730470  0.37072823  0.12632725  1
  Sr2+  Sr53  1  0.62228309  0.37002505  0.61676298  1
  Sr2+  Sr54  1  0.61459556  0.87286546  0.12809923  1
  Sr2+  Sr55  1  0.62187270  0.87502884  0.61571146  1
  Sr2+  Sr56  1  0.40132906  0.12599168  0.12844132  1
  Sr2+  Sr57  1  0.40655904  0.12460431  0.62614347  1
  Sr2+  Sr58  1  0.37177657  0.61263570  0.11686099  1
  Sr2+  Sr59  1  0.37011920  0.62033077  0.61556405  1
  Sr2+  Sr60  1  0.87968974  0.11723850  0.11975648  1
  Sr2+  Sr61  1  0.89467089  0.11978276  0.62921247  1
  Sr2+  Sr62  1  0.87108479  0.62461756  0.12911137  1
  Sr2+  Sr63  1  0.87706214  0.63044726  0.61218280  1
  Ca2+  Ca64  1  0.49950174  0.50247386  0.49740318  1
  Ca2+  Ca65  1  0.50032810  -0.00011458  0.50064193  1
  Ca2+  Ca66  1  -0.00106397  0.49671870  0.00177211  1
  Ca2+  Ca67  1  -0.00130558  0.50002025  0.49965667  1
  Ca2+  Ca68  1  0.49887730  -0.00301677  -0.00507117  1
  Ca2+  Ca69  1  0.24467951  0.74939327  0.50293593  1
  Ca2+  Ca70  1  0.75160537  0.25124384  0.49948338  1
  Ca2+  Ca71  1  0.24941169  0.75438366  0.00526620  1
  Ca2+  Ca72  1  0.25113347  0.24581523  0.50595757  1
  Ca2+  Ca73  1  0.24946296  0.24598319  -0.00149377  1
  Ca2+  Ca74  1  0.24542253  0.00130341  0.25011186  1
  Ca2+  Ca75  1  0.50348368  0.74893850  0.75104064  1
  Ca2+  Ca76  1  0.25006643  0.49939311  0.24507310  1
  Ca2+  Ca77  1  -0.00559916  0.24920478  0.25024931  1
  Ca2+  Ca78  1  0.74876602  0.50433794  0.75255306  1
  Ca2+  Ca79  1  0.50443035  0.25303849  0.25070588  1
  Ca2+  Ca80  1  0.75316805  -0.00180338  0.75056378  1
  Ca2+  Ca81  1  0.25397688  0.49516508  0.75041680  1
  Ca2+  Ca82  1  0.75160131  -0.00019741  0.25240094  1
  Ca2+  Ca83  1  0.49625941  0.74408191  0.24691884  1
  Ca2+  Ca84  1  0.00050031  0.74912726  0.74977573  1
  Nb5+  Nb85  1  0.00208021  0.00011374  0.00295260  1
  Nb5+  Nb86  1  0.00263516  -0.00241384  0.50370141  1
  Nb5+  Nb87  1  0.50180030  0.50180311  -0.00083717  1
  Nb5+  Nb88  1  0.75115171  0.75241060  0.49260023  1
  Nb5+  Nb89  1  0.74927446  0.74608752  0.00012063  1
  Nb5+  Nb90  1  0.74536979  0.24220976  -0.00257532  1
  Nb5+  Nb91  1  0.75047379  0.50082890  0.24909746  1
  Nb5+  Nb92  1  0.25577002  0.00487105  0.74792225  1
  Nb5+  Nb93  1  0.00418803  0.24793461  0.75361978  1
  Nb5+  Nb94  1  0.00033277  0.75370104  0.25237413  1
  Nb5+  Nb95  1  0.50747401  0.25408840  0.74988795  1
  Nb5+  Nb96  1  0.00044080  0.00241184  0.26019925  1
  Nb5+  Nb97  1  0.00080559  -0.00451833  0.75628289  1
  Nb5+  Nb98  1  0.00020725  0.49556413  0.24410219  1
  Nb5+  Nb99  1  0.00292585  0.50291581  0.75886870  1
  Nb5+  Nb100  1  0.50174349  -0.00045726  0.25034964  1
  Nb5+  Nb101  1  0.50507057  -0.00437036  0.75537897  1
  Nb5+  Nb102  1  0.49802494  0.50340249  0.25199972  1
  Nb5+  Nb103  1  0.50091137  0.50218485  0.74486349  1
  Nb5+  Nb104  1  0.25083460  0.25055246  0.25065383  1
  Nb5+  Nb105  1  0.25941267  0.24638324  0.75068219  1
  Nb5+  Nb106  1  0.25115564  0.74926683  0.24523598  1
  Nb5+  Nb107  1  0.24711762  0.74222778  0.74787548  1
  Nb5+  Nb108  1  0.75004659  0.24702919  0.25659508  1
  Nb5+  Nb109  1  0.75685414  0.24860177  0.74819870  1
  Nb5+  Nb110  1  0.74818438  0.75290552  0.24558168  1
  Nb5+  Nb111  1  0.75557905  0.74967595  0.74153480  1
  Nb5+  Nb112  1  -0.00947535  0.25402883  0.49823342  1
  Nb5+  Nb113  1  0.00059195  0.25064068  0.99682770  1
  Nb5+  Nb114  1  0.00249158  0.75309397  0.50070720  1
  Nb5+  Nb115  1  -0.00023685  0.75184813  0.99718971  1
  Nb5+  Nb116  1  0.49905420  0.24951637  0.49449781  1
  Nb5+  Nb117  1  0.50490784  0.24716298  0.99885282  1
  Nb5+  Nb118  1  0.49308032  0.74514534  0.49754248  1
  Nb5+  Nb119  1  0.49550591  0.75015044  0.99999667  1
  Nb5+  Nb120  1  0.25156103  0.00484245  0.00200853  1
  Nb5+  Nb121  1  0.25481877  0.00343623  0.50214467  1
  Nb5+  Nb122  1  0.24215692  0.49404759  0.00671662  1
  Nb5+  Nb123  1  0.25140116  0.49863224  0.50139355  1
  Nb5+  Nb124  1  0.74889250  -0.00848978  0.00055025  1
  Nb5+  Nb125  1  0.74701596  0.00044079  0.49659864  1
  Nb5+  Nb126  1  0.75011773  0.49473120  -0.00038993  1
  Nb5+  Nb127  1  0.75476095  0.50270581  0.50379443  1
  O2-  O128  1  0.01192110  0.01371906  0.11877249  1
  O2-  O129  1  0.01153751  0.00502284  0.62329239  1
  O2-  O130  1  -0.01280933  0.53357676  0.13351937  1
  O2-  O131  1  -0.02539990  0.51253278  0.63964549  1
  O2-  O132  1  0.50619317  -0.01030867  0.12895898  1
  O2-  O133  1  0.51531617  -0.00229578  0.63705104  1
  O2-  O134  1  0.48918128  0.50994285  0.11940110  1
  O2-  O135  1  0.47064698  0.49876216  0.63471405  1
  O2-  O136  1  -0.01342759  -0.00908157  0.37565393  1
  O2-  O137  1  -0.00639980  -0.00999838  0.87340555  1
  O2-  O138  1  0.01533240  0.49030625  0.36288438  1
  O2-  O139  1  0.02449897  0.46751589  0.87005138  1
  O2-  O140  1  0.48717924  0.01602775  0.36807522  1
  O2-  O141  1  0.48220665  0.02587027  0.86523825  1
  O2-  O142  1  0.52750069  0.49110815  0.36268429  1
  O2-  O143  1  0.52813100  0.49251196  0.88191940  1
  O2-  O144  1  0.22944901  0.25681741  0.13184016  1
  O2-  O145  1  0.22307530  0.25955687  0.64025620  1
  O2-  O146  1  0.22106699  0.76656882  0.13359378  1
  O2-  O147  1  0.27099617  0.75904433  0.63517663  1
  O2-  O148  1  0.72570631  0.25433788  0.11490368  1
  O2-  O149  1  0.73040218  0.25804536  0.63577983  1
  O2-  O150  1  0.74766671  0.74846488  0.12665230  1
  O2-  O151  1  0.75682150  0.74886834  0.62227892  1
  O2-  O152  1  0.26636999  0.24198017  0.37114552  1
  O2-  O153  1  0.25496820  0.21894361  0.86463072  1
  O2-  O154  1  0.24395758  0.74601049  0.36627742  1
  O2-  O155  1  0.24254881  0.74230162  0.87002657  1
  O2-  O156  1  0.78165685  0.25704189  0.36496287  1
  O2-  O157  1  0.76043826  0.24813654  0.87741571  1
  O2-  O158  1  0.75067341  0.74791272  0.37354822  1
  O2-  O159  1  0.75841850  0.75331699  0.88210859  1
  O2-  O160  1  0.01750197  0.23171362  0.11028829  1
  O2-  O161  1  0.01138249  0.23493947  0.63142968  1
  O2-  O162  1  0.00411980  0.75011078  0.12752060  1
  O2-  O163  1  -0.01444255  0.75108920  0.61368008  1
  O2-  O164  1  0.51977239  0.25037154  0.11390605  1
  O2-  O165  1  0.51616792  0.25857433  0.63225910  1
  O2-  O166  1  0.52222216  0.74696717  0.11262673  1
  O2-  O167  1  0.50284634  0.76027464  0.61634068  1
  O2-  O168  1  0.25756338  -0.00470586  0.38623316  1
  O2-  O169  1  0.25125785  0.01769757  0.86700298  1
  O2-  O170  1  0.22891985  0.50702690  0.38125416  1
  O2-  O171  1  0.23171219  0.51600706  0.88724127  1
  O2-  O172  1  0.78308627  -0.00358125  0.38463168  1
  O2-  O173  1  0.76717957  0.00568263  0.88623137  1
  O2-  O174  1  0.73221767  0.50412152  0.36779223  1
  O2-  O175  1  0.72277937  0.50283444  0.88813807  1
  O2-  O176  1  -0.02853359  0.25537627  0.38446307  1
  O2-  O177  1  -0.02830551  0.24848683  0.87121167  1
  O2-  O178  1  -0.01116622  0.76325659  0.37283264  1
  O2-  O179  1  -0.02690984  0.76283678  0.88554527  1
  O2-  O180  1  0.48021331  0.23174947  0.38238250  1
  O2-  O181  1  0.48653403  0.24664648  0.87172942  1
  O2-  O182  1  0.51345049  0.74323277  0.38116253  1
  O2-  O183  1  0.52667010  0.74902035  0.88670174  1
  O2-  O184  1  0.23704546  -0.01765599  0.11349262  1
  O2-  O185  1  0.23201748  -0.00442339  0.62932617  1
  O2-  O186  1  0.28897478  0.48695934  0.11425477  1
  O2-  O187  1  0.27934240  0.49795586  0.61908456  1
  O2-  O188  1  0.74871600  0.01925114  0.11441768  1
  O2-  O189  1  0.73897168  -0.00870410  0.61546875  1
  O2-  O190  1  0.76723114  0.50709827  0.12520550  1
  O2-  O191  1  0.77555687  0.51038843  0.61739241  1
  O2-  O192  1  0.12934741  0.27944267  0.26917122  1
  O2-  O193  1  0.11669372  0.26456092  0.77189245  1
  O2-  O194  1  0.11478663  0.77702786  0.25766153  1
  O2-  O195  1  0.13536708  0.78407518  0.74629101  1
  O2-  O196  1  0.63930742  0.28750533  0.26148227  1
  O2-  O197  1  0.62116635  0.26973166  0.76689644  1
  O2-  O198  1  0.63571958  0.77494713  0.25114608  1
  O2-  O199  1  0.63962286  0.78740127  0.74065099  1
  O2-  O200  1  0.36795949  0.22373047  0.23332765  1
  O2-  O201  1  0.37371217  0.22743408  0.73534681  1
  O2-  O202  1  0.36180093  0.71620906  0.23174803  1
  O2-  O203  1  0.36730517  0.73239225  0.76774984  1
  O2-  O204  1  0.85962943  0.23549636  0.21234234  1
  O2-  O205  1  0.87098626  0.22485402  0.73942447  1
  O2-  O206  1  0.87614904  0.72887935  0.24426218  1
  O2-  O207  1  0.86683591  0.70731227  0.74422872  1
  O2-  O208  1  0.27898915  0.36754002  0.25717474  1
  O2-  O209  1  0.26727648  0.36018450  0.77393359  1
  O2-  O210  1  0.27715573  0.86621060  0.25705973  1
  O2-  O211  1  0.27048768  0.88600735  0.75695687  1
  O2-  O212  1  0.77606477  0.38429985  0.25021828  1
  O2-  O213  1  0.77082356  0.36589621  0.76061426  1
  O2-  O214  1  0.78062604  0.86422998  0.24753556  1
  O2-  O215  1  0.79015942  0.86295285  0.75644345  1
  O2-  O216  1  0.21845024  0.13290829  0.25407135  1
  O2-  O217  1  0.22401137  0.12303652  0.73797880  1
  O2-  O218  1  0.21453135  0.63358706  0.24381701  1
  O2-  O219  1  0.22053689  0.63054777  0.74096344  1
  O2-  O220  1  0.71885918  0.13641360  0.26024847  1
  O2-  O221  1  0.72205577  0.13497690  0.75411093  1
  O2-  O222  1  0.73634690  0.62714055  0.24851819  1
  O2-  O223  1  0.71519063  0.63807753  0.75740256  1
  O2-  O224  1  0.11405147  0.47782752  0.22832022  1
  O2-  O225  1  0.11593787  0.47211139  0.72629606  1
  O2-  O226  1  0.11177829  0.96477964  0.25021574  1
  O2-  O227  1  0.12261849  0.98519436  0.75754303  1
  O2-  O228  1  0.63542768  0.48225232  0.22792643  1
  O2-  O229  1  0.61291917  0.46322182  0.73507468  1
  O2-  O230  1  0.61775690  0.96884102  0.25964055  1
  O2-  O231  1  0.61716855  0.98155584  0.77573422  1
  O2-  O232  1  0.38079995  0.02381672  0.23591518  1
  O2-  O233  1  0.36992300  0.02644932  0.73704799  1
  O2-  O234  1  0.38745982  0.53086615  0.26494165  1
  O2-  O235  1  0.38965981  0.51164191  0.78648800  1
  O2-  O236  1  0.88782953  0.02155119  0.23495797  1
  O2-  O237  1  0.88785773  0.02818558  0.74692027  1
  O2-  O238  1  0.87284732  0.52318503  0.26322420  1
  O2-  O239  1  0.88542764  0.50724969  0.78575210  1
  O2-  O240  1  0.48273150  0.38677985  0.23192678  1
  O2-  O241  1  0.47366870  0.36815165  0.75190891  1
  O2-  O242  1  0.47160210  0.88045576  0.25735484  1
  O2-  O243  1  0.47067428  0.88607608  0.76052425  1
  O2-  O244  1  0.96991066  0.38518030  0.22770061  1
  O2-  O245  1  0.97709199  0.36244449  0.73885904  1
  O2-  O246  1  0.97261322  0.87371797  0.24320687  1
  O2-  O247  1  0.97808345  0.88484099  0.73891254  1
  O2-  O248  1  0.02768161  0.11498702  0.26257453  1
  O2-  O249  1  0.01960021  0.12521592  0.75593077  1
  O2-  O250  1  0.01653294  0.63419439  0.26321541  1
  O2-  O251  1  0.02747159  0.61442748  0.77499267  1
  O2-  O252  1  0.52911384  0.11764709  0.23911805  1
  O2-  O253  1  0.51831306  0.13180193  0.74138914  1
  O2-  O254  1  0.53839669  0.61425664  0.24524487  1
  O2-  O255  1  0.52966784  0.61379646  0.74704858  1
  O2-  O256  1  0.13321646  0.47087990  0.03178171  1
  O2-  O257  1  0.13168363  0.47203247  0.52405490  1
  O2-  O258  1  0.11633214  0.97586614  -0.01291992  1
  O2-  O259  1  0.11687474  0.97095255  0.49556479  1
  O2-  O260  1  0.62935805  0.48707776  0.02645826  1
  O2-  O261  1  0.63822013  0.48206626  0.51225690  1
  O2-  O262  1  0.63566852  0.96959821  -0.00882686  1
  O2-  O263  1  0.63611218  0.96943577  0.47949013  1
  O2-  O264  1  0.36241588  0.03690519  0.00773603  1
  O2-  O265  1  0.36501245  0.03153929  0.51442051  1
  O2-  O266  1  0.38737074  0.51712597  -0.01905283  1
  O2-  O267  1  0.36643892  0.52941901  0.47898955  1
  O2-  O268  1  0.87940574  0.01787864  0.00305895  1
  O2-  O269  1  0.87852413  0.01711222  0.51684878  1
  O2-  O270  1  0.86202882  0.52454117  -0.01461746  1
  O2-  O271  1  0.86656251  0.52948911  0.47158698  1
  O2-  O272  1  0.48997115  0.37749711  0.00290457  1
  O2-  O273  1  0.47587115  0.36707299  0.50042587  1
  O2-  O274  1  0.46585964  0.86300014  -0.00197011  1
  O2-  O275  1  0.47676364  0.86576389  0.49046236  1
  O2-  O276  1  0.96373152  0.36001477  0.00945753  1
  O2-  O277  1  0.96783606  0.36489979  0.51896014  1
  O2-  O278  1  0.97602888  0.88087395  0.01224386  1
  O2-  O279  1  0.96999435  0.87947198  0.50106254  1
  O2-  O280  1  0.00806595  0.12173346  -0.01956917  1
  O2-  O281  1  0.01583711  0.11581371  0.48878256  1
  O2-  O282  1  0.01916369  0.63729447  -0.00954411  1
  O2-  O283  1  0.02139557  0.63872448  0.49045645  1
  O2-  O284  1  0.53365531  0.13431663  -0.00149809  1
  O2-  O285  1  0.53059786  0.13474226  0.51630383  1
  O2-  O286  1  0.52768277  0.62030416  -0.00222815  1
  O2-  O287  1  0.53513421  0.63403319  0.50706589  1
  O2-  O288  1  0.10926883  0.27442840  -0.02608054  1
  O2-  O289  1  0.10867154  0.26606326  0.48762689  1
  O2-  O290  1  0.11098737  0.77872072  -0.00993961  1
  O2-  O291  1  0.11192044  0.78746284  0.49943885  1
  O2-  O292  1  0.62722393  0.27515793  -0.02185207  1
  O2-  O293  1  0.61699385  0.27833192  0.48487829  1
  O2-  O294  1  0.63785416  0.78065404  0.00271972  1
  O2-  O295  1  0.63460772  0.77444828  0.50212764  1
  O2-  O296  1  0.38893508  0.23157166  0.00966473  1
  O2-  O297  1  0.38548716  0.23064569  0.52799020  1
  O2-  O298  1  0.38532265  0.71565649  -0.00146381  1
  O2-  O299  1  0.38166032  0.71683606  0.49558318  1
  O2-  O300  1  0.86361171  0.22705120  0.01083519  1
  O2-  O301  1  0.88184131  0.21208820  0.51849035  1
  O2-  O302  1  0.87128992  0.73623450  0.01726850  1
  O2-  O303  1  0.87212663  0.73144760  0.49215028  1
  O2-  O304  1  0.27281231  0.38155088  -0.02165077  1
  O2-  O305  1  0.27455437  0.38114841  0.49042304  1
  O2-  O306  1  0.26565741  0.88991900  -0.02689482  1
  O2-  O307  1  0.27135024  0.88509456  0.50981382  1
  O2-  O308  1  0.76647400  0.37808129  -0.00135005  1
  O2-  O309  1  0.77826529  0.38831254  0.49512712  1
  O2-  O310  1  0.77754362  0.87699487  0.00600010  1
  O2-  O311  1  0.77582616  0.86921540  0.50039267  1
  O2-  O312  1  0.20564559  0.11336468  0.00339182  1
  O2-  O313  1  0.21021690  0.11283398  0.50336765  1
  O2-  O314  1  0.23292321  0.61536259  0.01777456  1
  O2-  O315  1  0.21808598  0.61669351  0.51051750  1
  O2-  O316  1  0.72332333  0.12822343  -0.00625453  1
  O2-  O317  1  0.72402751  0.11434042  0.49153441  1
  O2-  O318  1  0.72884140  0.63103628  0.00175266  1
  O2-  O319  1  0.73056585  0.63126023  0.50079557  1
