# generated using pymatgen
data_Sr64Ca21Nb43O192
_symmetry_space_group_name_H-M   'P 1'
_cell_length_a   16.58535865
_cell_length_b   16.61207210
_cell_length_c   16.75223763
_cell_angle_alpha   89.94192140
_cell_angle_beta   90.04134111
_cell_angle_gamma   90.07665238
_symmetry_Int_Tables_number   1
_chemical_formula_structural   Sr64Ca21Nb43O192
_chemical_formula_sum   'Sr64 Ca21 Nb43 O192'
_cell_volume   4615.52146774
_cell_formula_units_Z   1
loop_
 _symmetry_equiv_pos_site_id
 _symmetry_equiv_pos_as_xyz
  1  'x, y, z'
loop_
 _atom_type_symbol
 _atom_type_oxidation_number
  Sr2+  2.0
  Ca2+  2.0
  Nb5+  5.0
  O2-  -2.0
loop_
 _atom_site_type_symbol
 _atom_site_label
 _atom_site_symmetry_multiplicity
 _atom_site_fract_x
 _atom_site_fract_y
 _atom_site_fract_z
 _atom_site_occupancy
  Sr2+  Sr0  1  0.13246403  0.11643488  0.12404033  1
  Sr2+  Sr1  1  0.13555646  0.11633520  0.62741815  1
  Sr2+  Sr2  1  0.12237753  0.62469792  0.12589942  1
  Sr2+  Sr3  1  0.12120510  0.62927441  0.62882858  1
  Sr2+  Sr4  1  0.62663138  0.11197321  0.12024176  1
  Sr2+  Sr5  1  0.62682900  0.11664999  0.63709764  1
  Sr2+  Sr6  1  0.62685357  0.62394126  0.11796936  1
  Sr2+  Sr7  1  0.63310964  0.61681241  0.63788688  1
  Sr2+  Sr8  1  0.37918213  0.37658892  0.12476284  1
  Sr2+  Sr9  1  0.37275749  0.36694246  0.62920139  1
  Sr2+  Sr10  1  0.36807896  0.85683632  0.12776236  1
  Sr2+  Sr11  1  0.38749281  0.86228021  0.62284571  1
  Sr2+  Sr12  1  0.88140856  0.37420186  0.12823667  1
  Sr2+  Sr13  1  0.88356925  0.36689894  0.62354698  1
  Sr2+  Sr14  1  0.88590077  0.86850186  0.12381491  1
  Sr2+  Sr15  1  0.88031750  0.85723476  0.62692148  1
  Sr2+  Sr16  1  0.11670793  0.38457036  0.37784910  1
  Sr2+  Sr17  1  0.11562298  0.37731730  0.88373182  1
  Sr2+  Sr18  1  0.12782290  0.88400858  0.37797696  1
  Sr2+  Sr19  1  0.12648831  0.87999203  0.85460169  1
  Sr2+  Sr20  1  0.62935339  0.37651651  0.37237217  1
  Sr2+  Sr21  1  0.60916150  0.38051008  0.86215272  1
  Sr2+  Sr22  1  0.61533544  0.88162729  0.37856050  1
  Sr2+  Sr23  1  0.61857379  0.87439456  0.88186681  1
  Sr2+  Sr24  1  0.38540329  0.13226404  0.37614659  1
  Sr2+  Sr25  1  0.37328494  0.13147985  0.87305288  1
  Sr2+  Sr26  1  0.37435975  0.63716900  0.37117217  1
  Sr2+  Sr27  1  0.37255131  0.62960278  0.88836591  1
  Sr2+  Sr28  1  0.86886798  0.13694890  0.37249457  1
  Sr2+  Sr29  1  0.87081682  0.13104210  0.87823370  1
  Sr2+  Sr30  1  0.86892103  0.62657295  0.37489839  1
  Sr2+  Sr31  1  0.86465191  0.63769431  0.87290219  1
  Sr2+  Sr32  1  0.13020990  0.12731926  0.37113760  1
  Sr2+  Sr33  1  0.12166411  0.12902711  0.88506368  1
  Sr2+  Sr34  1  0.11288366  0.62484952  0.37730544  1
  Sr2+  Sr35  1  0.12484341  0.64388928  0.87519852  1
  Sr2+  Sr36  1  0.61951017  0.12833613  0.37677507  1
  Sr2+  Sr37  1  0.62243195  0.12200203  0.87531361  1
  Sr2+  Sr38  1  0.62228948  0.64488367  0.37253978  1
  Sr2+  Sr39  1  0.61695336  0.63280737  0.87906918  1
  Sr2+  Sr40  1  0.38274985  0.37773732  0.37363188  1
  Sr2+  Sr41  1  0.37026121  0.38867434  0.87713787  1
  Sr2+  Sr42  1  0.37751396  0.87137501  0.37634013  1
  Sr2+  Sr43  1  0.37171910  0.86337546  0.86779828  1
  Sr2+  Sr44  1  0.87067739  0.38507811  0.37600724  1
  Sr2+  Sr45  1  0.87296965  0.38911444  0.87395100  1
  Sr2+  Sr46  1  0.87025017  0.88854890  0.37493602  1
  Sr2+  Sr47  1  0.87646370  0.88043518  0.86815778  1
  Sr2+  Sr48  1  0.13403494  0.36357995  0.12513332  1
  Sr2+  Sr49  1  0.13360359  0.37382579  0.62653369  1
  Sr2+  Sr50  1  0.13060547  0.87381228  0.12766554  1
  Sr2+  Sr51  1  0.12138436  0.86465878  0.62367580  1
  Sr2+  Sr52  1  0.62662785  0.37217160  0.12332430  1
  Sr2+  Sr53  1  0.64261900  0.36455336  0.62968921  1
  Sr2+  Sr54  1  0.64042870  0.86812707  0.12543213  1
  Sr2+  Sr55  1  0.63582914  0.86887170  0.62134423  1
  Sr2+  Sr56  1  0.37228270  0.12441360  0.12298411  1
  Sr2+  Sr57  1  0.38659526  0.12204840  0.62937323  1
  Sr2+  Sr58  1  0.38111932  0.61604190  0.12438354  1
  Sr2+  Sr59  1  0.35803077  0.61676443  0.62605793  1
  Sr2+  Sr60  1  0.89091047  0.11041382  0.12153637  1
  Sr2+  Sr61  1  0.88659703  0.12216398  0.62184881  1
  Sr2+  Sr62  1  0.87111037  0.61988430  0.12399615  1
  Sr2+  Sr63  1  0.88274332  0.61935200  0.63366704  1
  Ca2+  Ca64  1  0.00440119  -0.00329545  -0.00373733  1
  Ca2+  Ca65  1  0.00042083  0.50468022  -0.00102124  1
  Ca2+  Ca66  1  -0.00020268  0.00060425  0.50221235  1
  Ca2+  Ca67  1  0.50218958  0.49664498  0.50132519  1
  Ca2+  Ca68  1  0.49689401  0.00100349  0.00459933  1
  Ca2+  Ca69  1  0.24687956  0.75189946  -0.00135377  1
  Ca2+  Ca70  1  0.74610545  0.25132315  0.00320334  1
  Ca2+  Ca71  1  0.24972348  0.74957975  0.49942172  1
  Ca2+  Ca72  1  0.75317163  0.74988220  0.00139138  1
  Ca2+  Ca73  1  0.75139381  0.74808665  0.50027810  1
  Ca2+  Ca74  1  0.24669043  0.49683140  0.75240504  1
  Ca2+  Ca75  1  0.25016417  0.00376609  0.74716960  1
  Ca2+  Ca76  1  0.49821345  0.25123250  0.74992629  1
  Ca2+  Ca77  1  0.74952368  0.49839955  0.75035340  1
  Ca2+  Ca78  1  0.75327171  0.00002769  0.74829997  1
  Ca2+  Ca79  1  0.00008384  0.75103336  0.25245636  1
  Ca2+  Ca80  1  0.25004256  0.49838817  0.25167389  1
  Ca2+  Ca81  1  0.50199012  0.75092786  0.24873838  1
  Ca2+  Ca82  1  -0.00072245  0.25050981  0.24931544  1
  Ca2+  Ca83  1  0.00209212  0.25245521  0.74946888  1
  Ca2+  Ca84  1  0.49980867  0.74765427  0.74925563  1
  Nb5+  Nb85  1  -0.00110805  0.49738813  0.50148929  1
  Nb5+  Nb86  1  0.50095869  0.49947488  0.00056947  1
  Nb5+  Nb87  1  0.49764368  0.00083369  0.49975616  1
  Nb5+  Nb88  1  0.25153356  0.25056514  0.00704673  1
  Nb5+  Nb89  1  0.75576412  0.24765431  0.50008207  1
  Nb5+  Nb90  1  0.25483586  0.24749716  0.50197823  1
  Nb5+  Nb91  1  0.26171681  0.00074406  0.25181556  1
  Nb5+  Nb92  1  0.50152381  0.24989717  0.24783165  1
  Nb5+  Nb93  1  0.74810846  0.50693849  0.25156736  1
  Nb5+  Nb94  1  -0.00209498  0.74821526  0.75057271  1
  Nb5+  Nb95  1  0.75417614  0.00864407  0.25333408  1
  Nb5+  Nb96  1  0.01200458  -0.00212772  0.25036694  1
  Nb5+  Nb97  1  0.00074895  0.00584337  0.74528337  1
  Nb5+  Nb98  1  0.00168778  0.49697235  0.24673133  1
  Nb5+  Nb99  1  0.00270418  0.50134025  0.75684324  1
  Nb5+  Nb100  1  0.50328295  0.00000752  0.24943607  1
  Nb5+  Nb101  1  0.50187988  -0.00129657  0.75716010  1
  Nb5+  Nb102  1  0.50367649  0.50215072  0.25316232  1
  Nb5+  Nb103  1  0.49295749  0.50261227  0.74241689  1
  Nb5+  Nb104  1  0.25378645  0.24998599  0.25561037  1
  Nb5+  Nb105  1  0.24984003  0.25300436  0.76314255  1
  Nb5+  Nb106  1  0.24524360  0.74489648  0.25131122  1
  Nb5+  Nb107  1  0.25363670  0.74773504  0.74464198  1
  Nb5+  Nb108  1  0.74918777  0.25268557  0.24663532  1
  Nb5+  Nb109  1  0.75467268  0.25123536  0.75752272  1
  Nb5+  Nb110  1  0.75448296  0.76086832  0.25134868  1
  Nb5+  Nb111  1  0.74386201  0.75381668  0.75303749  1
  Nb5+  Nb112  1  0.01056661  0.25005536  0.49892248  1
  Nb5+  Nb113  1  -0.00584406  0.24906438  1.00182609  1
  Nb5+  Nb114  1  -0.00479046  0.75078498  0.49600186  1
  Nb5+  Nb115  1  0.00357490  0.75176580  1.00162748  1
  Nb5+  Nb116  1  0.50558273  0.25184681  0.49921028  1
  Nb5+  Nb117  1  0.50078917  0.25223814  0.99578513  1
  Nb5+  Nb118  1  0.50552485  0.74077131  0.50390603  1
  Nb5+  Nb119  1  0.49682815  0.75499005  1.00342565  1
  Nb5+  Nb120  1  0.25399554  -0.00200682  -0.00439369  1
  Nb5+  Nb121  1  0.25390871  -0.00071242  0.50045971  1
  Nb5+  Nb122  1  0.24470665  0.49919944  0.00449851  1
  Nb5+  Nb123  1  0.25108193  0.50097328  0.49520707  1
  Nb5+  Nb124  1  0.74798040  -0.00148836  -0.00353250  1
  Nb5+  Nb125  1  0.75249585  0.00466183  0.49918990  1
  Nb5+  Nb126  1  0.74774949  0.49576998  -0.00408396  1
  Nb5+  Nb127  1  0.74874651  0.50099556  0.49839736  1
  O2-  O128  1  -0.01867061  -0.01595706  0.13537084  1
  O2-  O129  1  -0.04097670  -0.01488355  0.63406288  1
  O2-  O130  1  -0.02954919  0.49827029  0.13391525  1
  O2-  O131  1  -0.02787789  0.49083956  0.61506108  1
  O2-  O132  1  0.48086410  0.02011960  0.13929372  1
  O2-  O133  1  0.48018588  0.00428948  0.61393490  1
  O2-  O134  1  0.48720178  0.49615787  0.13041721  1
  O2-  O135  1  0.46148330  0.50109816  0.63249442  1
  O2-  O136  1  0.02805223  0.01212965  0.36751931  1
  O2-  O137  1  0.03767231  0.00359053  0.86098690  1
  O2-  O138  1  0.01232454  0.50741623  0.37441194  1
  O2-  O139  1  0.03621999  0.51370131  0.86460208  1
  O2-  O140  1  0.51461875  0.00444853  0.37228709  1
  O2-  O141  1  0.52713196  -0.00250750  0.86918835  1
  O2-  O142  1  0.52075763  0.48444266  0.36630773  1
  O2-  O143  1  0.51944358  0.50070934  0.88575520  1
  O2-  O144  1  0.24050787  0.24459655  0.12735885  1
  O2-  O145  1  0.23454806  0.25327246  0.61504056  1
  O2-  O146  1  0.23070881  0.76362034  0.13379284  1
  O2-  O147  1  0.22452095  0.75791437  0.63031453  1
  O2-  O148  1  0.71347187  0.23673950  0.13887555  1
  O2-  O149  1  0.72673325  0.23330399  0.61019551  1
  O2-  O150  1  0.72526106  0.73781352  0.13820045  1
  O2-  O151  1  0.72688590  0.73416839  0.63473760  1
  O2-  O152  1  0.27027053  0.23839158  0.37048619  1
  O2-  O153  1  0.26797763  0.25190241  0.87973764  1
  O2-  O154  1  0.27515509  0.75181792  0.36631839  1
  O2-  O155  1  0.27067165  0.74132232  0.86421553  1
  O2-  O156  1  0.75950095  0.26222392  0.37212773  1
  O2-  O157  1  0.78063237  0.26655437  0.86745740  1
  O2-  O158  1  0.78437198  0.75895107  0.36598372  1
  O2-  O159  1  0.77676981  0.76649201  0.86720441  1
  O2-  O160  1  0.01310764  0.28004360  0.11573881  1
  O2-  O161  1  0.01030671  0.28200056  0.61191832  1
  O2-  O162  1  0.02330430  0.76528273  0.11498405  1
  O2-  O163  1  0.01468070  0.75530615  0.62496048  1
  O2-  O164  1  0.51301425  0.25103028  0.13038114  1
  O2-  O165  1  0.51217307  0.24273118  0.61309376  1
  O2-  O166  1  0.52778781  0.75261644  0.11753630  1
  O2-  O167  1  0.52035610  0.77284921  0.61513404  1
  O2-  O168  1  0.23337265  0.00442573  0.37245937  1
  O2-  O169  1  0.22965746  0.00227987  0.88499094  1
  O2-  O170  1  0.21574394  0.49814115  0.38309248  1
  O2-  O171  1  0.23789455  0.47482854  0.88924776  1
  O2-  O172  1  0.72787572  -0.01653677  0.37107069  1
  O2-  O173  1  0.72853219  -0.02172300  0.88553397  1
  O2-  O174  1  0.74246532  0.47444231  0.36994146  1
  O2-  O175  1  0.72878600  0.46912943  0.88587590  1
  O2-  O176  1  -0.01430675  0.23171048  0.38523224  1
  O2-  O177  1  -0.00395582  0.22334023  0.88386558  1
  O2-  O178  1  -0.01640886  0.72351416  0.38525535  1
  O2-  O179  1  -0.01543497  0.73232446  0.86621624  1
  O2-  O180  1  0.48262839  0.25365637  0.37339969  1
  O2-  O181  1  0.47195263  0.25310655  0.88559695  1
  O2-  O182  1  0.47938348  0.74546416  0.38521057  1
  O2-  O183  1  0.47495022  0.74164000  0.88455536  1
  O2-  O184  1  0.27444408  0.00197452  0.13503440  1
  O2-  O185  1  0.27305633  0.02268896  0.61082452  1
  O2-  O186  1  0.27799988  0.50154457  0.11872728  1
  O2-  O187  1  0.26611423  0.47654437  0.60973332  1
  O2-  O188  1  0.76107751  0.02211933  0.13859129  1
  O2-  O189  1  0.75915193  0.03395313  0.60928974  1
  O2-  O190  1  0.75823806  0.51645728  0.13469529  1
  O2-  O191  1  0.76439387  0.52012935  0.61076930  1
  O2-  O192  1  0.13922603  0.26803471  0.26571496  1
  O2-  O193  1  0.13676973  0.28973285  0.76104253  1
  O2-  O194  1  0.13463552  0.78403221  0.26993120  1
  O2-  O195  1  0.11870553  0.75800869  0.76378036  1
  O2-  O196  1  0.61942361  0.26349279  0.27128861  1
  O2-  O197  1  0.63555366  0.27512282  0.75806968  1
  O2-  O198  1  0.63762113  0.76926687  0.27951386  1
  O2-  O199  1  0.63236765  0.77644260  0.77326382  1
  O2-  O200  1  0.38002302  0.22651574  0.23832574  1
  O2-  O201  1  0.36163631  0.22181875  0.73324015  1
  O2-  O202  1  0.36536991  0.72924041  0.22831783  1
  O2-  O203  1  0.36619296  0.73593627  0.71872378  1
  O2-  O204  1  0.85917884  0.22242646  0.23248931  1
  O2-  O205  1  0.86533869  0.22678397  0.72208203  1
  O2-  O206  1  0.86637106  0.73025422  0.22379273  1
  O2-  O207  1  0.87882606  0.73387278  0.73215433  1
  O2-  O208  1  0.28175935  0.36218800  0.24942019  1
  O2-  O209  1  0.28394109  0.36566006  0.74797176  1
  O2-  O210  1  0.27422803  0.88420396  0.25526571  1
  O2-  O211  1  0.25610447  0.86778040  0.75820628  1
  O2-  O212  1  0.76570967  0.36813563  0.23657376  1
  O2-  O213  1  0.77022943  0.36515675  0.72060855  1
  O2-  O214  1  0.76728889  0.87867448  0.23708270  1
  O2-  O215  1  0.77218155  0.86753120  0.72691407  1
  O2-  O216  1  0.23485992  0.12362395  0.24790042  1
  O2-  O217  1  0.21341324  0.13954619  0.75653252  1
  O2-  O218  1  0.21783439  0.63320632  0.25151860  1
  O2-  O219  1  0.22890533  0.63060218  0.74005164  1
  O2-  O220  1  0.72766094  0.12220163  0.27045665  1
  O2-  O221  1  0.72656380  0.13490669  0.76608713  1
  O2-  O222  1  0.73089366  0.61972987  0.26948475  1
  O2-  O223  1  0.73266122  0.63398252  0.77087188  1
  O2-  O224  1  0.11306565  0.46738574  0.23275857  1
  O2-  O225  1  0.11163595  0.48999784  0.71356072  1
  O2-  O226  1  0.12872176  0.98354163  0.23375514  1
  O2-  O227  1  0.11452703  0.98154585  0.71191772  1
  O2-  O228  1  0.62999454  0.47273143  0.23824651  1
  O2-  O229  1  0.61274007  0.47585134  0.72577270  1
  O2-  O230  1  0.62044817  0.98554436  0.23559116  1
  O2-  O231  1  0.61401051  0.97985667  0.71875992  1
  O2-  O232  1  0.37458080  0.02299014  0.27268278  1
  O2-  O233  1  0.38518301  0.02901332  0.76317292  1
  O2-  O234  1  0.38889253  0.52052940  0.26953322  1
  O2-  O235  1  0.38297230  0.53050589  0.77815130  1
  O2-  O236  1  0.86758002  0.01932347  0.27323997  1
  O2-  O237  1  0.88696961  0.01289839  0.78681678  1
  O2-  O238  1  0.86668596  0.51755819  0.26630914  1
  O2-  O239  1  0.88469822  0.52418173  0.77025464  1
  O2-  O240  1  0.48330955  0.36925055  0.24736717  1
  O2-  O241  1  0.47539912  0.38644532  0.76410062  1
  O2-  O242  1  0.47622993  0.88782242  0.25134894  1
  O2-  O243  1  0.46934454  0.88458647  0.75152774  1
  O2-  O244  1  0.96802829  0.38338079  0.26345541  1
  O2-  O245  1  0.97677634  0.38754654  0.76385500  1
  O2-  O246  1  0.97515970  0.88624405  0.26891052  1
  O2-  O247  1  0.98749457  0.86718666  0.75633641  1
  O2-  O248  1  0.01303398  0.11513996  0.23139750  1
  O2-  O249  1  0.01476895  0.11791401  0.72400961  1
  O2-  O250  1  0.02384175  0.61439948  0.24426267  1
  O2-  O251  1  0.01103194  0.62590520  0.73211979  1
  O2-  O252  1  0.51690240  0.12939796  0.25943287  1
  O2-  O253  1  0.52455588  0.11793215  0.74872709  1
  O2-  O254  1  0.53198201  0.61384640  0.24957361  1
  O2-  O255  1  0.53192393  0.61547674  0.75063289  1
  O2-  O256  1  0.13423708  0.47668553  0.02888026  1
  O2-  O257  1  0.11530627  0.47295641  0.51197747  1
  O2-  O258  1  0.14180222  0.99165115  0.03387285  1
  O2-  O259  1  0.13891187  0.97946937  0.51437576  1
  O2-  O260  1  0.61912874  0.48218282  0.02225180  1
  O2-  O261  1  0.63833646  0.46611676  0.51057295  1
  O2-  O262  1  0.63184642  0.98145691  0.03047624  1
  O2-  O263  1  0.61963761  0.99743692  0.50831862  1
  O2-  O264  1  0.36492437  0.03845644  -0.00888891  1
  O2-  O265  1  0.37813525  0.02127787  0.47572392  1
  O2-  O266  1  0.37987735  0.51102595  -0.01249271  1
  O2-  O267  1  0.36292065  0.51780811  0.47018705  1
  O2-  O268  1  0.86443030  0.02714676  -0.01018148  1
  O2-  O269  1  0.86325162  0.01988469  0.46919250  1
  O2-  O270  1  0.86217364  0.51511840  -0.02119200  1
  O2-  O271  1  0.87410193  0.50648087  0.47653445  1
  O2-  O272  1  0.47933148  0.37717158  0.00912133  1
  O2-  O273  1  0.46992510  0.36177778  0.50080322  1
  O2-  O274  1  0.47314805  0.86774012  -0.00001413  1
  O2-  O275  1  0.48322340  0.88517269  0.49084610  1
  O2-  O276  1  0.98632101  0.36665882  -0.02809547  1
  O2-  O277  1  0.98275720  0.37464030  0.47917905  1
  O2-  O278  1  0.96702242  0.86480313  -0.01376571  1
  O2-  O279  1  0.97239171  0.86420231  0.48845112  1
  O2-  O280  1  0.02608181  0.13490562  0.02081091  1
  O2-  O281  1  0.01594702  0.13689551  0.52676696  1
  O2-  O282  1  0.03871579  0.63554662  0.00373250  1
  O2-  O283  1  0.01870413  0.61467280  0.50853012  1
  O2-  O284  1  0.52256974  0.13890160  0.00165577  1
  O2-  O285  1  0.50687908  0.12814552  0.48805324  1
  O2-  O286  1  0.51299355  0.61733531  0.00920215  1
  O2-  O287  1  0.53481875  0.63003107  0.50988440  1
  O2-  O288  1  0.13499442  0.27023596  -0.01019044  1
  O2-  O289  1  0.12540843  0.26516797  0.47826868  1
  O2-  O290  1  0.11554979  0.78007456  -0.03389786  1
  O2-  O291  1  0.11339864  0.76741293  0.48430777  1
  O2-  O292  1  0.61184727  0.28137487  -0.02005883  1
  O2-  O293  1  0.62073020  0.26504671  0.48076913  1
  O2-  O294  1  0.61489989  0.75943527  -0.02398397  1
  O2-  O295  1  0.61826354  0.77347896  0.47647992  1
  O2-  O296  1  0.37405388  0.23618386  0.01963167  1
  O2-  O297  1  0.36966124  0.22749245  0.51105248  1
  O2-  O298  1  0.38248409  0.72496586  0.02563426  1
  O2-  O299  1  0.38669319  0.72675141  0.52259346  1
  O2-  O300  1  0.88209784  0.22896774  0.01994936  1
  O2-  O301  1  0.87068898  0.23176973  0.51161650  1
  O2-  O302  1  0.88850383  0.71535258  0.01080404  1
  O2-  O303  1  0.88356751  0.72255927  0.52600331  1
  O2-  O304  1  0.27091391  0.36898021  0.01369588  1
  O2-  O305  1  0.26401000  0.36455537  0.48213367  1
  O2-  O306  1  0.28222993  0.88660123  0.00078913  1
  O2-  O307  1  0.28044792  0.88729665  0.49794447  1
  O2-  O308  1  0.76236044  0.38498790  0.03507472  1
  O2-  O309  1  0.76999421  0.36656194  0.50837611  1
  O2-  O310  1  0.76906811  0.88556947  0.02998820  1
  O2-  O311  1  0.76091807  0.89006702  0.51616136  1
  O2-  O312  1  0.23229662  0.13228767  0.00181281  1
  O2-  O313  1  0.22720901  0.13028096  0.48991554  1
  O2-  O314  1  0.23373943  0.61356264  -0.00719764  1
  O2-  O315  1  0.22661523  0.61188989  0.51318958  1
  O2-  O316  1  0.72119588  0.11686184  -0.00931919  1
  O2-  O317  1  0.73613274  0.13059659  0.47153078  1
  O2-  O318  1  0.72342676  0.61154816  -0.00526363  1
  O2-  O319  1  0.73225584  0.61074178  0.47016305  1
