# generated using pymatgen
data_Sr64Ca21Nb43O192
_symmetry_space_group_name_H-M   'P 1'
_cell_length_a   16.57494187
_cell_length_b   16.62644717
_cell_length_c   16.75629738
_cell_angle_alpha   90.01828918
_cell_angle_beta   90.09067325
_cell_angle_gamma   90.02773238
_symmetry_Int_Tables_number   1
_chemical_formula_structural   Sr64Ca21Nb43O192
_chemical_formula_sum   'Sr64 Ca21 Nb43 O192'
_cell_volume   4617.73400861
_cell_formula_units_Z   1
loop_
 _symmetry_equiv_pos_site_id
 _symmetry_equiv_pos_as_xyz
  1  'x, y, z'
loop_
 _atom_type_symbol
 _atom_type_oxidation_number
  Sr2+  2.0
  Ca2+  2.0
  Nb5+  5.0
  O2-  -2.0
loop_
 _atom_site_type_symbol
 _atom_site_label
 _atom_site_symmetry_multiplicity
 _atom_site_fract_x
 _atom_site_fract_y
 _atom_site_fract_z
 _atom_site_occupancy
  Sr2+  Sr0  1  0.10755944  0.11481035  0.12674081  1
  Sr2+  Sr1  1  0.12084176  0.11089201  0.63372947  1
  Sr2+  Sr2  1  0.12251692  0.62696571  0.12459770  1
  Sr2+  Sr3  1  0.12328266  0.63631754  0.61935390  1
  Sr2+  Sr4  1  0.62409807  0.10526688  0.12482004  1
  Sr2+  Sr5  1  0.62226373  0.11165583  0.62124508  1
  Sr2+  Sr6  1  0.62027683  0.63259846  0.12974237  1
  Sr2+  Sr7  1  0.62213139  0.64034425  0.62905919  1
  Sr2+  Sr8  1  0.36436809  0.37267657  0.12620400  1
  Sr2+  Sr9  1  0.36909326  0.35339289  0.62121499  1
  Sr2+  Sr10  1  0.37701640  0.87307417  0.12495459  1
  Sr2+  Sr11  1  0.37164172  0.87569450  0.63186311  1
  Sr2+  Sr12  1  0.86953665  0.37072045  0.12463557  1
  Sr2+  Sr13  1  0.86412888  0.37979513  0.62751639  1
  Sr2+  Sr14  1  0.86241345  0.88007166  0.12686500  1
  Sr2+  Sr15  1  0.87004029  0.87998037  0.62072957  1
  Sr2+  Sr16  1  0.11185224  0.37432826  0.36791237  1
  Sr2+  Sr17  1  0.14608517  0.37719293  0.87363659  1
  Sr2+  Sr18  1  0.12864040  0.88004055  0.39416641  1
  Sr2+  Sr19  1  0.13132195  0.87636899  0.87444842  1
  Sr2+  Sr20  1  0.59933089  0.37634443  0.37325990  1
  Sr2+  Sr21  1  0.64677719  0.37650181  0.87813356  1
  Sr2+  Sr22  1  0.63707734  0.87703854  0.38675259  1
  Sr2+  Sr23  1  0.63095580  0.87645897  0.86556355  1
  Sr2+  Sr24  1  0.38407038  0.13406077  0.37637787  1
  Sr2+  Sr25  1  0.38313332  0.12491350  0.87110645  1
  Sr2+  Sr26  1  0.38027338  0.62540513  0.38341480  1
  Sr2+  Sr27  1  0.38541878  0.62141923  0.87209418  1
  Sr2+  Sr28  1  0.89402875  0.13262861  0.38040111  1
  Sr2+  Sr29  1  0.88491426  0.13587486  0.86756839  1
  Sr2+  Sr30  1  0.88532313  0.61196759  0.38280204  1
  Sr2+  Sr31  1  0.89158443  0.61144749  0.87245384  1
  Sr2+  Sr32  1  0.12772792  0.12406870  0.36544160  1
  Sr2+  Sr33  1  0.14066599  0.13492836  0.87040603  1
  Sr2+  Sr34  1  0.13538302  0.61815021  0.37948993  1
  Sr2+  Sr35  1  0.12784256  0.61830535  0.87908498  1
  Sr2+  Sr36  1  0.63482001  0.14188743  0.38163243  1
  Sr2+  Sr37  1  0.63210079  0.14265643  0.87357202  1
  Sr2+  Sr38  1  0.62614992  0.61172148  0.37898561  1
  Sr2+  Sr39  1  0.62835281  0.61510121  0.87450404  1
  Sr2+  Sr40  1  0.37067586  0.37241003  0.37322807  1
  Sr2+  Sr41  1  0.38330418  0.36672658  0.87007914  1
  Sr2+  Sr42  1  0.38038573  0.88472856  0.38060077  1
  Sr2+  Sr43  1  0.38104164  0.88474355  0.87556443  1
  Sr2+  Sr44  1  0.87155664  0.37288314  0.38006377  1
  Sr2+  Sr45  1  0.87436175  0.37567817  0.87680780  1
  Sr2+  Sr46  1  0.88622492  0.88932966  0.38558025  1
  Sr2+  Sr47  1  0.88426863  0.87835598  0.85999843  1
  Sr2+  Sr48  1  0.11704075  0.37556047  0.12680218  1
  Sr2+  Sr49  1  0.11873986  0.36645375  0.63761542  1
  Sr2+  Sr50  1  0.10562235  0.86800708  0.12589539  1
  Sr2+  Sr51  1  0.10022215  0.87073061  0.62738154  1
  Sr2+  Sr52  1  0.62308766  0.37073587  0.12182748  1
  Sr2+  Sr53  1  0.61381325  0.36870762  0.60399576  1
  Sr2+  Sr54  1  0.62102946  0.86996068  0.12554871  1
  Sr2+  Sr55  1  0.65181830  0.87604164  0.62905834  1
  Sr2+  Sr56  1  0.36903189  0.10725815  0.12635934  1
  Sr2+  Sr57  1  0.36259136  0.12167884  0.62338113  1
  Sr2+  Sr58  1  0.37028632  0.63087795  0.12558691  1
  Sr2+  Sr59  1  0.36299940  0.63198722  0.62970191  1
  Sr2+  Sr60  1  0.86424228  0.12343902  0.12752834  1
  Sr2+  Sr61  1  0.86348054  0.11683520  0.62525879  1
  Sr2+  Sr62  1  0.87057649  0.63116181  0.12693139  1
  Sr2+  Sr63  1  0.86817794  0.63336693  0.62406189  1
  Ca2+  Ca64  1  -0.00376000  -0.00116624  -0.00351472  1
  Ca2+  Ca65  1  0.49536763  0.50306558  0.50199777  1
  Ca2+  Ca66  1  0.00293366  0.00662241  0.50220489  1
  Ca2+  Ca67  1  0.49888730  -0.00198266  0.49921483  1
  Ca2+  Ca68  1  0.00144127  0.49768572  0.49991182  1
  Ca2+  Ca69  1  0.74791467  0.74803362  0.49604855  1
  Ca2+  Ca70  1  0.25321214  0.24924244  0.00350830  1
  Ca2+  Ca71  1  0.24227309  0.25276356  0.49724421  1
  Ca2+  Ca72  1  0.74859503  0.74860142  -0.00360194  1
  Ca2+  Ca73  1  0.75337155  0.25250733  0.49739976  1
  Ca2+  Ca74  1  0.25047237  -0.00380673  0.74946218  1
  Ca2+  Ca75  1  -0.00103859  0.25003019  0.75405091  1
  Ca2+  Ca76  1  0.00114557  0.74663992  0.25562430  1
  Ca2+  Ca77  1  0.50532308  0.24910043  0.74824557  1
  Ca2+  Ca78  1  0.00061549  0.74840517  0.75280312  1
  Ca2+  Ca79  1  0.74877449  0.00191582  0.25493500  1
  Ca2+  Ca80  1  0.25224455  0.50123149  0.74979054  1
  Ca2+  Ca81  1  0.74773802  0.00429486  0.75564572  1
  Ca2+  Ca82  1  0.24819578  -0.00523706  0.24852011  1
  Ca2+  Ca83  1  0.74730922  0.50100044  0.75085853  1
  Ca2+  Ca84  1  0.50191614  0.24795739  0.24461920  1
  Nb5+  Nb85  1  0.00702302  0.49667559  0.00041984  1
  Nb5+  Nb86  1  0.50047973  -0.00716772  0.00017537  1
  Nb5+  Nb87  1  0.50308789  0.49249978  0.00171002  1
  Nb5+  Nb88  1  0.25073645  0.75242585  0.50620474  1
  Nb5+  Nb89  1  0.75243514  0.24852293  0.00281726  1
  Nb5+  Nb90  1  0.25142000  0.75049075  0.00546678  1
  Nb5+  Nb91  1  -0.00037147  0.25163312  0.24684163  1
  Nb5+  Nb92  1  0.50071314  0.75159358  0.25595457  1
  Nb5+  Nb93  1  0.24712687  0.49994587  0.24880304  1
  Nb5+  Nb94  1  0.74488026  0.49909040  0.25042640  1
  Nb5+  Nb95  1  0.49898438  0.75135736  0.75629072  1
  Nb5+  Nb96  1  -0.00429702  -0.00668932  0.24647155  1
  Nb5+  Nb97  1  -0.00036070  0.00019709  0.75456405  1
  Nb5+  Nb98  1  -0.00706996  0.50096059  0.24658260  1
  Nb5+  Nb99  1  0.00357210  0.50248537  0.74148119  1
  Nb5+  Nb100  1  0.50499402  0.00119179  0.25566860  1
  Nb5+  Nb101  1  0.49989825  0.00241882  0.74844831  1
  Nb5+  Nb102  1  0.49140633  0.50174733  0.24311645  1
  Nb5+  Nb103  1  0.50163743  0.49933385  0.74325316  1
  Nb5+  Nb104  1  0.24987102  0.24437730  0.24133436  1
  Nb5+  Nb105  1  0.25247669  0.24928660  0.74982148  1
  Nb5+  Nb106  1  0.25424349  0.74823920  0.25477903  1
  Nb5+  Nb107  1  0.24878251  0.74863981  0.76008311  1
  Nb5+  Nb108  1  0.75012726  0.25340248  0.24846757  1
  Nb5+  Nb109  1  0.74712241  0.25339474  0.74178348  1
  Nb5+  Nb110  1  0.75541411  0.74883268  0.25552961  1
  Nb5+  Nb111  1  0.75441562  0.74662327  0.75699215  1
  Nb5+  Nb112  1  0.00292601  0.25004159  0.51168727  1
  Nb5+  Nb113  1  0.00528968  0.25055284  0.99893108  1
  Nb5+  Nb114  1  -0.00541714  0.74800170  0.49550357  1
  Nb5+  Nb115  1  -0.00696316  0.74758727  1.00195846  1
  Nb5+  Nb116  1  0.49863958  0.24642820  0.49847360  1
  Nb5+  Nb117  1  0.50274899  0.23867824  1.00634025  1
  Nb5+  Nb118  1  0.49741191  0.75202265  0.50992849  1
  Nb5+  Nb119  1  0.49910272  0.74532883  1.00090314  1
  Nb5+  Nb120  1  0.24299630  0.00052518  0.00426979  1
  Nb5+  Nb121  1  0.24667670  0.00662643  0.49903651  1
  Nb5+  Nb122  1  0.25988392  0.50207472  0.00117507  1
  Nb5+  Nb123  1  0.24895833  0.49675065  0.50518781  1
  Nb5+  Nb124  1  0.75384413  -0.00140205  -0.00523270  1
  Nb5+  Nb125  1  0.74760966  0.00370295  0.49701950  1
  Nb5+  Nb126  1  0.75795789  0.50268768  0.00611529  1
  Nb5+  Nb127  1  0.74474090  0.49966129  0.50807984  1
  O2-  O128  1  -0.02362138  0.02475482  0.13094176  1
  O2-  O129  1  -0.01272087  0.03089308  0.63676453  1
  O2-  O130  1  0.01513994  0.51478044  0.12360608  1
  O2-  O131  1  0.02782001  0.51949801  0.63178147  1
  O2-  O132  1  0.48363692  0.00745226  0.12259572  1
  O2-  O133  1  0.47904353  0.01770284  0.63662668  1
  O2-  O134  1  0.51427022  0.52344742  0.12005506  1
  O2-  O135  1  0.53021568  0.51690676  0.63503319  1
  O2-  O136  1  0.02205198  -0.01146113  0.36208820  1
  O2-  O137  1  0.01165429  -0.03891202  0.86917062  1
  O2-  O138  1  -0.01843055  0.47821592  0.36028582  1
  O2-  O139  1  -0.01964778  0.48454492  0.88789601  1
  O2-  O140  1  0.51343798  -0.03553831  0.36313673  1
  O2-  O141  1  0.51398693  -0.02125610  0.88466921  1
  O2-  O142  1  0.48059814  0.48799308  0.35794304  1
  O2-  O143  1  0.47436801  0.49136510  0.88962201  1
  O2-  O144  1  0.23603262  0.28611607  0.13262658  1
  O2-  O145  1  0.23681430  0.27443266  0.63374386  1
  O2-  O146  1  0.27288951  0.75813290  0.11993534  1
  O2-  O147  1  0.26379684  0.76419162  0.61991593  1
  O2-  O148  1  0.74293001  0.27576296  0.12409140  1
  O2-  O149  1  0.73355262  0.27689420  0.63187861  1
  O2-  O150  1  0.75995057  0.76375245  0.13624416  1
  O2-  O151  1  0.76719416  0.76244499  0.63628147  1
  O2-  O152  1  0.25934157  0.24305073  0.35884289  1
  O2-  O153  1  0.27009966  0.22760244  0.87061700  1
  O2-  O154  1  0.24562743  0.72909904  0.36793400  1
  O2-  O155  1  0.23989438  0.72977691  0.87533612  1
  O2-  O156  1  0.77961878  0.23943432  0.35920631  1
  O2-  O157  1  0.76893534  0.23857971  0.88779371  1
  O2-  O158  1  0.71142798  0.73269432  0.36161415  1
  O2-  O159  1  0.71179078  0.73903783  0.86647526  1
  O2-  O160  1  0.01741811  0.24338178  0.12235873  1
  O2-  O161  1  0.02783903  0.23206446  0.62049445  1
  O2-  O162  1  0.00038159  0.72054986  0.11836932  1
  O2-  O163  1  -0.00184630  0.72474096  0.61490414  1
  O2-  O164  1  0.54311705  0.23674180  0.11576667  1
  O2-  O165  1  0.52806209  0.23230229  0.61370470  1
  O2-  O166  1  0.48501524  0.73516565  0.11700791  1
  O2-  O167  1  0.48257804  0.73180993  0.62417290  1
  O2-  O168  1  0.22084571  0.00508565  0.38083805  1
  O2-  O169  1  0.23727102  0.00786923  0.88764138  1
  O2-  O170  1  0.26938761  0.52098956  0.36030554  1
  O2-  O171  1  0.25727741  0.52877955  0.88861142  1
  O2-  O172  1  0.71333160  0.01375201  0.38322163  1
  O2-  O173  1  0.70918669  0.01570883  0.88939656  1
  O2-  O174  1  0.76625097  0.51670747  0.36298524  1
  O2-  O175  1  0.76320994  0.51279288  0.89041171  1
  O2-  O176  1  -0.01608363  0.27214774  0.36020871  1
  O2-  O177  1  -0.02716326  0.26706331  0.88962194  1
  O2-  O178  1  0.01132713  0.78364381  0.38365576  1
  O2-  O179  1  0.02137262  0.76533404  0.89087253  1
  O2-  O180  1  0.47700703  0.26968314  0.37769014  1
  O2-  O181  1  0.48549604  0.25680325  0.89103089  1
  O2-  O182  1  0.50497556  0.76732186  0.36838277  1
  O2-  O183  1  0.50376692  0.76512068  0.87429151  1
  O2-  O184  1  0.28000659  -0.01877383  0.11411252  1
  O2-  O185  1  0.27905271  -0.00951198  0.61333613  1
  O2-  O186  1  0.23796052  0.48775785  0.12120026  1
  O2-  O187  1  0.22564367  0.48359532  0.61467049  1
  O2-  O188  1  0.76365052  -0.00514493  0.11422223  1
  O2-  O189  1  0.76875561  -0.00918014  0.61863353  1
  O2-  O190  1  0.74036444  0.47769783  0.12516822  1
  O2-  O191  1  0.72698454  0.47740545  0.61806924  1
  O2-  O192  1  0.12180193  0.27070707  0.25609738  1
  O2-  O193  1  0.13424817  0.27007781  0.77193180  1
  O2-  O194  1  0.14188738  0.76153041  0.23188796  1
  O2-  O195  1  0.13687006  0.77278128  0.74316975  1
  O2-  O196  1  0.63959583  0.27817250  0.26681773  1
  O2-  O197  1  0.63558462  0.26989391  0.78088111  1
  O2-  O198  1  0.61591512  0.75554899  0.22722485  1
  O2-  O199  1  0.61195393  0.76723182  0.72945732  1
  O2-  O200  1  0.36583573  0.23244148  0.22609141  1
  O2-  O201  1  0.37086276  0.22896811  0.72998874  1
  O2-  O202  1  0.38178940  0.72009803  0.25295004  1
  O2-  O203  1  0.37741449  0.72597403  0.75621730  1
  O2-  O204  1  0.88141748  0.24625169  0.22298880  1
  O2-  O205  1  0.86339954  0.22331712  0.73817015  1
  O2-  O206  1  0.86425175  0.71431320  0.26901586  1
  O2-  O207  1  0.86548609  0.72967346  0.78166538  1
  O2-  O208  1  0.27359990  0.38562416  0.25734779  1
  O2-  O209  1  0.27436691  0.36835177  0.77195252  1
  O2-  O210  1  0.28314132  0.85890234  0.25985689  1
  O2-  O211  1  0.27956107  0.86087777  0.76364522  1
  O2-  O212  1  0.77743338  0.38217142  0.25575811  1
  O2-  O213  1  0.77281751  0.36747297  0.77129576  1
  O2-  O214  1  0.77295465  0.86217063  0.27147801  1
  O2-  O215  1  0.75755802  0.86617718  0.76808562  1
  O2-  O216  1  0.22555936  0.13398310  0.22478997  1
  O2-  O217  1  0.22995859  0.13154106  0.73398431  1
  O2-  O218  1  0.24306095  0.62226300  0.22627766  1
  O2-  O219  1  0.23663590  0.63653684  0.72285510  1
  O2-  O220  1  0.73626962  0.14086013  0.22668854  1
  O2-  O221  1  0.71959839  0.13621165  0.73801590  1
  O2-  O222  1  0.73600594  0.61588603  0.22629406  1
  O2-  O223  1  0.72408044  0.63384209  0.73479807  1
  O2-  O224  1  0.13175673  0.48463679  0.25616201  1
  O2-  O225  1  0.11632288  0.48105457  0.77506288  1
  O2-  O226  1  0.11312135  0.98992244  0.21812981  1
  O2-  O227  1  0.11683254  0.97608954  0.73467169  1
  O2-  O228  1  0.62883788  0.48567544  0.25900834  1
  O2-  O229  1  0.60988927  0.49127059  0.78872642  1
  O2-  O230  1  0.61609409  0.97584337  0.22375103  1
  O2-  O231  1  0.61152649  0.96742050  0.73991428  1
  O2-  O232  1  0.38677487  0.02209083  0.26136479  1
  O2-  O233  1  0.38557246  0.00721659  0.77987762  1
  O2-  O234  1  0.37757975  0.51482666  0.22323739  1
  O2-  O235  1  0.38845356  0.53260360  0.74540917  1
  O2-  O236  1  0.88300489  0.02256840  0.27268931  1
  O2-  O237  1  0.88088683  0.01696604  0.77574463  1
  O2-  O238  1  0.87890765  0.51749844  0.22906281  1
  O2-  O239  1  0.88396873  0.52553591  0.73556624  1
  O2-  O240  1  0.49318346  0.38765466  0.22062485  1
  O2-  O241  1  0.47702132  0.38670965  0.73621407  1
  O2-  O242  1  0.48225214  0.86415797  0.23034999  1
  O2-  O243  1  0.47430432  0.86819771  0.74449298  1
  O2-  O244  1  0.99588910  0.37977496  0.22463826  1
  O2-  O245  1  0.97903734  0.38586806  0.73203504  1
  O2-  O246  1  0.97581726  0.88106066  0.22720829  1
  O2-  O247  1  0.97260925  0.88104855  0.72659024  1
  O2-  O248  1  0.01531330  0.13610656  0.25941103  1
  O2-  O249  1  0.02202599  0.11444009  0.78529490  1
  O2-  O250  1  0.02419071  0.61072186  0.26633303  1
  O2-  O251  1  0.01660712  0.61545766  0.78073092  1
  O2-  O252  1  0.53068181  0.11319205  0.26838343  1
  O2-  O253  1  0.52213289  0.11241588  0.77351935  1
  O2-  O254  1  0.51880991  0.62220465  0.25779898  1
  O2-  O255  1  0.51865441  0.63213670  0.76928337  1
  O2-  O256  1  0.12455793  0.48472907  -0.00854826  1
  O2-  O257  1  0.13872710  0.49118058  0.46291963  1
  O2-  O258  1  0.13299322  0.96946860  0.01892331  1
  O2-  O259  1  0.13486856  0.96841102  0.52107934  1
  O2-  O260  1  0.61965219  0.48436752  -0.00953847  1
  O2-  O261  1  0.63168841  0.48144334  0.47028012  1
  O2-  O262  1  0.61821827  0.98484462  0.02398703  1
  O2-  O263  1  0.63020430  0.97769538  0.52475376  1
  O2-  O264  1  0.38125669  0.01708807  -0.01475755  1
  O2-  O265  1  0.36266252  0.01725334  0.46986990  1
  O2-  O266  1  0.37555059  0.51774775  0.02101776  1
  O2-  O267  1  0.36177147  0.53370696  0.50942827  1
  O2-  O268  1  0.86200969  0.03085637  -0.02484191  1
  O2-  O269  1  0.86628365  0.01893727  0.47675532  1
  O2-  O270  1  0.87403620  0.51663740  0.02087425  1
  O2-  O271  1  0.86249202  0.53061727  0.51259829  1
  O2-  O272  1  0.48767931  0.37889971  0.02144492  1
  O2-  O273  1  0.48183013  0.36807567  0.51899851  1
  O2-  O274  1  0.47960153  0.87382799  0.01117682  1
  O2-  O275  1  0.46149043  0.86278780  0.50742015  1
  O2-  O276  1  0.98443604  0.38118266  0.02254449  1
  O2-  O277  1  0.96785774  0.36554431  0.51702024  1
  O2-  O278  1  0.97775211  0.85998904  0.02873383  1
  O2-  O279  1  0.98093402  0.86702293  0.52079174  1
  O2-  O280  1  0.02376337  0.13712883  -0.01280281  1
  O2-  O281  1  0.02519835  0.14024289  0.46861593  1
  O2-  O282  1  0.01823737  0.61705383  -0.01391752  1
  O2-  O283  1  0.02082916  0.63375194  0.47008774  1
  O2-  O284  1  0.51833609  0.12246639  -0.00965578  1
  O2-  O285  1  0.51526816  0.13150990  0.46988835  1
  O2-  O286  1  0.51202481  0.62833548  -0.01605769  1
  O2-  O287  1  0.51165080  0.63940379  0.47506462  1
  O2-  O288  1  0.11644757  0.27907926  -0.01436593  1
  O2-  O289  1  0.11231163  0.28889449  0.48426688  1
  O2-  O290  1  0.13380214  0.75901769  0.01592288  1
  O2-  O291  1  0.13076479  0.76599263  0.50788146  1
  O2-  O292  1  0.63168588  0.26907070  -0.01524602  1
  O2-  O293  1  0.61717726  0.27171171  0.47496673  1
  O2-  O294  1  0.61157964  0.76771258  0.01121934  1
  O2-  O295  1  0.61007972  0.77589661  0.51778539  1
  O2-  O296  1  0.39080047  0.23512101  0.03419761  1
  O2-  O297  1  0.38044387  0.22817630  0.51750019  1
  O2-  O298  1  0.37419336  0.73326851  -0.01500054  1
  O2-  O299  1  0.36871717  0.72694778  0.49178300  1
  O2-  O300  1  0.87303408  0.24046866  0.02316314  1
  O2-  O301  1  0.88644990  0.21981810  0.51200451  1
  O2-  O302  1  0.88303772  0.71776121  -0.01201819  1
  O2-  O303  1  0.88145313  0.72533377  0.48479015  1
  O2-  O304  1  0.27400013  0.38840414  -0.01863423  1
  O2-  O305  1  0.27950089  0.38756983  0.48578272  1
  O2-  O306  1  0.26631833  0.86557800  -0.01766977  1
  O2-  O307  1  0.26605840  0.86513220  0.47701321  1
  O2-  O308  1  0.76425920  0.37789141  -0.00924608  1
  O2-  O309  1  0.77526959  0.38678430  0.48817396  1
  O2-  O310  1  0.77305698  0.88540785  -0.01686330  1
  O2-  O311  1  0.76644647  0.88250928  0.48046801  1
  O2-  O312  1  0.22777132  0.11371629  0.02304790  1
  O2-  O313  1  0.22103695  0.11775729  0.51388126  1
  O2-  O314  1  0.23891228  0.62683908  0.01924711  1
  O2-  O315  1  0.22802431  0.63053617  0.50852407  1
  O2-  O316  1  0.73199390  0.13398824  0.02024843  1
  O2-  O317  1  0.72621414  0.12016990  0.51511600  1
  O2-  O318  1  0.72711033  0.61285822  0.02249794  1
  O2-  O319  1  0.71736038  0.61695433  0.51316060  1
