# generated using pymatgen
data_Sr64Ca21Nb43O192
_symmetry_space_group_name_H-M   'P 1'
_cell_length_a   16.57845554
_cell_length_b   16.55898416
_cell_length_c   16.70759359
_cell_angle_alpha   89.97615514
_cell_angle_beta   90.04898582
_cell_angle_gamma   90.02621650
_symmetry_Int_Tables_number   1
_chemical_formula_structural   Sr64Ca21Nb43O192
_chemical_formula_sum   'Sr64 Ca21 Nb43 O192'
_cell_volume   4586.60584843
_cell_formula_units_Z   1
loop_
 _symmetry_equiv_pos_site_id
 _symmetry_equiv_pos_as_xyz
  1  'x, y, z'
loop_
 _atom_type_symbol
 _atom_type_oxidation_number
  Sr2+  2.0
  Ca2+  2.0
  Nb5+  5.0
  O2-  -2.0
loop_
 _atom_site_type_symbol
 _atom_site_label
 _atom_site_symmetry_multiplicity
 _atom_site_fract_x
 _atom_site_fract_y
 _atom_site_fract_z
 _atom_site_occupancy
  Sr2+  Sr0  1  0.11905088  0.11509960  0.13161342  1
  Sr2+  Sr1  1  0.11638635  0.11729875  0.62966735  1
  Sr2+  Sr2  1  0.11576355  0.61898004  0.11526778  1
  Sr2+  Sr3  1  0.11759071  0.61404466  0.63007956  1
  Sr2+  Sr4  1  0.61111398  0.11805601  0.12621616  1
  Sr2+  Sr5  1  0.61745273  0.12139222  0.62341351  1
  Sr2+  Sr6  1  0.62358249  0.62273274  0.12297204  1
  Sr2+  Sr7  1  0.62010040  0.63767432  0.62235604  1
  Sr2+  Sr8  1  0.37400079  0.36566410  0.11890803  1
  Sr2+  Sr9  1  0.36843600  0.36749941  0.62504472  1
  Sr2+  Sr10  1  0.36242254  0.87124682  0.11948170  1
  Sr2+  Sr11  1  0.37111949  0.87122946  0.62808027  1
  Sr2+  Sr12  1  0.86393009  0.36285839  0.12346622  1
  Sr2+  Sr13  1  0.86888295  0.36206967  0.62219615  1
  Sr2+  Sr14  1  0.87262206  0.85468274  0.12446920  1
  Sr2+  Sr15  1  0.86894234  0.86725275  0.61995381  1
  Sr2+  Sr16  1  0.12203791  0.38038214  0.37602725  1
  Sr2+  Sr17  1  0.13495210  0.38117067  0.87786577  1
  Sr2+  Sr18  1  0.13572896  0.88367273  0.37639607  1
  Sr2+  Sr19  1  0.13146105  0.88914528  0.86836510  1
  Sr2+  Sr20  1  0.63783420  0.37973409  0.37166655  1
  Sr2+  Sr21  1  0.63624237  0.37713912  0.86986270  1
  Sr2+  Sr22  1  0.64085937  0.88751567  0.37548139  1
  Sr2+  Sr23  1  0.63534602  0.88354413  0.87940062  1
  Sr2+  Sr24  1  0.38206912  0.12963574  0.36734247  1
  Sr2+  Sr25  1  0.38332741  0.12870225  0.87318288  1
  Sr2+  Sr26  1  0.37397281  0.63288610  0.37333491  1
  Sr2+  Sr27  1  0.38019560  0.63130565  0.87692489  1
  Sr2+  Sr28  1  0.86949208  0.12705961  0.37935950  1
  Sr2+  Sr29  1  0.88708101  0.12913875  0.87779647  1
  Sr2+  Sr30  1  0.88717398  0.62728032  0.37230429  1
  Sr2+  Sr31  1  0.88961269  0.63399362  0.87362355  1
  Sr2+  Sr32  1  0.13561352  0.13190406  0.37173116  1
  Sr2+  Sr33  1  0.12564352  0.13579906  0.88136589  1
  Sr2+  Sr34  1  0.12824684  0.63980815  0.37586369  1
  Sr2+  Sr35  1  0.13342739  0.63162717  0.87294916  1
  Sr2+  Sr36  1  0.63035663  0.12803099  0.37380077  1
  Sr2+  Sr37  1  0.63423482  0.12530178  0.86397008  1
  Sr2+  Sr38  1  0.63040676  0.63076967  0.37385876  1
  Sr2+  Sr39  1  0.62664474  0.63890475  0.87112223  1
  Sr2+  Sr40  1  0.37964464  0.38697662  0.37273399  1
  Sr2+  Sr41  1  0.38074732  0.39052594  0.87350422  1
  Sr2+  Sr42  1  0.37913191  0.88841146  0.37279013  1
  Sr2+  Sr43  1  0.38575666  0.89137696  0.87400952  1
  Sr2+  Sr44  1  0.87899027  0.38550815  0.37119138  1
  Sr2+  Sr45  1  0.87986835  0.37995481  0.88075440  1
  Sr2+  Sr46  1  0.88792213  0.88318303  0.37441475  1
  Sr2+  Sr47  1  0.88067005  0.89176012  0.87910447  1
  Sr2+  Sr48  1  0.10881002  0.35932531  0.12112762  1
  Sr2+  Sr49  1  0.11169803  0.36985108  0.62663512  1
  Sr2+  Sr50  1  0.10496101  0.87418557  0.13029485  1
  Sr2+  Sr51  1  0.11290133  0.86809572  0.62454154  1
  Sr2+  Sr52  1  0.61843407  0.37429263  0.12385936  1
  Sr2+  Sr53  1  0.61444969  0.37077372  0.62369113  1
  Sr2+  Sr54  1  0.63293864  0.86607254  0.12420411  1
  Sr2+  Sr55  1  0.62181048  0.87666733  0.62539487  1
  Sr2+  Sr56  1  0.35918622  0.12182665  0.12405598  1
  Sr2+  Sr57  1  0.36849191  0.12534869  0.62497277  1
  Sr2+  Sr58  1  0.36663057  0.61599096  0.11773211  1
  Sr2+  Sr59  1  0.36323465  0.62407841  0.62323577  1
  Sr2+  Sr60  1  0.88086628  0.11758796  0.11615504  1
  Sr2+  Sr61  1  0.86124918  0.10730585  0.62597315  1
  Sr2+  Sr62  1  0.86138470  0.61841317  0.12172440  1
  Sr2+  Sr63  1  0.86375812  0.60923662  0.63098256  1
  Ca2+  Ca64  1  0.49990794  0.00084652  0.49784249  1
  Ca2+  Ca65  1  0.00240219  0.00064261  0.49934634  1
  Ca2+  Ca66  1  -0.00260684  0.49977568  0.00068957  1
  Ca2+  Ca67  1  0.50078348  0.00307892  0.00261069  1
  Ca2+  Ca68  1  0.00304920  -0.00231074  -0.00039038  1
  Ca2+  Ca69  1  0.25010742  0.24982324  0.00060598  1
  Ca2+  Ca70  1  0.25126223  0.75422011  -0.00227237  1
  Ca2+  Ca71  1  0.75161834  0.74968939  0.49895970  1
  Ca2+  Ca72  1  0.74632544  0.25017398  0.50308563  1
  Ca2+  Ca73  1  0.74614314  0.24800507  0.00122408  1
  Ca2+  Ca74  1  0.24933578  0.49944029  0.24751885  1
  Ca2+  Ca75  1  0.75054889  -0.00296594  0.75203319  1
  Ca2+  Ca76  1  0.25243391  0.49897450  0.74805528  1
  Ca2+  Ca77  1  0.00059358  0.24962653  0.74954747  1
  Ca2+  Ca78  1  0.74848152  0.49715042  0.75158088  1
  Ca2+  Ca79  1  -0.00032609  0.75204762  0.74885750  1
  Ca2+  Ca80  1  0.75050923  -0.00048652  0.24485984  1
  Ca2+  Ca81  1  0.25092343  0.00122930  0.74503557  1
  Ca2+  Ca82  1  -0.00000592  0.74722058  0.24932000  1
  Ca2+  Ca83  1  0.49841988  0.75032462  0.24781113  1
  Ca2+  Ca84  1  -0.00237172  0.24848457  0.25326270  1
  Nb5+  Nb85  1  -0.00791733  0.50127630  0.50132766  1
  Nb5+  Nb86  1  0.50362084  0.50111345  -0.00768731  1
  Nb5+  Nb87  1  0.49626007  0.50142042  0.49491910  1
  Nb5+  Nb88  1  0.25066340  0.75714595  0.49731982  1
  Nb5+  Nb89  1  0.75345552  0.74629450  -0.00341283  1
  Nb5+  Nb90  1  0.24933061  0.25888453  0.49829261  1
  Nb5+  Nb91  1  0.75007831  0.49949844  0.25103425  1
  Nb5+  Nb92  1  0.50107575  0.25133449  0.24588856  1
  Nb5+  Nb93  1  0.25135379  -0.00187871  0.24968407  1
  Nb5+  Nb94  1  0.49791713  0.75693715  0.75013728  1
  Nb5+  Nb95  1  0.49817112  0.25579555  0.74589123  1
  Nb5+  Nb96  1  -0.00500513  0.00301345  0.25327037  1
  Nb5+  Nb97  1  0.00062965  0.00079308  0.74741012  1
  Nb5+  Nb98  1  0.00218978  0.49883663  0.24609085  1
  Nb5+  Nb99  1  0.00129257  0.49628175  0.75541646  1
  Nb5+  Nb100  1  0.49869743  -0.00600814  0.24498408  1
  Nb5+  Nb101  1  0.50109287  0.00856762  0.75088546  1
  Nb5+  Nb102  1  0.50140706  0.50274804  0.24522067  1
  Nb5+  Nb103  1  0.50188230  0.50650439  0.74266332  1
  Nb5+  Nb104  1  0.25014551  0.25517134  0.25264451  1
  Nb5+  Nb105  1  0.24932638  0.24917100  0.75380721  1
  Nb5+  Nb106  1  0.24458062  0.74832561  0.24299981  1
  Nb5+  Nb107  1  0.25040760  0.75091050  0.75180085  1
  Nb5+  Nb108  1  0.74833783  0.24388090  0.24784208  1
  Nb5+  Nb109  1  0.75535449  0.24565408  0.74946650  1
  Nb5+  Nb110  1  0.75205534  0.74831605  0.25559115  1
  Nb5+  Nb111  1  0.75197678  0.74757691  0.74758199  1
  Nb5+  Nb112  1  -0.00222599  0.24473587  0.49965947  1
  Nb5+  Nb113  1  -0.00238979  0.25057506  1.00029417  1
  Nb5+  Nb114  1  -0.00547644  0.74636167  0.50541649  1
  Nb5+  Nb115  1  0.00779695  0.75309455  0.99246001  1
  Nb5+  Nb116  1  0.49743079  0.25437598  0.49285089  1
  Nb5+  Nb117  1  0.50180853  0.25165882  0.99080444  1
  Nb5+  Nb118  1  0.49519036  0.75454263  0.49715893  1
  Nb5+  Nb119  1  0.50145208  0.75149980  1.00238251  1
  Nb5+  Nb120  1  0.24886102  0.00307491  -0.00556082  1
  Nb5+  Nb121  1  0.25354646  0.00987893  0.49990044  1
  Nb5+  Nb122  1  0.24605510  0.49722412  0.00426906  1
  Nb5+  Nb123  1  0.24264148  0.50521949  0.50051190  1
  Nb5+  Nb124  1  0.74787341  0.00453046  0.00627421  1
  Nb5+  Nb125  1  0.74976150  -0.00224066  0.49877776  1
  Nb5+  Nb126  1  0.74710195  0.50250219  -0.00600203  1
  Nb5+  Nb127  1  0.74168727  0.49718704  0.50317490  1
  O2-  O128  1  -0.00109371  0.02297952  0.13532544  1
  O2-  O129  1  -0.00976129  0.03143012  0.63028671  1
  O2-  O130  1  -0.01492330  0.52863219  0.13643465  1
  O2-  O131  1  -0.01050289  0.52444552  0.61749248  1
  O2-  O132  1  0.48188336  0.03749821  0.13640741  1
  O2-  O133  1  0.48031233  0.01513761  0.63360341  1
  O2-  O134  1  0.48901532  0.51226525  0.13028657  1
  O2-  O135  1  0.48484456  0.51036352  0.62754622  1
  O2-  O136  1  0.01611986  -0.02903048  0.36597576  1
  O2-  O137  1  0.01244542  -0.02588088  0.86478465  1
  O2-  O138  1  0.00691622  0.47985387  0.38154457  1
  O2-  O139  1  0.01215396  0.46831627  0.86690496  1
  O2-  O140  1  0.51712292  -0.01258436  0.36149828  1
  O2-  O141  1  0.51735552  -0.01382696  0.86714767  1
  O2-  O142  1  0.51876249  0.48547335  0.38263163  1
  O2-  O143  1  0.52045305  0.48584450  0.87890883  1
  O2-  O144  1  0.24114343  0.27134465  0.13922733  1
  O2-  O145  1  0.24262969  0.27253837  0.61577754  1
  O2-  O146  1  0.23181613  0.78136695  0.13361466  1
  O2-  O147  1  0.24692351  0.77109417  0.61668195  1
  O2-  O148  1  0.73054308  0.28065147  0.13817075  1
  O2-  O149  1  0.72946191  0.28014496  0.63740066  1
  O2-  O150  1  0.73527937  0.75630273  0.11937820  1
  O2-  O151  1  0.73200080  0.77287781  0.63589242  1
  O2-  O152  1  0.27007851  0.23048878  0.38204862  1
  O2-  O153  1  0.26321371  0.22128508  0.86470105  1
  O2-  O154  1  0.26431184  0.73275106  0.37913148  1
  O2-  O155  1  0.26427351  0.72539797  0.86312517  1
  O2-  O156  1  0.75260219  0.23185819  0.36688334  1
  O2-  O157  1  0.75539979  0.21636590  0.86689247  1
  O2-  O158  1  0.76211672  0.71654046  0.36574981  1
  O2-  O159  1  0.75808520  0.71694989  0.87983923  1
  O2-  O160  1  0.02345134  0.23270422  0.11978658  1
  O2-  O161  1  0.03300341  0.24349655  0.61186013  1
  O2-  O162  1  0.02225681  0.73396993  0.11167597  1
  O2-  O163  1  0.03517300  0.73406259  0.61531779  1
  O2-  O164  1  0.51885685  0.24639251  0.13168882  1
  O2-  O165  1  0.51173419  0.24575750  0.62888936  1
  O2-  O166  1  0.52693710  0.74088666  0.11345960  1
  O2-  O167  1  0.51030675  0.74508406  0.62713016  1
  O2-  O168  1  0.23072525  0.01077096  0.37300469  1
  O2-  O169  1  0.22622674  0.01638463  0.88202954  1
  O2-  O170  1  0.23686297  0.51757380  0.38462922  1
  O2-  O171  1  0.23153377  0.51344840  0.88528661  1
  O2-  O172  1  0.73012656  0.01757446  0.37951574  1
  O2-  O173  1  0.72584318  0.00790146  0.88812045  1
  O2-  O174  1  0.72934641  0.51469160  0.37539331  1
  O2-  O175  1  0.71558536  0.51373381  0.88583699  1
  O2-  O176  1  -0.01100757  0.28147325  0.38842877  1
  O2-  O177  1  -0.02680181  0.26607170  0.88283668  1
  O2-  O178  1  -0.02226336  0.75414610  0.38775984  1
  O2-  O179  1  -0.03340952  0.76510267  0.88154288  1
  O2-  O180  1  0.47733719  0.26758623  0.37946297  1
  O2-  O181  1  0.47752045  0.26353176  0.87618912  1
  O2-  O182  1  0.47656521  0.74880870  0.38403513  1
  O2-  O183  1  0.48489079  0.75020163  0.86999690  1
  O2-  O184  1  0.27305716  -0.00847251  0.13429225  1
  O2-  O185  1  0.28432139  -0.00713987  0.60974894  1
  O2-  O186  1  0.28631875  0.48692502  0.11688717  1
  O2-  O187  1  0.28128454  0.48902800  0.61045946  1
  O2-  O188  1  0.77352108  -0.03419270  0.11562611  1
  O2-  O189  1  0.76745515  -0.02416204  0.61646274  1
  O2-  O190  1  0.76223938  0.48766597  0.13304872  1
  O2-  O191  1  0.76940123  0.47971299  0.61479416  1
  O2-  O192  1  0.13687724  0.26341987  0.27503114  1
  O2-  O193  1  0.13800959  0.27717670  0.76481466  1
  O2-  O194  1  0.13392621  0.77160354  0.27798982  1
  O2-  O195  1  0.13834704  0.77556068  0.76219399  1
  O2-  O196  1  0.61568616  0.27103808  0.27101209  1
  O2-  O197  1  0.61299874  0.26431003  0.76990521  1
  O2-  O198  1  0.63467955  0.76943815  0.26183124  1
  O2-  O199  1  0.61624486  0.76429365  0.76378023  1
  O2-  O200  1  0.37895392  0.23579459  0.23963984  1
  O2-  O201  1  0.38232578  0.22473485  0.73842451  1
  O2-  O202  1  0.36192643  0.72580524  0.23525897  1
  O2-  O203  1  0.38359166  0.72311607  0.73644589  1
  O2-  O204  1  0.86149192  0.22590717  0.23362544  1
  O2-  O205  1  0.86600002  0.22751209  0.72510284  1
  O2-  O206  1  0.86437123  0.72288945  0.22584032  1
  O2-  O207  1  0.86343227  0.72396552  0.73214765  1
  O2-  O208  1  0.27107910  0.36600488  0.27744490  1
  O2-  O209  1  0.28588863  0.36222746  0.75729216  1
  O2-  O210  1  0.27052791  0.87976351  0.26783695  1
  O2-  O211  1  0.28705401  0.86336347  0.75726429  1
  O2-  O212  1  0.76140245  0.37952042  0.27127988  1
  O2-  O213  1  0.76434566  0.36197336  0.78338961  1
  O2-  O214  1  0.77408081  0.86156281  0.26982625  1
  O2-  O215  1  0.76078434  0.85907407  0.78375353  1
  O2-  O216  1  0.24148883  0.12567519  0.24270226  1
  O2-  O217  1  0.24006477  0.13780533  0.71504926  1
  O2-  O218  1  0.21979035  0.63505098  0.22894352  1
  O2-  O219  1  0.23920795  0.63551332  0.72025036  1
  O2-  O220  1  0.71427395  0.13487817  0.23254323  1
  O2-  O221  1  0.71993849  0.13276753  0.72726470  1
  O2-  O222  1  0.72358067  0.61678224  0.23661114  1
  O2-  O223  1  0.71819208  0.63241467  0.73583171  1
  O2-  O224  1  0.11336181  0.46859889  0.23615850  1
  O2-  O225  1  0.11859434  0.47937160  0.72822530  1
  O2-  O226  1  0.13453721  0.98416457  0.23584281  1
  O2-  O227  1  0.12005835  0.97322420  0.72902894  1
  O2-  O228  1  0.62256440  0.47488362  0.24315069  1
  O2-  O229  1  0.61204578  0.46855382  0.73928951  1
  O2-  O230  1  0.61337681  0.98013873  0.22535106  1
  O2-  O231  1  0.61424944  0.97969342  0.73152921  1
  O2-  O232  1  0.37326918  0.01755358  0.27014258  1
  O2-  O233  1  0.38413696  0.01517038  0.77500770  1
  O2-  O234  1  0.38905114  0.51494799  0.27440409  1
  O2-  O235  1  0.38998439  0.51318812  0.77786779  1
  O2-  O236  1  0.88279573  0.02634760  0.26816696  1
  O2-  O237  1  0.88341885  0.02694476  0.76626082  1
  O2-  O238  1  0.86542319  0.51883878  0.26876031  1
  O2-  O239  1  0.88378914  0.52420902  0.76349362  1
  O2-  O240  1  0.48152225  0.37494199  0.24271770  1
  O2-  O241  1  0.47794755  0.37161860  0.73944314  1
  O2-  O242  1  0.46920326  0.88443729  0.22784579  1
  O2-  O243  1  0.47947203  0.87088443  0.74076391  1
  O2-  O244  1  0.96473897  0.38591783  0.23840324  1
  O2-  O245  1  0.97717387  0.38501799  0.71946484  1
  O2-  O246  1  0.98144529  0.88354071  0.22844769  1
  O2-  O247  1  0.97512740  0.88438121  0.72007231  1
  O2-  O248  1  0.02768781  0.11623779  0.27342380  1
  O2-  O249  1  0.03419993  0.11775712  0.76808057  1
  O2-  O250  1  0.01479487  0.61145753  0.27973711  1
  O2-  O251  1  0.02673558  0.61492492  0.76642779  1
  O2-  O252  1  0.51387174  0.13555318  0.27100219  1
  O2-  O253  1  0.51743071  0.12665848  0.76163513  1
  O2-  O254  1  0.52699534  0.61382082  0.26334377  1
  O2-  O255  1  0.52301374  0.62076799  0.75380453  1
  O2-  O256  1  0.13476120  0.47737870  0.02790013  1
  O2-  O257  1  0.12927459  0.48287266  0.51632094  1
  O2-  O258  1  0.13830133  0.96872485  0.02048661  1
  O2-  O259  1  0.14110331  0.97712754  0.51437474  1
  O2-  O260  1  0.62143228  0.48807220  0.02582902  1
  O2-  O261  1  0.62414951  0.48112795  0.51618007  1
  O2-  O262  1  0.63265040  0.97108134  0.02118447  1
  O2-  O263  1  0.63141789  0.96854174  0.51036619  1
  O2-  O264  1  0.36710431  0.03278712  -0.01259810  1
  O2-  O265  1  0.36657231  0.01537747  0.46542667  1
  O2-  O266  1  0.38688298  0.52166502  -0.01629964  1
  O2-  O267  1  0.38116893  0.51648554  0.47896599  1
  O2-  O268  1  0.86509589  0.01717827  -0.01830035  1
  O2-  O269  1  0.86743349  0.02460961  0.48431597  1
  O2-  O270  1  0.86094583  0.52459120  -0.01748915  1
  O2-  O271  1  0.87739311  0.51888167  0.48544604  1
  O2-  O272  1  0.48114749  0.38316544  0.01266426  1
  O2-  O273  1  0.47960638  0.38217769  0.51790883  1
  O2-  O274  1  0.47882845  0.86433728  0.00513284  1
  O2-  O275  1  0.47007145  0.86503573  0.51004903  1
  O2-  O276  1  0.97797682  0.36864502  0.02670770  1
  O2-  O277  1  0.98815017  0.38337082  0.52170133  1
  O2-  O278  1  0.97574905  0.86413942  0.01938723  1
  O2-  O279  1  0.98499752  0.86214743  0.51777586  1
  O2-  O280  1  0.01498116  0.13285839  -0.01979678  1
  O2-  O281  1  0.02352826  0.13639445  0.47444468  1
  O2-  O282  1  0.02048660  0.63263881  -0.02491672  1
  O2-  O283  1  0.02305239  0.61911554  0.48360178  1
  O2-  O284  1  0.53096146  0.14045009  -0.01621107  1
  O2-  O285  1  0.51513423  0.14019497  0.48921070  1
  O2-  O286  1  0.52328225  0.62027009  -0.01167761  1
  O2-  O287  1  0.51713769  0.61852284  0.49926226  1
  O2-  O288  1  0.11666267  0.27564568  -0.01947739  1
  O2-  O289  1  0.13439566  0.26910405  0.48024240  1
  O2-  O290  1  0.11830381  0.77296291  -0.03303599  1
  O2-  O291  1  0.13379511  0.76273332  0.48139602  1
  O2-  O292  1  0.61276312  0.28803300  -0.00847121  1
  O2-  O293  1  0.61007321  0.28146843  0.49097502  1
  O2-  O294  1  0.62455609  0.75954315  -0.02274271  1
  O2-  O295  1  0.61131160  0.76282651  0.48778093  1
  O2-  O296  1  0.38934856  0.23801170  0.02495199  1
  O2-  O297  1  0.37606510  0.24313542  0.51944157  1
  O2-  O298  1  0.38869609  0.72103661  0.01190149  1
  O2-  O299  1  0.37256785  0.72304877  0.51255217  1
  O2-  O300  1  0.87947844  0.23179613  0.02306319  1
  O2-  O301  1  0.88498176  0.23165528  0.52149503  1
  O2-  O302  1  0.86751265  0.72505870  0.01458929  1
  O2-  O303  1  0.88505348  0.72221713  0.53106433  1
  O2-  O304  1  0.27692358  0.38402422  -0.01893846  1
  O2-  O305  1  0.26651959  0.37613985  0.48049896  1
  O2-  O306  1  0.28573983  0.88745052  -0.01278112  1
  O2-  O307  1  0.27203303  0.87084039  0.48127475  1
  O2-  O308  1  0.76518141  0.38704903  -0.01100722  1
  O2-  O309  1  0.76858683  0.38538198  0.47520918  1
  O2-  O310  1  0.76498490  0.86086941  -0.01884202  1
  O2-  O311  1  0.77449701  0.88003115  0.47198552  1
  O2-  O312  1  0.22668405  0.11678249  0.02657323  1
  O2-  O313  1  0.23659419  0.12720005  0.51275503  1
  O2-  O314  1  0.23743171  0.61715159  0.02084403  1
  O2-  O315  1  0.23547691  0.62281651  0.51651932  1
  O2-  O316  1  0.73053312  0.11438090  0.03514083  1
  O2-  O317  1  0.72463662  0.11564662  0.52070044  1
  O2-  O318  1  0.72946168  0.62183608  0.02143171  1
  O2-  O319  1  0.73248457  0.61411037  0.51855227  1
