# generated using pymatgen
data_Sr64Ca21Nb43O192
_symmetry_space_group_name_H-M   'P 1'
_cell_length_a   16.55337693
_cell_length_b   16.56786878
_cell_length_c   16.71991682
_cell_angle_alpha   89.99140164
_cell_angle_beta   90.00145405
_cell_angle_gamma   89.99296758
_symmetry_Int_Tables_number   1
_chemical_formula_structural   Sr64Ca21Nb43O192
_chemical_formula_sum   'Sr64 Ca21 Nb43 O192'
_cell_volume   4585.50693694
_cell_formula_units_Z   1
loop_
 _symmetry_equiv_pos_site_id
 _symmetry_equiv_pos_as_xyz
  1  'x, y, z'
loop_
 _atom_type_symbol
 _atom_type_oxidation_number
  Sr2+  2.0
  Ca2+  2.0
  Nb5+  5.0
  O2-  -2.0
loop_
 _atom_site_type_symbol
 _atom_site_label
 _atom_site_symmetry_multiplicity
 _atom_site_fract_x
 _atom_site_fract_y
 _atom_site_fract_z
 _atom_site_occupancy
  Sr2+  Sr0  1  0.12830607  0.12646568  0.11874417  1
  Sr2+  Sr1  1  0.12640211  0.12631496  0.62233383  1
  Sr2+  Sr2  1  0.13200979  0.62150759  0.13552494  1
  Sr2+  Sr3  1  0.12402144  0.61827253  0.62613433  1
  Sr2+  Sr4  1  0.63120368  0.12718635  0.12695500  1
  Sr2+  Sr5  1  0.62859858  0.12440111  0.62030466  1
  Sr2+  Sr6  1  0.61063070  0.60543246  0.12270770  1
  Sr2+  Sr7  1  0.62665619  0.62503338  0.62803769  1
  Sr2+  Sr8  1  0.37466522  0.37752313  0.12159325  1
  Sr2+  Sr9  1  0.37285058  0.37272517  0.62975213  1
  Sr2+  Sr10  1  0.37773582  0.86123796  0.12246792  1
  Sr2+  Sr11  1  0.38700177  0.87489644  0.62384567  1
  Sr2+  Sr12  1  0.87153393  0.36612915  0.13121230  1
  Sr2+  Sr13  1  0.87047356  0.36519480  0.62021751  1
  Sr2+  Sr14  1  0.86617533  0.88248495  0.12108296  1
  Sr2+  Sr15  1  0.86865396  0.87035370  0.62909487  1
  Sr2+  Sr16  1  0.12330481  0.37084377  0.37576434  1
  Sr2+  Sr17  1  0.13155175  0.37285624  0.87958588  1
  Sr2+  Sr18  1  0.14784278  0.87771859  0.38070390  1
  Sr2+  Sr19  1  0.11305620  0.87613600  0.87290870  1
  Sr2+  Sr20  1  0.63739066  0.39007472  0.37693968  1
  Sr2+  Sr21  1  0.62859295  0.37466805  0.88785392  1
  Sr2+  Sr22  1  0.63704380  0.87448990  0.37303204  1
  Sr2+  Sr23  1  0.64417348  0.87437055  0.87385330  1
  Sr2+  Sr24  1  0.38036026  0.12232139  0.37693507  1
  Sr2+  Sr25  1  0.37451357  0.12741698  0.88429973  1
  Sr2+  Sr26  1  0.37394201  0.63748695  0.37255230  1
  Sr2+  Sr27  1  0.38209154  0.62239695  0.87062712  1
  Sr2+  Sr28  1  0.88196252  0.11669771  0.37012342  1
  Sr2+  Sr29  1  0.88492001  0.12489986  0.87822191  1
  Sr2+  Sr30  1  0.88107591  0.62891738  0.37418712  1
  Sr2+  Sr31  1  0.89017445  0.63356513  0.87829256  1
  Sr2+  Sr32  1  0.13420810  0.11631542  0.37490218  1
  Sr2+  Sr33  1  0.13422833  0.11350867  0.87778274  1
  Sr2+  Sr34  1  0.12940758  0.60842975  0.37491986  1
  Sr2+  Sr35  1  0.13231707  0.63187093  0.87062813  1
  Sr2+  Sr36  1  0.62496271  0.11440873  0.37240207  1
  Sr2+  Sr37  1  0.63123472  0.12388800  0.87705079  1
  Sr2+  Sr38  1  0.62736398  0.63044445  0.36678335  1
  Sr2+  Sr39  1  0.62601534  0.62548485  0.86906512  1
  Sr2+  Sr40  1  0.36418512  0.38480576  0.37576391  1
  Sr2+  Sr41  1  0.37050679  0.38303533  0.87474054  1
  Sr2+  Sr42  1  0.37855863  0.87282052  0.37125558  1
  Sr2+  Sr43  1  0.37669631  0.88422283  0.87273723  1
  Sr2+  Sr44  1  0.88604969  0.38970790  0.36869443  1
  Sr2+  Sr45  1  0.88054734  0.38114775  0.88742412  1
  Sr2+  Sr46  1  0.87297452  0.87606528  0.37053432  1
  Sr2+  Sr47  1  0.87791470  0.86731885  0.87892461  1
  Sr2+  Sr48  1  0.10876214  0.37204815  0.12951835  1
  Sr2+  Sr49  1  0.12110138  0.37020164  0.62475159  1
  Sr2+  Sr50  1  0.13111397  0.86767408  0.11802685  1
  Sr2+  Sr51  1  0.11854153  0.87345694  0.62474209  1
  Sr2+  Sr52  1  0.64220499  0.37156976  0.12575314  1
  Sr2+  Sr53  1  0.63487556  0.37047092  0.62969074  1
  Sr2+  Sr54  1  0.62484137  0.87669426  0.11469984  1
  Sr2+  Sr55  1  0.62761527  0.87512217  0.62592919  1
  Sr2+  Sr56  1  0.38884590  0.13457334  0.12653806  1
  Sr2+  Sr57  1  0.38846861  0.13414173  0.62558454  1
  Sr2+  Sr58  1  0.37278380  0.62176553  0.14152556  1
  Sr2+  Sr59  1  0.37170592  0.61725525  0.62981280  1
  Sr2+  Sr60  1  0.87414166  0.13042347  0.13276183  1
  Sr2+  Sr61  1  0.88695432  0.12773574  0.62849978  1
  Sr2+  Sr62  1  0.86178836  0.62147457  0.12058143  1
  Sr2+  Sr63  1  0.86692499  0.61532173  0.62431453  1
  Ca2+  Ca64  1  0.49735730  0.49999359  -0.00254108  1
  Ca2+  Ca65  1  -0.00027579  0.00106473  0.00082504  1
  Ca2+  Ca66  1  0.00126445  0.50128932  -0.00235284  1
  Ca2+  Ca67  1  0.49618070  -0.00056246  0.00089398  1
  Ca2+  Ca68  1  0.50043127  0.50154240  0.49843802  1
  Ca2+  Ca69  1  0.75004277  0.25012647  0.49609257  1
  Ca2+  Ca70  1  0.25360204  0.74472413  -0.00299257  1
  Ca2+  Ca71  1  0.75176327  0.75070945  0.50251702  1
  Ca2+  Ca72  1  0.74815022  0.74925758  0.00278085  1
  Ca2+  Ca73  1  0.25024475  0.75091840  0.50488086  1
  Ca2+  Ca74  1  -0.00060522  0.25393565  0.75333138  1
  Ca2+  Ca75  1  0.74962983  0.00239703  0.74829933  1
  Ca2+  Ca76  1  0.25100200  -0.00077341  0.74542451  1
  Ca2+  Ca77  1  -0.00038570  0.75349305  0.25312035  1
  Ca2+  Ca78  1  0.24973807  0.00364152  0.24376198  1
  Ca2+  Ca79  1  0.75039727  0.50314964  0.24794538  1
  Ca2+  Ca80  1  0.75258594  0.49436675  0.75337294  1
  Ca2+  Ca81  1  0.00173221  0.24769709  0.25323182  1
  Ca2+  Ca82  1  0.25208566  0.49535511  0.25185189  1
  Ca2+  Ca83  1  0.50372776  0.24975382  0.75519821  1
  Ca2+  Ca84  1  0.50025487  0.24844457  0.25253333  1
  Nb5+  Nb85  1  0.50655825  -0.00212975  0.50016127  1
  Nb5+  Nb86  1  0.00061213  0.49536804  0.50311633  1
  Nb5+  Nb87  1  0.00256046  -0.00543201  0.49927824  1
  Nb5+  Nb88  1  0.25117655  0.24971668  0.50316738  1
  Nb5+  Nb89  1  0.25449849  0.24948085  0.00492261  1
  Nb5+  Nb90  1  0.75712644  0.24738250  -0.00090267  1
  Nb5+  Nb91  1  0.50524700  0.75181142  0.24496106  1
  Nb5+  Nb92  1  0.00862966  0.74911080  0.74765999  1
  Nb5+  Nb93  1  0.74932613  -0.00064939  0.24979112  1
  Nb5+  Nb94  1  0.24777840  0.49899746  0.74951978  1
  Nb5+  Nb95  1  0.50423254  0.75180549  0.74660540  1
  Nb5+  Nb96  1  0.00343270  -0.00193191  0.24883451  1
  Nb5+  Nb97  1  -0.00133928  0.00095665  0.74979462  1
  Nb5+  Nb98  1  -0.00150769  0.50806670  0.24232502  1
  Nb5+  Nb99  1  -0.00115115  0.49894573  0.74779985  1
  Nb5+  Nb100  1  0.49944491  -0.00182100  0.24666553  1
  Nb5+  Nb101  1  0.49883004  0.00241985  0.74827345  1
  Nb5+  Nb102  1  0.49870228  0.49349217  0.25530346  1
  Nb5+  Nb103  1  0.50030280  0.49603621  0.74562768  1
  Nb5+  Nb104  1  0.25071292  0.24932768  0.25490222  1
  Nb5+  Nb105  1  0.24648290  0.24621057  0.75469816  1
  Nb5+  Nb106  1  0.24693959  0.75547915  0.25289331  1
  Nb5+  Nb107  1  0.25742042  0.75102638  0.74881421  1
  Nb5+  Nb108  1  0.74524028  0.24886324  0.25704353  1
  Nb5+  Nb109  1  0.75096085  0.24984039  0.75176572  1
  Nb5+  Nb110  1  0.75183649  0.74629205  0.24490677  1
  Nb5+  Nb111  1  0.76092193  0.74504994  0.75126997  1
  Nb5+  Nb112  1  0.00017333  0.24206529  0.49696092  1
  Nb5+  Nb113  1  0.00673178  0.25190274  0.99886683  1
  Nb5+  Nb114  1  0.00052265  0.74458792  0.50043676  1
  Nb5+  Nb115  1  0.00493042  0.74706933  1.00806839  1
  Nb5+  Nb116  1  0.50110299  0.25553695  0.49818220  1
  Nb5+  Nb117  1  0.50722463  0.24937783  1.00247069  1
  Nb5+  Nb118  1  0.50387325  0.74891849  0.49674147  1
  Nb5+  Nb119  1  0.49793100  0.74955658  0.98997921  1
  Nb5+  Nb120  1  0.25182774  -0.00462580  -0.00112893  1
  Nb5+  Nb121  1  0.25875665  0.00283107  0.50250465  1
  Nb5+  Nb122  1  0.24601018  0.50187777  0.00372194  1
  Nb5+  Nb123  1  0.25021522  0.50145433  0.50082624  1
  Nb5+  Nb124  1  0.75323954  0.00313677  -0.00488496  1
  Nb5+  Nb125  1  0.75721349  0.00353693  0.50055206  1
  Nb5+  Nb126  1  0.74666998  0.50391177  -0.00009368  1
  Nb5+  Nb127  1  0.74744133  0.49773936  0.50184950  1
  O2-  O128  1  0.01416664  0.02108795  0.13727823  1
  O2-  O129  1  0.01269106  0.02524003  0.61487560  1
  O2-  O130  1  -0.01349264  0.53509063  0.13167967  1
  O2-  O131  1  -0.00656179  0.52893653  0.61950592  1
  O2-  O132  1  0.50588664  -0.02986754  0.13645178  1
  O2-  O133  1  0.51656905  -0.02117441  0.61807867  1
  O2-  O134  1  0.47197599  0.50583345  0.13591154  1
  O2-  O135  1  0.46626275  0.50093185  0.63097950  1
  O2-  O136  1  -0.02515073  -0.01280866  0.38428559  1
  O2-  O137  1  -0.02333644  -0.01960270  0.86138480  1
  O2-  O138  1  0.01964329  0.48603359  0.38608968  1
  O2-  O139  1  0.01841556  0.47853303  0.85888568  1
  O2-  O140  1  0.48808680  0.00862215  0.38048213  1
  O2-  O141  1  0.47388643  0.00974305  0.86137360  1
  O2-  O142  1  0.53453707  0.51138524  0.36665234  1
  O2-  O143  1  0.51239065  0.51735622  0.86004295  1
  O2-  O144  1  0.25572018  0.25073040  0.12165093  1
  O2-  O145  1  0.25431983  0.25087011  0.62366370  1
  O2-  O146  1  0.24088777  0.75112525  0.13360217  1
  O2-  O147  1  0.22533298  0.75621663  0.63703319  1
  O2-  O148  1  0.76542265  0.25376273  0.11954753  1
  O2-  O149  1  0.75278839  0.26260870  0.63481965  1
  O2-  O150  1  0.74322871  0.78646397  0.13491477  1
  O2-  O151  1  0.73528196  0.77141917  0.63893196  1
  O2-  O152  1  0.24570063  0.25223288  0.37624928  1
  O2-  O153  1  0.24315318  0.24975155  0.87420187  1
  O2-  O154  1  0.27216976  0.75423869  0.37054972  1
  O2-  O155  1  0.26253578  0.71984195  0.86274117  1
  O2-  O156  1  0.71570725  0.24006225  0.36588386  1
  O2-  O157  1  0.73944422  0.23396961  0.88190978  1
  O2-  O158  1  0.75957983  0.73662941  0.36477451  1
  O2-  O159  1  0.76091552  0.72651302  0.86881839  1
  O2-  O160  1  -0.00069686  0.22243414  0.11593884  1
  O2-  O161  1  0.00667052  0.23613536  0.61547273  1
  O2-  O162  1  0.03030035  0.73290290  0.11886619  1
  O2-  O163  1  0.02578128  0.73719513  0.62899816  1
  O2-  O164  1  0.47884896  0.27129587  0.11586887  1
  O2-  O165  1  0.48096570  0.25629275  0.61569862  1
  O2-  O166  1  0.51379248  0.76272464  0.13067089  1
  O2-  O167  1  0.51780174  0.76191081  0.63042802  1
  O2-  O168  1  0.25233178  0.01443986  0.38427331  1
  O2-  O169  1  0.27173803  0.01311156  0.88026604  1
  O2-  O170  1  0.22595888  0.48377176  0.38683770  1
  O2-  O171  1  0.22520719  0.49959354  0.86438149  1
  O2-  O172  1  0.75897641  0.01404519  0.37314488  1
  O2-  O173  1  0.76687067  0.02360942  0.88309920  1
  O2-  O174  1  0.73167901  0.51925918  0.38396412  1
  O2-  O175  1  0.71377599  0.50234851  0.88450752  1
  O2-  O176  1  0.00012315  0.28127960  0.38716163  1
  O2-  O177  1  0.00059711  0.28640713  0.88505747  1
  O2-  O178  1  -0.02984977  0.76199168  0.39062937  1
  O2-  O179  1  -0.01499342  0.76413208  0.86395369  1
  O2-  O180  1  0.50492566  0.21620031  0.38786923  1
  O2-  O181  1  0.50712834  0.21421925  0.88807849  1
  O2-  O182  1  0.48846353  0.74474532  0.38088411  1
  O2-  O183  1  0.47901841  0.74428600  0.87304511  1
  O2-  O184  1  0.21499394  -0.00323664  0.11219361  1
  O2-  O185  1  0.22020614  0.00039477  0.61127747  1
  O2-  O186  1  0.27155231  0.50277767  0.11536115  1
  O2-  O187  1  0.26659065  0.49228148  0.62148592  1
  O2-  O188  1  0.73563842  -0.01039335  0.13121563  1
  O2-  O189  1  0.73259563  -0.01114057  0.61255295  1
  O2-  O190  1  0.77889642  0.48079817  0.11424686  1
  O2-  O191  1  0.77299007  0.47582359  0.61741204  1
  O2-  O192  1  0.13527948  0.28563934  0.24872511  1
  O2-  O193  1  0.13440566  0.28419750  0.74794571  1
  O2-  O194  1  0.13464250  0.78016217  0.26579818  1
  O2-  O195  1  0.12454033  0.76209476  0.76862693  1
  O2-  O196  1  0.63356201  0.25541491  0.21836063  1
  O2-  O197  1  0.63588044  0.29190391  0.75832373  1
  O2-  O198  1  0.62346816  0.76744732  0.26699413  1
  O2-  O199  1  0.61779595  0.76041352  0.77150371  1
  O2-  O200  1  0.36408044  0.21132054  0.25631047  1
  O2-  O201  1  0.36375254  0.22864953  0.75662858  1
  O2-  O202  1  0.38503170  0.73595551  0.24181909  1
  O2-  O203  1  0.37326551  0.73256989  0.72996208  1
  O2-  O204  1  0.86250968  0.22532434  0.25803844  1
  O2-  O205  1  0.86551783  0.20896712  0.75646173  1
  O2-  O206  1  0.86570336  0.72490481  0.23451043  1
  O2-  O207  1  0.87750136  0.73097422  0.73468107  1
  O2-  O208  1  0.28788044  0.36314804  0.24558984  1
  O2-  O209  1  0.27081264  0.37886517  0.74876522  1
  O2-  O210  1  0.28130759  0.87009069  0.24827204  1
  O2-  O211  1  0.26943754  0.86364319  0.76465335  1
  O2-  O212  1  0.76251897  0.36501498  0.26164863  1
  O2-  O213  1  0.79135310  0.36170759  0.77058553  1
  O2-  O214  1  0.76375819  0.88040692  0.26724206  1
  O2-  O215  1  0.76521338  0.86424631  0.77487680  1
  O2-  O216  1  0.21083188  0.13671067  0.24384907  1
  O2-  O217  1  0.21707505  0.13481504  0.74635027  1
  O2-  O218  1  0.23675422  0.63441304  0.25465220  1
  O2-  O219  1  0.23689663  0.61839446  0.73278914  1
  O2-  O220  1  0.73043366  0.11982390  0.24345195  1
  O2-  O221  1  0.70934022  0.13547507  0.74592113  1
  O2-  O222  1  0.72289255  0.63666045  0.22236980  1
  O2-  O223  1  0.73127497  0.63159998  0.73383436  1
  O2-  O224  1  0.11700475  0.48798263  0.23258392  1
  O2-  O225  1  0.12800134  0.48996715  0.72394097  1
  O2-  O226  1  0.11289530  0.97210717  0.27031288  1
  O2-  O227  1  0.11279436  0.97003934  0.75062857  1
  O2-  O228  1  0.61516893  0.48356488  0.22393041  1
  O2-  O229  1  0.61270505  0.49195105  0.71842462  1
  O2-  O230  1  0.62701367  0.98312110  0.26721648  1
  O2-  O231  1  0.61197350  0.96867417  0.76000980  1
  O2-  O232  1  0.38587569  0.02054699  0.24572964  1
  O2-  O233  1  0.38460485  0.00451908  0.71184679  1
  O2-  O234  1  0.38502285  0.52622595  0.27873519  1
  O2-  O235  1  0.36648149  0.51833294  0.76391237  1
  O2-  O236  1  0.86747275  0.02081956  0.24194429  1
  O2-  O237  1  0.88460412  0.00430833  0.71682082  1
  O2-  O238  1  0.88389544  0.51791964  0.27631989  1
  O2-  O239  1  0.88795514  0.52859365  0.76042067  1
  O2-  O240  1  0.47810177  0.38185771  0.27006047  1
  O2-  O241  1  0.47399375  0.38465218  0.75795272  1
  O2-  O242  1  0.49020526  0.87232466  0.27016847  1
  O2-  O243  1  0.47439342  0.86730060  0.75392292  1
  O2-  O244  1  0.98024383  0.38790950  0.23466882  1
  O2-  O245  1  0.98531607  0.38932633  0.71506844  1
  O2-  O246  1  0.96376107  0.88686241  0.24004696  1
  O2-  O247  1  0.98719928  0.86634558  0.72611324  1
  O2-  O248  1  0.00866142  0.11271726  0.28339802  1
  O2-  O249  1  0.01854865  0.11405835  0.76480943  1
  O2-  O250  1  0.01988938  0.61943696  0.27922907  1
  O2-  O251  1  0.02207938  0.62778475  0.75944834  1
  O2-  O252  1  0.52588138  0.11062624  0.23712660  1
  O2-  O253  1  0.51875267  0.11360574  0.72697232  1
  O2-  O254  1  0.52047767  0.63448586  0.24847360  1
  O2-  O255  1  0.50536220  0.63151241  0.74011092  1
  O2-  O256  1  0.13469311  0.46295041  0.00921789  1
  O2-  O257  1  0.12315695  0.48514837  0.52074139  1
  O2-  O258  1  0.13268733  0.98964917  -0.03100574  1
  O2-  O259  1  0.11697106  0.98728110  0.48169219  1
  O2-  O260  1  0.63133815  0.47571554  0.02430778  1
  O2-  O261  1  0.63516338  0.47124284  0.51687610  1
  O2-  O262  1  0.63412706  0.98680757  -0.00966911  1
  O2-  O263  1  0.62042106  0.98310304  0.48213907  1
  O2-  O264  1  0.36146168  0.03255426  0.02082055  1
  O2-  O265  1  0.37250604  0.02399206  0.51485014  1
  O2-  O266  1  0.35903994  0.50829501  -0.03306834  1
  O2-  O267  1  0.36317862  0.51884247  0.47744610  1
  O2-  O268  1  0.86543107  0.02456320  0.02656922  1
  O2-  O269  1  0.87271796  0.02709246  0.51057215  1
  O2-  O270  1  0.86337362  0.51190120  -0.03290509  1
  O2-  O271  1  0.88506315  0.52100443  0.48600171  1
  O2-  O272  1  0.48602390  0.36306621  -0.02933554  1
  O2-  O273  1  0.47209704  0.36490483  0.47914919  1
  O2-  O274  1  0.46317145  0.86468899  -0.00455321  1
  O2-  O275  1  0.47104834  0.88034150  0.49468976  1
  O2-  O276  1  0.97847610  0.36577642  0.02948584  1
  O2-  O277  1  0.98652337  0.38088637  0.52073330  1
  O2-  O278  1  0.97630706  0.86520431  0.01186507  1
  O2-  O279  1  0.98031006  0.88410059  0.52413117  1
  O2-  O280  1  0.01240566  0.13703870  -0.03324223  1
  O2-  O281  1  0.01940907  0.12807353  0.47874155  1
  O2-  O282  1  0.01998479  0.63505442  -0.03096139  1
  O2-  O283  1  0.02219736  0.63016779  0.48687846  1
  O2-  O284  1  0.51240506  0.13250676  0.03246730  1
  O2-  O285  1  0.51105656  0.11569691  0.51990540  1
  O2-  O286  1  0.53488553  0.63557711  -0.00471705  1
  O2-  O287  1  0.53485131  0.63760203  0.50481035  1
  O2-  O288  1  0.12483957  0.26900209  0.00579999  1
  O2-  O289  1  0.12817718  0.26768694  0.50111848  1
  O2-  O290  1  0.11859709  0.77846066  -0.01751998  1
  O2-  O291  1  0.11165190  0.78431606  0.49204233  1
  O2-  O292  1  0.62500236  0.26527744  0.01022680  1
  O2-  O293  1  0.61356487  0.27275390  0.51325042  1
  O2-  O294  1  0.61261694  0.78487216  -0.00985613  1
  O2-  O295  1  0.61521429  0.78756069  0.49617560  1
  O2-  O296  1  0.36960605  0.23068454  -0.00546106  1
  O2-  O297  1  0.36736779  0.22613674  0.49381564  1
  O2-  O298  1  0.38827582  0.71468653  0.02297206  1
  O2-  O299  1  0.38883540  0.73177141  0.52489914  1
  O2-  O300  1  0.87311352  0.23269428  -0.01006890  1
  O2-  O301  1  0.88502813  0.22716796  0.50146213  1
  O2-  O302  1  0.88566513  0.72452165  0.01270269  1
  O2-  O303  1  0.88802416  0.74087129  0.53666515  1
  O2-  O304  1  0.26913095  0.36873803  -0.00698605  1
  O2-  O305  1  0.26743190  0.36999175  0.50370727  1
  O2-  O306  1  0.27622598  0.88218778  -0.00189646  1
  O2-  O307  1  0.27001289  0.88801293  0.49369871  1
  O2-  O308  1  0.76083237  0.36609586  -0.01202230  1
  O2-  O309  1  0.77927509  0.38399607  0.47466690  1
  O2-  O310  1  0.77175811  0.88714151  -0.01461849  1
  O2-  O311  1  0.76901428  0.88737859  0.48149614  1
  O2-  O312  1  0.22502839  0.13449033  -0.00169493  1
  O2-  O313  1  0.22709307  0.13007635  0.50285792  1
  O2-  O314  1  0.21363824  0.61214596  0.00240081  1
  O2-  O315  1  0.22622118  0.61521557  0.50249338  1
  O2-  O316  1  0.72952715  0.12825591  0.01126308  1
  O2-  O317  1  0.72033976  0.11593685  0.50009444  1
  O2-  O318  1  0.73164339  0.61561451  0.02426472  1
  O2-  O319  1  0.74215214  0.61503744  0.52634194  1
