# generated using pymatgen
data_Sr64Ca21Nb43O192
_symmetry_space_group_name_H-M   'P 1'
_cell_length_a   16.56688093
_cell_length_b   16.55549827
_cell_length_c   16.72893807
_cell_angle_alpha   89.94989042
_cell_angle_beta   89.97279439
_cell_angle_gamma   90.00278883
_symmetry_Int_Tables_number   1
_chemical_formula_structural   Sr64Ca21Nb43O192
_chemical_formula_sum   'Sr64 Ca21 Nb43 O192'
_cell_volume   4588.29322760
_cell_formula_units_Z   1
loop_
 _symmetry_equiv_pos_site_id
 _symmetry_equiv_pos_as_xyz
  1  'x, y, z'
loop_
 _atom_type_symbol
 _atom_type_oxidation_number
  Sr2+  2.0
  Ca2+  2.0
  Nb5+  5.0
  O2-  -2.0
loop_
 _atom_site_type_symbol
 _atom_site_label
 _atom_site_symmetry_multiplicity
 _atom_site_fract_x
 _atom_site_fract_y
 _atom_site_fract_z
 _atom_site_occupancy
  Sr2+  Sr0  1  0.11999949  0.12882592  0.12591920  1
  Sr2+  Sr1  1  0.11084689  0.11682754  0.62857650  1
  Sr2+  Sr2  1  0.11114021  0.61132415  0.12449413  1
  Sr2+  Sr3  1  0.11927106  0.61173594  0.62479773  1
  Sr2+  Sr4  1  0.60783799  0.12174723  0.12937067  1
  Sr2+  Sr5  1  0.61197215  0.13106770  0.62990222  1
  Sr2+  Sr6  1  0.62380310  0.61741053  0.12568958  1
  Sr2+  Sr7  1  0.61488581  0.61062523  0.62992007  1
  Sr2+  Sr8  1  0.37226848  0.36127205  0.12650277  1
  Sr2+  Sr9  1  0.37877104  0.37704055  0.61789583  1
  Sr2+  Sr10  1  0.36911332  0.86969261  0.12383473  1
  Sr2+  Sr11  1  0.36580268  0.85967770  0.63153459  1
  Sr2+  Sr12  1  0.87487995  0.38011153  0.12742788  1
  Sr2+  Sr13  1  0.86877539  0.37498132  0.63506429  1
  Sr2+  Sr14  1  0.87395854  0.86276591  0.12446201  1
  Sr2+  Sr15  1  0.87714262  0.85983540  0.62553138  1
  Sr2+  Sr16  1  0.13039772  0.36561150  0.37816414  1
  Sr2+  Sr17  1  0.13686575  0.38001466  0.86927518  1
  Sr2+  Sr18  1  0.13197139  0.87828878  0.37670462  1
  Sr2+  Sr19  1  0.13988250  0.88437769  0.87179073  1
  Sr2+  Sr20  1  0.62668335  0.37949344  0.38424554  1
  Sr2+  Sr21  1  0.64067879  0.36888784  0.87208859  1
  Sr2+  Sr22  1  0.64062437  0.88196630  0.37389891  1
  Sr2+  Sr23  1  0.61977049  0.88037852  0.87361458  1
  Sr2+  Sr24  1  0.35815726  0.12860921  0.37736675  1
  Sr2+  Sr25  1  0.38716149  0.13636891  0.87178736  1
  Sr2+  Sr26  1  0.37037989  0.63227318  0.38598862  1
  Sr2+  Sr27  1  0.39370400  0.62965503  0.87487244  1
  Sr2+  Sr28  1  0.85859986  0.12213675  0.37144596  1
  Sr2+  Sr29  1  0.86086826  0.12745254  0.87787576  1
  Sr2+  Sr30  1  0.88348529  0.62507337  0.36780909  1
  Sr2+  Sr31  1  0.88205222  0.63029269  0.86391974  1
  Sr2+  Sr32  1  0.12106903  0.12359928  0.37880076  1
  Sr2+  Sr33  1  0.12329345  0.13400528  0.87011823  1
  Sr2+  Sr34  1  0.13056035  0.63540264  0.37432079  1
  Sr2+  Sr35  1  0.12999958  0.62686057  0.86852334  1
  Sr2+  Sr36  1  0.63082374  0.11485802  0.37600873  1
  Sr2+  Sr37  1  0.62764804  0.11989466  0.86537688  1
  Sr2+  Sr38  1  0.62692564  0.62370560  0.38448495  1
  Sr2+  Sr39  1  0.63325670  0.64447513  0.87161087  1
  Sr2+  Sr40  1  0.38993790  0.38042923  0.37561655  1
  Sr2+  Sr41  1  0.38166584  0.38277976  0.88744427  1
  Sr2+  Sr42  1  0.37311172  0.87781641  0.37864714  1
  Sr2+  Sr43  1  0.38697907  0.88943575  0.86847308  1
  Sr2+  Sr44  1  0.87850700  0.37067423  0.37541850  1
  Sr2+  Sr45  1  0.88842414  0.37906193  0.86283151  1
  Sr2+  Sr46  1  0.88313536  0.88058238  0.37255788  1
  Sr2+  Sr47  1  0.87604338  0.88019447  0.88241601  1
  Sr2+  Sr48  1  0.13124564  0.36632644  0.12127054  1
  Sr2+  Sr49  1  0.11223458  0.37123792  0.62990763  1
  Sr2+  Sr50  1  0.11449085  0.87336040  0.12265784  1
  Sr2+  Sr51  1  0.11985470  0.87311238  0.63077218  1
  Sr2+  Sr52  1  0.60083279  0.38273120  0.12720254  1
  Sr2+  Sr53  1  0.62143537  0.36836475  0.62225757  1
  Sr2+  Sr54  1  0.61285724  0.86277859  0.12458841  1
  Sr2+  Sr55  1  0.60070304  0.87317585  0.62900338  1
  Sr2+  Sr56  1  0.36510429  0.12655107  0.12427230  1
  Sr2+  Sr57  1  0.37902559  0.12875784  0.63369277  1
  Sr2+  Sr58  1  0.36803133  0.61175394  0.12324316  1
  Sr2+  Sr59  1  0.36627595  0.61886634  0.62745985  1
  Sr2+  Sr60  1  0.86949719  0.12571550  0.12273047  1
  Sr2+  Sr61  1  0.86377995  0.12349205  0.64304784  1
  Sr2+  Sr62  1  0.86540259  0.62448378  0.11999381  1
  Sr2+  Sr63  1  0.86190334  0.61431940  0.63153707  1
  Ca2+  Ca64  1  0.50440702  0.50261743  -0.00042764  1
  Ca2+  Ca65  1  0.49970661  0.00414042  0.00270636  1
  Ca2+  Ca66  1  -0.00123161  0.49915000  0.49979081  1
  Ca2+  Ca67  1  -0.00047929  0.49922586  -0.00096858  1
  Ca2+  Ca68  1  0.49821387  -0.00157204  0.49718181  1
  Ca2+  Ca69  1  0.74890359  0.74884788  0.49813987  1
  Ca2+  Ca70  1  0.75042294  0.24874357  0.49743382  1
  Ca2+  Ca71  1  0.75145152  0.25059771  0.00446734  1
  Ca2+  Ca72  1  0.24713285  0.24821980  0.50317263  1
  Ca2+  Ca73  1  0.24843681  0.75245814  0.00256037  1
  Ca2+  Ca74  1  0.74478738  0.50036212  0.75197784  1
  Ca2+  Ca75  1  0.49996984  0.74800837  0.25128162  1
  Ca2+  Ca76  1  0.49682830  0.25709472  0.75194190  1
  Ca2+  Ca77  1  0.00097118  0.75084162  0.74971126  1
  Ca2+  Ca78  1  0.25441770  0.49839186  0.75071780  1
  Ca2+  Ca79  1  0.24970491  0.50071880  0.25042622  1
  Ca2+  Ca80  1  0.49923250  0.74849468  0.74937853  1
  Ca2+  Ca81  1  0.24961704  0.00480648  0.74846142  1
  Ca2+  Ca82  1  0.50079212  0.24686451  0.25155396  1
  Ca2+  Ca83  1  0.74980632  -0.00498487  0.74862822  1
  Ca2+  Ca84  1  -0.00029259  0.24821197  0.75121304  1
  Nb5+  Nb85  1  0.00156120  0.00195200  0.00668572  1
  Nb5+  Nb86  1  -0.00316075  -0.00073362  0.50365647  1
  Nb5+  Nb87  1  0.49747028  0.50091807  0.50005932  1
  Nb5+  Nb88  1  0.24443404  0.75043593  0.50403801  1
  Nb5+  Nb89  1  0.75164992  0.75134270  -0.00138697  1
  Nb5+  Nb90  1  0.25041083  0.24531086  -0.00203852  1
  Nb5+  Nb91  1  0.24369254  -0.00147646  0.24860635  1
  Nb5+  Nb92  1  0.75071452  0.50342580  0.25021070  1
  Nb5+  Nb93  1  -0.00046982  0.24350734  0.25259198  1
  Nb5+  Nb94  1  0.74739884  -0.00032479  0.24202068  1
  Nb5+  Nb95  1  0.00213610  0.74518361  0.25007399  1
  Nb5+  Nb96  1  -0.00122551  -0.00227599  0.25145145  1
  Nb5+  Nb97  1  -0.00113554  -0.00241939  0.76316488  1
  Nb5+  Nb98  1  0.00184482  0.48876869  0.24874932  1
  Nb5+  Nb99  1  0.00139820  0.50077638  0.74962647  1
  Nb5+  Nb100  1  0.48824982  0.00026989  0.25169016  1
  Nb5+  Nb101  1  0.49932626  0.00347141  0.74745566  1
  Nb5+  Nb102  1  0.49588040  0.50862949  0.25240068  1
  Nb5+  Nb103  1  0.50211802  0.49660233  0.75923813  1
  Nb5+  Nb104  1  0.24950445  0.24978212  0.25303736  1
  Nb5+  Nb105  1  0.25038686  0.25621568  0.74192553  1
  Nb5+  Nb106  1  0.24947003  0.74808818  0.24605311  1
  Nb5+  Nb107  1  0.25110252  0.74573017  0.76045025  1
  Nb5+  Nb108  1  0.74721965  0.25635438  0.24469734  1
  Nb5+  Nb109  1  0.74805384  0.24983042  0.75139426  1
  Nb5+  Nb110  1  0.75146931  0.75327647  0.25083301  1
  Nb5+  Nb111  1  0.74774906  0.75739507  0.73917671  1
  Nb5+  Nb112  1  -0.00683063  0.24923074  0.50345884  1
  Nb5+  Nb113  1  0.00016788  0.25081597  1.00082609  1
  Nb5+  Nb114  1  0.00076968  0.74607400  0.50132626  1
  Nb5+  Nb115  1  0.00215934  0.75114518  0.99574450  1
  Nb5+  Nb116  1  0.50241546  0.24413711  0.49472691  1
  Nb5+  Nb117  1  0.50769457  0.25304373  1.00232088  1
  Nb5+  Nb118  1  0.50015340  0.75209084  0.49598951  1
  Nb5+  Nb119  1  0.49392642  0.74972096  1.00440674  1
  Nb5+  Nb120  1  0.25208132  0.00516607  -0.00404980  1
  Nb5+  Nb121  1  0.24790758  -0.00241356  0.50267866  1
  Nb5+  Nb122  1  0.24753640  0.50647092  0.00376369  1
  Nb5+  Nb123  1  0.24763112  0.49282003  0.49592375  1
  Nb5+  Nb124  1  0.74701465  -0.00118575  0.00665032  1
  Nb5+  Nb125  1  0.75271300  -0.00857740  0.50714830  1
  Nb5+  Nb126  1  0.75283013  0.49991073  -0.00460198  1
  Nb5+  Nb127  1  0.75368935  0.50119306  0.49838625  1
  O2-  O128  1  -0.00613497  0.01687876  0.12636498  1
  O2-  O129  1  -0.01461988  0.01093353  0.61646380  1
  O2-  O130  1  -0.02613711  0.51921179  0.13805483  1
  O2-  O131  1  -0.01643467  0.52705971  0.63203824  1
  O2-  O132  1  0.48459436  0.02922740  0.13677061  1
  O2-  O133  1  0.49308691  0.02771847  0.62910306  1
  O2-  O134  1  0.49493843  0.52552294  0.13573865  1
  O2-  O135  1  0.48416500  0.51990388  0.61348520  1
  O2-  O136  1  0.01698376  -0.01335660  0.36634818  1
  O2-  O137  1  0.01243907  -0.01723085  0.87936857  1
  O2-  O138  1  0.01997316  0.48302234  0.36406024  1
  O2-  O139  1  0.01392741  0.47216265  0.86752245  1
  O2-  O140  1  0.52018944  -0.02834475  0.36283296  1
  O2-  O141  1  0.50986700  -0.01572283  0.86798313  1
  O2-  O142  1  0.51450879  0.48432379  0.37280820  1
  O2-  O143  1  0.52016698  0.46681218  0.86784866  1
  O2-  O144  1  0.25139914  0.25989646  0.13067263  1
  O2-  O145  1  0.25383765  0.29051784  0.63282274  1
  O2-  O146  1  0.23207847  0.78485836  0.13730755  1
  O2-  O147  1  0.23169875  0.77458022  0.61562985  1
  O2-  O148  1  0.79039450  0.25661624  0.13663928  1
  O2-  O149  1  0.76157605  0.26916646  0.63231418  1
  O2-  O150  1  0.74578313  0.76384200  0.12895573  1
  O2-  O151  1  0.73007368  0.78678930  0.63020125  1
  O2-  O152  1  0.23199939  0.22448854  0.36608008  1
  O2-  O153  1  0.24406379  0.22113127  0.88586286  1
  O2-  O154  1  0.25684701  0.73864854  0.36953002  1
  O2-  O155  1  0.26500557  0.71558704  0.87004052  1
  O2-  O156  1  0.73529975  0.22471327  0.35641808  1
  O2-  O157  1  0.73612406  0.22442906  0.87139282  1
  O2-  O158  1  0.77297329  0.72868217  0.36172167  1
  O2-  O159  1  0.77204049  0.73481792  0.88618240  1
  O2-  O160  1  -0.00513699  0.22808496  0.13314461  1
  O2-  O161  1  -0.01691266  0.22068350  0.61381217  1
  O2-  O162  1  0.01911358  0.74379156  0.13068354  1
  O2-  O163  1  0.03023632  0.74740434  0.61207182  1
  O2-  O164  1  0.48928209  0.22572463  0.11665569  1
  O2-  O165  1  0.49686320  0.24004026  0.61398466  1
  O2-  O166  1  0.53210260  0.73458279  0.11600626  1
  O2-  O167  1  0.51726056  0.72822003  0.61086611  1
  O2-  O168  1  0.22767078  0.01278426  0.36888451  1
  O2-  O169  1  0.22365713  0.02042104  0.88632067  1
  O2-  O170  1  0.23404418  0.52896312  0.38397783  1
  O2-  O171  1  0.22067892  0.50961571  0.88826095  1
  O2-  O172  1  0.74119602  0.00988985  0.36040238  1
  O2-  O173  1  0.74117679  0.01243361  0.89161524  1
  O2-  O174  1  0.73366394  0.51783760  0.36836994  1
  O2-  O175  1  0.71980233  0.51534450  0.88727726  1
  O2-  O176  1  0.01884662  0.26065950  0.36869315  1
  O2-  O177  1  0.01396752  0.26658254  0.88893238  1
  O2-  O178  1  -0.01918228  0.76121856  0.36901543  1
  O2-  O179  1  -0.02670617  0.76283292  0.88626222  1
  O2-  O180  1  0.50308508  0.27855085  0.38110976  1
  O2-  O181  1  0.48205389  0.26723563  0.88834296  1
  O2-  O182  1  0.46184613  0.75643118  0.38331811  1
  O2-  O183  1  0.48458403  0.77382622  0.88652924  1
  O2-  O184  1  0.26722902  -0.01339057  0.13176874  1
  O2-  O185  1  0.25961560  -0.02632395  0.61306435  1
  O2-  O186  1  0.28138871  0.47870982  0.11743097  1
  O2-  O187  1  0.27908347  0.49275993  0.60978821  1
  O2-  O188  1  0.78253210  -0.01748191  0.12887535  1
  O2-  O189  1  0.78694035  -0.01921876  0.61422272  1
  O2-  O190  1  0.77648624  0.49372866  0.13357561  1
  O2-  O191  1  0.76559014  0.48286517  0.61208870  1
  O2-  O192  1  0.12258278  0.26102643  0.23976173  1
  O2-  O193  1  0.13256153  0.27666924  0.75445818  1
  O2-  O194  1  0.11777765  0.76946651  0.26815143  1
  O2-  O195  1  0.13441021  0.77407057  0.76915369  1
  O2-  O196  1  0.63719655  0.26090612  0.21542233  1
  O2-  O197  1  0.63104432  0.27850262  0.74792753  1
  O2-  O198  1  0.63923135  0.77244359  0.26504323  1
  O2-  O199  1  0.63484801  0.77101629  0.77525627  1
  O2-  O200  1  0.36366796  0.22526534  0.25501568  1
  O2-  O201  1  0.36375267  0.22168098  0.75036014  1
  O2-  O202  1  0.36241303  0.73244179  0.22788546  1
  O2-  O203  1  0.36414362  0.73337684  0.72425338  1
  O2-  O204  1  0.88295396  0.23734199  0.26975533  1
  O2-  O205  1  0.86707017  0.22701330  0.76366264  1
  O2-  O206  1  0.88209003  0.74062397  0.23132733  1
  O2-  O207  1  0.86589035  0.72926339  0.72650700  1
  O2-  O208  1  0.26199845  0.36391645  0.27191166  1
  O2-  O209  1  0.27135288  0.36390652  0.78900231  1
  O2-  O210  1  0.26208282  0.88051090  0.27031338  1
  O2-  O211  1  0.27165545  0.86611312  0.77168812  1
  O2-  O212  1  0.76579647  0.37168093  0.26480932  1
  O2-  O213  1  0.77023606  0.36744383  0.77582170  1
  O2-  O214  1  0.77370850  0.87318924  0.26106535  1
  O2-  O215  1  0.77820733  0.86519280  0.77610882  1
  O2-  O216  1  0.23430193  0.11817480  0.23484589  1
  O2-  O217  1  0.22275166  0.13865176  0.72456127  1
  O2-  O218  1  0.21897679  0.63785388  0.23057115  1
  O2-  O219  1  0.22482527  0.63543650  0.72416948  1
  O2-  O220  1  0.74526892  0.11733143  0.22803723  1
  O2-  O221  1  0.72780712  0.13119960  0.72687125  1
  O2-  O222  1  0.74611613  0.62372773  0.23318040  1
  O2-  O223  1  0.72941735  0.63736294  0.73352140  1
  O2-  O224  1  0.11457069  0.48448758  0.22274896  1
  O2-  O225  1  0.11876908  0.48330293  0.72800331  1
  O2-  O226  1  0.12514487  0.98595557  0.23241523  1
  O2-  O227  1  0.11438095  0.97611692  0.73701469  1
  O2-  O228  1  0.63658613  0.47969566  0.23762708  1
  O2-  O229  1  0.61301672  0.48229632  0.71773701  1
  O2-  O230  1  0.63545846  0.98024137  0.22668125  1
  O2-  O231  1  0.61791189  0.97392344  0.73889871  1
  O2-  O232  1  0.37244235  0.01481265  0.27148353  1
  O2-  O233  1  0.38185086  0.02714074  0.76418550  1
  O2-  O234  1  0.38474301  0.53474682  0.26775625  1
  O2-  O235  1  0.38667682  0.53170908  0.76274933  1
  O2-  O236  1  0.88290034  0.01183973  0.26099567  1
  O2-  O237  1  0.88447050  0.02919020  0.76579791  1
  O2-  O238  1  0.87438694  0.50170437  0.27505867  1
  O2-  O239  1  0.88022541  0.51554622  0.76757171  1
  O2-  O240  1  0.48356136  0.38872093  0.23405966  1
  O2-  O241  1  0.46905555  0.38764373  0.72854094  1
  O2-  O242  1  0.48416704  0.88489458  0.22316642  1
  O2-  O243  1  0.47551188  0.88464789  0.72790502  1
  O2-  O244  1  0.98526049  0.37102879  0.23676717  1
  O2-  O245  1  0.98076526  0.38137558  0.72706486  1
  O2-  O246  1  0.98906244  0.87939908  0.23576344  1
  O2-  O247  1  0.97312421  0.88599001  0.73550799  1
  O2-  O248  1  0.01654350  0.12257344  0.26250446  1
  O2-  O249  1  0.02714877  0.11377501  0.75595754  1
  O2-  O250  1  0.01198421  0.62789726  0.26395589  1
  O2-  O251  1  0.01788916  0.61813242  0.77469100  1
  O2-  O252  1  0.52908063  0.11200195  0.26974197  1
  O2-  O253  1  0.52552765  0.12137863  0.76169011  1
  O2-  O254  1  0.54063980  0.61679538  0.26637905  1
  O2-  O255  1  0.52621676  0.61607140  0.77117781  1
  O2-  O256  1  0.13273156  0.48169319  0.03006212  1
  O2-  O257  1  0.13455619  0.48057415  0.52157082  1
  O2-  O258  1  0.12350597  0.98399172  0.01753767  1
  O2-  O259  1  0.11856975  0.97682850  0.50612408  1
  O2-  O260  1  0.64162824  0.49210353  0.03441923  1
  O2-  O261  1  0.61799154  0.48464443  0.50587093  1
  O2-  O262  1  0.63724514  0.97471743  0.02442878  1
  O2-  O263  1  0.63857988  0.97072213  0.51377074  1
  O2-  O264  1  0.36418450  0.03215348  -0.01306638  1
  O2-  O265  1  0.36001328  0.01094867  0.47434066  1
  O2-  O266  1  0.36574422  0.51666856  -0.02456518  1
  O2-  O267  1  0.37688609  0.51185639  0.47593948  1
  O2-  O268  1  0.88375857  0.01640110  -0.00909625  1
  O2-  O269  1  0.88262178  0.00889163  0.47174212  1
  O2-  O270  1  0.86516912  0.53845064  -0.01285821  1
  O2-  O271  1  0.86456352  0.52560026  0.47867769  1
  O2-  O272  1  0.47619705  0.36893053  0.02614503  1
  O2-  O273  1  0.47902486  0.38214100  0.50851940  1
  O2-  O274  1  0.48641650  0.86861330  0.02451981  1
  O2-  O275  1  0.47639091  0.86359746  0.52101173  1
  O2-  O276  1  0.98722167  0.36198158  0.02899151  1
  O2-  O277  1  0.97060148  0.36346514  0.51612851  1
  O2-  O278  1  0.98474625  0.88159468  0.01967718  1
  O2-  O279  1  0.98359723  0.87556731  0.50145159  1
  O2-  O280  1  0.02410801  0.11907252  -0.00916985  1
  O2-  O281  1  0.01780506  0.11634372  0.48555755  1
  O2-  O282  1  0.02686492  0.63808269  -0.00813579  1
  O2-  O283  1  0.02042361  0.63512277  0.47726996  1
  O2-  O284  1  0.53544499  0.13718726  -0.01693156  1
  O2-  O285  1  0.52836323  0.13204999  0.47988296  1
  O2-  O286  1  0.52318046  0.63702248  -0.02553326  1
  O2-  O287  1  0.50586050  0.62230205  0.47848541  1
  O2-  O288  1  0.12504672  0.25176229  0.01765466  1
  O2-  O289  1  0.11087584  0.26898207  0.50459028  1
  O2-  O290  1  0.11398835  0.78404654  -0.01443980  1
  O2-  O291  1  0.12489780  0.76659997  0.47494037  1
  O2-  O292  1  0.61881349  0.28736204  0.00555647  1
  O2-  O293  1  0.61779320  0.27653685  0.50303746  1
  O2-  O294  1  0.63797156  0.77473530  -0.01400879  1
  O2-  O295  1  0.61141555  0.76507553  0.46718032  1
  O2-  O296  1  0.36592603  0.22867168  0.00586006  1
  O2-  O297  1  0.38183333  0.22549774  0.49326247  1
  O2-  O298  1  0.38290345  0.72823665  0.02649780  1
  O2-  O299  1  0.36255812  0.73537094  0.51502448  1
  O2-  O300  1  0.88900320  0.21959648  -0.00469048  1
  O2-  O301  1  0.88410026  0.23173745  0.46488621  1
  O2-  O302  1  0.88043014  0.74291392  0.02422731  1
  O2-  O303  1  0.88666954  0.73272898  0.52260332  1
  O2-  O304  1  0.25703513  0.36299804  -0.01213867  1
  O2-  O305  1  0.26436682  0.38238360  0.46748765  1
  O2-  O306  1  0.27227381  0.88985789  -0.01506402  1
  O2-  O307  1  0.25606276  0.87308930  0.47545958  1
  O2-  O308  1  0.78297445  0.38812524  -0.01362165  1
  O2-  O309  1  0.75905190  0.38615880  0.46808794  1
  O2-  O310  1  0.77769226  0.87507862  -0.00267994  1
  O2-  O311  1  0.77119695  0.88148518  0.46615477  1
  O2-  O312  1  0.23166362  0.12318373  0.02960396  1
  O2-  O313  1  0.22332310  0.11068904  0.51452459  1
  O2-  O314  1  0.23237533  0.61797587  0.03061929  1
  O2-  O315  1  0.22892268  0.63275034  0.51235953  1
  O2-  O316  1  0.73998749  0.11199887  0.03191870  1
  O2-  O317  1  0.74015004  0.10862094  0.50355438  1
  O2-  O318  1  0.73662148  0.63589821  0.02086764  1
  O2-  O319  1  0.72038563  0.61545672  0.51401471  1
