# generated using pymatgen
data_Sr64Ca21Nb43O192
_symmetry_space_group_name_H-M   'P 1'
_cell_length_a   16.54093088
_cell_length_b   16.56662086
_cell_length_c   16.71281812
_cell_angle_alpha   90.01096112
_cell_angle_beta   89.98350029
_cell_angle_gamma   90.03189537
_symmetry_Int_Tables_number   1
_chemical_formula_structural   Sr64Ca21Nb43O192
_chemical_formula_sum   'Sr64 Ca21 Nb43 O192'
_cell_volume   4579.76795156
_cell_formula_units_Z   1
loop_
 _symmetry_equiv_pos_site_id
 _symmetry_equiv_pos_as_xyz
  1  'x, y, z'
loop_
 _atom_type_symbol
 _atom_type_oxidation_number
  Sr2+  2.0
  Ca2+  2.0
  Nb5+  5.0
  O2-  -2.0
loop_
 _atom_site_type_symbol
 _atom_site_label
 _atom_site_symmetry_multiplicity
 _atom_site_fract_x
 _atom_site_fract_y
 _atom_site_fract_z
 _atom_site_occupancy
  Sr2+  Sr0  1  0.12897329  0.12755752  0.12096047  1
  Sr2+  Sr1  1  0.12258717  0.12768818  0.63109720  1
  Sr2+  Sr2  1  0.12785340  0.61935928  0.12962408  1
  Sr2+  Sr3  1  0.12576933  0.62155075  0.62456350  1
  Sr2+  Sr4  1  0.62691844  0.12537854  0.12089387  1
  Sr2+  Sr5  1  0.62875371  0.13510724  0.61908571  1
  Sr2+  Sr6  1  0.62509370  0.61955856  0.12458037  1
  Sr2+  Sr7  1  0.62586815  0.62477466  0.62295755  1
  Sr2+  Sr8  1  0.37570000  0.37593694  0.12552507  1
  Sr2+  Sr9  1  0.37863696  0.34898169  0.62978545  1
  Sr2+  Sr10  1  0.38629901  0.87428087  0.12405653  1
  Sr2+  Sr11  1  0.37677398  0.87638024  0.62517667  1
  Sr2+  Sr12  1  0.87850162  0.39767658  0.12146681  1
  Sr2+  Sr13  1  0.87989224  0.36077772  0.63345230  1
  Sr2+  Sr14  1  0.88432246  0.87126148  0.12648162  1
  Sr2+  Sr15  1  0.88120855  0.87210215  0.61816006  1
  Sr2+  Sr16  1  0.14741900  0.37482779  0.37349791  1
  Sr2+  Sr17  1  0.13663955  0.36849335  0.88163350  1
  Sr2+  Sr18  1  0.13699415  0.87481854  0.37215093  1
  Sr2+  Sr19  1  0.11331090  0.87741377  0.86771649  1
  Sr2+  Sr20  1  0.64706506  0.37389568  0.38164707  1
  Sr2+  Sr21  1  0.64619253  0.37689372  0.87423540  1
  Sr2+  Sr22  1  0.62213746  0.87669626  0.37080551  1
  Sr2+  Sr23  1  0.62160367  0.86869275  0.86852558  1
  Sr2+  Sr24  1  0.36407421  0.12789585  0.38375927  1
  Sr2+  Sr25  1  0.36030215  0.13015423  0.87202599  1
  Sr2+  Sr26  1  0.37599719  0.61840258  0.37763075  1
  Sr2+  Sr27  1  0.37481970  0.62696683  0.86693761  1
  Sr2+  Sr28  1  0.87424028  0.13708853  0.36911257  1
  Sr2+  Sr29  1  0.87741761  0.13486564  0.88040018  1
  Sr2+  Sr30  1  0.87893060  0.62769117  0.37712417  1
  Sr2+  Sr31  1  0.87129571  0.62605232  0.87091149  1
  Sr2+  Sr32  1  0.11256952  0.13870757  0.37493427  1
  Sr2+  Sr33  1  0.11837673  0.12631992  0.87855102  1
  Sr2+  Sr34  1  0.12116898  0.62259574  0.37781687  1
  Sr2+  Sr35  1  0.12424020  0.62579228  0.87051911  1
  Sr2+  Sr36  1  0.61332662  0.13969074  0.37354126  1
  Sr2+  Sr37  1  0.61572514  0.13300508  0.88077744  1
  Sr2+  Sr38  1  0.62067136  0.62362308  0.37767486  1
  Sr2+  Sr39  1  0.61783241  0.61769295  0.86725788  1
  Sr2+  Sr40  1  0.37863557  0.37705580  0.36782997  1
  Sr2+  Sr41  1  0.37116595  0.37264546  0.87434570  1
  Sr2+  Sr42  1  0.37582948  0.87588609  0.37802197  1
  Sr2+  Sr43  1  0.37730423  0.87384571  0.86937376  1
  Sr2+  Sr44  1  0.88232354  0.37990699  0.37290641  1
  Sr2+  Sr45  1  0.87184140  0.38169959  0.87134347  1
  Sr2+  Sr46  1  0.86760252  0.88467276  0.37370753  1
  Sr2+  Sr47  1  0.87711362  0.87773087  0.87867294  1
  Sr2+  Sr48  1  0.13477210  0.37363835  0.12637128  1
  Sr2+  Sr49  1  0.11694135  0.36509474  0.62700397  1
  Sr2+  Sr50  1  0.12377030  0.86451536  0.12370513  1
  Sr2+  Sr51  1  0.13994983  0.87201676  0.62414853  1
  Sr2+  Sr52  1  0.62706579  0.38013502  0.12026903  1
  Sr2+  Sr53  1  0.63105735  0.36672415  0.63135761  1
  Sr2+  Sr54  1  0.64114151  0.87423146  0.12556473  1
  Sr2+  Sr55  1  0.63915761  0.87273861  0.62306896  1
  Sr2+  Sr56  1  0.38414122  0.12512059  0.11966339  1
  Sr2+  Sr57  1  0.38093461  0.11282344  0.62520466  1
  Sr2+  Sr58  1  0.38193960  0.62742750  0.12779715  1
  Sr2+  Sr59  1  0.37358749  0.63810923  0.62599555  1
  Sr2+  Sr60  1  0.88841388  0.11228932  0.12823944  1
  Sr2+  Sr61  1  0.88129629  0.12624268  0.63289757  1
  Sr2+  Sr62  1  0.89434465  0.63308223  0.12873486  1
  Sr2+  Sr63  1  0.89987545  0.62709914  0.62365886  1
  Ca2+  Ca64  1  0.49677769  0.50018518  0.50310876  1
  Ca2+  Ca65  1  0.49927189  0.49919017  -0.00231251  1
  Ca2+  Ca66  1  0.00031563  0.00391294  0.49727973  1
  Ca2+  Ca67  1  0.00019553  0.49669511  0.49953735  1
  Ca2+  Ca68  1  0.00141909  0.50131272  -0.00272104  1
  Ca2+  Ca69  1  0.75147394  0.25009567  0.00605828  1
  Ca2+  Ca70  1  0.24932434  0.75201007  -0.00158258  1
  Ca2+  Ca71  1  0.74766011  0.74847284  -0.00025217  1
  Ca2+  Ca72  1  0.75597346  0.24695872  0.49824038  1
  Ca2+  Ca73  1  0.24857636  0.24908793  0.50068070  1
  Ca2+  Ca74  1  0.50129234  0.24624266  0.75259760  1
  Ca2+  Ca75  1  0.00184562  0.25068020  0.75603166  1
  Ca2+  Ca76  1  0.49866605  0.74990701  0.25140985  1
  Ca2+  Ca77  1  0.00076739  0.75247819  0.25404029  1
  Ca2+  Ca78  1  0.50113130  0.24915007  0.24911244  1
  Ca2+  Ca79  1  -0.00208119  0.25318095  0.24426691  1
  Ca2+  Ca80  1  0.25290513  0.49621039  0.74542704  1
  Ca2+  Ca81  1  0.25412498  0.00046020  0.24670642  1
  Ca2+  Ca82  1  0.75166418  -0.00145511  0.75252239  1
  Ca2+  Ca83  1  0.24819930  -0.00092911  0.75350089  1
  Ca2+  Ca84  1  -0.00151263  0.75371697  0.74801315  1
  Nb5+  Nb85  1  0.50308306  -0.00017005  0.49499012  1
  Nb5+  Nb86  1  0.50673900  -0.00290317  -0.00482820  1
  Nb5+  Nb87  1  0.00852625  -0.00332751  0.00353278  1
  Nb5+  Nb88  1  0.25039910  0.24876736  0.00053619  1
  Nb5+  Nb89  1  0.75570038  0.74867431  0.49970903  1
  Nb5+  Nb90  1  0.25637520  0.75008529  0.49789554  1
  Nb5+  Nb91  1  0.74693290  0.00839825  0.25296862  1
  Nb5+  Nb92  1  0.25709516  0.50241231  0.24854986  1
  Nb5+  Nb93  1  0.75248200  0.50666062  0.24850024  1
  Nb5+  Nb94  1  0.74879722  0.50393645  0.74009155  1
  Nb5+  Nb95  1  0.50169729  0.75017397  0.74765369  1
  Nb5+  Nb96  1  0.00713483  -0.00317536  0.25107688  1
  Nb5+  Nb97  1  -0.00441352  0.00019523  0.74520765  1
  Nb5+  Nb98  1  0.00873955  0.49772538  0.25115877  1
  Nb5+  Nb99  1  0.00614309  0.49879902  0.75523444  1
  Nb5+  Nb100  1  0.49854758  0.00297859  0.24500738  1
  Nb5+  Nb101  1  0.50592859  -0.00085847  0.74407955  1
  Nb5+  Nb102  1  0.50989330  0.49659358  0.25255481  1
  Nb5+  Nb103  1  0.49705785  0.49666053  0.74561363  1
  Nb5+  Nb104  1  0.24973785  0.24569416  0.25046310  1
  Nb5+  Nb105  1  0.24849851  0.24920949  0.74692356  1
  Nb5+  Nb106  1  0.25470540  0.74940822  0.24679222  1
  Nb5+  Nb107  1  0.24742634  0.75044605  0.75063174  1
  Nb5+  Nb108  1  0.75024618  0.25965949  0.24858000  1
  Nb5+  Nb109  1  0.74705591  0.24283435  0.75422714  1
  Nb5+  Nb110  1  0.74974449  0.75362763  0.24839964  1
  Nb5+  Nb111  1  0.75230796  0.74932675  0.74654739  1
  Nb5+  Nb112  1  -0.00080379  0.24938116  0.50032839  1
  Nb5+  Nb113  1  -0.00499808  0.25201814  1.00435483  1
  Nb5+  Nb114  1  0.00933982  0.75586982  0.49877925  1
  Nb5+  Nb115  1  0.00397655  0.74738168  0.99760984  1
  Nb5+  Nb116  1  0.49666678  0.25463645  0.49943105  1
  Nb5+  Nb117  1  0.49918854  0.25299042  0.99662691  1
  Nb5+  Nb118  1  0.50544816  0.75417046  0.50055452  1
  Nb5+  Nb119  1  0.50091369  0.74820045  0.99946326  1
  Nb5+  Nb120  1  0.25856433  -0.00119138  0.00211788  1
  Nb5+  Nb121  1  0.24656184  -0.00071682  0.49690367  1
  Nb5+  Nb122  1  0.25051526  0.50348728  -0.00109027  1
  Nb5+  Nb123  1  0.24900071  0.49635276  0.50417344  1
  Nb5+  Nb124  1  0.75582523  -0.00206823  -0.00083541  1
  Nb5+  Nb125  1  0.74958177  0.00388379  0.49702745  1
  Nb5+  Nb126  1  0.74938951  0.50380813  -0.00522286  1
  Nb5+  Nb127  1  0.75114629  0.50031606  0.49760905  1
  O2-  O128  1  -0.01792791  -0.01392694  0.12395230  1
  O2-  O129  1  -0.02887802  -0.00092817  0.63205735  1
  O2-  O130  1  0.00704228  0.49543375  0.13189112  1
  O2-  O131  1  0.01447460  0.49183115  0.63607675  1
  O2-  O132  1  0.48508764  -0.00594713  0.12679238  1
  O2-  O133  1  0.48891454  -0.00853191  0.62791949  1
  O2-  O134  1  0.51889804  0.49963868  0.13415985  1
  O2-  O135  1  0.53595558  0.49212805  0.63487276  1
  O2-  O136  1  0.01404456  0.01910068  0.36325609  1
  O2-  O137  1  0.01794743  0.00182487  0.88555152  1
  O2-  O138  1  -0.02313824  0.51077801  0.36442864  1
  O2-  O139  1  -0.03257468  0.51372380  0.86715905  1
  O2-  O140  1  0.51471114  0.00173705  0.37882070  1
  O2-  O141  1  0.52192204  0.00045783  0.88002062  1
  O2-  O142  1  0.47475348  0.50386393  0.36621712  1
  O2-  O143  1  0.48852295  0.52296078  0.86227618  1
  O2-  O144  1  0.23212876  0.24460983  0.11991336  1
  O2-  O145  1  0.22561462  0.24349783  0.63309508  1
  O2-  O146  1  0.25256337  0.72784384  0.13356154  1
  O2-  O147  1  0.25453095  0.75296132  0.61947787  1
  O2-  O148  1  0.71256349  0.24956799  0.13676576  1
  O2-  O149  1  0.73627789  0.24678330  0.63359827  1
  O2-  O150  1  0.73765312  0.73297384  0.13653382  1
  O2-  O151  1  0.73990628  0.74027734  0.62034067  1
  O2-  O152  1  0.27086689  0.26140741  0.36418228  1
  O2-  O153  1  0.26638086  0.26228351  0.87960666  1
  O2-  O154  1  0.25000629  0.75929703  0.37909595  1
  O2-  O155  1  0.24203420  0.73751387  0.86422391  1
  O2-  O156  1  0.77956563  0.26583428  0.36615732  1
  O2-  O157  1  0.76963804  0.26225626  0.86936435  1
  O2-  O158  1  0.75397357  0.76029774  0.38093771  1
  O2-  O159  1  0.74105158  0.75994338  0.86155549  1
  O2-  O160  1  0.03222503  0.25649335  0.11356118  1
  O2-  O161  1  0.00931617  0.25522838  0.62083125  1
  O2-  O162  1  -0.00018343  0.76307303  0.11759374  1
  O2-  O163  1  -0.00706278  0.76809531  0.61562591  1
  O2-  O164  1  0.51669246  0.24795227  0.11221092  1
  O2-  O165  1  0.52374872  0.25618135  0.61702868  1
  O2-  O166  1  0.48064822  0.75430581  0.11431359  1
  O2-  O167  1  0.48609702  0.76142571  0.62417872  1
  O2-  O168  1  0.25600229  -0.02591382  0.38105910  1
  O2-  O169  1  0.22771687  -0.01616214  0.88985404  1
  O2-  O170  1  0.27072156  0.49468716  0.36793013  1
  O2-  O171  1  0.27667728  0.49768499  0.88527319  1
  O2-  O172  1  0.73610455  -0.02492862  0.37111691  1
  O2-  O173  1  0.74122729  -0.03127914  0.88941986  1
  O2-  O174  1  0.76782891  0.49091439  0.37343375  1
  O2-  O175  1  0.76489497  0.50078283  0.87652497  1
  O2-  O176  1  -0.00972149  0.23600940  0.37999588  1
  O2-  O177  1  -0.00293785  0.22745901  0.88876043  1
  O2-  O178  1  -0.00297734  0.73045372  0.38549153  1
  O2-  O179  1  -0.00198100  0.75452825  0.88089987  1
  O2-  O180  1  0.47528864  0.22805799  0.38505535  1
  O2-  O181  1  0.47859147  0.22061465  0.88395457  1
  O2-  O182  1  0.49505528  0.75737681  0.38714816  1
  O2-  O183  1  0.51389551  0.74651233  0.86669854  1
  O2-  O184  1  0.26147284  0.03261835  0.11524230  1
  O2-  O185  1  0.26693469  0.00735321  0.61416987  1
  O2-  O186  1  0.22757594  0.50397587  0.13151605  1
  O2-  O187  1  0.21436777  0.49495060  0.61345794  1
  O2-  O188  1  0.75288732  0.01691122  0.13355869  1
  O2-  O189  1  0.76028195  0.01392316  0.61220287  1
  O2-  O190  1  0.72717910  0.50356426  0.13323554  1
  O2-  O191  1  0.72906042  0.50739638  0.62388653  1
  O2-  O192  1  0.13533387  0.28002049  0.25714327  1
  O2-  O193  1  0.13472054  0.28388966  0.76257922  1
  O2-  O194  1  0.13747916  0.77320697  0.25606633  1
  O2-  O195  1  0.13449086  0.77598982  0.74214128  1
  O2-  O196  1  0.63527953  0.26362657  0.28394693  1
  O2-  O197  1  0.63398456  0.28177440  0.76312686  1
  O2-  O198  1  0.63331232  0.76696621  0.26551562  1
  O2-  O199  1  0.62096338  0.76904714  0.73620683  1
  O2-  O200  1  0.36374721  0.23612451  0.22087200  1
  O2-  O201  1  0.36704755  0.22162736  0.72910736  1
  O2-  O202  1  0.36557544  0.71121636  0.26120122  1
  O2-  O203  1  0.38038620  0.72894709  0.75481167  1
  O2-  O204  1  0.85967481  0.22122953  0.22670400  1
  O2-  O205  1  0.86548483  0.23299867  0.73771265  1
  O2-  O206  1  0.86277933  0.71968894  0.25420004  1
  O2-  O207  1  0.86288350  0.71764272  0.74583118  1
  O2-  O208  1  0.26745411  0.38154361  0.24090110  1
  O2-  O209  1  0.28472410  0.36477726  0.74734492  1
  O2-  O210  1  0.28480562  0.86189308  0.23910492  1
  O2-  O211  1  0.28146412  0.86443897  0.74591218  1
  O2-  O212  1  0.76587613  0.37781798  0.23998937  1
  O2-  O213  1  0.76673445  0.38635191  0.74438600  1
  O2-  O214  1  0.77005720  0.86919103  0.23836284  1
  O2-  O215  1  0.77170078  0.86282361  0.72870389  1
  O2-  O216  1  0.22127706  0.13425477  0.26264402  1
  O2-  O217  1  0.22775349  0.13418480  0.77222825  1
  O2-  O218  1  0.22169543  0.61797558  0.26117033  1
  O2-  O219  1  0.23771211  0.63253616  0.73380125  1
  O2-  O220  1  0.72791450  0.12031886  0.26980684  1
  O2-  O221  1  0.71883867  0.13181295  0.76495166  1
  O2-  O222  1  0.72300047  0.61862516  0.26453551  1
  O2-  O223  1  0.72094261  0.62496016  0.75194568  1
  O2-  O224  1  0.12303792  0.47697921  0.26396016  1
  O2-  O225  1  0.11716983  0.48306875  0.78323963  1
  O2-  O226  1  0.11810552  0.96685757  0.23813224  1
  O2-  O227  1  0.11299625  0.96958772  0.73556242  1
  O2-  O228  1  0.62542072  0.47466148  0.26968193  1
  O2-  O229  1  0.62988404  0.48825843  0.77222191  1
  O2-  O230  1  0.62820136  0.97199324  0.24214450  1
  O2-  O231  1  0.61732524  0.96086465  0.74537432  1
  O2-  O232  1  0.38911689  0.03658645  0.26295952  1
  O2-  O233  1  0.39025361  0.01485947  0.77105890  1
  O2-  O234  1  0.37008359  0.52119584  0.23118909  1
  O2-  O235  1  0.38755924  0.52544947  0.72257074  1
  O2-  O236  1  0.86522548  0.01802467  0.26247871  1
  O2-  O237  1  0.88279871  0.03211147  0.77591591  1
  O2-  O238  1  0.86504121  0.52299606  0.23301448  1
  O2-  O239  1  0.86328691  0.52806546  0.73561208  1
  O2-  O240  1  0.47338428  0.38328490  0.24663495  1
  O2-  O241  1  0.47583614  0.38369386  0.75683201  1
  O2-  O242  1  0.47727985  0.88667577  0.25848230  1
  O2-  O243  1  0.47844811  0.87049789  0.75647005  1
  O2-  O244  1  0.96597633  0.38608666  0.24902616  1
  O2-  O245  1  0.96838611  0.38562236  0.75593238  1
  O2-  O246  1  0.96644054  0.88562885  0.26016042  1
  O2-  O247  1  0.96699087  0.88605227  0.76393940  1
  O2-  O248  1  0.01421883  0.11329090  0.22582140  1
  O2-  O249  1  0.02928300  0.11533376  0.74862008  1
  O2-  O250  1  0.01982681  0.61657570  0.24029783  1
  O2-  O251  1  0.02109744  0.61868591  0.74258316  1
  O2-  O252  1  0.53825472  0.11355893  0.24236913  1
  O2-  O253  1  0.53437758  0.11081279  0.74085603  1
  O2-  O254  1  0.52417019  0.61563815  0.25126605  1
  O2-  O255  1  0.52038165  0.63256817  0.73631082  1
  O2-  O256  1  0.13625587  0.46843415  -0.00699601  1
  O2-  O257  1  0.13659701  0.49577760  0.46409005  1
  O2-  O258  1  0.12267963  0.98386311  0.02403609  1
  O2-  O259  1  0.13557410  0.96967572  0.50685687  1
  O2-  O260  1  0.63361940  0.46715994  -0.00569076  1
  O2-  O261  1  0.63409795  0.49802292  0.47377260  1
  O2-  O262  1  0.61974043  0.97917478  0.01781992  1
  O2-  O263  1  0.62129237  0.97144523  0.50751305  1
  O2-  O264  1  0.37396344  0.01902718  -0.01749912  1
  O2-  O265  1  0.38308616  0.01666911  0.49001526  1
  O2-  O266  1  0.36385721  0.51152106  0.03339888  1
  O2-  O267  1  0.35873224  0.53914758  0.51195948  1
  O2-  O268  1  0.87096075  0.02024602  -0.00776686  1
  O2-  O269  1  0.86128778  0.01507204  0.47198280  1
  O2-  O270  1  0.86152503  0.52910757  0.02514461  1
  O2-  O271  1  0.86116641  0.53767330  0.50874630  1
  O2-  O272  1  0.47037065  0.36408746  -0.00802584  1
  O2-  O273  1  0.46900273  0.36617633  0.49438074  1
  O2-  O274  1  0.47136666  0.88306850  -0.00564476  1
  O2-  O275  1  0.47695186  0.87817604  0.50201088  1
  O2-  O276  1  0.97311509  0.36472996  -0.00808596  1
  O2-  O277  1  0.95841859  0.36430656  0.50124929  1
  O2-  O278  1  0.97217610  0.88210068  -0.00466610  1
  O2-  O279  1  0.97073440  0.86758182  0.48474725  1
  O2-  O280  1  0.01529039  0.11540946  0.01513460  1
  O2-  O281  1  0.04245324  0.13410387  0.50851046  1
  O2-  O282  1  0.03722887  0.63580665  0.00172637  1
  O2-  O283  1  0.01889904  0.63646787  0.51790759  1
  O2-  O284  1  0.51323711  0.11470747  0.01172856  1
  O2-  O285  1  0.52194972  0.11475938  0.51226463  1
  O2-  O286  1  0.52478123  0.63613044  0.00302788  1
  O2-  O287  1  0.51741370  0.63885875  0.50815710  1
  O2-  O288  1  0.13064409  0.25924293  -0.01626878  1
  O2-  O289  1  0.11580139  0.28896325  0.48962185  1
  O2-  O290  1  0.11682055  0.79047228  -0.00504260  1
  O2-  O291  1  0.12590137  0.77852328  0.49767522  1
  O2-  O292  1  0.61315720  0.26253360  -0.02753583  1
  O2-  O293  1  0.61517244  0.26360430  0.47927727  1
  O2-  O294  1  0.61124017  0.78875782  -0.00030470  1
  O2-  O295  1  0.62081174  0.77511175  0.50215740  1
  O2-  O296  1  0.37052215  0.22774607  0.01312255  1
  O2-  O297  1  0.38307058  0.22197201  0.52810440  1
  O2-  O298  1  0.38512749  0.73876545  -0.02861020  1
  O2-  O299  1  0.37240042  0.73213609  0.49688061  1
  O2-  O300  1  0.88506806  0.21965310  0.02106268  1
  O2-  O301  1  0.88529865  0.20615510  0.51084374  1
  O2-  O302  1  0.88381940  0.72617033  -0.00022850  1
  O2-  O303  1  0.86903279  0.73042255  0.50515652  1
  O2-  O304  1  0.26790463  0.36890522  0.00898302  1
  O2-  O305  1  0.27800112  0.38545226  0.50047682  1
  O2-  O306  1  0.27149475  0.88678245  0.02712883  1
  O2-  O307  1  0.27393249  0.87140554  0.50739003  1
  O2-  O308  1  0.77645677  0.38564867  0.00687996  1
  O2-  O309  1  0.76399962  0.38713870  0.51138159  1
  O2-  O310  1  0.76538465  0.88471899  0.03374519  1
  O2-  O311  1  0.76311760  0.87157812  0.51195423  1
  O2-  O312  1  0.23516262  0.12745598  -0.01640909  1
  O2-  O313  1  0.23371770  0.11306837  0.47612022  1
  O2-  O314  1  0.22422870  0.61515494  -0.00332633  1
  O2-  O315  1  0.22387819  0.63587461  0.49818618  1
  O2-  O316  1  0.72189068  0.11115761  -0.00819639  1
  O2-  O317  1  0.71624770  0.11257460  0.48204900  1
  O2-  O318  1  0.71206769  0.61620497  -0.00706169  1
  O2-  O319  1  0.72311231  0.63405498  0.49168424  1
