# generated using pymatgen
data_Sr64Ca21Nb43O192
_symmetry_space_group_name_H-M   'P 1'
_cell_length_a   16.56974524
_cell_length_b   16.57070448
_cell_length_c   16.72147775
_cell_angle_alpha   89.99834317
_cell_angle_beta   89.99561758
_cell_angle_gamma   89.92306603
_symmetry_Int_Tables_number   1
_chemical_formula_structural   Sr64Ca21Nb43O192
_chemical_formula_sum   'Sr64 Ca21 Nb43 O192'
_cell_volume   4591.25131460
_cell_formula_units_Z   1
loop_
 _symmetry_equiv_pos_site_id
 _symmetry_equiv_pos_as_xyz
  1  'x, y, z'
loop_
 _atom_type_symbol
 _atom_type_oxidation_number
  Sr2+  2.0
  Ca2+  2.0
  Nb5+  5.0
  O2-  -2.0
loop_
 _atom_site_type_symbol
 _atom_site_label
 _atom_site_symmetry_multiplicity
 _atom_site_fract_x
 _atom_site_fract_y
 _atom_site_fract_z
 _atom_site_occupancy
  Sr2+  Sr0  1  0.13327240  0.11583896  0.12117862  1
  Sr2+  Sr1  1  0.12851430  0.11796753  0.62459971  1
  Sr2+  Sr2  1  0.12491727  0.61587414  0.13127396  1
  Sr2+  Sr3  1  0.13532974  0.62267351  0.62272865  1
  Sr2+  Sr4  1  0.61815418  0.10762449  0.13037217  1
  Sr2+  Sr5  1  0.62094208  0.12715398  0.63097198  1
  Sr2+  Sr6  1  0.63106756  0.62786262  0.12945846  1
  Sr2+  Sr7  1  0.61943521  0.61669436  0.62216397  1
  Sr2+  Sr8  1  0.37084296  0.39800923  0.12620240  1
  Sr2+  Sr9  1  0.37788734  0.38720151  0.62560268  1
  Sr2+  Sr10  1  0.37232857  0.85895342  0.12326622  1
  Sr2+  Sr11  1  0.36884208  0.85563611  0.62558403  1
  Sr2+  Sr12  1  0.86373320  0.38456576  0.13704616  1
  Sr2+  Sr13  1  0.89037501  0.38067541  0.62436699  1
  Sr2+  Sr14  1  0.87446641  0.86213988  0.12801860  1
  Sr2+  Sr15  1  0.87168613  0.86913862  0.62318332  1
  Sr2+  Sr16  1  0.11584921  0.36939958  0.37508738  1
  Sr2+  Sr17  1  0.11247831  0.36784665  0.87142144  1
  Sr2+  Sr18  1  0.11925142  0.87765107  0.36868995  1
  Sr2+  Sr19  1  0.11444399  0.88460857  0.87836130  1
  Sr2+  Sr20  1  0.65332008  0.37842968  0.37709384  1
  Sr2+  Sr21  1  0.64871559  0.37113021  0.87435693  1
  Sr2+  Sr22  1  0.64407511  0.88146392  0.37538508  1
  Sr2+  Sr23  1  0.63191530  0.88385745  0.87702106  1
  Sr2+  Sr24  1  0.37211987  0.13352827  0.36798634  1
  Sr2+  Sr25  1  0.37640136  0.12993572  0.87658535  1
  Sr2+  Sr26  1  0.38162064  0.61920546  0.36754361  1
  Sr2+  Sr27  1  0.37697509  0.62089260  0.89326686  1
  Sr2+  Sr28  1  0.87414125  0.12969616  0.37576514  1
  Sr2+  Sr29  1  0.86988253  0.12814349  0.86943877  1
  Sr2+  Sr30  1  0.87188463  0.63004289  0.36269809  1
  Sr2+  Sr31  1  0.87076558  0.62293778  0.89597723  1
  Sr2+  Sr32  1  0.12190735  0.12350495  0.37570467  1
  Sr2+  Sr33  1  0.12547915  0.13181556  0.87748958  1
  Sr2+  Sr34  1  0.11429424  0.61775607  0.37351760  1
  Sr2+  Sr35  1  0.11142694  0.60540794  0.88052916  1
  Sr2+  Sr36  1  0.63384344  0.14490621  0.36852889  1
  Sr2+  Sr37  1  0.62547371  0.12895501  0.87873883  1
  Sr2+  Sr38  1  0.63833478  0.62219972  0.38201303  1
  Sr2+  Sr39  1  0.64174121  0.62863298  0.87918656  1
  Sr2+  Sr40  1  0.37715713  0.37531166  0.35924502  1
  Sr2+  Sr41  1  0.37416885  0.37345905  0.87737945  1
  Sr2+  Sr42  1  0.36757565  0.87752886  0.36889650  1
  Sr2+  Sr43  1  0.37292488  0.88256651  0.88101492  1
  Sr2+  Sr44  1  0.87233744  0.36489310  0.38063524  1
  Sr2+  Sr45  1  0.87848125  0.40012778  0.86930919  1
  Sr2+  Sr46  1  0.88232226  0.86764174  0.37452137  1
  Sr2+  Sr47  1  0.86997184  0.85648107  0.87205598  1
  Sr2+  Sr48  1  0.13042206  0.37465026  0.11637977  1
  Sr2+  Sr49  1  0.13423278  0.36948863  0.62554743  1
  Sr2+  Sr50  1  0.12623778  0.86546434  0.12541276  1
  Sr2+  Sr51  1  0.12855649  0.87191071  0.62160318  1
  Sr2+  Sr52  1  0.62517254  0.37966511  0.13861290  1
  Sr2+  Sr53  1  0.61415605  0.37896766  0.62202198  1
  Sr2+  Sr54  1  0.60811879  0.86656029  0.12295563  1
  Sr2+  Sr55  1  0.61051300  0.86954281  0.63531118  1
  Sr2+  Sr56  1  0.38057871  0.12765456  0.12583568  1
  Sr2+  Sr57  1  0.37764211  0.12498193  0.62223857  1
  Sr2+  Sr58  1  0.39648370  0.62571889  0.12757695  1
  Sr2+  Sr59  1  0.38752930  0.62120559  0.61821291  1
  Sr2+  Sr60  1  0.86589509  0.11816263  0.13191638  1
  Sr2+  Sr61  1  0.87276652  0.11141338  0.62366142  1
  Sr2+  Sr62  1  0.87179077  0.63009553  0.12484958  1
  Sr2+  Sr63  1  0.87304463  0.63247378  0.63461902  1
  Ca2+  Ca64  1  0.50379941  0.49541838  -0.00072419  1
  Ca2+  Ca65  1  0.00145705  0.50114915  0.50014910  1
  Ca2+  Ca66  1  0.00020772  0.49462630  0.00528730  1
  Ca2+  Ca67  1  -0.00248864  0.00191451  -0.00327771  1
  Ca2+  Ca68  1  0.50036027  0.00045743  0.50007146  1
  Ca2+  Ca69  1  0.75067413  0.24967905  0.50893655  1
  Ca2+  Ca70  1  0.74937099  0.75311868  0.50266350  1
  Ca2+  Ca71  1  0.24697387  0.74966986  -0.00073530  1
  Ca2+  Ca72  1  0.74617874  0.75341500  0.00045272  1
  Ca2+  Ca73  1  0.74956249  0.24899666  0.00121055  1
  Ca2+  Ca74  1  0.74678894  0.49890691  0.74614822  1
  Ca2+  Ca75  1  0.75352804  0.50331986  0.25370053  1
  Ca2+  Ca76  1  0.50008512  0.75074649  0.25562888  1
  Ca2+  Ca77  1  0.25161647  0.50237346  0.75202052  1
  Ca2+  Ca78  1  0.25004003  0.00120970  0.24977438  1
  Ca2+  Ca79  1  0.49548779  0.74744685  0.75284409  1
  Ca2+  Ca80  1  0.00540896  0.75210490  0.74842177  1
  Ca2+  Ca81  1  0.50120295  0.24953639  0.24747728  1
  Ca2+  Ca82  1  0.24881016  0.50113038  0.25341675  1
  Ca2+  Ca83  1  0.75113749  0.00030721  0.25114929  1
  Ca2+  Ca84  1  0.00307447  0.24776845  0.24657966  1
  Nb5+  Nb85  1  0.49780261  -0.00060037  0.00057037  1
  Nb5+  Nb86  1  0.50078596  0.49805714  0.49557776  1
  Nb5+  Nb87  1  0.00114615  0.00043650  0.49903612  1
  Nb5+  Nb88  1  0.25158364  0.25039051  -0.00640825  1
  Nb5+  Nb89  1  0.24708729  0.74367493  0.49710755  1
  Nb5+  Nb90  1  0.25128303  0.24726361  0.49627863  1
  Nb5+  Nb91  1  0.50171725  0.25041577  0.75369958  1
  Nb5+  Nb92  1  0.00357009  0.24602368  0.74775420  1
  Nb5+  Nb93  1  0.24515105  -0.00140474  0.74973138  1
  Nb5+  Nb94  1  0.00211128  0.75051145  0.24829213  1
  Nb5+  Nb95  1  0.74452883  0.00049592  0.74900190  1
  Nb5+  Nb96  1  -0.00051626  0.00017663  0.24191608  1
  Nb5+  Nb97  1  -0.00605210  0.00064043  0.74977860  1
  Nb5+  Nb98  1  -0.00130757  0.49366390  0.25554896  1
  Nb5+  Nb99  1  0.00256563  0.50494897  0.74246467  1
  Nb5+  Nb100  1  0.50246831  -0.00679191  0.25971568  1
  Nb5+  Nb101  1  0.49052703  0.00173291  0.75016745  1
  Nb5+  Nb102  1  0.50559986  0.50199517  0.24978234  1
  Nb5+  Nb103  1  0.49975434  0.50132983  0.75606669  1
  Nb5+  Nb104  1  0.24905100  0.25006975  0.23847839  1
  Nb5+  Nb105  1  0.25386650  0.24582789  0.74531347  1
  Nb5+  Nb106  1  0.24978495  0.74687228  0.24841746  1
  Nb5+  Nb107  1  0.24656759  0.74748135  0.75589847  1
  Nb5+  Nb108  1  0.75280907  0.25098887  0.24727086  1
  Nb5+  Nb109  1  0.75889051  0.24967156  0.74637981  1
  Nb5+  Nb110  1  0.74497012  0.75701940  0.25271709  1
  Nb5+  Nb111  1  0.74575567  0.74986857  0.74617973  1
  Nb5+  Nb112  1  0.00049534  0.24680423  0.50315562  1
  Nb5+  Nb113  1  -0.00597243  0.24738279  1.00417685  1
  Nb5+  Nb114  1  0.00429387  0.74748034  0.50186575  1
  Nb5+  Nb115  1  0.00254762  0.74854390  0.99427406  1
  Nb5+  Nb116  1  0.50114418  0.25211885  0.49614420  1
  Nb5+  Nb117  1  0.49937913  0.24874345  0.99971139  1
  Nb5+  Nb118  1  0.49907203  0.75500787  0.49604610  1
  Nb5+  Nb119  1  0.49908514  0.74498244  0.99400629  1
  Nb5+  Nb120  1  0.25195087  0.00053570  0.00272214  1
  Nb5+  Nb121  1  0.25047591  -0.00260698  0.50018048  1
  Nb5+  Nb122  1  0.24818872  0.50410551  -0.00191807  1
  Nb5+  Nb123  1  0.25169097  0.49199306  0.49771073  1
  Nb5+  Nb124  1  0.75573602  0.00304855  0.00082231  1
  Nb5+  Nb125  1  0.74384306  -0.00061096  0.50354606  1
  Nb5+  Nb126  1  0.74772699  0.49568798  0.00250283  1
  Nb5+  Nb127  1  0.75837835  0.50402599  0.50858842  1
  O2-  O128  1  -0.02921367  -0.00946836  0.13178079  1
  O2-  O129  1  -0.01222832  -0.01306300  0.62606746  1
  O2-  O130  1  0.02744826  0.48446460  0.13893504  1
  O2-  O131  1  0.02292488  0.46669388  0.63185773  1
  O2-  O132  1  0.48532444  0.02091302  0.11316257  1
  O2-  O133  1  0.49430730  0.02759975  0.63673904  1
  O2-  O134  1  0.52232500  0.52179151  0.13536117  1
  O2-  O135  1  0.51536781  0.50532089  0.61940926  1
  O2-  O136  1  0.02363055  0.00866455  0.38388415  1
  O2-  O137  1  0.02384415  0.02302219  0.85948397  1
  O2-  O138  1  -0.02167722  0.52621034  0.36971513  1
  O2-  O139  1  -0.01952298  0.51806777  0.86177207  1
  O2-  O140  1  0.51662108  -0.03839199  0.36839634  1
  O2-  O141  1  0.51193057  -0.01591313  0.86893616  1
  O2-  O142  1  0.48016152  0.48249988  0.38047007  1
  O2-  O143  1  0.47102593  0.49032151  0.86603948  1
  O2-  O144  1  0.23997542  0.23553624  0.12151852  1
  O2-  O145  1  0.23809309  0.23400634  0.62911295  1
  O2-  O146  1  0.22414413  0.74090364  0.13624053  1
  O2-  O147  1  0.22386867  0.74867662  0.61657003  1
  O2-  O148  1  0.74346068  0.28124091  0.13280115  1
  O2-  O149  1  0.71405706  0.26129368  0.64051175  1
  O2-  O150  1  0.74516297  0.77156364  0.13400709  1
  O2-  O151  1  0.73449770  0.78543182  0.63306275  1
  O2-  O152  1  0.26116924  0.26104788  0.38260606  1
  O2-  O153  1  0.25781685  0.25587612  0.87318481  1
  O2-  O154  1  0.26038886  0.76831125  0.38210832  1
  O2-  O155  1  0.27487883  0.76085639  0.86483050  1
  O2-  O156  1  0.76346697  0.23384683  0.37205948  1
  O2-  O157  1  0.75088290  0.22295463  0.86037688  1
  O2-  O158  1  0.76299150  0.73755733  0.36933497  1
  O2-  O159  1  0.76554098  0.73326884  0.86421317  1
  O2-  O160  1  0.00366960  0.27968916  0.11239956  1
  O2-  O161  1  0.01843487  0.26542377  0.62547538  1
  O2-  O162  1  0.00745895  0.76834606  0.13081498  1
  O2-  O163  1  0.01392141  0.77478883  0.61345545  1
  O2-  O164  1  0.51180643  0.22198809  0.11084358  1
  O2-  O165  1  0.50601149  0.23820179  0.63306582  1
  O2-  O166  1  0.52026522  0.73253851  0.11551240  1
  O2-  O167  1  0.51091219  0.72724431  0.61232386  1
  O2-  O168  1  0.22783883  -0.00820176  0.38825164  1
  O2-  O169  1  0.23323215  -0.01044120  0.86873857  1
  O2-  O170  1  0.28341504  0.49412174  0.38673653  1
  O2-  O171  1  0.28213050  0.49378743  0.88430688  1
  O2-  O172  1  0.72804079  0.02139307  0.38991421  1
  O2-  O173  1  0.73569614  0.02306341  0.86579035  1
  O2-  O174  1  0.76143258  0.51907918  0.38933887  1
  O2-  O175  1  0.75780869  0.52077798  0.87990401  1
  O2-  O176  1  0.00229456  0.22682337  0.38737015  1
  O2-  O177  1  -0.00529616  0.22210693  0.86251811  1
  O2-  O178  1  -0.00714223  0.74563619  0.37561924  1
  O2-  O179  1  -0.00487852  0.72275680  0.88133098  1
  O2-  O180  1  0.47241738  0.25675906  0.38627572  1
  O2-  O181  1  0.47232645  0.25402142  0.87182237  1
  O2-  O182  1  0.45842675  0.75753761  0.38692137  1
  O2-  O183  1  0.46529789  0.76544764  0.88260337  1
  O2-  O184  1  0.26816306  0.02539131  0.11385551  1
  O2-  O185  1  0.26214560  0.01915300  0.62900325  1
  O2-  O186  1  0.22630233  0.49454572  0.11628133  1
  O2-  O187  1  0.23789091  0.51389653  0.61415779  1
  O2-  O188  1  0.77496292  -0.01334328  0.11290663  1
  O2-  O189  1  0.77303001  -0.01497448  0.63147396  1
  O2-  O190  1  0.73893596  0.47857209  0.11945730  1
  O2-  O191  1  0.71724028  0.48488043  0.61633016  1
  O2-  O192  1  0.13593523  0.28440514  0.25231902  1
  O2-  O193  1  0.12384523  0.25331913  0.75777013  1
  O2-  O194  1  0.12079522  0.77305811  0.26232850  1
  O2-  O195  1  0.13814047  0.79441361  0.75784817  1
  O2-  O196  1  0.63445721  0.27171620  0.26919404  1
  O2-  O197  1  0.61530332  0.25852695  0.77046569  1
  O2-  O198  1  0.63231712  0.78132197  0.26395450  1
  O2-  O199  1  0.63115954  0.77628159  0.76744666  1
  O2-  O200  1  0.36546066  0.22029033  0.24444285  1
  O2-  O201  1  0.36900160  0.22557438  0.74109466  1
  O2-  O202  1  0.36376259  0.72585651  0.23599633  1
  O2-  O203  1  0.35824830  0.73475135  0.71788469  1
  O2-  O204  1  0.87044013  0.22287280  0.23924514  1
  O2-  O205  1  0.87521930  0.23454805  0.72706604  1
  O2-  O206  1  0.88221156  0.73495380  0.24233619  1
  O2-  O207  1  0.86681499  0.75327335  0.73056911  1
  O2-  O208  1  0.28040064  0.36483588  0.24281857  1
  O2-  O209  1  0.25932192  0.36165643  0.73808240  1
  O2-  O210  1  0.27033623  0.86584897  0.24717273  1
  O2-  O211  1  0.27417897  0.88585085  0.73906683  1
  O2-  O212  1  0.77888021  0.36906626  0.26897884  1
  O2-  O213  1  0.76860129  0.36260716  0.76834538  1
  O2-  O214  1  0.77918906  0.87012199  0.26911522  1
  O2-  O215  1  0.76231354  0.88602007  0.77034118  1
  O2-  O216  1  0.22223512  0.13708789  0.26627601  1
  O2-  O217  1  0.23540455  0.12327350  0.76342881  1
  O2-  O218  1  0.22527705  0.63589293  0.27666478  1
  O2-  O219  1  0.21220075  0.63793038  0.76086422  1
  O2-  O220  1  0.72931969  0.13371941  0.22835233  1
  O2-  O221  1  0.74478569  0.12159135  0.72756566  1
  O2-  O222  1  0.73393985  0.63770043  0.23911527  1
  O2-  O223  1  0.73362058  0.63654074  0.72359266  1
  O2-  O224  1  0.11573464  0.49059669  0.28336255  1
  O2-  O225  1  0.11590158  0.48232951  0.77276762  1
  O2-  O226  1  0.11560095  0.97118931  0.23423344  1
  O2-  O227  1  0.12895353  0.98956866  0.73017365  1
  O2-  O228  1  0.61950828  0.47468711  0.26888980  1
  O2-  O229  1  0.61023753  0.46025971  0.75849397  1
  O2-  O230  1  0.61685418  0.97788331  0.22362705  1
  O2-  O231  1  0.62725201  0.99210712  0.73529809  1
  O2-  O232  1  0.38501263  0.01888307  0.27061079  1
  O2-  O233  1  0.37474789  0.01923391  0.76480200  1
  O2-  O234  1  0.38534547  0.52363981  0.23895052  1
  O2-  O235  1  0.38628120  0.50992161  0.72111842  1
  O2-  O236  1  0.88823700  0.02143505  0.27741360  1
  O2-  O237  1  0.87860781  0.01961306  0.76032233  1
  O2-  O238  1  0.88672668  0.52473570  0.22753204  1
  O2-  O239  1  0.88393856  0.49859174  0.72340435  1
  O2-  O240  1  0.47945097  0.38425971  0.23226284  1
  O2-  O241  1  0.47341334  0.36462792  0.74295563  1
  O2-  O242  1  0.47781811  0.88332558  0.21979570  1
  O2-  O243  1  0.48379040  0.88715656  0.72896249  1
  O2-  O244  1  0.97766869  0.38205901  0.27408446  1
  O2-  O245  1  0.98641363  0.36220971  0.76258470  1
  O2-  O246  1  0.98286855  0.87498886  0.26259288  1
  O2-  O247  1  0.98648838  0.88781131  0.76978540  1
  O2-  O248  1  0.03050957  0.11341165  0.23659795  1
  O2-  O249  1  0.00802607  0.12568464  0.72180085  1
  O2-  O250  1  0.02169627  0.63418444  0.24195048  1
  O2-  O251  1  0.01310540  0.61687633  0.71610930  1
  O2-  O252  1  0.52536625  0.11159020  0.26632037  1
  O2-  O253  1  0.51002801  0.12631857  0.76860803  1
  O2-  O254  1  0.52214635  0.61666315  0.28101366  1
  O2-  O255  1  0.52904433  0.61275356  0.76107051  1
  O2-  O256  1  0.13513142  0.47236179  -0.02574003  1
  O2-  O257  1  0.13786922  0.48344115  0.47635016  1
  O2-  O258  1  0.13630550  0.98442770  0.01472114  1
  O2-  O259  1  0.12738269  0.99343498  0.52521379  1
  O2-  O260  1  0.63262737  0.46482769  -0.01065102  1
  O2-  O261  1  0.61676812  0.48367278  0.48221457  1
  O2-  O262  1  0.61530074  0.98228150  0.00806556  1
  O2-  O263  1  0.63543963  0.96902405  0.52320365  1
  O2-  O264  1  0.37429649  0.01430150  -0.02697275  1
  O2-  O265  1  0.36304916  0.02576202  0.48797826  1
  O2-  O266  1  0.36652684  0.51873743  0.02569310  1
  O2-  O267  1  0.37753576  0.50806697  0.51904872  1
  O2-  O268  1  0.86465828  0.03003001  -0.02164538  1
  O2-  O269  1  0.88668127  0.02586612  0.49183337  1
  O2-  O270  1  0.86781608  0.52194728  0.01562964  1
  O2-  O271  1  0.86916479  0.51974197  0.53545095  1
  O2-  O272  1  0.46994269  0.35960081  0.01228031  1
  O2-  O273  1  0.48308405  0.37336330  0.51905836  1
  O2-  O274  1  0.47645563  0.88173979  0.01126314  1
  O2-  O275  1  0.47924210  0.86545583  0.52321087  1
  O2-  O276  1  0.98895430  0.35804442  -0.03701012  1
  O2-  O277  1  0.98728398  0.36259954  0.48484466  1
  O2-  O278  1  0.97563922  0.86768468  -0.02057358  1
  O2-  O279  1  0.99165116  0.88255182  0.48788075  1
  O2-  O280  1  0.03622954  0.13691250  0.00934291  1
  O2-  O281  1  0.02463783  0.12321205  0.51703995  1
  O2-  O282  1  0.02809204  0.63312940  0.01837615  1
  O2-  O283  1  0.03387897  0.63662430  0.51128537  1
  O2-  O284  1  0.50559145  0.11985285  -0.02502578  1
  O2-  O285  1  0.52172631  0.13677367  0.49486545  1
  O2-  O286  1  0.51543190  0.63182563  -0.02840018  1
  O2-  O287  1  0.50536103  0.61823989  0.48501480  1
  O2-  O288  1  0.13341778  0.26747153  -0.00965036  1
  O2-  O289  1  0.13185716  0.26843534  0.49912799  1
  O2-  O290  1  0.11560764  0.78468668  -0.00661835  1
  O2-  O291  1  0.12761454  0.77606536  0.48379065  1
  O2-  O292  1  0.61035847  0.26170408  -0.02656392  1
  O2-  O293  1  0.61384006  0.27458900  0.48566518  1
  O2-  O294  1  0.61167760  0.77744117  -0.01960737  1
  O2-  O295  1  0.61092823  0.76562575  0.47034079  1
  O2-  O296  1  0.36956574  0.22224297  0.00468020  1
  O2-  O297  1  0.36911144  0.23582008  0.51808910  1
  O2-  O298  1  0.38157779  0.73370590  0.02488628  1
  O2-  O299  1  0.36308444  0.73722042  0.52001360  1
  O2-  O300  1  0.88440688  0.21377748  0.00660287  1
  O2-  O301  1  0.88786031  0.22951697  0.52132883  1
  O2-  O302  1  0.88369109  0.73271805  0.01371276  1
  O2-  O303  1  0.88878270  0.73240403  0.51111951  1
  O2-  O304  1  0.27285461  0.36562582  0.00693391  1
  O2-  O305  1  0.26311768  0.37356171  0.51777644  1
  O2-  O306  1  0.27389518  0.88656874  0.00775352  1
  O2-  O307  1  0.26523404  0.88244185  0.51455744  1
  O2-  O308  1  0.77737700  0.38127040  -0.02434895  1
  O2-  O309  1  0.77178330  0.38447261  0.49119668  1
  O2-  O310  1  0.75704430  0.88945533  -0.03021736  1
  O2-  O311  1  0.78504872  0.88955611  0.48747229  1
  O2-  O312  1  0.23556681  0.12555723  -0.01806990  1
  O2-  O313  1  0.23134876  0.13072684  0.49264271  1
  O2-  O314  1  0.22408393  0.61613584  -0.01355632  1
  O2-  O315  1  0.23285508  0.62857739  0.48761769  1
  O2-  O316  1  0.71543044  0.11401616  0.01254404  1
  O2-  O317  1  0.74002984  0.11401365  0.53179855  1
  O2-  O318  1  0.72063193  0.61655512  0.01192609  1
  O2-  O319  1  0.72478289  0.61966285  0.51693675  1
