# generated using pymatgen
data_Sr64Ca21Nb43O192
_symmetry_space_group_name_H-M   'P 1'
_cell_length_a   16.59809882
_cell_length_b   16.59250677
_cell_length_c   16.76546900
_cell_angle_alpha   90.03149809
_cell_angle_beta   90.00328371
_cell_angle_gamma   90.00177563
_symmetry_Int_Tables_number   1
_chemical_formula_structural   Sr64Ca21Nb43O192
_chemical_formula_sum   'Sr64 Ca21 Nb43 O192'
_cell_volume   4617.27764240
_cell_formula_units_Z   1
loop_
 _symmetry_equiv_pos_site_id
 _symmetry_equiv_pos_as_xyz
  1  'x, y, z'
loop_
 _atom_type_symbol
 _atom_type_oxidation_number
  Sr2+  2.0
  Ca2+  2.0
  Nb5+  5.0
  O2-  -2.0
loop_
 _atom_site_type_symbol
 _atom_site_label
 _atom_site_symmetry_multiplicity
 _atom_site_fract_x
 _atom_site_fract_y
 _atom_site_fract_z
 _atom_site_occupancy
  Sr2+  Sr0  1  0.12450006  0.12927505  0.12185850  1
  Sr2+  Sr1  1  0.12378101  0.12866593  0.62794853  1
  Sr2+  Sr2  1  0.11128704  0.60875951  0.12177739  1
  Sr2+  Sr3  1  0.12471329  0.60771142  0.62443142  1
  Sr2+  Sr4  1  0.62199903  0.12951666  0.11804398  1
  Sr2+  Sr5  1  0.62061804  0.12468288  0.63412266  1
  Sr2+  Sr6  1  0.62350953  0.61465620  0.12951290  1
  Sr2+  Sr7  1  0.61345401  0.61716443  0.62547359  1
  Sr2+  Sr8  1  0.37233504  0.37092532  0.13392533  1
  Sr2+  Sr9  1  0.37184261  0.37430307  0.62935578  1
  Sr2+  Sr10  1  0.36640175  0.88785807  0.12234040  1
  Sr2+  Sr11  1  0.36920179  0.86963758  0.63144487  1
  Sr2+  Sr12  1  0.87340932  0.37376815  0.11874634  1
  Sr2+  Sr13  1  0.87813504  0.37641441  0.61809657  1
  Sr2+  Sr14  1  0.85842217  0.87199434  0.11752152  1
  Sr2+  Sr15  1  0.86359090  0.87981341  0.63570575  1
  Sr2+  Sr16  1  0.12906076  0.37681960  0.37229810  1
  Sr2+  Sr17  1  0.13517594  0.37673316  0.88655927  1
  Sr2+  Sr18  1  0.12712051  0.87226364  0.37334086  1
  Sr2+  Sr19  1  0.10280780  0.87859198  0.87973079  1
  Sr2+  Sr20  1  0.63199709  0.38241357  0.37475878  1
  Sr2+  Sr21  1  0.64102952  0.38225124  0.87368587  1
  Sr2+  Sr22  1  0.65293206  0.87914107  0.37899206  1
  Sr2+  Sr23  1  0.64660843  0.87416131  0.87105757  1
  Sr2+  Sr24  1  0.38208606  0.12124924  0.37558470  1
  Sr2+  Sr25  1  0.39040450  0.12989326  0.87831783  1
  Sr2+  Sr26  1  0.38074456  0.63169668  0.37581298  1
  Sr2+  Sr27  1  0.39339159  0.62506800  0.88072025  1
  Sr2+  Sr28  1  0.87902553  0.11862608  0.37541152  1
  Sr2+  Sr29  1  0.88325745  0.11462834  0.87416664  1
  Sr2+  Sr30  1  0.88793345  0.62963742  0.37304274  1
  Sr2+  Sr31  1  0.88221312  0.62828972  0.87235980  1
  Sr2+  Sr32  1  0.13214960  0.11343350  0.37291316  1
  Sr2+  Sr33  1  0.12741961  0.11083988  0.87631378  1
  Sr2+  Sr34  1  0.12616952  0.63570974  0.37034808  1
  Sr2+  Sr35  1  0.13019227  0.63702178  0.88558432  1
  Sr2+  Sr36  1  0.63045737  0.11262354  0.38079359  1
  Sr2+  Sr37  1  0.63579156  0.11210330  0.87703381  1
  Sr2+  Sr38  1  0.63341782  0.63785599  0.38316548  1
  Sr2+  Sr39  1  0.63154748  0.63612495  0.87201617  1
  Sr2+  Sr40  1  0.38677145  0.37566848  0.37117934  1
  Sr2+  Sr41  1  0.38213241  0.38079385  0.88408691  1
  Sr2+  Sr42  1  0.37658319  0.87558582  0.37470422  1
  Sr2+  Sr43  1  0.37937941  0.86524628  0.87520037  1
  Sr2+  Sr44  1  0.88150730  0.37255799  0.37456932  1
  Sr2+  Sr45  1  0.87809481  0.36876182  0.85817307  1
  Sr2+  Sr46  1  0.88128434  0.86491545  0.37324578  1
  Sr2+  Sr47  1  0.87370569  0.88176558  0.87666600  1
  Sr2+  Sr48  1  0.12462704  0.37052416  0.12487998  1
  Sr2+  Sr49  1  0.11875928  0.37181764  0.62659852  1
  Sr2+  Sr50  1  0.11592859  0.87504102  0.11733329  1
  Sr2+  Sr51  1  0.11975855  0.87825168  0.64371203  1
  Sr2+  Sr52  1  0.64574171  0.37419229  0.13192250  1
  Sr2+  Sr53  1  0.65209023  0.37640071  0.62100984  1
  Sr2+  Sr54  1  0.62106403  0.87498873  0.10164498  1
  Sr2+  Sr55  1  0.61765003  0.87484574  0.63399753  1
  Sr2+  Sr56  1  0.36987425  0.13029822  0.13175140  1
  Sr2+  Sr57  1  0.36274433  0.12823039  0.62686203  1
  Sr2+  Sr58  1  0.36112221  0.61862808  0.12336200  1
  Sr2+  Sr59  1  0.36793783  0.62277189  0.62974008  1
  Sr2+  Sr60  1  0.85802316  0.13286520  0.11864809  1
  Sr2+  Sr61  1  0.87028826  0.13674949  0.64036736  1
  Sr2+  Sr62  1  0.85729474  0.61707877  0.12096761  1
  Sr2+  Sr63  1  0.86502591  0.61171933  0.62469064  1
  Ca2+  Ca64  1  -0.00062247  0.00281240  0.00848163  1
  Ca2+  Ca65  1  0.49628650  -0.00057938  -0.00032542  1
  Ca2+  Ca66  1  0.50537359  0.49623601  0.00343306  1
  Ca2+  Ca67  1  -0.00406050  0.49659594  -0.00014152  1
  Ca2+  Ca68  1  0.00171117  0.00043538  0.50239114  1
  Ca2+  Ca69  1  0.75514975  0.75087934  0.50339631  1
  Ca2+  Ca70  1  0.75043858  0.25352626  -0.00501825  1
  Ca2+  Ca71  1  0.75044933  0.24524705  0.49844565  1
  Ca2+  Ca72  1  0.74846666  0.74496432  -0.00038606  1
  Ca2+  Ca73  1  0.25202365  0.75293282  0.00252916  1
  Ca2+  Ca74  1  0.50271381  0.25303919  0.74875997  1
  Ca2+  Ca75  1  0.00228723  0.74469197  0.74752504  1
  Ca2+  Ca76  1  0.75068672  0.49938816  0.25405190  1
  Ca2+  Ca77  1  0.24867331  0.50114761  0.25151711  1
  Ca2+  Ca78  1  0.74867844  0.00016018  0.24694794  1
  Ca2+  Ca79  1  0.49961000  0.75301117  0.25195400  1
  Ca2+  Ca80  1  0.00306028  0.25210317  0.75178819  1
  Ca2+  Ca81  1  0.74949195  -0.00150467  0.74752449  1
  Ca2+  Ca82  1  0.24954608  0.50191640  0.75261123  1
  Ca2+  Ca83  1  0.74836659  0.50440420  0.74774245  1
  Ca2+  Ca84  1  0.25342787  0.00042731  0.75040673  1
  Nb5+  Nb85  1  0.50086545  0.49402480  0.50167691  1
  Nb5+  Nb86  1  0.49837005  -0.00538135  0.50045061  1
  Nb5+  Nb87  1  0.00821316  0.49998531  0.49704277  1
  Nb5+  Nb88  1  0.24912842  0.24928440  0.50021172  1
  Nb5+  Nb89  1  0.25194878  0.24894117  0.00562605  1
  Nb5+  Nb90  1  0.24811256  0.74508528  0.50213901  1
  Nb5+  Nb91  1  0.00302372  0.24282064  0.25040433  1
  Nb5+  Nb92  1  0.24832460  -0.00191038  0.25098155  1
  Nb5+  Nb93  1  0.50014402  0.75050118  0.75086883  1
  Nb5+  Nb94  1  0.50511319  0.24971742  0.25071443  1
  Nb5+  Nb95  1  0.00169710  0.74480573  0.24708940  1
  Nb5+  Nb96  1  -0.00367335  -0.00557982  0.24848360  1
  Nb5+  Nb97  1  0.00169727  0.00024543  0.74843697  1
  Nb5+  Nb98  1  -0.00446858  0.49198121  0.24858291  1
  Nb5+  Nb99  1  0.00250234  0.49774323  0.75729887  1
  Nb5+  Nb100  1  0.49994045  -0.00038888  0.25245364  1
  Nb5+  Nb101  1  0.49528769  -0.00000210  0.75460874  1
  Nb5+  Nb102  1  0.50043427  0.50737274  0.25287096  1
  Nb5+  Nb103  1  0.49745998  0.49603517  0.75096654  1
  Nb5+  Nb104  1  0.25049712  0.24682529  0.25651824  1
  Nb5+  Nb105  1  0.25134545  0.24854246  0.76448561  1
  Nb5+  Nb106  1  0.24895150  0.74850231  0.24589012  1
  Nb5+  Nb107  1  0.25125283  0.74884050  0.75650350  1
  Nb5+  Nb108  1  0.75702509  0.24523218  0.25419333  1
  Nb5+  Nb109  1  0.74601045  0.24912125  0.75044122  1
  Nb5+  Nb110  1  0.74501407  0.75209907  0.25054271  1
  Nb5+  Nb111  1  0.75629060  0.74654909  0.74439014  1
  Nb5+  Nb112  1  0.00273156  0.24782188  0.49427098  1
  Nb5+  Nb113  1  0.00066460  0.24996064  0.99586161  1
  Nb5+  Nb114  1  0.00333359  0.74780534  0.50497544  1
  Nb5+  Nb115  1  -0.00287619  0.75073882  1.00030498  1
  Nb5+  Nb116  1  0.49874096  0.24796248  0.49857745  1
  Nb5+  Nb117  1  0.50574087  0.25662543  0.99842912  1
  Nb5+  Nb118  1  0.49926869  0.74837580  0.49935521  1
  Nb5+  Nb119  1  0.50195659  0.74454726  1.00872674  1
  Nb5+  Nb120  1  0.25623770  0.00148805  -0.00682860  1
  Nb5+  Nb121  1  0.25039373  -0.00696117  0.49735217  1
  Nb5+  Nb122  1  0.24809857  0.50397143  0.00125390  1
  Nb5+  Nb123  1  0.25595645  0.49479109  0.49390247  1
  Nb5+  Nb124  1  0.74901695  0.00058795  0.00107419  1
  Nb5+  Nb125  1  0.75881503  0.00573117  0.50367529  1
  Nb5+  Nb126  1  0.75090413  0.49900071  -0.00389742  1
  Nb5+  Nb127  1  0.75898846  0.50269669  0.49406816  1
  O2-  O128  1  0.03875064  0.01082257  0.14184133  1
  O2-  O129  1  0.03220257  0.01306052  0.63324918  1
  O2-  O130  1  -0.02429796  0.51709592  0.13882753  1
  O2-  O131  1  -0.01437523  0.51976164  0.61043076  1
  O2-  O132  1  0.51704682  0.01581405  0.14021922  1
  O2-  O133  1  0.51571425  0.01333405  0.61386979  1
  O2-  O134  1  0.48404367  0.52680734  0.13984261  1
  O2-  O135  1  0.47349832  0.51408511  0.61430370  1
  O2-  O136  1  -0.02161458  -0.01079231  0.36558364  1
  O2-  O137  1  -0.01803806  -0.01362558  0.87027854  1
  O2-  O138  1  0.01675095  0.48222586  0.37702377  1
  O2-  O139  1  0.00890208  0.46504503  0.86643904  1
  O2-  O140  1  0.47229194  -0.00234149  0.38025418  1
  O2-  O141  1  0.46593680  -0.01226153  0.86436374  1
  O2-  O142  1  0.50998675  0.48262694  0.38302571  1
  O2-  O143  1  0.51641431  0.48600979  0.86274310  1
  O2-  O144  1  0.25984933  0.26040736  0.12535813  1
  O2-  O145  1  0.26089548  0.27056180  0.61172599  1
  O2-  O146  1  0.24470630  0.78690231  0.13832746  1
  O2-  O147  1  0.23465083  0.77809237  0.61232343  1
  O2-  O148  1  0.76644694  0.27202978  0.13581251  1
  O2-  O149  1  0.78150555  0.26369968  0.63065760  1
  O2-  O150  1  0.73448478  0.77776096  0.13578379  1
  O2-  O151  1  0.73838712  0.78276029  0.63278991  1
  O2-  O152  1  0.23274116  0.23242031  0.37008132  1
  O2-  O153  1  0.23591083  0.23041202  0.87818704  1
  O2-  O154  1  0.26294578  0.73886871  0.37742015  1
  O2-  O155  1  0.27170565  0.72246255  0.86526786  1
  O2-  O156  1  0.74435232  0.21231477  0.36531656  1
  O2-  O157  1  0.71092371  0.24102763  0.86421270  1
  O2-  O158  1  0.77260997  0.72655020  0.36699469  1
  O2-  O159  1  0.75935623  0.72355325  0.86328056  1
  O2-  O160  1  -0.00751528  0.22738479  0.13534595  1
  O2-  O161  1  -0.00110498  0.23736460  0.60961413  1
  O2-  O162  1  0.03066000  0.73812211  0.13539022  1
  O2-  O163  1  0.03621973  0.73082156  0.61266318  1
  O2-  O164  1  0.48731894  0.22884555  0.13609355  1
  O2-  O165  1  0.47022241  0.23934150  0.60882926  1
  O2-  O166  1  0.52705482  0.73339278  0.11940374  1
  O2-  O167  1  0.51021234  0.74457426  0.61939615  1
  O2-  O168  1  0.26757435  0.02256963  0.37479464  1
  O2-  O169  1  0.27386546  0.03055346  0.88491017  1
  O2-  O170  1  0.22268150  0.52231865  0.38553475  1
  O2-  O171  1  0.21748400  0.51007727  0.88528841  1
  O2-  O172  1  0.75735265  0.02355703  0.38401205  1
  O2-  O173  1  0.76544250  0.01960692  0.88166524  1
  O2-  O174  1  0.71877433  0.51804147  0.38571531  1
  O2-  O175  1  0.72655489  0.51708832  0.88101748  1
  O2-  O176  1  0.01450572  0.27406454  0.36825092  1
  O2-  O177  1  0.01232824  0.27783561  0.88680230  1
  O2-  O178  1  -0.00792703  0.75677834  0.37233021  1
  O2-  O179  1  -0.02422661  0.76503042  0.88727721  1
  O2-  O180  1  0.49723693  0.26606232  0.37398451  1
  O2-  O181  1  0.51088493  0.28333473  0.88719015  1
  O2-  O182  1  0.47017678  0.75805041  0.38745521  1
  O2-  O183  1  0.48011969  0.75573492  0.86462008  1
  O2-  O184  1  0.23443349  -0.01702915  0.13671527  1
  O2-  O185  1  0.23299112  -0.01223327  0.61027574  1
  O2-  O186  1  0.27514401  0.48256452  0.11726317  1
  O2-  O187  1  0.26189226  0.48493211  0.60995611  1
  O2-  O188  1  0.72658315  -0.02331637  0.11616070  1
  O2-  O189  1  0.73317265  -0.02750218  0.61282763  1
  O2-  O190  1  0.76588661  0.47783378  0.11908438  1
  O2-  O191  1  0.76864889  0.48008153  0.61135539  1
  O2-  O192  1  0.12321120  0.25772805  0.23735683  1
  O2-  O193  1  0.13836005  0.27403355  0.73837862  1
  O2-  O194  1  0.12751003  0.76438155  0.27064916  1
  O2-  O195  1  0.13816508  0.77207912  0.77109925  1
  O2-  O196  1  0.61977639  0.25915207  0.24557305  1
  O2-  O197  1  0.63171809  0.26222277  0.71091982  1
  O2-  O198  1  0.63419852  0.76329823  0.27972448  1
  O2-  O199  1  0.61742784  0.77157344  0.75790117  1
  O2-  O200  1  0.36732538  0.23441309  0.25907684  1
  O2-  O201  1  0.36766964  0.22247300  0.75976161  1
  O2-  O202  1  0.36368303  0.72509952  0.24231409  1
  O2-  O203  1  0.37935974  0.73623554  0.72723820  1
  O2-  O204  1  0.87793015  0.23669969  0.26405701  1
  O2-  O205  1  0.86516606  0.23178578  0.77759285  1
  O2-  O206  1  0.88654812  0.74078795  0.23298667  1
  O2-  O207  1  0.86838452  0.72426302  0.72616024  1
  O2-  O208  1  0.25624850  0.36282058  0.26595195  1
  O2-  O209  1  0.27840802  0.36455383  0.76721275  1
  O2-  O210  1  0.26247165  0.88157508  0.27419353  1
  O2-  O211  1  0.27990093  0.86422626  0.75584232  1
  O2-  O212  1  0.75267272  0.36093414  0.27998310  1
  O2-  O213  1  0.75718057  0.36952003  0.76540628  1
  O2-  O214  1  0.77446512  0.86698687  0.27226366  1
  O2-  O215  1  0.76949802  0.86424627  0.77260718  1
  O2-  O216  1  0.23406615  0.12586224  0.23468083  1
  O2-  O217  1  0.23348571  0.13630589  0.72449634  1
  O2-  O218  1  0.22468815  0.63731996  0.22540845  1
  O2-  O219  1  0.23796238  0.63977823  0.71471780  1
  O2-  O220  1  0.73485880  0.13389335  0.21772565  1
  O2-  O221  1  0.73435830  0.13092690  0.73060295  1
  O2-  O222  1  0.74284474  0.63471086  0.22492736  1
  O2-  O223  1  0.72012735  0.63627724  0.72361756  1
  O2-  O224  1  0.11298034  0.48456036  0.23606975  1
  O2-  O225  1  0.11484982  0.48622474  0.71994949  1
  O2-  O226  1  0.13110616  0.99356865  0.27778346  1
  O2-  O227  1  0.12115456  0.97929677  0.77266380  1
  O2-  O228  1  0.61229061  0.47286008  0.24179165  1
  O2-  O229  1  0.60944243  0.48949398  0.71465909  1
  O2-  O230  1  0.61044016  0.98973373  0.28159215  1
  O2-  O231  1  0.61170006  0.97500251  0.75531509  1
  O2-  O232  1  0.36829643  0.02069122  0.24042160  1
  O2-  O233  1  0.38587560  0.01157783  0.71385249  1
  O2-  O234  1  0.38369017  0.50793224  0.27789704  1
  O2-  O235  1  0.38444692  0.53341607  0.75784586  1
  O2-  O236  1  0.88742402  0.01566355  0.22239874  1
  O2-  O237  1  0.88465192  0.01524146  0.72648794  1
  O2-  O238  1  0.88399704  0.50555693  0.28465745  1
  O2-  O239  1  0.88562667  0.52703164  0.75436164  1
  O2-  O240  1  0.47901541  0.36670719  0.24295414  1
  O2-  O241  1  0.46961908  0.38576381  0.73689267  1
  O2-  O242  1  0.47021110  0.88803260  0.24378151  1
  O2-  O243  1  0.48192801  0.87163845  0.73307907  1
  O2-  O244  1  0.98436053  0.37266546  0.23643662  1
  O2-  O245  1  0.97762166  0.38433322  0.72336830  1
  O2-  O246  1  0.99678093  0.87513284  0.24115751  1
  O2-  O247  1  0.98620344  0.87981953  0.73101254  1
  O2-  O248  1  0.01148755  0.12772916  0.27290690  1
  O2-  O249  1  0.01816225  0.11850075  0.76936672  1
  O2-  O250  1  0.01259892  0.62611518  0.26525975  1
  O2-  O251  1  0.02538634  0.61426501  0.78013143  1
  O2-  O252  1  0.50303253  0.12883026  0.27310649  1
  O2-  O253  1  0.51960025  0.11446347  0.76756937  1
  O2-  O254  1  0.52327951  0.61656414  0.27896078  1
  O2-  O255  1  0.51926294  0.63179727  0.75297739  1
  O2-  O256  1  0.13252589  0.47581157  0.02306484  1
  O2-  O257  1  0.12343982  0.48521773  0.51459823  1
  O2-  O258  1  0.13945571  0.98496366  -0.01176644  1
  O2-  O259  1  0.13714893  0.99323863  0.47154691  1
  O2-  O260  1  0.63573873  0.45839226  0.01079045  1
  O2-  O261  1  0.61396111  0.48643579  0.51815563  1
  O2-  O262  1  0.62890695  0.98245577  -0.02226916  1
  O2-  O263  1  0.61125414  0.98287736  0.47852952  1
  O2-  O264  1  0.36465137  0.02048921  0.03662589  1
  O2-  O265  1  0.37110533  0.02200292  0.51060719  1
  O2-  O266  1  0.36476857  0.50913638  -0.02622818  1
  O2-  O267  1  0.36952675  0.51627604  0.47813469  1
  O2-  O268  1  0.86638494  0.01800613  0.02324984  1
  O2-  O269  1  0.86798627  0.03707089  0.52039347  1
  O2-  O270  1  0.86599537  0.53555794  -0.01267493  1
  O2-  O271  1  0.87516693  0.51414586  0.47773367  1
  O2-  O272  1  0.46700225  0.36404562  0.02595149  1
  O2-  O273  1  0.47214906  0.37894823  0.50761975  1
  O2-  O274  1  0.47101772  0.86194744  0.01395462  1
  O2-  O275  1  0.47640914  0.87859156  0.51107798  1
  O2-  O276  1  0.99491005  0.36096641  0.03585304  1
  O2-  O277  1  0.98743011  0.37927940  0.50730374  1
  O2-  O278  1  0.98736540  0.86717734  0.02952663  1
  O2-  O279  1  0.98705316  0.86174653  0.51228159  1
  O2-  O280  1  0.03335829  0.13611358  -0.00817429  1
  O2-  O281  1  0.02739355  0.13759372  0.47657939  1
  O2-  O282  1  0.02482214  0.63379310  -0.00613748  1
  O2-  O283  1  0.02023237  0.61875129  0.47623322  1
  O2-  O284  1  0.51088215  0.13801938  -0.02029065  1
  O2-  O285  1  0.50930404  0.13098098  0.48352767  1
  O2-  O286  1  0.52361514  0.63092527  -0.02312671  1
  O2-  O287  1  0.50711219  0.62745873  0.48947718  1
  O2-  O288  1  0.13242006  0.26694510  0.01257781  1
  O2-  O289  1  0.13018471  0.27780051  0.49813198  1
  O2-  O290  1  0.11802488  0.77246217  -0.01370622  1
  O2-  O291  1  0.12972445  0.75711054  0.47494312  1
  O2-  O292  1  0.61479093  0.26616554  0.02986102  1
  O2-  O293  1  0.60939682  0.27489304  0.50523331  1
  O2-  O294  1  0.61332948  0.77594469  -0.02268351  1
  O2-  O295  1  0.61235989  0.76640338  0.48176395  1
  O2-  O296  1  0.36994252  0.23080130  -0.00787818  1
  O2-  O297  1  0.36533122  0.24413287  0.47519434  1
  O2-  O298  1  0.38496564  0.71622405  0.01200100  1
  O2-  O299  1  0.36846763  0.73953594  0.51646906  1
  O2-  O300  1  0.88771162  0.22344102  -0.00780815  1
  O2-  O301  1  0.88916381  0.24053136  0.47436072  1
  O2-  O302  1  0.88464876  0.73285876  0.03157635  1
  O2-  O303  1  0.89174697  0.71935913  0.51367950  1
  O2-  O304  1  0.26382712  0.36594879  -0.01767696  1
  O2-  O305  1  0.26178471  0.37935831  0.47141065  1
  O2-  O306  1  0.27911696  0.88751342  -0.01485671  1
  O2-  O307  1  0.26519094  0.87881161  0.47921837  1
  O2-  O308  1  0.78835407  0.38373860  -0.02442361  1
  O2-  O309  1  0.75550317  0.38347006  0.47689833  1
  O2-  O310  1  0.76930648  0.88112333  -0.01772176  1
  O2-  O311  1  0.77277562  0.88725878  0.47585464  1
  O2-  O312  1  0.23385120  0.12858263  0.01805186  1
  O2-  O313  1  0.23440105  0.13416538  0.51238899  1
  O2-  O314  1  0.23047538  0.61654184  0.02388616  1
  O2-  O315  1  0.23845597  0.62906566  0.51670336  1
  O2-  O316  1  0.72896495  0.11920325  0.01631205  1
  O2-  O317  1  0.71209340  0.11415882  0.51879902  1
  O2-  O318  1  0.72106631  0.61330002  0.02442888  1
  O2-  O319  1  0.73125993  0.61499082  0.52243129  1
