# generated using pymatgen
data_Sr64Ca21Nb43O192
_symmetry_space_group_name_H-M   'P 1'
_cell_length_a   16.54108774
_cell_length_b   16.52683937
_cell_length_c   16.70435197
_cell_angle_alpha   90.06112517
_cell_angle_beta   90.00672160
_cell_angle_gamma   89.99945932
_symmetry_Int_Tables_number   1
_chemical_formula_structural   Sr64Ca21Nb43O192
_chemical_formula_sum   'Sr64 Ca21 Nb43 O192'
_cell_volume   4566.49780619
_cell_formula_units_Z   1
loop_
 _symmetry_equiv_pos_site_id
 _symmetry_equiv_pos_as_xyz
  1  'x, y, z'
loop_
 _atom_type_symbol
 _atom_type_oxidation_number
  Sr2+  2.0
  Ca2+  2.0
  Nb5+  5.0
  O2-  -2.0
loop_
 _atom_site_type_symbol
 _atom_site_label
 _atom_site_symmetry_multiplicity
 _atom_site_fract_x
 _atom_site_fract_y
 _atom_site_fract_z
 _atom_site_occupancy
  Sr2+  Sr0  1  0.12633364  0.10625687  0.12012961  1
  Sr2+  Sr1  1  0.12083724  0.10441096  0.62876989  1
  Sr2+  Sr2  1  0.11220746  0.63744958  0.12675526  1
  Sr2+  Sr3  1  0.12303948  0.59656771  0.62891791  1
  Sr2+  Sr4  1  0.62394222  0.12455083  0.11782956  1
  Sr2+  Sr5  1  0.62614009  0.10773562  0.63030500  1
  Sr2+  Sr6  1  0.63237867  0.61881143  0.12598228  1
  Sr2+  Sr7  1  0.62801795  0.63275579  0.63553280  1
  Sr2+  Sr8  1  0.36710582  0.37069574  0.12642860  1
  Sr2+  Sr9  1  0.37896436  0.38568900  0.61928330  1
  Sr2+  Sr10  1  0.37599808  0.88292289  0.12385279  1
  Sr2+  Sr11  1  0.37271667  0.88237395  0.64387851  1
  Sr2+  Sr12  1  0.87863914  0.37906919  0.12732683  1
  Sr2+  Sr13  1  0.88506905  0.36484675  0.62761155  1
  Sr2+  Sr14  1  0.88868946  0.88295394  0.13111538  1
  Sr2+  Sr15  1  0.87818131  0.87890321  0.62212536  1
  Sr2+  Sr16  1  0.14454654  0.38187053  0.38078649  1
  Sr2+  Sr17  1  0.13553978  0.37656984  0.87332435  1
  Sr2+  Sr18  1  0.13954959  0.86952818  0.37638123  1
  Sr2+  Sr19  1  0.14001595  0.87533440  0.86524303  1
  Sr2+  Sr20  1  0.61974473  0.37110792  0.37386821  1
  Sr2+  Sr21  1  0.62008037  0.37417251  0.87054243  1
  Sr2+  Sr22  1  0.62974277  0.86967695  0.38264301  1
  Sr2+  Sr23  1  0.62037651  0.88358682  0.87866667  1
  Sr2+  Sr24  1  0.36891492  0.12073987  0.36559593  1
  Sr2+  Sr25  1  0.36614516  0.11958089  0.87859580  1
  Sr2+  Sr26  1  0.37544584  0.62050282  0.37117686  1
  Sr2+  Sr27  1  0.37195811  0.62007486  0.87300209  1
  Sr2+  Sr28  1  0.87313526  0.11892763  0.37309564  1
  Sr2+  Sr29  1  0.86293215  0.12586679  0.87236351  1
  Sr2+  Sr30  1  0.86776384  0.61987063  0.37390550  1
  Sr2+  Sr31  1  0.86436083  0.61463249  0.87436615  1
  Sr2+  Sr32  1  0.12647177  0.11952848  0.38739001  1
  Sr2+  Sr33  1  0.12425650  0.12834062  0.87117322  1
  Sr2+  Sr34  1  0.12836813  0.62334584  0.37860674  1
  Sr2+  Sr35  1  0.12490437  0.62194891  0.87595765  1
  Sr2+  Sr36  1  0.61212738  0.11739476  0.37417191  1
  Sr2+  Sr37  1  0.62147041  0.10836399  0.87925437  1
  Sr2+  Sr38  1  0.62263558  0.62268466  0.37656469  1
  Sr2+  Sr39  1  0.61349923  0.61857784  0.87385779  1
  Sr2+  Sr40  1  0.37906631  0.34846246  0.37507189  1
  Sr2+  Sr41  1  0.38293666  0.38346512  0.87752290  1
  Sr2+  Sr42  1  0.37569529  0.85542439  0.37823284  1
  Sr2+  Sr43  1  0.38279694  0.85840787  0.87205011  1
  Sr2+  Sr44  1  0.86846915  0.37192295  0.37654638  1
  Sr2+  Sr45  1  0.87469492  0.36479011  0.87119266  1
  Sr2+  Sr46  1  0.87102465  0.86006542  0.37800807  1
  Sr2+  Sr47  1  0.86656074  0.87102430  0.87009048  1
  Sr2+  Sr48  1  0.12258486  0.37494425  0.12176203  1
  Sr2+  Sr49  1  0.12694442  0.36988469  0.62427979  1
  Sr2+  Sr50  1  0.13333785  0.87773013  0.12968209  1
  Sr2+  Sr51  1  0.14085083  0.87588572  0.62026428  1
  Sr2+  Sr52  1  0.62362368  0.37708642  0.12419009  1
  Sr2+  Sr53  1  0.60775348  0.37995803  0.62686827  1
  Sr2+  Sr54  1  0.63534311  0.88560948  0.12729099  1
  Sr2+  Sr55  1  0.62118082  0.88080796  0.62499172  1
  Sr2+  Sr56  1  0.35502296  0.12661657  0.12394018  1
  Sr2+  Sr57  1  0.39001605  0.12211055  0.62602627  1
  Sr2+  Sr58  1  0.39123093  0.63382040  0.11789639  1
  Sr2+  Sr59  1  0.36519539  0.63644869  0.63808045  1
  Sr2+  Sr60  1  0.86126767  0.12889274  0.11978970  1
  Sr2+  Sr61  1  0.87906902  0.12204169  0.62691043  1
  Sr2+  Sr62  1  0.87685359  0.62329988  0.12472086  1
  Sr2+  Sr63  1  0.87854322  0.62226927  0.63218939  1
  Ca2+  Ca64  1  0.49725454  0.00210910  0.00509122  1
  Ca2+  Ca65  1  0.50028113  -0.00062766  0.49556071  1
  Ca2+  Ca66  1  0.50037555  0.50481004  0.49643685  1
  Ca2+  Ca67  1  -0.00009121  -0.00188720  -0.00237929  1
  Ca2+  Ca68  1  0.50255314  0.50191728  0.00369431  1
  Ca2+  Ca69  1  0.74872311  0.74767263  0.00379256  1
  Ca2+  Ca70  1  0.25184918  0.24801120  0.50251551  1
  Ca2+  Ca71  1  0.24873982  0.74739874  0.50274223  1
  Ca2+  Ca72  1  0.74596476  0.25127801  0.50203004  1
  Ca2+  Ca73  1  0.24889628  0.74735022  0.00344657  1
  Ca2+  Ca74  1  0.75402556  -0.00219818  0.74904005  1
  Ca2+  Ca75  1  0.49754960  0.24964553  0.75243611  1
  Ca2+  Ca76  1  0.00127935  0.74784938  0.74771705  1
  Ca2+  Ca77  1  0.25080762  0.50140750  0.24493209  1
  Ca2+  Ca78  1  0.25029704  0.49563321  0.75055478  1
  Ca2+  Ca79  1  0.50274093  0.75060078  0.74948197  1
  Ca2+  Ca80  1  0.25056733  -0.00255093  0.25239505  1
  Ca2+  Ca81  1  -0.00122227  0.24996346  0.25061246  1
  Ca2+  Ca82  1  0.74844908  0.49516160  0.74825090  1
  Ca2+  Ca83  1  0.75011965  -0.00008963  0.25290996  1
  Ca2+  Ca84  1  0.25081897  0.00535629  0.75100888  1
  Nb5+  Nb85  1  0.00071128  0.49735267  0.00381558  1
  Nb5+  Nb86  1  -0.00204049  -0.00815821  0.49810598  1
  Nb5+  Nb87  1  -0.00449511  0.49234181  0.50055255  1
  Nb5+  Nb88  1  0.24218589  0.25169772  -0.00173806  1
  Nb5+  Nb89  1  0.74179697  0.25451901  -0.00213368  1
  Nb5+  Nb90  1  0.75169476  0.74725131  0.50400783  1
  Nb5+  Nb91  1  0.00343760  0.24808210  0.74998167  1
  Nb5+  Nb92  1  0.00012156  0.75217596  0.25222988  1
  Nb5+  Nb93  1  0.75000677  0.49815268  0.25101945  1
  Nb5+  Nb94  1  0.50361731  0.24181388  0.24683381  1
  Nb5+  Nb95  1  0.50822009  0.74734447  0.24733698  1
  Nb5+  Nb96  1  0.00537683  0.00666601  0.25160540  1
  Nb5+  Nb97  1  -0.00107877  -0.00582066  0.75360316  1
  Nb5+  Nb98  1  -0.00138366  0.49843541  0.25598187  1
  Nb5+  Nb99  1  -0.00139070  0.49638695  0.75780874  1
  Nb5+  Nb100  1  0.50033036  -0.00950168  0.25182015  1
  Nb5+  Nb101  1  0.50035189  0.00128639  0.75262769  1
  Nb5+  Nb102  1  0.49702411  0.49651737  0.24770803  1
  Nb5+  Nb103  1  0.49761755  0.50065337  0.74764006  1
  Nb5+  Nb104  1  0.24104890  0.25303750  0.24991658  1
  Nb5+  Nb105  1  0.25457529  0.25043908  0.74812851  1
  Nb5+  Nb106  1  0.25889074  0.74608788  0.24882405  1
  Nb5+  Nb107  1  0.24583225  0.75043276  0.75215621  1
  Nb5+  Nb108  1  0.74673193  0.24832966  0.25174384  1
  Nb5+  Nb109  1  0.74456184  0.24840757  0.74424817  1
  Nb5+  Nb110  1  0.75401076  0.74860703  0.24848813  1
  Nb5+  Nb111  1  0.74958063  0.75004193  0.75790988  1
  Nb5+  Nb112  1  -0.00071214  0.24160428  0.49855680  1
  Nb5+  Nb113  1  -0.00433017  0.24875372  1.00003031  1
  Nb5+  Nb114  1  -0.00131690  0.74218855  0.50069112  1
  Nb5+  Nb115  1  -0.00406760  0.75218559  0.99447443  1
  Nb5+  Nb116  1  0.50104322  0.25029481  0.50373694  1
  Nb5+  Nb117  1  0.49068938  0.25271349  1.00010081  1
  Nb5+  Nb118  1  0.49725026  0.74824267  0.50164397  1
  Nb5+  Nb119  1  0.50406443  0.75499543  0.99941976  1
  Nb5+  Nb120  1  0.25040138  -0.00742408  -0.00348719  1
  Nb5+  Nb121  1  0.25732247  0.00524702  0.49936807  1
  Nb5+  Nb122  1  0.24978819  0.50372773  0.00474063  1
  Nb5+  Nb123  1  0.25687996  0.50558439  0.49872493  1
  Nb5+  Nb124  1  0.75565316  -0.00609429  0.00304797  1
  Nb5+  Nb125  1  0.75164193  0.00343191  0.49370914  1
  Nb5+  Nb126  1  0.75042782  0.49457846  -0.00295164  1
  Nb5+  Nb127  1  0.75101108  0.50072754  0.50263895  1
  O2-  O128  1  0.00798639  -0.01219825  0.13597501  1
  O2-  O129  1  -0.00739339  -0.00470829  0.61805808  1
  O2-  O130  1  0.00193894  0.49217552  0.12454390  1
  O2-  O131  1  -0.00323786  0.48815301  0.61841600  1
  O2-  O132  1  0.52830731  -0.00550926  0.13745766  1
  O2-  O133  1  0.49908984  -0.00323049  0.62967069  1
  O2-  O134  1  0.52790789  0.49933458  0.13622560  1
  O2-  O135  1  0.50571671  0.49298239  0.62871565  1
  O2-  O136  1  -0.00290510  0.01810675  0.37978110  1
  O2-  O137  1  0.01618505  0.00838661  0.86486821  1
  O2-  O138  1  -0.00733316  0.51267579  0.37410793  1
  O2-  O139  1  -0.00563528  0.50197099  0.87545340  1
  O2-  O140  1  0.48666625  0.02644271  0.36324173  1
  O2-  O141  1  0.50525077  0.00177869  0.87092560  1
  O2-  O142  1  0.50047121  0.52551393  0.36111127  1
  O2-  O143  1  0.49529946  0.50298657  0.87025401  1
  O2-  O144  1  0.25277212  0.27071168  0.12042656  1
  O2-  O145  1  0.25793391  0.28062275  0.63659217  1
  O2-  O146  1  0.26087259  0.78183196  0.13587728  1
  O2-  O147  1  0.27165819  0.77109586  0.63382485  1
  O2-  O148  1  0.74671521  0.23739241  0.12190472  1
  O2-  O149  1  0.74567442  0.21363682  0.63511199  1
  O2-  O150  1  0.75283554  0.71494349  0.13724872  1
  O2-  O151  1  0.76525615  0.72167725  0.61482127  1
  O2-  O152  1  0.24364416  0.23106867  0.36346251  1
  O2-  O153  1  0.24538907  0.22693114  0.88328878  1
  O2-  O154  1  0.24029271  0.72517791  0.36591695  1
  O2-  O155  1  0.22271465  0.73404381  0.87012674  1
  O2-  O156  1  0.74756192  0.27886431  0.36400979  1
  O2-  O157  1  0.74888282  0.27725863  0.88197486  1
  O2-  O158  1  0.73926727  0.76265908  0.36936075  1
  O2-  O159  1  0.73854129  0.77864084  0.86895264  1
  O2-  O160  1  -0.00378328  0.26702742  0.11435502  1
  O2-  O161  1  0.00610108  0.26140571  0.62994350  1
  O2-  O162  1  -0.02471513  0.74890630  0.13581927  1
  O2-  O163  1  -0.02616310  0.75593007  0.61148058  1
  O2-  O164  1  0.50039908  0.25333715  0.12856374  1
  O2-  O165  1  0.48097759  0.25606269  0.61678306  1
  O2-  O166  1  0.48118519  0.76230814  0.13327256  1
  O2-  O167  1  0.48220012  0.76469878  0.61346960  1
  O2-  O168  1  0.24488501  0.02997175  0.38218437  1
  O2-  O169  1  0.24025920  0.02966001  0.88469044  1
  O2-  O170  1  0.24368435  0.52345719  0.38012933  1
  O2-  O171  1  0.23953012  0.51601886  0.88636345  1
  O2-  O172  1  0.76678936  -0.03508450  0.38349718  1
  O2-  O173  1  0.76059938  -0.02135245  0.88430526  1
  O2-  O174  1  0.76694554  0.48633057  0.36963099  1
  O2-  O175  1  0.77048060  0.47670997  0.88508693  1
  O2-  O176  1  -0.01674815  0.23079106  0.38548616  1
  O2-  O177  1  0.00134232  0.24791553  0.87482248  1
  O2-  O178  1  0.00340687  0.73707760  0.37215597  1
  O2-  O179  1  0.02194611  0.74614317  0.88450657  1
  O2-  O180  1  0.51595731  0.24906386  0.36594815  1
  O2-  O181  1  0.50008019  0.27006972  0.88708680  1
  O2-  O182  1  0.50918601  0.73635317  0.36545481  1
  O2-  O183  1  0.52313669  0.75314134  0.88509740  1
  O2-  O184  1  0.24294620  -0.01350805  0.11682215  1
  O2-  O185  1  0.25193867  -0.01972129  0.61583291  1
  O2-  O186  1  0.24297621  0.46331469  0.11443862  1
  O2-  O187  1  0.24333479  0.47542311  0.61344907  1
  O2-  O188  1  0.74255601  0.02787361  0.11859604  1
  O2-  O189  1  0.75681259  0.01716576  0.61182048  1
  O2-  O190  1  0.74644924  0.51103449  0.12782861  1
  O2-  O191  1  0.74467640  0.52973454  0.61295149  1
  O2-  O192  1  0.13128666  0.28570700  0.24942597  1
  O2-  O193  1  0.11985466  0.27753899  0.75582854  1
  O2-  O194  1  0.11518976  0.76548065  0.24216997  1
  O2-  O195  1  0.13150804  0.78387605  0.73526237  1
  O2-  O196  1  0.62421291  0.27860469  0.24017178  1
  O2-  O197  1  0.63357710  0.28016666  0.74554642  1
  O2-  O198  1  0.62336131  0.77152243  0.24077106  1
  O2-  O199  1  0.63820206  0.76556518  0.71833262  1
  O2-  O200  1  0.38484470  0.23104611  0.25258913  1
  O2-  O201  1  0.36370206  0.21634534  0.75749088  1
  O2-  O202  1  0.37572399  0.72717243  0.25829992  1
  O2-  O203  1  0.36652876  0.72981302  0.77140517  1
  O2-  O204  1  0.86177280  0.22772121  0.24473465  1
  O2-  O205  1  0.88213811  0.22955749  0.75145200  1
  O2-  O206  1  0.86925654  0.73007471  0.26565810  1
  O2-  O207  1  0.86579055  0.71713513  0.76137159  1
  O2-  O208  1  0.28243724  0.36463989  0.26141261  1
  O2-  O209  1  0.26423506  0.36227046  0.78746632  1
  O2-  O210  1  0.26222090  0.86307286  0.27926091  1
  O2-  O211  1  0.27005424  0.87116730  0.77419186  1
  O2-  O212  1  0.76716818  0.37970366  0.23214918  1
  O2-  O213  1  0.78241535  0.36022277  0.73459652  1
  O2-  O214  1  0.76721033  0.86142293  0.22380005  1
  O2-  O215  1  0.78083480  0.86236592  0.72907238  1
  O2-  O216  1  0.23724013  0.13784683  0.22170958  1
  O2-  O217  1  0.21239328  0.14041480  0.74075110  1
  O2-  O218  1  0.22607453  0.63589436  0.22281309  1
  O2-  O219  1  0.22782368  0.63356311  0.72830251  1
  O2-  O220  1  0.72086468  0.13731972  0.26762805  1
  O2-  O221  1  0.73747220  0.13732694  0.78588607  1
  O2-  O222  1  0.73061014  0.62017670  0.26748354  1
  O2-  O223  1  0.72512168  0.63118429  0.77353228  1
  O2-  O224  1  0.11197762  0.47772844  0.25494153  1
  O2-  O225  1  0.11351658  0.47056809  0.74218474  1
  O2-  O226  1  0.11450739  0.96345486  0.26275654  1
  O2-  O227  1  0.11432386  0.98158983  0.73006992  1
  O2-  O228  1  0.63162518  0.48251206  0.26077436  1
  O2-  O229  1  0.61639307  0.46838872  0.75456157  1
  O2-  O230  1  0.61779680  0.97572482  0.27542879  1
  O2-  O231  1  0.62140349  0.97367416  0.74608226  1
  O2-  O232  1  0.38606297  0.01704160  0.22752374  1
  O2-  O233  1  0.38386339  0.03355897  0.74840911  1
  O2-  O234  1  0.38690298  0.52743038  0.23254006  1
  O2-  O235  1  0.38019395  0.53239499  0.74520308  1
  O2-  O236  1  0.88687172  0.02521995  0.24792526  1
  O2-  O237  1  0.88736218  0.03339710  0.74866494  1
  O2-  O238  1  0.87189951  0.52259018  0.24198873  1
  O2-  O239  1  0.88411550  0.51795827  0.74157508  1
  O2-  O240  1  0.48286017  0.37999835  0.25562015  1
  O2-  O241  1  0.46365401  0.38326029  0.74725400  1
  O2-  O242  1  0.47736732  0.87344070  0.26159968  1
  O2-  O243  1  0.47484673  0.88328809  0.75457038  1
  O2-  O244  1  0.96578007  0.38660493  0.25921710  1
  O2-  O245  1  0.97625683  0.37306077  0.75630932  1
  O2-  O246  1  0.97231413  0.86773847  0.26218276  1
  O2-  O247  1  0.96838313  0.88332227  0.75707971  1
  O2-  O248  1  0.03908162  0.11685910  0.24770948  1
  O2-  O249  1  0.02337893  0.13167131  0.74420815  1
  O2-  O250  1  0.00944990  0.62329267  0.24413965  1
  O2-  O251  1  0.02535307  0.61112835  0.74524784  1
  O2-  O252  1  0.52875304  0.12965373  0.24164013  1
  O2-  O253  1  0.53515559  0.11895010  0.74820291  1
  O2-  O254  1  0.52298762  0.63190522  0.23333925  1
  O2-  O255  1  0.52848899  0.61791913  0.74685045  1
  O2-  O256  1  0.11760948  0.47255956  -0.00238625  1
  O2-  O257  1  0.11312973  0.48174547  0.49406487  1
  O2-  O258  1  0.13200225  0.97289774  0.00032487  1
  O2-  O259  1  0.11592236  0.98187187  0.49745583  1
  O2-  O260  1  0.63814222  0.46721185  -0.00530231  1
  O2-  O261  1  0.63921145  0.48182406  0.48374599  1
  O2-  O262  1  0.63696728  0.98825803  -0.00813121  1
  O2-  O263  1  0.63788356  0.97954792  0.49735301  1
  O2-  O264  1  0.36390114  0.03163164  0.00714032  1
  O2-  O265  1  0.36823145  0.03212055  0.50209558  1
  O2-  O266  1  0.36456900  0.52206431  0.00624590  1
  O2-  O267  1  0.36649668  0.53854485  0.50722981  1
  O2-  O268  1  0.86817199  0.03445507  0.00195172  1
  O2-  O269  1  0.87954886  0.02281971  0.49850107  1
  O2-  O270  1  0.87854563  0.51400574  0.01135662  1
  O2-  O271  1  0.87942192  0.52916061  0.49862674  1
  O2-  O272  1  0.47706768  0.36904011  0.01829330  1
  O2-  O273  1  0.47032459  0.36991468  0.49163928  1
  O2-  O274  1  0.46575364  0.86820280  0.00259809  1
  O2-  O275  1  0.49985061  0.86342354  0.47128779  1
  O2-  O276  1  0.97944732  0.37671984  -0.01017707  1
  O2-  O277  1  0.97415057  0.37901953  0.48793251  1
  O2-  O278  1  0.96243611  0.86296636  -0.00516164  1
  O2-  O279  1  0.97572939  0.87749975  0.48739630  1
  O2-  O280  1  0.02717968  0.13776817  0.00479154  1
  O2-  O281  1  0.01873825  0.12693176  0.51339378  1
  O2-  O282  1  0.02154962  0.61481144  0.00144357  1
  O2-  O283  1  0.01688640  0.62661752  0.50765649  1
  O2-  O284  1  0.52758345  0.14039390  0.00147168  1
  O2-  O285  1  0.53836838  0.13661634  0.50814262  1
  O2-  O286  1  0.52976765  0.63740784  0.01807948  1
  O2-  O287  1  0.53822191  0.63868311  0.50601878  1
  O2-  O288  1  0.12540351  0.27676211  -0.00278070  1
  O2-  O289  1  0.11143623  0.27949877  0.49522520  1
  O2-  O290  1  0.10703370  0.76181509  0.03390531  1
  O2-  O291  1  0.10940019  0.77571625  0.50055475  1
  O2-  O292  1  0.62778349  0.27669383  0.00455867  1
  O2-  O293  1  0.61520291  0.28932139  0.50308800  1
  O2-  O294  1  0.61721174  0.78689989  0.02102731  1
  O2-  O295  1  0.63564355  0.76871404  0.50778002  1
  O2-  O296  1  0.37451142  0.23024060  0.00204031  1
  O2-  O297  1  0.38693353  0.22189798  0.47577264  1
  O2-  O298  1  0.38524093  0.71892930  -0.00907155  1
  O2-  O299  1  0.38548216  0.72823460  0.47934335  1
  O2-  O300  1  0.87772448  0.23331343  -0.00481716  1
  O2-  O301  1  0.88356743  0.23972649  0.52179713  1
  O2-  O302  1  0.88450924  0.71076961  -0.00736877  1
  O2-  O303  1  0.87493785  0.73647097  0.47598373  1
  O2-  O304  1  0.26887277  0.36954690  -0.02028023  1
  O2-  O305  1  0.26709746  0.38687918  0.47238027  1
  O2-  O306  1  0.27458555  0.88228377  -0.02453337  1
  O2-  O307  1  0.26070532  0.88668075  0.47479811  1
  O2-  O308  1  0.77605573  0.37161127  0.02133847  1
  O2-  O309  1  0.78268329  0.38994918  0.51431448  1
  O2-  O310  1  0.77620358  0.88365786  0.02997775  1
  O2-  O311  1  0.77338186  0.86570234  0.51455270  1
  O2-  O312  1  0.22949170  0.13499555  0.02110758  1
  O2-  O313  1  0.21670348  0.11760174  0.51927339  1
  O2-  O314  1  0.21946952  0.61257599  0.02591397  1
  O2-  O315  1  0.21407631  0.61585083  0.51718173  1
  O2-  O316  1  0.73461844  0.13762903  -0.01702670  1
  O2-  O317  1  0.74052399  0.11517196  0.46274586  1
  O2-  O318  1  0.73140187  0.60939128  -0.01676077  1
  O2-  O319  1  0.74217208  0.62746964  0.47203952  1
