# generated using pymatgen
data_Sr64Ca21Nb43O192
_symmetry_space_group_name_H-M   'P 1'
_cell_length_a   16.60449366
_cell_length_b   16.62446147
_cell_length_c   16.74476104
_cell_angle_alpha   89.92113738
_cell_angle_beta   90.02844516
_cell_angle_gamma   90.01273243
_symmetry_Int_Tables_number   1
_chemical_formula_structural   Sr64Ca21Nb43O192
_chemical_formula_sum   'Sr64 Ca21 Nb43 O192'
_cell_volume   4622.23158710
_cell_formula_units_Z   1
loop_
 _symmetry_equiv_pos_site_id
 _symmetry_equiv_pos_as_xyz
  1  'x, y, z'
loop_
 _atom_type_symbol
 _atom_type_oxidation_number
  Sr2+  2.0
  Ca2+  2.0
  Nb5+  5.0
  O2-  -2.0
loop_
 _atom_site_type_symbol
 _atom_site_label
 _atom_site_symmetry_multiplicity
 _atom_site_fract_x
 _atom_site_fract_y
 _atom_site_fract_z
 _atom_site_occupancy
  Sr2+  Sr0  1  0.13503332  0.11935437  0.12497858  1
  Sr2+  Sr1  1  0.13238393  0.10680620  0.62785330  1
  Sr2+  Sr2  1  0.13023661  0.62078628  0.12684273  1
  Sr2+  Sr3  1  0.13226261  0.61326583  0.62376299  1
  Sr2+  Sr4  1  0.62433804  0.11576532  0.12641476  1
  Sr2+  Sr5  1  0.62764159  0.11970372  0.63252683  1
  Sr2+  Sr6  1  0.61912604  0.61533957  0.12961163  1
  Sr2+  Sr7  1  0.63719219  0.61754447  0.62318363  1
  Sr2+  Sr8  1  0.36713397  0.36474955  0.12655978  1
  Sr2+  Sr9  1  0.36988718  0.36537729  0.62556498  1
  Sr2+  Sr10  1  0.37958911  0.86577033  0.12880331  1
  Sr2+  Sr11  1  0.37497109  0.89266988  0.62867098  1
  Sr2+  Sr12  1  0.87230220  0.36657715  0.12499093  1
  Sr2+  Sr13  1  0.87746065  0.36968947  0.62750220  1
  Sr2+  Sr14  1  0.87371058  0.85943623  0.12226890  1
  Sr2+  Sr15  1  0.87242521  0.86586588  0.63374293  1
  Sr2+  Sr16  1  0.11146635  0.38141188  0.37594872  1
  Sr2+  Sr17  1  0.10804214  0.38291779  0.87016196  1
  Sr2+  Sr18  1  0.10375905  0.88128396  0.37542550  1
  Sr2+  Sr19  1  0.10940211  0.88215395  0.87176363  1
  Sr2+  Sr20  1  0.62324139  0.37979131  0.37738798  1
  Sr2+  Sr21  1  0.62747919  0.37763672  0.88250429  1
  Sr2+  Sr22  1  0.63567703  0.87687865  0.38249993  1
  Sr2+  Sr23  1  0.62673759  0.87751536  0.87116806  1
  Sr2+  Sr24  1  0.37849398  0.13472016  0.38102999  1
  Sr2+  Sr25  1  0.38328922  0.12724015  0.87843281  1
  Sr2+  Sr26  1  0.37904965  0.63092738  0.37873789  1
  Sr2+  Sr27  1  0.37450006  0.62920196  0.86208074  1
  Sr2+  Sr28  1  0.88208589  0.12633227  0.36525231  1
  Sr2+  Sr29  1  0.87294756  0.13234729  0.86754219  1
  Sr2+  Sr30  1  0.87299667  0.64177056  0.37549251  1
  Sr2+  Sr31  1  0.86974151  0.63248852  0.87069179  1
  Sr2+  Sr32  1  0.11790148  0.12249306  0.38953358  1
  Sr2+  Sr33  1  0.11809439  0.12623880  0.88415493  1
  Sr2+  Sr34  1  0.12264327  0.64237327  0.37866666  1
  Sr2+  Sr35  1  0.12513610  0.63382093  0.86451585  1
  Sr2+  Sr36  1  0.63428211  0.12690968  0.37010032  1
  Sr2+  Sr37  1  0.62721616  0.12527657  0.87954801  1
  Sr2+  Sr38  1  0.62567503  0.62374723  0.38036399  1
  Sr2+  Sr39  1  0.63079968  0.62965931  0.86981938  1
  Sr2+  Sr40  1  0.37438135  0.38116343  0.38294582  1
  Sr2+  Sr41  1  0.37571342  0.38261119  0.87180171  1
  Sr2+  Sr42  1  0.38062195  0.88137294  0.38002436  1
  Sr2+  Sr43  1  0.37643451  0.88356192  0.86823054  1
  Sr2+  Sr44  1  0.87051474  0.36992277  0.38104478  1
  Sr2+  Sr45  1  0.86856306  0.37539341  0.87286407  1
  Sr2+  Sr46  1  0.86815211  0.89173920  0.37389592  1
  Sr2+  Sr47  1  0.86928981  0.87725963  0.87106736  1
  Sr2+  Sr48  1  0.12137607  0.37378194  0.12699315  1
  Sr2+  Sr49  1  0.12234370  0.36943704  0.62813286  1
  Sr2+  Sr50  1  0.12970997  0.86356376  0.11899252  1
  Sr2+  Sr51  1  0.12946616  0.87051878  0.62547009  1
  Sr2+  Sr52  1  0.62382721  0.36886332  0.12646327  1
  Sr2+  Sr53  1  0.62363054  0.36542158  0.62053948  1
  Sr2+  Sr54  1  0.62034396  0.86908566  0.12560720  1
  Sr2+  Sr55  1  0.62296648  0.86561850  0.63651141  1
  Sr2+  Sr56  1  0.38051582  0.12110143  0.12200675  1
  Sr2+  Sr57  1  0.37554860  0.13105867  0.61850913  1
  Sr2+  Sr58  1  0.36582217  0.62425060  0.12887166  1
  Sr2+  Sr59  1  0.36466339  0.62063964  0.62216667  1
  Sr2+  Sr60  1  0.87550818  0.11426787  0.12510633  1
  Sr2+  Sr61  1  0.89189010  0.11532487  0.62987448  1
  Sr2+  Sr62  1  0.89500496  0.62022096  0.12234267  1
  Sr2+  Sr63  1  0.88439360  0.61651273  0.62436458  1
  Ca2+  Ca64  1  0.50579688  -0.00038216  0.49859362  1
  Ca2+  Ca65  1  -0.00270095  0.00035475  0.00118100  1
  Ca2+  Ca66  1  0.00194484  0.50083733  -0.00240672  1
  Ca2+  Ca67  1  0.00242480  0.50147167  0.49614593  1
  Ca2+  Ca68  1  -0.00486059  -0.00229184  0.50284699  1
  Ca2+  Ca69  1  0.25415200  0.74982799  -0.00229573  1
  Ca2+  Ca70  1  0.75214992  0.75108079  0.50011212  1
  Ca2+  Ca71  1  0.74938214  0.74845262  0.00231767  1
  Ca2+  Ca72  1  0.25109672  0.74992513  0.50143519  1
  Ca2+  Ca73  1  0.74814604  0.24205617  0.49955634  1
  Ca2+  Ca74  1  0.74990644  0.00217154  0.75473537  1
  Ca2+  Ca75  1  0.50120823  0.25258272  0.75153566  1
  Ca2+  Ca76  1  0.00182485  0.24732744  0.74874989  1
  Ca2+  Ca77  1  0.24864183  0.00254512  0.25362649  1
  Ca2+  Ca78  1  0.00148872  0.74772126  0.74844093  1
  Ca2+  Ca79  1  0.75047184  0.49913464  0.25026471  1
  Ca2+  Ca80  1  0.00267261  0.25068959  0.24717986  1
  Ca2+  Ca81  1  0.24834751  0.00422740  0.75456159  1
  Ca2+  Ca82  1  0.74869192  0.49599954  0.74752843  1
  Ca2+  Ca83  1  0.49975890  0.25184695  0.25000665  1
  Ca2+  Ca84  1  0.49774398  0.74759820  0.74861056  1
  Nb5+  Nb85  1  0.49909435  -0.00777473  0.00313096  1
  Nb5+  Nb86  1  0.49719509  0.49572874  0.00596495  1
  Nb5+  Nb87  1  0.49850568  0.50043573  0.51111256  1
  Nb5+  Nb88  1  0.74401830  0.25086075  -0.00016272  1
  Nb5+  Nb89  1  0.24738048  0.25075941  0.50443018  1
  Nb5+  Nb90  1  0.24468579  0.25318515  0.00150632  1
  Nb5+  Nb91  1  0.74734242  0.00092154  0.24866689  1
  Nb5+  Nb92  1  0.49693852  0.74904249  0.25059089  1
  Nb5+  Nb93  1  0.25092693  0.49604382  0.74513150  1
  Nb5+  Nb94  1  -0.00591687  0.75063030  0.24776163  1
  Nb5+  Nb95  1  0.25062093  0.49918755  0.24555989  1
  Nb5+  Nb96  1  0.00346469  -0.00006756  0.24136898  1
  Nb5+  Nb97  1  -0.00071168  -0.00285519  0.75118984  1
  Nb5+  Nb98  1  -0.00538034  0.50240796  0.25429798  1
  Nb5+  Nb99  1  -0.00492410  0.50229196  0.75155986  1
  Nb5+  Nb100  1  0.50187634  -0.00003692  0.25404633  1
  Nb5+  Nb101  1  0.49734963  0.00374354  0.74832241  1
  Nb5+  Nb102  1  0.49675276  0.49813619  0.25439599  1
  Nb5+  Nb103  1  0.50161945  0.49697335  0.75610970  1
  Nb5+  Nb104  1  0.24856123  0.25082930  0.25951313  1
  Nb5+  Nb105  1  0.24930308  0.24966850  0.76143116  1
  Nb5+  Nb106  1  0.24662109  0.75431367  0.25219338  1
  Nb5+  Nb107  1  0.25327700  0.75561885  0.74924204  1
  Nb5+  Nb108  1  0.75405559  0.25137078  0.25055267  1
  Nb5+  Nb109  1  0.74663927  0.24970777  0.74506802  1
  Nb5+  Nb110  1  0.74053380  0.74999493  0.25079458  1
  Nb5+  Nb111  1  0.74876755  0.74715977  0.74898602  1
  Nb5+  Nb112  1  -0.00427530  0.24738406  0.50027191  1
  Nb5+  Nb113  1  -0.00994192  0.24903591  1.00085688  1
  Nb5+  Nb114  1  0.00194763  0.75274913  0.50413451  1
  Nb5+  Nb115  1  0.00093160  0.74742156  0.99509763  1
  Nb5+  Nb116  1  0.50260609  0.24936328  0.49541364  1
  Nb5+  Nb117  1  0.49592506  0.24631898  1.00205333  1
  Nb5+  Nb118  1  0.50087229  0.74886118  0.50473843  1
  Nb5+  Nb119  1  0.50021998  0.74206865  0.99781835  1
  Nb5+  Nb120  1  0.24952021  -0.00377478  0.00671731  1
  Nb5+  Nb121  1  0.25164840  -0.00475385  0.49849751  1
  Nb5+  Nb122  1  0.24983635  0.49628533  -0.00754769  1
  Nb5+  Nb123  1  0.24833243  0.49590203  0.49229473  1
  Nb5+  Nb124  1  0.75196352  0.00134992  0.00125284  1
  Nb5+  Nb125  1  0.75072954  0.00192097  0.51028021  1
  Nb5+  Nb126  1  0.75044200  0.50426843  0.00023837  1
  Nb5+  Nb127  1  0.75851889  0.50011066  0.49367207  1
  O2-  O128  1  -0.03705023  -0.02021041  0.13369109  1
  O2-  O129  1  -0.03051869  -0.02029883  0.63439658  1
  O2-  O130  1  -0.01019948  0.48496585  0.13658790  1
  O2-  O131  1  -0.01861271  0.48319751  0.63243552  1
  O2-  O132  1  0.48589878  0.01137602  0.12615028  1
  O2-  O133  1  0.48021908  0.02277800  0.63501324  1
  O2-  O134  1  0.48318738  0.52399956  0.11744456  1
  O2-  O135  1  0.48154284  0.52143826  0.62250967  1
  O2-  O136  1  0.00748348  0.01138514  0.36041383  1
  O2-  O137  1  0.02654218  0.01432900  0.86911480  1
  O2-  O138  1  0.03869607  0.52031630  0.36124507  1
  O2-  O139  1  0.03076798  0.51736386  0.86508900  1
  O2-  O140  1  0.52090863  -0.02825099  0.36395823  1
  O2-  O141  1  0.51455462  -0.01829928  0.88755312  1
  O2-  O142  1  0.50722615  0.48297236  0.36861775  1
  O2-  O143  1  0.51106349  0.47777600  0.87377130  1
  O2-  O144  1  0.23242564  0.25466619  0.11752804  1
  O2-  O145  1  0.23439569  0.25017521  0.61955367  1
  O2-  O146  1  0.23687788  0.73159443  0.13661090  1
  O2-  O147  1  0.22088276  0.73759546  0.63536070  1
  O2-  O148  1  0.73674292  0.26165251  0.12004209  1
  O2-  O149  1  0.72406246  0.24885230  0.63243151  1
  O2-  O150  1  0.73717241  0.76634639  0.13661711  1
  O2-  O151  1  0.72461647  0.75462943  0.63171031  1
  O2-  O152  1  0.27243730  0.25721127  0.37239849  1
  O2-  O153  1  0.27462219  0.25721135  0.87544900  1
  O2-  O154  1  0.27486006  0.74391842  0.36419856  1
  O2-  O155  1  0.28251820  0.75025510  0.86630361  1
  O2-  O156  1  0.76908217  0.23360805  0.36400400  1
  O2-  O157  1  0.76473180  0.24565196  0.88276863  1
  O2-  O158  1  0.77574317  0.76295699  0.36186991  1
  O2-  O159  1  0.77093567  0.74368580  0.86969115  1
  O2-  O160  1  0.00840303  0.28148549  0.11337158  1
  O2-  O161  1  0.00786399  0.27784212  0.61431355  1
  O2-  O162  1  0.01518165  0.77167298  0.13262426  1
  O2-  O163  1  0.00891777  0.77980570  0.61483337  1
  O2-  O164  1  0.52389263  0.24315495  0.11570392  1
  O2-  O165  1  0.51544759  0.23542855  0.61333739  1
  O2-  O166  1  0.52737165  0.73780377  0.13243812  1
  O2-  O167  1  0.52943355  0.72960984  0.61350134  1
  O2-  O168  1  0.21588222  -0.00517652  0.38561590  1
  O2-  O169  1  0.23407408  -0.00747189  0.89142123  1
  O2-  O170  1  0.24193386  0.48958047  0.37458907  1
  O2-  O171  1  0.24017212  0.48551462  0.87630660  1
  O2-  O172  1  0.72760196  0.00148728  0.36471415  1
  O2-  O173  1  0.71891268  0.00232792  0.89045351  1
  O2-  O174  1  0.71541429  0.49476130  0.38135132  1
  O2-  O175  1  0.72308575  0.49520833  0.88482428  1
  O2-  O176  1  -0.00224927  0.22328075  0.38070460  1
  O2-  O177  1  -0.00521881  0.22230093  0.88474806  1
  O2-  O178  1  -0.00461350  0.72818985  0.36398228  1
  O2-  O179  1  -0.00961531  0.71871370  0.88464849  1
  O2-  O180  1  0.47412541  0.27167504  0.38142220  1
  O2-  O181  1  0.48361770  0.27106433  0.88855717  1
  O2-  O182  1  0.47800055  0.76137238  0.36654183  1
  O2-  O183  1  0.47347926  0.76127822  0.88902592  1
  O2-  O184  1  0.26644028  0.03218763  0.11967985  1
  O2-  O185  1  0.27479955  0.02120127  0.61560125  1
  O2-  O186  1  0.27153181  0.49982571  0.12644543  1
  O2-  O187  1  0.26647352  0.49810805  0.62662518  1
  O2-  O188  1  0.75752796  0.00871649  0.12403775  1
  O2-  O189  1  0.77072270  0.01358763  0.62084939  1
  O2-  O190  1  0.75883864  0.48194692  0.11470103  1
  O2-  O191  1  0.77348727  0.50279816  0.61173208  1
  O2-  O192  1  0.13904195  0.29223954  0.25558131  1
  O2-  O193  1  0.13810224  0.28539004  0.75867745  1
  O2-  O194  1  0.13043803  0.76657201  0.26609975  1
  O2-  O195  1  0.13769415  0.76256654  0.78046019  1
  O2-  O196  1  0.63659483  0.27588385  0.26111140  1
  O2-  O197  1  0.63377863  0.28611039  0.76815837  1
  O2-  O198  1  0.62591808  0.76882322  0.26996777  1
  O2-  O199  1  0.63037139  0.76916424  0.77396245  1
  O2-  O200  1  0.36058086  0.23369670  0.22380819  1
  O2-  O201  1  0.36182706  0.23184962  0.72796836  1
  O2-  O202  1  0.38182083  0.73549397  0.23035068  1
  O2-  O203  1  0.36535551  0.72027744  0.72634751  1
  O2-  O204  1  0.86716680  0.22376023  0.22414424  1
  O2-  O205  1  0.86357497  0.21939536  0.73770382  1
  O2-  O206  1  0.87906180  0.73352705  0.23178029  1
  O2-  O207  1  0.86605932  0.72280338  0.72790330  1
  O2-  O208  1  0.28077804  0.38323849  0.25155202  1
  O2-  O209  1  0.27657277  0.37704883  0.74965821  1
  O2-  O210  1  0.27219999  0.86551314  0.24032075  1
  O2-  O211  1  0.27417506  0.86819067  0.73795985  1
  O2-  O212  1  0.78292584  0.36477448  0.25417322  1
  O2-  O213  1  0.78404293  0.36452850  0.74993947  1
  O2-  O214  1  0.76239474  0.88316426  0.24654521  1
  O2-  O215  1  0.77089996  0.86707711  0.75160413  1
  O2-  O216  1  0.21596128  0.14071961  0.26141453  1
  O2-  O217  1  0.21885272  0.13866675  0.76349550  1
  O2-  O218  1  0.23963639  0.61798844  0.25740948  1
  O2-  O219  1  0.23441002  0.61288828  0.75866152  1
  O2-  O220  1  0.72538244  0.12410037  0.24129478  1
  O2-  O221  1  0.71492035  0.13547609  0.75942222  1
  O2-  O222  1  0.72832269  0.63615320  0.25066210  1
  O2-  O223  1  0.72142877  0.62922247  0.74974150  1
  O2-  O224  1  0.13660806  0.48557660  0.22910738  1
  O2-  O225  1  0.13455322  0.47708406  0.73392159  1
  O2-  O226  1  0.11360000  0.97288800  0.22426171  1
  O2-  O227  1  0.11750432  0.97311181  0.72981973  1
  O2-  O228  1  0.61019794  0.49217857  0.22605201  1
  O2-  O229  1  0.61086594  0.48156583  0.72311398  1
  O2-  O230  1  0.62485797  0.98468949  0.22681742  1
  O2-  O231  1  0.61311193  0.98001735  0.73784168  1
  O2-  O232  1  0.38649491  0.01178254  0.26975700  1
  O2-  O233  1  0.38222479  0.01435499  0.78269244  1
  O2-  O234  1  0.37835235  0.52696676  0.25847290  1
  O2-  O235  1  0.37197683  0.51638468  0.76290198  1
  O2-  O236  1  0.86503424  0.01850174  0.26156648  1
  O2-  O237  1  0.88255151  0.01913872  0.77692102  1
  O2-  O238  1  0.88542340  0.53372840  0.26693385  1
  O2-  O239  1  0.88384136  0.52530289  0.77008218  1
  O2-  O240  1  0.47794988  0.38861644  0.22785156  1
  O2-  O241  1  0.46936284  0.38564928  0.73497739  1
  O2-  O242  1  0.49110779  0.87031393  0.23158361  1
  O2-  O243  1  0.47589363  0.88406070  0.74207530  1
  O2-  O244  1  0.98141666  0.38863568  0.27488295  1
  O2-  O245  1  0.98560906  0.38439483  0.77135382  1
  O2-  O246  1  0.98234376  0.86920244  0.26688959  1
  O2-  O247  1  0.98116930  0.87905274  0.77539946  1
  O2-  O248  1  0.01630347  0.11350044  0.22388984  1
  O2-  O249  1  0.01913064  0.11408909  0.72503733  1
  O2-  O250  1  0.02004289  0.63093249  0.22845691  1
  O2-  O251  1  0.02803838  0.61458114  0.72683373  1
  O2-  O252  1  0.52136234  0.11429454  0.26235877  1
  O2-  O253  1  0.51506309  0.11744685  0.77951087  1
  O2-  O254  1  0.51598232  0.62897485  0.26298772  1
  O2-  O255  1  0.50951944  0.61307777  0.77616997  1
  O2-  O256  1  0.14021118  0.47380484  0.01591963  1
  O2-  O257  1  0.13817590  0.47228656  0.51519015  1
  O2-  O258  1  0.13537690  0.98880511  0.02807942  1
  O2-  O259  1  0.13463819  0.98663948  0.52776966  1
  O2-  O260  1  0.61406247  0.47967336  0.01460056  1
  O2-  O261  1  0.61390046  0.48065823  0.51877188  1
  O2-  O262  1  0.61766649  0.99420893  0.02422508  1
  O2-  O263  1  0.63526322  0.96048198  0.51766198  1
  O2-  O264  1  0.38105220  0.01993218  -0.01024817  1
  O2-  O265  1  0.36758653  0.01658090  0.46894487  1
  O2-  O266  1  0.37991656  0.51132072  -0.02222394  1
  O2-  O267  1  0.37468028  0.50964653  0.48483084  1
  O2-  O268  1  0.86104742  0.03303665  -0.01505467  1
  O2-  O269  1  0.86054261  0.03304763  0.47588641  1
  O2-  O270  1  0.86305243  0.52434697  -0.01685815  1
  O2-  O271  1  0.86801678  0.51704612  0.46327970  1
  O2-  O272  1  0.48301590  0.37931771  0.01929449  1
  O2-  O273  1  0.47883788  0.38074277  0.51383312  1
  O2-  O274  1  0.48401838  0.87899991  0.01873348  1
  O2-  O275  1  0.47641344  0.86146629  0.51491091  1
  O2-  O276  1  0.98404386  0.36545848  -0.02785042  1
  O2-  O277  1  0.98874471  0.36456404  0.47121151  1
  O2-  O278  1  0.97800333  0.86495387  -0.01844434  1
  O2-  O279  1  0.97895483  0.86448972  0.46851567  1
  O2-  O280  1  0.02513807  0.13789995  0.02488967  1
  O2-  O281  1  0.03175432  0.13481525  0.51950063  1
  O2-  O282  1  0.02129160  0.63328641  0.02975861  1
  O2-  O283  1  0.03263800  0.63533951  0.51186983  1
  O2-  O284  1  0.50938656  0.12966540  -0.01160747  1
  O2-  O285  1  0.50961103  0.13598321  0.47204158  1
  O2-  O286  1  0.51704546  0.62501675  -0.01358530  1
  O2-  O287  1  0.51160271  0.61358655  0.47727408  1
  O2-  O288  1  0.13338698  0.27121214  -0.01927071  1
  O2-  O289  1  0.13508986  0.27128820  0.48067427  1
  O2-  O290  1  0.11845121  0.77369079  -0.00907652  1
  O2-  O291  1  0.11853049  0.77320027  0.47588151  1
  O2-  O292  1  0.62522540  0.26621817  -0.01427285  1
  O2-  O293  1  0.61366911  0.27780674  0.48171662  1
  O2-  O294  1  0.61216683  0.77746250  -0.00983291  1
  O2-  O295  1  0.61226293  0.75434110  0.46587663  1
  O2-  O296  1  0.37907441  0.23677817  0.02010039  1
  O2-  O297  1  0.37250124  0.23904838  0.51371459  1
  O2-  O298  1  0.38981976  0.74021974  0.03691509  1
  O2-  O299  1  0.38731247  0.71589456  0.50730689  1
  O2-  O300  1  0.87340339  0.23329810  0.01471056  1
  O2-  O301  1  0.88351750  0.22634573  0.51306405  1
  O2-  O302  1  0.88500023  0.73170961  0.02603326  1
  O2-  O303  1  0.88733073  0.71732453  0.50795857  1
  O2-  O304  1  0.27960449  0.37228551  0.00106374  1
  O2-  O305  1  0.27392402  0.37272480  0.50075758  1
  O2-  O306  1  0.27355282  0.88585007  0.02309683  1
  O2-  O307  1  0.27692287  0.88335651  0.51064567  1
  O2-  O308  1  0.76375111  0.37070453  -0.00712337  1
  O2-  O309  1  0.76644496  0.38016514  0.49701502  1
  O2-  O310  1  0.76994281  0.88811847  0.00353965  1
  O2-  O311  1  0.78098204  0.88646986  0.49881474  1
  O2-  O312  1  0.24111237  0.13626196  -0.01069551  1
  O2-  O313  1  0.23919274  0.13420088  0.48861347  1
  O2-  O314  1  0.24085889  0.61062199  -0.00464659  1
  O2-  O315  1  0.23594779  0.61039841  0.49887583  1
  O2-  O316  1  0.72618072  0.13189353  0.00829879  1
  O2-  O317  1  0.70263501  0.11205621  0.49945848  1
  O2-  O318  1  0.71620853  0.61413267  0.00969034  1
  O2-  O319  1  0.72457311  0.61479161  0.49713077  1
