# generated using pymatgen
data_Sr64Ca21Nb43O192
_symmetry_space_group_name_H-M   'P 1'
_cell_length_a   16.53954810
_cell_length_b   16.53531210
_cell_length_c   16.67009753
_cell_angle_alpha   90.08320305
_cell_angle_beta   90.03066135
_cell_angle_gamma   89.97387139
_symmetry_Int_Tables_number   1
_chemical_formula_structural   Sr64Ca21Nb43O192
_chemical_formula_sum   'Sr64 Ca21 Nb43 O192'
_cell_volume   4559.04219450
_cell_formula_units_Z   1
loop_
 _symmetry_equiv_pos_site_id
 _symmetry_equiv_pos_as_xyz
  1  'x, y, z'
loop_
 _atom_type_symbol
 _atom_type_oxidation_number
  Sr2+  2.0
  Ca2+  2.0
  Nb5+  5.0
  O2-  -2.0
loop_
 _atom_site_type_symbol
 _atom_site_label
 _atom_site_symmetry_multiplicity
 _atom_site_fract_x
 _atom_site_fract_y
 _atom_site_fract_z
 _atom_site_occupancy
  Sr2+  Sr0  1  0.13398267  0.11988908  0.13488696  1
  Sr2+  Sr1  1  0.12688749  0.11128772  0.62586288  1
  Sr2+  Sr2  1  0.12631209  0.60677521  0.11878487  1
  Sr2+  Sr3  1  0.14245509  0.61994429  0.62552048  1
  Sr2+  Sr4  1  0.63015784  0.10813858  0.12475561  1
  Sr2+  Sr5  1  0.63522354  0.12140560  0.63224481  1
  Sr2+  Sr6  1  0.63441059  0.61782238  0.12818813  1
  Sr2+  Sr7  1  0.62594470  0.60824651  0.61942068  1
  Sr2+  Sr8  1  0.37658277  0.36715802  0.11532220  1
  Sr2+  Sr9  1  0.39011725  0.36417158  0.62374959  1
  Sr2+  Sr10  1  0.38669223  0.86637096  0.13007994  1
  Sr2+  Sr11  1  0.37724974  0.86376975  0.62858915  1
  Sr2+  Sr12  1  0.89000439  0.37159392  0.12890696  1
  Sr2+  Sr13  1  0.87547358  0.35648157  0.62479897  1
  Sr2+  Sr14  1  0.87419502  0.86318462  0.12466031  1
  Sr2+  Sr15  1  0.88841650  0.87187735  0.62388975  1
  Sr2+  Sr16  1  0.11923927  0.38048253  0.37110967  1
  Sr2+  Sr17  1  0.11377828  0.37915924  0.87290346  1
  Sr2+  Sr18  1  0.11022708  0.87850533  0.38035836  1
  Sr2+  Sr19  1  0.11578112  0.88843724  0.87534105  1
  Sr2+  Sr20  1  0.61353304  0.38077551  0.37602412  1
  Sr2+  Sr21  1  0.61849634  0.38783419  0.88013422  1
  Sr2+  Sr22  1  0.62296389  0.88097285  0.36923558  1
  Sr2+  Sr23  1  0.61570038  0.87606790  0.87915509  1
  Sr2+  Sr24  1  0.36185051  0.13535915  0.37533475  1
  Sr2+  Sr25  1  0.36259689  0.13148888  0.87437159  1
  Sr2+  Sr26  1  0.36527006  0.63190855  0.38031793  1
  Sr2+  Sr27  1  0.36695836  0.63439928  0.87442153  1
  Sr2+  Sr28  1  0.86183021  0.12723277  0.36917887  1
  Sr2+  Sr29  1  0.86428636  0.13829035  0.87430638  1
  Sr2+  Sr30  1  0.86954656  0.63625634  0.37236977  1
  Sr2+  Sr31  1  0.85958715  0.62620551  0.87796037  1
  Sr2+  Sr32  1  0.11304771  0.13198989  0.37256409  1
  Sr2+  Sr33  1  0.12257600  0.13917008  0.87427232  1
  Sr2+  Sr34  1  0.12498578  0.63414215  0.37803862  1
  Sr2+  Sr35  1  0.11034620  0.63182004  0.87330436  1
  Sr2+  Sr36  1  0.61945767  0.13959646  0.37004704  1
  Sr2+  Sr37  1  0.61259869  0.13308307  0.87601300  1
  Sr2+  Sr38  1  0.61512254  0.62725398  0.37390610  1
  Sr2+  Sr39  1  0.62304236  0.63521938  0.88038333  1
  Sr2+  Sr40  1  0.36877939  0.38767431  0.37879706  1
  Sr2+  Sr41  1  0.36150840  0.37398548  0.87868225  1
  Sr2+  Sr42  1  0.36890065  0.88211008  0.36986187  1
  Sr2+  Sr43  1  0.37565984  0.89297390  0.87354918  1
  Sr2+  Sr44  1  0.86342278  0.38307437  0.37367863  1
  Sr2+  Sr45  1  0.87058275  0.38878615  0.87104021  1
  Sr2+  Sr46  1  0.87101704  0.88649171  0.38255447  1
  Sr2+  Sr47  1  0.86266269  0.87854556  0.87139741  1
  Sr2+  Sr48  1  0.13922619  0.37288512  0.12380388  1
  Sr2+  Sr49  1  0.12829373  0.36300744  0.62771963  1
  Sr2+  Sr50  1  0.12703593  0.86773607  0.12100004  1
  Sr2+  Sr51  1  0.13719918  0.87365418  0.62373477  1
  Sr2+  Sr52  1  0.63076803  0.36408134  0.13056119  1
  Sr2+  Sr53  1  0.64031637  0.37133983  0.61707601  1
  Sr2+  Sr54  1  0.63559827  0.86920082  0.12698111  1
  Sr2+  Sr55  1  0.63567072  0.86298014  0.62763615  1
  Sr2+  Sr56  1  0.38835818  0.12341019  0.11682733  1
  Sr2+  Sr57  1  0.38069156  0.11184204  0.62780534  1
  Sr2+  Sr58  1  0.37567518  0.61626539  0.13430828  1
  Sr2+  Sr59  1  0.38558339  0.62316433  0.62645159  1
  Sr2+  Sr60  1  0.87443024  0.11390999  0.12701146  1
  Sr2+  Sr61  1  0.88768326  0.12137726  0.62752269  1
  Sr2+  Sr62  1  0.89341249  0.62090002  0.12284180  1
  Sr2+  Sr63  1  0.88309151  0.61392814  0.62336023  1
  Ca2+  Ca64  1  0.49915700  0.50099951  0.00063639  1
  Ca2+  Ca65  1  -0.00053905  0.00327074  -0.00121259  1
  Ca2+  Ca66  1  0.50117792  -0.00352337  0.49990042  1
  Ca2+  Ca67  1  0.00177344  0.49752649  0.50275853  1
  Ca2+  Ca68  1  0.50019735  -0.00077662  0.00064630  1
  Ca2+  Ca69  1  0.25144675  0.75129976  -0.00241857  1
  Ca2+  Ca70  1  0.24932168  0.24835189  0.50437390  1
  Ca2+  Ca71  1  0.75030215  0.74947937  0.49954813  1
  Ca2+  Ca72  1  0.75174546  0.24950395  0.00250725  1
  Ca2+  Ca73  1  0.74993817  0.24745163  0.49832651  1
  Ca2+  Ca74  1  0.00010456  0.75033613  0.74907179  1
  Ca2+  Ca75  1  0.25026088  0.50032495  0.25129494  1
  Ca2+  Ca76  1  -0.00197510  0.25035199  0.24795126  1
  Ca2+  Ca77  1  0.25068418  -0.00054126  0.25236396  1
  Ca2+  Ca78  1  0.49826248  0.25123959  0.75094044  1
  Ca2+  Ca79  1  0.75079364  0.00139898  0.75047315  1
  Ca2+  Ca80  1  0.74846922  0.50168001  0.74859266  1
  Ca2+  Ca81  1  0.00136107  0.74983512  0.24973507  1
  Ca2+  Ca82  1  0.75141466  0.50308001  0.24849588  1
  Ca2+  Ca83  1  0.25238820  0.49950816  0.74921398  1
  Ca2+  Ca84  1  0.49498751  0.25052823  0.25055896  1
  Nb5+  Nb85  1  0.49724104  0.49801281  0.49917769  1
  Nb5+  Nb86  1  -0.00015339  0.49864431  -0.00281696  1
  Nb5+  Nb87  1  0.00046950  0.00205255  0.49896107  1
  Nb5+  Nb88  1  0.25206614  0.75242417  0.49966102  1
  Nb5+  Nb89  1  0.24654268  0.24808380  0.00154698  1
  Nb5+  Nb90  1  0.74975987  0.75011196  -0.00066168  1
  Nb5+  Nb91  1  0.49999087  0.74847911  0.25549984  1
  Nb5+  Nb92  1  -0.00138489  0.24992382  0.75083516  1
  Nb5+  Nb93  1  0.50097202  0.74825575  0.75593563  1
  Nb5+  Nb94  1  0.24933669  0.00006444  0.75185940  1
  Nb5+  Nb95  1  0.74873614  -0.00180887  0.25042981  1
  Nb5+  Nb96  1  0.00066109  -0.00753779  0.24378474  1
  Nb5+  Nb97  1  -0.00069920  0.00332071  0.75461414  1
  Nb5+  Nb98  1  0.00319418  0.50308644  0.25708769  1
  Nb5+  Nb99  1  0.00048140  0.50109166  0.74473115  1
  Nb5+  Nb100  1  0.49913935  0.00440976  0.25430381  1
  Nb5+  Nb101  1  0.50621293  -0.00180669  0.74399311  1
  Nb5+  Nb102  1  0.49502917  0.49633036  0.24811542  1
  Nb5+  Nb103  1  0.49875872  0.49925917  0.75334677  1
  Nb5+  Nb104  1  0.25188205  0.25215483  0.25629443  1
  Nb5+  Nb105  1  0.24975265  0.24953499  0.74604218  1
  Nb5+  Nb106  1  0.24552062  0.75182589  0.24579832  1
  Nb5+  Nb107  1  0.24867201  0.75325040  0.75511886  1
  Nb5+  Nb108  1  0.75122073  0.25451952  0.24600942  1
  Nb5+  Nb109  1  0.74224252  0.25461110  0.75684371  1
  Nb5+  Nb110  1  0.75182505  0.74915898  0.25061803  1
  Nb5+  Nb111  1  0.75173730  0.74565261  0.74305389  1
  Nb5+  Nb112  1  -0.00420451  0.25090462  0.49390143  1
  Nb5+  Nb113  1  0.00239596  0.24748728  1.00381579  1
  Nb5+  Nb114  1  0.00198349  0.74441903  0.50711857  1
  Nb5+  Nb115  1  -0.00125301  0.75547825  0.99209283  1
  Nb5+  Nb116  1  0.50275764  0.24093288  0.50509830  1
  Nb5+  Nb117  1  0.50449306  0.25381930  0.99775495  1
  Nb5+  Nb118  1  0.50136993  0.75345989  0.50398623  1
  Nb5+  Nb119  1  0.50026807  0.74699243  1.00986603  1
  Nb5+  Nb120  1  0.25282437  -0.00130922  0.00734162  1
  Nb5+  Nb121  1  0.24944335  0.00098187  0.49648392  1
  Nb5+  Nb122  1  0.24951383  0.50488742  -0.00841851  1
  Nb5+  Nb123  1  0.25064543  0.49434465  0.50678865  1
  Nb5+  Nb124  1  0.74705932  0.00021908  -0.00516293  1
  Nb5+  Nb125  1  0.74796864  -0.00001190  0.50474436  1
  Nb5+  Nb126  1  0.75040355  0.49452370  0.00761818  1
  Nb5+  Nb127  1  0.75564374  0.50437178  0.49548319  1
  O2-  O128  1  -0.02005007  -0.02645901  0.13227062  1
  O2-  O129  1  -0.01363155  -0.00650715  0.62467526  1
  O2-  O130  1  -0.01530015  0.48954533  0.11602461  1
  O2-  O131  1  -0.03095952  0.47952633  0.63529501  1
  O2-  O132  1  0.47854326  -0.01543544  0.13798542  1
  O2-  O133  1  0.46743263  -0.01812159  0.63342092  1
  O2-  O134  1  0.46707739  0.49125847  0.13490036  1
  O2-  O135  1  0.47649234  0.49703510  0.61780035  1
  O2-  O136  1  0.01811220  0.01272816  0.38115014  1
  O2-  O137  1  0.02858030  0.01895818  0.86503293  1
  O2-  O138  1  0.02921701  0.51451288  0.36908691  1
  O2-  O139  1  0.02149085  0.50869600  0.87646608  1
  O2-  O140  1  0.53558393  0.00380332  0.36712892  1
  O2-  O141  1  0.52063496  0.00316224  0.86234015  1
  O2-  O142  1  0.51713449  0.51373995  0.37820128  1
  O2-  O143  1  0.52945878  0.51602678  0.86342410  1
  O2-  O144  1  0.22642598  0.23712471  0.11657643  1
  O2-  O145  1  0.21768466  0.23057377  0.63637797  1
  O2-  O146  1  0.22814661  0.72973872  0.13392300  1
  O2-  O147  1  0.23921759  0.74231716  0.62872724  1
  O2-  O148  1  0.72169256  0.22536276  0.13378966  1
  O2-  O149  1  0.73073226  0.23577135  0.63806811  1
  O2-  O150  1  0.72983089  0.74228277  0.12098961  1
  O2-  O151  1  0.71859133  0.73192463  0.63348351  1
  O2-  O152  1  0.27356690  0.26806051  0.36885918  1
  O2-  O153  1  0.26111313  0.25519418  0.87194083  1
  O2-  O154  1  0.26975171  0.76785864  0.38373910  1
  O2-  O155  1  0.28573453  0.77024557  0.86426400  1
  O2-  O156  1  0.77805497  0.25776412  0.36317144  1
  O2-  O157  1  0.78146169  0.26669396  0.86917730  1
  O2-  O158  1  0.77069656  0.76860889  0.36338241  1
  O2-  O159  1  0.76262544  0.76551819  0.87876974  1
  O2-  O160  1  0.01779192  0.28118496  0.11306937  1
  O2-  O161  1  0.01263019  0.26516864  0.63206248  1
  O2-  O162  1  0.00685324  0.77031552  0.11079634  1
  O2-  O163  1  0.01751337  0.78300405  0.61779021  1
  O2-  O164  1  0.50240634  0.28119258  0.11530960  1
  O2-  O165  1  0.51982243  0.27964807  0.61807963  1
  O2-  O166  1  0.51407525  0.76834296  0.12410592  1
  O2-  O167  1  0.51137711  0.76731891  0.62003979  1
  O2-  O168  1  0.23462650  -0.03260008  0.38701289  1
  O2-  O169  1  0.23615130  -0.01983446  0.86884534  1
  O2-  O170  1  0.23506566  0.48187953  0.38866006  1
  O2-  O171  1  0.23597235  0.46655761  0.88085145  1
  O2-  O172  1  0.74497964  -0.02704297  0.36868723  1
  O2-  O173  1  0.73657936  -0.03050584  0.88368047  1
  O2-  O174  1  0.73415564  0.47253018  0.38139585  1
  O2-  O175  1  0.73761728  0.48493116  0.88896686  1
  O2-  O176  1  -0.01566352  0.22162112  0.38362762  1
  O2-  O177  1  -0.00863655  0.23078381  0.87401763  1
  O2-  O178  1  -0.00207273  0.72897121  0.38848537  1
  O2-  O179  1  -0.02126281  0.71926097  0.88086805  1
  O2-  O180  1  0.47701448  0.23105966  0.38839511  1
  O2-  O181  1  0.48286744  0.22115468  0.88434495  1
  O2-  O182  1  0.48818023  0.73087684  0.37078083  1
  O2-  O183  1  0.49150467  0.72881869  0.87027401  1
  O2-  O184  1  0.26448888  0.03049637  0.11701443  1
  O2-  O185  1  0.25747062  0.01562488  0.62624264  1
  O2-  O186  1  0.25808539  0.51781837  0.11110400  1
  O2-  O187  1  0.26861389  0.53294373  0.61705932  1
  O2-  O188  1  0.76249484  0.01142176  0.12851100  1
  O2-  O189  1  0.76461793  0.03097777  0.61464608  1
  O2-  O190  1  0.76976811  0.53678204  0.11535696  1
  O2-  O191  1  0.75859289  0.53067971  0.61331305  1
  O2-  O192  1  0.13320639  0.27448560  0.26295709  1
  O2-  O193  1  0.12279657  0.26366014  0.76950406  1
  O2-  O194  1  0.13626378  0.77860229  0.26841944  1
  O2-  O195  1  0.13655280  0.77658930  0.77236957  1
  O2-  O196  1  0.63291189  0.26772161  0.27244799  1
  O2-  O197  1  0.63102098  0.27621780  0.78033460  1
  O2-  O198  1  0.62112967  0.77075654  0.26057535  1
  O2-  O199  1  0.61941321  0.77387378  0.76371825  1
  O2-  O200  1  0.36229080  0.21563229  0.22845785  1
  O2-  O201  1  0.36214942  0.22059189  0.73466844  1
  O2-  O202  1  0.38224371  0.73406267  0.23250198  1
  O2-  O203  1  0.38155128  0.73715922  0.73081240  1
  O2-  O204  1  0.86540614  0.22273981  0.22540794  1
  O2-  O205  1  0.88226995  0.22829246  0.73746674  1
  O2-  O206  1  0.86435971  0.73043120  0.22787634  1
  O2-  O207  1  0.86509071  0.72568375  0.72639942  1
  O2-  O208  1  0.27551778  0.36557746  0.22646370  1
  O2-  O209  1  0.27001680  0.36224195  0.72995240  1
  O2-  O210  1  0.28164440  0.86465682  0.23544109  1
  O2-  O211  1  0.26633065  0.87904534  0.73148444  1
  O2-  O212  1  0.76830430  0.36712499  0.22313517  1
  O2-  O213  1  0.77221465  0.36799738  0.73237391  1
  O2-  O214  1  0.76126777  0.87282755  0.22891842  1
  O2-  O215  1  0.77002996  0.86445891  0.73353216  1
  O2-  O216  1  0.22202400  0.13312104  0.26936461  1
  O2-  O217  1  0.22943668  0.11824682  0.76533132  1
  O2-  O218  1  0.24166443  0.63872068  0.27983093  1
  O2-  O219  1  0.23144027  0.63855971  0.76863302  1
  O2-  O220  1  0.73077771  0.11415327  0.26639698  1
  O2-  O221  1  0.72776370  0.13457424  0.77521414  1
  O2-  O222  1  0.72200920  0.63782264  0.26479275  1
  O2-  O223  1  0.72995920  0.63557603  0.77849097  1
  O2-  O224  1  0.11672766  0.47420710  0.22957239  1
  O2-  O225  1  0.11541805  0.47008150  0.73504263  1
  O2-  O226  1  0.11578456  0.97200493  0.23326143  1
  O2-  O227  1  0.12687722  0.98335203  0.73203065  1
  O2-  O228  1  0.61247516  0.48727776  0.22842725  1
  O2-  O229  1  0.61162945  0.48410552  0.71829679  1
  O2-  O230  1  0.62979447  0.97758549  0.23319615  1
  O2-  O231  1  0.61723033  0.97795021  0.71982159  1
  O2-  O232  1  0.38684218  0.01562844  0.28341878  1
  O2-  O233  1  0.36859607  0.01511488  0.76597422  1
  O2-  O234  1  0.38390978  0.53187267  0.27234149  1
  O2-  O235  1  0.38703365  0.53834094  0.76184563  1
  O2-  O236  1  0.87129882  0.01350691  0.26155233  1
  O2-  O237  1  0.88620881  0.02817287  0.76613920  1
  O2-  O238  1  0.88619548  0.53335109  0.26419621  1
  O2-  O239  1  0.88627228  0.51663766  0.77662706  1
  O2-  O240  1  0.47886800  0.38551159  0.27443530  1
  O2-  O241  1  0.46796797  0.38802186  0.76423578  1
  O2-  O242  1  0.48489300  0.86950386  0.26443519  1
  O2-  O243  1  0.48137007  0.87022062  0.76222495  1
  O2-  O244  1  0.96998514  0.38673077  0.26457919  1
  O2-  O245  1  0.98319861  0.36781954  0.76824276  1
  O2-  O246  1  0.97789740  0.88202651  0.28031744  1
  O2-  O247  1  0.98059677  0.88804363  0.76652014  1
  O2-  O248  1  0.01578236  0.11075714  0.23586390  1
  O2-  O249  1  0.02187923  0.12739235  0.73400435  1
  O2-  O250  1  0.02724917  0.61777405  0.22741829  1
  O2-  O251  1  0.02593731  0.61393132  0.72929838  1
  O2-  O252  1  0.52477599  0.11544852  0.23586697  1
  O2-  O253  1  0.51689587  0.11394210  0.73061004  1
  O2-  O254  1  0.52023054  0.63183254  0.23324657  1
  O2-  O255  1  0.52143999  0.63418202  0.72903872  1
  O2-  O256  1  0.12194493  0.48319258  0.01292063  1
  O2-  O257  1  0.13611798  0.48275488  0.52851654  1
  O2-  O258  1  0.13584791  0.97538177  0.01098489  1
  O2-  O259  1  0.12240002  0.98105124  0.51770469  1
  O2-  O260  1  0.63578056  0.47860658  0.02567138  1
  O2-  O261  1  0.61561297  0.48669506  0.51479183  1
  O2-  O262  1  0.63346454  0.97739363  0.02389947  1
  O2-  O263  1  0.63714915  0.97027940  0.51753629  1
  O2-  O264  1  0.36524823  0.01880960  -0.02678976  1
  O2-  O265  1  0.36336808  0.02200283  0.48573518  1
  O2-  O266  1  0.36442023  0.51802380  -0.02385009  1
  O2-  O267  1  0.37584368  0.51985631  0.48026533  1
  O2-  O268  1  0.86434574  0.02343789  -0.01065648  1
  O2-  O269  1  0.88225814  0.01899947  0.48565654  1
  O2-  O270  1  0.88012558  0.51607561  -0.01841138  1
  O2-  O271  1  0.86829937  0.52787195  0.47746342  1
  O2-  O272  1  0.47407961  0.36823610  -0.02642899  1
  O2-  O273  1  0.47776248  0.38310702  0.48522002  1
  O2-  O274  1  0.48352685  0.86041643  -0.02069466  1
  O2-  O275  1  0.46812719  0.86228644  0.48140214  1
  O2-  O276  1  0.98510903  0.37722719  -0.02134370  1
  O2-  O277  1  0.97162376  0.36444960  0.48083526  1
  O2-  O278  1  0.97721145  0.86715766  -0.03074987  1
  O2-  O279  1  0.98631702  0.88025379  0.48629732  1
  O2-  O280  1  0.03282951  0.13669699  0.01969684  1
  O2-  O281  1  0.02094998  0.12154595  0.51643788  1
  O2-  O282  1  0.01616877  0.62088677  0.01181780  1
  O2-  O283  1  0.02673977  0.63365735  0.52977695  1
  O2-  O284  1  0.51547050  0.13587529  0.02593566  1
  O2-  O285  1  0.52816418  0.13013476  0.52418884  1
  O2-  O286  1  0.53484971  0.63442317  0.01050537  1
  O2-  O287  1  0.51021111  0.62961937  0.50882964  1
  O2-  O288  1  0.12730414  0.26916129  -0.02250035  1
  O2-  O289  1  0.11321215  0.27350651  0.48783668  1
  O2-  O290  1  0.11460198  0.76788473  -0.02380782  1
  O2-  O291  1  0.13172139  0.76909395  0.48970941  1
  O2-  O292  1  0.61718483  0.27519747  -0.01870264  1
  O2-  O293  1  0.61559890  0.27250956  0.47767649  1
  O2-  O294  1  0.62834277  0.77008136  -0.01364590  1
  O2-  O295  1  0.61300359  0.77261978  0.48135223  1
  O2-  O296  1  0.36541898  0.23389056  0.01085523  1
  O2-  O297  1  0.38417958  0.23106433  0.53093547  1
  O2-  O298  1  0.38717714  0.71979455  0.01851150  1
  O2-  O299  1  0.37199065  0.73204290  0.51615043  1
  O2-  O300  1  0.88884056  0.22600014  0.01542247  1
  O2-  O301  1  0.88419818  0.22841470  0.52776601  1
  O2-  O302  1  0.87033444  0.73353346  0.01479156  1
  O2-  O303  1  0.88673472  0.72998148  0.51957150  1
  O2-  O304  1  0.26309433  0.36940770  0.01286243  1
  O2-  O305  1  0.27696315  0.38390465  0.52548604  1
  O2-  O306  1  0.27559140  0.88473574  0.02487817  1
  O2-  O307  1  0.26500308  0.87346856  0.52340024  1
  O2-  O308  1  0.77700447  0.38445155  0.02826702  1
  O2-  O309  1  0.76610136  0.38650741  0.52171649  1
  O2-  O310  1  0.77025246  0.87120054  0.01553659  1
  O2-  O311  1  0.78268240  0.88518507  0.51590221  1
  O2-  O312  1  0.23116250  0.12717819  -0.01811549  1
  O2-  O313  1  0.22320109  0.11336385  0.47957213  1
  O2-  O314  1  0.22557810  0.61658822  -0.03029812  1
  O2-  O315  1  0.23370437  0.63330490  0.48639086  1
  O2-  O316  1  0.72271203  0.11370851  -0.01966688  1
  O2-  O317  1  0.73416340  0.11071589  0.46608797  1
  O2-  O318  1  0.73527217  0.63155618  -0.01647486  1
  O2-  O319  1  0.72286903  0.61809021  0.47280517  1
