# generated using pymatgen
data_Sr64Ca21Nb43O192
_symmetry_space_group_name_H-M   'P 1'
_cell_length_a   16.56416717
_cell_length_b   16.55424655
_cell_length_c   16.71991144
_cell_angle_alpha   89.95567355
_cell_angle_beta   90.01753260
_cell_angle_gamma   90.06210911
_symmetry_Int_Tables_number   1
_chemical_formula_structural   Sr64Ca21Nb43O192
_chemical_formula_sum   'Sr64 Ca21 Nb43 O192'
_cell_volume   4584.71761390
_cell_formula_units_Z   1
loop_
 _symmetry_equiv_pos_site_id
 _symmetry_equiv_pos_as_xyz
  1  'x, y, z'
loop_
 _atom_type_symbol
 _atom_type_oxidation_number
  Sr2+  2.0
  Ca2+  2.0
  Nb5+  5.0
  O2-  -2.0
loop_
 _atom_site_type_symbol
 _atom_site_label
 _atom_site_symmetry_multiplicity
 _atom_site_fract_x
 _atom_site_fract_y
 _atom_site_fract_z
 _atom_site_occupancy
  Sr2+  Sr0  1  0.12155004  0.13011494  0.12174119  1
  Sr2+  Sr1  1  0.12590859  0.13872703  0.62441098  1
  Sr2+  Sr2  1  0.13617006  0.60880268  0.12680915  1
  Sr2+  Sr3  1  0.12462289  0.64355552  0.63067276  1
  Sr2+  Sr4  1  0.62832870  0.11925957  0.12462777  1
  Sr2+  Sr5  1  0.62368667  0.12669815  0.63757654  1
  Sr2+  Sr6  1  0.61881934  0.62621226  0.12941925  1
  Sr2+  Sr7  1  0.62324509  0.61726426  0.62490737  1
  Sr2+  Sr8  1  0.36177079  0.36809861  0.13012466  1
  Sr2+  Sr9  1  0.37318191  0.35876697  0.62279836  1
  Sr2+  Sr10  1  0.37052769  0.87082665  0.12202880  1
  Sr2+  Sr11  1  0.36909986  0.86822571  0.62841699  1
  Sr2+  Sr12  1  0.87885175  0.36431660  0.12572450  1
  Sr2+  Sr13  1  0.86839446  0.37287365  0.62895615  1
  Sr2+  Sr14  1  0.88248846  0.86466122  0.12522658  1
  Sr2+  Sr15  1  0.87625663  0.86240584  0.62826619  1
  Sr2+  Sr16  1  0.11832411  0.38576551  0.37678270  1
  Sr2+  Sr17  1  0.11000045  0.38438287  0.86965840  1
  Sr2+  Sr18  1  0.11998477  0.88301690  0.38520924  1
  Sr2+  Sr19  1  0.10309387  0.87357711  0.87131187  1
  Sr2+  Sr20  1  0.62113649  0.38385961  0.37150837  1
  Sr2+  Sr21  1  0.63196396  0.37803379  0.88303364  1
  Sr2+  Sr22  1  0.63588417  0.87529474  0.37185194  1
  Sr2+  Sr23  1  0.61717894  0.88498516  0.87754096  1
  Sr2+  Sr24  1  0.38197897  0.13508051  0.37449874  1
  Sr2+  Sr25  1  0.38043804  0.12715076  0.87700318  1
  Sr2+  Sr26  1  0.38246231  0.63082832  0.37216636  1
  Sr2+  Sr27  1  0.38237017  0.63204070  0.87051458  1
  Sr2+  Sr28  1  0.87823613  0.11929569  0.36644616  1
  Sr2+  Sr29  1  0.86927887  0.12860572  0.87578824  1
  Sr2+  Sr30  1  0.86339636  0.63564572  0.38029476  1
  Sr2+  Sr31  1  0.88447217  0.62777570  0.86522340  1
  Sr2+  Sr32  1  0.11862549  0.14098769  0.38387697  1
  Sr2+  Sr33  1  0.11942166  0.13378657  0.87555487  1
  Sr2+  Sr34  1  0.12207210  0.63536393  0.37807448  1
  Sr2+  Sr35  1  0.12530199  0.63300835  0.87213711  1
  Sr2+  Sr36  1  0.63878848  0.13150605  0.37341065  1
  Sr2+  Sr37  1  0.63139644  0.13912299  0.88202245  1
  Sr2+  Sr38  1  0.62154081  0.62949182  0.37443364  1
  Sr2+  Sr39  1  0.63725152  0.63540297  0.87330781  1
  Sr2+  Sr40  1  0.37684041  0.38748514  0.37427276  1
  Sr2+  Sr41  1  0.37367977  0.37693357  0.87284538  1
  Sr2+  Sr42  1  0.37569783  0.88381022  0.37807435  1
  Sr2+  Sr43  1  0.36720310  0.88397341  0.87756886  1
  Sr2+  Sr44  1  0.88042127  0.37670186  0.37973954  1
  Sr2+  Sr45  1  0.86733369  0.39235449  0.87459909  1
  Sr2+  Sr46  1  0.86782958  0.87724754  0.37455411  1
  Sr2+  Sr47  1  0.86777236  0.87204182  0.87974225  1
  Sr2+  Sr48  1  0.11473930  0.37538861  0.13985125  1
  Sr2+  Sr49  1  0.13197911  0.36679528  0.62223490  1
  Sr2+  Sr50  1  0.13109276  0.87235479  0.11009832  1
  Sr2+  Sr51  1  0.13837058  0.87109431  0.62665273  1
  Sr2+  Sr52  1  0.61561424  0.36163297  0.12438542  1
  Sr2+  Sr53  1  0.61211105  0.37388866  0.61889159  1
  Sr2+  Sr54  1  0.61254043  0.86999545  0.12300575  1
  Sr2+  Sr55  1  0.61158246  0.87494351  0.63173466  1
  Sr2+  Sr56  1  0.36717353  0.11231426  0.13128273  1
  Sr2+  Sr57  1  0.37383550  0.12110120  0.61702061  1
  Sr2+  Sr58  1  0.37028413  0.62342066  0.12408044  1
  Sr2+  Sr59  1  0.37199394  0.62007387  0.62282939  1
  Sr2+  Sr60  1  0.88464045  0.11589818  0.12333816  1
  Sr2+  Sr61  1  0.88320526  0.11486150  0.63331498  1
  Sr2+  Sr62  1  0.89371553  0.61686556  0.12305590  1
  Sr2+  Sr63  1  0.87292128  0.61302669  0.62658005  1
  Ca2+  Ca64  1  -0.00146849  -0.00142110  0.50173356  1
  Ca2+  Ca65  1  0.00277587  0.49836395  -0.00016728  1
  Ca2+  Ca66  1  0.49816350  0.49851038  0.00047045  1
  Ca2+  Ca67  1  0.00263359  0.50282475  0.50228212  1
  Ca2+  Ca68  1  0.50551842  -0.00086902  0.49599330  1
  Ca2+  Ca69  1  0.74441743  0.75473831  0.50516255  1
  Ca2+  Ca70  1  0.25042795  0.74883338  0.00129100  1
  Ca2+  Ca71  1  0.74990974  0.75014433  0.00201980  1
  Ca2+  Ca72  1  0.74792236  0.24549607  0.50477306  1
  Ca2+  Ca73  1  0.24757704  0.25540792  0.00129781  1
  Ca2+  Ca74  1  0.24653116  -0.00264031  0.25211450  1
  Ca2+  Ca75  1  0.25075251  0.49816782  0.74440406  1
  Ca2+  Ca76  1  0.00362225  0.75128348  0.24997647  1
  Ca2+  Ca77  1  0.50198921  0.74839124  0.75115193  1
  Ca2+  Ca78  1  0.49914217  0.24879648  0.24931684  1
  Ca2+  Ca79  1  0.49931324  0.24972577  0.75189307  1
  Ca2+  Ca80  1  -0.00287866  0.75269150  0.74655298  1
  Ca2+  Ca81  1  0.75116776  0.49906403  0.24849742  1
  Ca2+  Ca82  1  0.24793942  0.00344242  0.74877029  1
  Ca2+  Ca83  1  -0.00127448  0.25122301  0.75072562  1
  Ca2+  Ca84  1  -0.00186707  0.24699324  0.25198555  1
  Nb5+  Nb85  1  0.49416499  0.00318570  0.00174582  1
  Nb5+  Nb86  1  0.49844766  0.50178681  0.49982046  1
  Nb5+  Nb87  1  -0.00559950  0.00023230  -0.00443129  1
  Nb5+  Nb88  1  0.25482580  0.75406020  0.49711373  1
  Nb5+  Nb89  1  0.75279606  0.25346295  0.00305729  1
  Nb5+  Nb90  1  0.25199929  0.25596064  0.49516956  1
  Nb5+  Nb91  1  0.49770977  0.75233527  0.25016017  1
  Nb5+  Nb92  1  0.74951566  -0.00030798  0.25048207  1
  Nb5+  Nb93  1  0.74573623  0.50497146  0.74946450  1
  Nb5+  Nb94  1  0.74812196  0.00412636  0.75737131  1
  Nb5+  Nb95  1  0.25316553  0.49985344  0.25212994  1
  Nb5+  Nb96  1  0.00524840  -0.00645768  0.24845124  1
  Nb5+  Nb97  1  -0.00001460  -0.00457695  0.74647569  1
  Nb5+  Nb98  1  -0.00527666  0.50499209  0.25579530  1
  Nb5+  Nb99  1  0.00343583  0.49854160  0.74310164  1
  Nb5+  Nb100  1  0.50311269  0.00111232  0.25344037  1
  Nb5+  Nb101  1  0.49615707  0.00605511  0.74723435  1
  Nb5+  Nb102  1  0.49937199  0.49984616  0.24501002  1
  Nb5+  Nb103  1  0.50014341  0.49690730  0.75434175  1
  Nb5+  Nb104  1  0.24412692  0.24566118  0.25075960  1
  Nb5+  Nb105  1  0.25411798  0.24902668  0.75699807  1
  Nb5+  Nb106  1  0.25007685  0.75253994  0.25339330  1
  Nb5+  Nb107  1  0.25529798  0.74904001  0.75588150  1
  Nb5+  Nb108  1  0.75481173  0.25182591  0.25383629  1
  Nb5+  Nb109  1  0.74682667  0.25719510  0.75137019  1
  Nb5+  Nb110  1  0.74942781  0.74620534  0.24477084  1
  Nb5+  Nb111  1  0.74742609  0.75737499  0.74987732  1
  Nb5+  Nb112  1  -0.00850784  0.24817479  0.50523684  1
  Nb5+  Nb113  1  0.00043661  0.25326887  0.99522024  1
  Nb5+  Nb114  1  -0.00547039  0.74761991  0.49935382  1
  Nb5+  Nb115  1  0.00418889  0.74510848  1.00421986  1
  Nb5+  Nb116  1  0.50416023  0.24746061  0.49214398  1
  Nb5+  Nb117  1  0.49190533  0.24766534  1.00736340  1
  Nb5+  Nb118  1  0.49972228  0.75123536  0.50083538  1
  Nb5+  Nb119  1  0.49944138  0.74849552  0.99709765  1
  Nb5+  Nb120  1  0.24128032  0.00290193  -0.00158069  1
  Nb5+  Nb121  1  0.24987425  0.00771712  0.49889428  1
  Nb5+  Nb122  1  0.24877779  0.49871690  -0.00945557  1
  Nb5+  Nb123  1  0.25063198  0.50432242  0.49991580  1
  Nb5+  Nb124  1  0.74783580  0.00042419  0.00462088  1
  Nb5+  Nb125  1  0.75019983  0.00009180  0.51308145  1
  Nb5+  Nb126  1  0.75007759  0.50494006  0.00649484  1
  Nb5+  Nb127  1  0.75045409  0.50039213  0.49551905  1
  O2-  O128  1  -0.01307328  -0.01768562  0.11395495  1
  O2-  O129  1  -0.02998721  -0.01990021  0.63542947  1
  O2-  O130  1  -0.01845692  0.47986131  0.13618816  1
  O2-  O131  1  -0.03678418  0.48625795  0.63216039  1
  O2-  O132  1  0.49684952  0.01712162  0.12365976  1
  O2-  O133  1  0.50181242  0.02635680  0.63246984  1
  O2-  O134  1  0.48725079  0.52929046  0.13409300  1
  O2-  O135  1  0.49160277  0.52404329  0.61623531  1
  O2-  O136  1  0.01433091  0.01596339  0.36140115  1
  O2-  O137  1  0.01170924  0.01803566  0.87611756  1
  O2-  O138  1  0.03159019  0.51478275  0.36723461  1
  O2-  O139  1  0.02210373  0.51817133  0.86333464  1
  O2-  O140  1  0.51520464  -0.03346921  0.36189272  1
  O2-  O141  1  0.49908120  -0.01803049  0.88157578  1
  O2-  O142  1  0.51376287  0.49043873  0.37458689  1
  O2-  O143  1  0.50935716  0.46637670  0.86492324  1
  O2-  O144  1  0.22394027  0.26637685  0.13765920  1
  O2-  O145  1  0.23681796  0.25460851  0.61410194  1
  O2-  O146  1  0.22805222  0.74829000  0.13987415  1
  O2-  O147  1  0.24121544  0.75206659  0.61661552  1
  O2-  O148  1  0.73121724  0.25619364  0.12083078  1
  O2-  O149  1  0.71492440  0.25578916  0.64039608  1
  O2-  O150  1  0.71532033  0.75947415  0.13471524  1
  O2-  O151  1  0.70992694  0.76008501  0.63779751  1
  O2-  O152  1  0.27007462  0.23845938  0.37700715  1
  O2-  O153  1  0.28001379  0.24334563  0.86835117  1
  O2-  O154  1  0.27777679  0.74257185  0.37917838  1
  O2-  O155  1  0.27598890  0.74247971  0.86824129  1
  O2-  O156  1  0.77111401  0.23002598  0.36681406  1
  O2-  O157  1  0.77083737  0.24796104  0.88079504  1
  O2-  O158  1  0.76412949  0.75958363  0.36429122  1
  O2-  O159  1  0.77705216  0.73701069  0.86552556  1
  O2-  O160  1  0.01864837  0.25914588  0.11312991  1
  O2-  O161  1  0.02923336  0.26256208  0.61725035  1
  O2-  O162  1  0.01610384  0.78296744  0.11663573  1
  O2-  O163  1  0.02184800  0.77781458  0.61228943  1
  O2-  O164  1  0.53120197  0.22876827  0.11763808  1
  O2-  O165  1  0.51634890  0.23619460  0.61025257  1
  O2-  O166  1  0.51946339  0.73851397  0.12989299  1
  O2-  O167  1  0.52126345  0.73443210  0.61259855  1
  O2-  O168  1  0.22995157  -0.01122079  0.38444225  1
  O2-  O169  1  0.26047704  0.01080206  0.88391593  1
  O2-  O170  1  0.24234055  0.49963133  0.37696110  1
  O2-  O171  1  0.22268079  0.49143126  0.87963152  1
  O2-  O172  1  0.73914000  0.00058144  0.36818204  1
  O2-  O173  1  0.73761302  0.00118458  0.87659228  1
  O2-  O174  1  0.72325615  0.50211782  0.38387687  1
  O2-  O175  1  0.72766956  0.49957891  0.86952562  1
  O2-  O176  1  -0.02384053  0.22940683  0.38625755  1
  O2-  O177  1  -0.01613753  0.21845465  0.88373010  1
  O2-  O178  1  -0.01428829  0.71986889  0.38201874  1
  O2-  O179  1  -0.00867271  0.73305770  0.88461883  1
  O2-  O180  1  0.47281767  0.27394032  0.38119568  1
  O2-  O181  1  0.47575259  0.25831846  0.88979645  1
  O2-  O182  1  0.47353758  0.76282059  0.36840863  1
  O2-  O183  1  0.46975780  0.76669259  0.88657999  1
  O2-  O184  1  0.26179844  -0.00002666  0.11639134  1
  O2-  O185  1  0.27662468  -0.00456317  0.61420496  1
  O2-  O186  1  0.27306922  0.50245780  0.13568261  1
  O2-  O187  1  0.28259677  0.49175989  0.60990389  1
  O2-  O188  1  0.76156646  0.00558757  0.12090770  1
  O2-  O189  1  0.76047987  0.00377714  0.63077188  1
  O2-  O190  1  0.78293377  0.49827878  0.11589819  1
  O2-  O191  1  0.76299956  0.49458268  0.63006528  1
  O2-  O192  1  0.13214383  0.27078690  0.28217043  1
  O2-  O193  1  0.13721008  0.28160565  0.76426693  1
  O2-  O194  1  0.13954849  0.76438748  0.28586388  1
  O2-  O195  1  0.13580626  0.77135151  0.75909452  1
  O2-  O196  1  0.63719706  0.27257646  0.26423251  1
  O2-  O197  1  0.63398342  0.26112044  0.78693979  1
  O2-  O198  1  0.61547504  0.76619299  0.27007144  1
  O2-  O199  1  0.63374649  0.76611341  0.78747201  1
  O2-  O200  1  0.36215011  0.22785025  0.23346321  1
  O2-  O201  1  0.36665232  0.22061791  0.72367991  1
  O2-  O202  1  0.37823604  0.72826095  0.23373238  1
  O2-  O203  1  0.36936821  0.72405947  0.72662577  1
  O2-  O204  1  0.86490906  0.22550744  0.22023162  1
  O2-  O205  1  0.86016223  0.22918466  0.73318689  1
  O2-  O206  1  0.86195564  0.73065093  0.22308454  1
  O2-  O207  1  0.86049714  0.73466799  0.71771585  1
  O2-  O208  1  0.27090324  0.37922721  0.25945215  1
  O2-  O209  1  0.28374028  0.36530581  0.74612274  1
  O2-  O210  1  0.28264930  0.86325996  0.25439375  1
  O2-  O211  1  0.27791629  0.86690217  0.74827176  1
  O2-  O212  1  0.78262258  0.36498060  0.25766754  1
  O2-  O213  1  0.76655182  0.37365376  0.75618371  1
  O2-  O214  1  0.76156005  0.88009241  0.24654508  1
  O2-  O215  1  0.76774347  0.87649272  0.75445520  1
  O2-  O216  1  0.21876126  0.13219756  0.24680212  1
  O2-  O217  1  0.21412510  0.13597876  0.74655739  1
  O2-  O218  1  0.24238471  0.62284624  0.25623322  1
  O2-  O219  1  0.22462894  0.63227542  0.74597657  1
  O2-  O220  1  0.72621935  0.12051845  0.24384576  1
  O2-  O221  1  0.73054893  0.12172362  0.75475875  1
  O2-  O222  1  0.72104115  0.63412166  0.25175144  1
  O2-  O223  1  0.72902618  0.62184168  0.74366886  1
  O2-  O224  1  0.13611687  0.48693819  0.23789084  1
  O2-  O225  1  0.11436657  0.47991323  0.71879198  1
  O2-  O226  1  0.11360676  0.96064177  0.23240772  1
  O2-  O227  1  0.11250079  0.97004696  0.74015309  1
  O2-  O228  1  0.61498334  0.48121607  0.23446881  1
  O2-  O229  1  0.62867642  0.47723556  0.73159823  1
  O2-  O230  1  0.62728173  0.98108487  0.23003614  1
  O2-  O231  1  0.63120664  0.97894824  0.74383492  1
  O2-  O232  1  0.38742895  0.01919789  0.25929389  1
  O2-  O233  1  0.38512868  0.02829541  0.75876971  1
  O2-  O234  1  0.37720057  0.51625290  0.27085541  1
  O2-  O235  1  0.38747122  0.52352605  0.76317925  1
  O2-  O236  1  0.86649979  0.01893429  0.25303956  1
  O2-  O237  1  0.86658643  0.01893353  0.76671650  1
  O2-  O238  1  0.88392886  0.52748452  0.27821117  1
  O2-  O239  1  0.86378482  0.51532944  0.76706258  1
  O2-  O240  1  0.47735014  0.38619622  0.23193559  1
  O2-  O241  1  0.48896201  0.38457881  0.71589452  1
  O2-  O242  1  0.48473377  0.87156642  0.22692203  1
  O2-  O243  1  0.48967179  0.88676433  0.73213826  1
  O2-  O244  1  0.98926979  0.38405441  0.26926530  1
  O2-  O245  1  0.97549762  0.38487256  0.77105845  1
  O2-  O246  1  0.96102103  0.88431103  0.25777794  1
  O2-  O247  1  0.97084815  0.88373547  0.77700405  1
  O2-  O248  1  0.00877344  0.10942082  0.22186318  1
  O2-  O249  1  0.01036763  0.11287228  0.73119575  1
  O2-  O250  1  0.02190221  0.61694858  0.22351808  1
  O2-  O251  1  0.00394233  0.61796114  0.72959854  1
  O2-  O252  1  0.52655298  0.11298312  0.27037123  1
  O2-  O253  1  0.53256776  0.11482550  0.77350323  1
  O2-  O254  1  0.51422905  0.62847724  0.26593433  1
  O2-  O255  1  0.53271057  0.61145365  0.76397866  1
  O2-  O256  1  0.13819085  0.46991992  0.02856516  1
  O2-  O257  1  0.14052339  0.47522038  0.51384035  1
  O2-  O258  1  0.12362586  0.98016048  -0.00029089  1
  O2-  O259  1  0.13594034  0.97527923  0.51971615  1
  O2-  O260  1  0.63742146  0.46697757  0.01445723  1
  O2-  O261  1  0.61948299  0.48555997  0.51353911  1
  O2-  O262  1  0.62899310  0.98818494  0.00951174  1
  O2-  O263  1  0.63868108  0.95602218  0.50669634  1
  O2-  O264  1  0.38037814  0.02568841  -0.00183734  1
  O2-  O265  1  0.36844225  0.01913104  0.47461488  1
  O2-  O266  1  0.36495455  0.53506170  -0.01761080  1
  O2-  O267  1  0.37942981  0.51460112  0.47747768  1
  O2-  O268  1  0.87527033  0.01960547  -0.01389557  1
  O2-  O269  1  0.86097402  0.03879520  0.48908634  1
  O2-  O270  1  0.86347990  0.51972407  -0.02984605  1
  O2-  O271  1  0.86482430  0.52026331  0.47880690  1
  O2-  O272  1  0.48563234  0.36202897  0.02794936  1
  O2-  O273  1  0.48307599  0.38248858  0.51262257  1
  O2-  O274  1  0.48574482  0.88493067  0.01919913  1
  O2-  O275  1  0.47470998  0.86368227  0.51535643  1
  O2-  O276  1  0.97327150  0.36456526  -0.01927087  1
  O2-  O277  1  0.99036693  0.36531867  0.48240912  1
  O2-  O278  1  0.98217074  0.88265404  -0.02246454  1
  O2-  O279  1  0.99019320  0.86371880  0.46678917  1
  O2-  O280  1  0.01461835  0.11894391  0.01519083  1
  O2-  O281  1  0.02715173  0.13316391  0.51106466  1
  O2-  O282  1  0.02181982  0.63271893  0.02603651  1
  O2-  O283  1  0.03275728  0.63565883  0.51672729  1
  O2-  O284  1  0.52163710  0.12051736  -0.01484667  1
  O2-  O285  1  0.51420448  0.13500873  0.46690451  1
  O2-  O286  1  0.52388236  0.63613710  -0.01703973  1
  O2-  O287  1  0.51075833  0.62351776  0.47955871  1
  O2-  O288  1  0.11399156  0.26687871  -0.02920153  1
  O2-  O289  1  0.13479569  0.26593620  0.47805393  1
  O2-  O290  1  0.11787941  0.77743587  -0.01727281  1
  O2-  O291  1  0.13880933  0.76359048  0.47928017  1
  O2-  O292  1  0.63275552  0.26225111  -0.01650710  1
  O2-  O293  1  0.61538522  0.27607608  0.47558723  1
  O2-  O294  1  0.61284326  0.78267958  -0.01237001  1
  O2-  O295  1  0.61060417  0.76112055  0.46755129  1
  O2-  O296  1  0.38279848  0.22126364  0.02994994  1
  O2-  O297  1  0.37328746  0.23210815  0.51278540  1
  O2-  O298  1  0.38615476  0.74236473  0.03235137  1
  O2-  O299  1  0.37648473  0.72335628  0.51119816  1
  O2-  O300  1  0.87200732  0.23080968  0.02090067  1
  O2-  O301  1  0.88153539  0.23648910  0.53822632  1
  O2-  O302  1  0.88514984  0.73935095  0.02387232  1
  O2-  O303  1  0.88273057  0.72847432  0.52133210  1
  O2-  O304  1  0.29104274  0.38612463  -0.00041610  1
  O2-  O305  1  0.27349472  0.37161213  0.48962422  1
  O2-  O306  1  0.27215933  0.88602953  -0.00114053  1
  O2-  O307  1  0.27642431  0.86841808  0.49889423  1
  O2-  O308  1  0.77283526  0.37052897  -0.00237949  1
  O2-  O309  1  0.76856348  0.38280751  0.50323317  1
  O2-  O310  1  0.77136030  0.88755863  -0.00113311  1
  O2-  O311  1  0.79030523  0.88665582  0.50436450  1
  O2-  O312  1  0.22132500  0.12036091  0.00605017  1
  O2-  O313  1  0.23118174  0.12449661  0.50117302  1
  O2-  O314  1  0.21991823  0.61528032  0.00121270  1
  O2-  O315  1  0.23724686  0.62103768  0.50285337  1
  O2-  O316  1  0.73931759  0.12508698  -0.00050200  1
  O2-  O317  1  0.70581436  0.11184168  0.50792278  1
  O2-  O318  1  0.71807887  0.61568243  0.00671054  1
  O2-  O319  1  0.73091257  0.61715344  0.51415373  1
