# generated using pymatgen
data_Sr64Ca21Nb43O192
_symmetry_space_group_name_H-M   'P 1'
_cell_length_a   16.56797297
_cell_length_b   16.58192808
_cell_length_c   16.72502338
_cell_angle_alpha   90.02599862
_cell_angle_beta   90.08416484
_cell_angle_gamma   89.99358393
_symmetry_Int_Tables_number   1
_chemical_formula_structural   Sr64Ca21Nb43O192
_chemical_formula_sum   'Sr64 Ca21 Nb43 O192'
_cell_volume   4594.84242035
_cell_formula_units_Z   1
loop_
 _symmetry_equiv_pos_site_id
 _symmetry_equiv_pos_as_xyz
  1  'x, y, z'
loop_
 _atom_type_symbol
 _atom_type_oxidation_number
  Sr2+  2.0
  Ca2+  2.0
  Nb5+  5.0
  O2-  -2.0
loop_
 _atom_site_type_symbol
 _atom_site_label
 _atom_site_symmetry_multiplicity
 _atom_site_fract_x
 _atom_site_fract_y
 _atom_site_fract_z
 _atom_site_occupancy
  Sr2+  Sr0  1  0.12973964  0.11665211  0.12670691  1
  Sr2+  Sr1  1  0.13567526  0.11027638  0.62226666  1
  Sr2+  Sr2  1  0.14063335  0.61554178  0.12935591  1
  Sr2+  Sr3  1  0.12646376  0.60975016  0.62180404  1
  Sr2+  Sr4  1  0.64202213  0.11842571  0.12343751  1
  Sr2+  Sr5  1  0.61881915  0.10985466  0.62796087  1
  Sr2+  Sr6  1  0.61822581  0.61204937  0.12252298  1
  Sr2+  Sr7  1  0.63849824  0.62025204  0.62013792  1
  Sr2+  Sr8  1  0.38265590  0.38338778  0.11589781  1
  Sr2+  Sr9  1  0.37985408  0.36860470  0.63268380  1
  Sr2+  Sr10  1  0.37456470  0.86343181  0.13344767  1
  Sr2+  Sr11  1  0.37944751  0.88592893  0.61814387  1
  Sr2+  Sr12  1  0.88208873  0.36185436  0.12184728  1
  Sr2+  Sr13  1  0.88644994  0.38529796  0.62507445  1
  Sr2+  Sr14  1  0.88775759  0.87236215  0.13124450  1
  Sr2+  Sr15  1  0.87736383  0.86359497  0.62259525  1
  Sr2+  Sr16  1  0.11241700  0.37563825  0.36961665  1
  Sr2+  Sr17  1  0.12488240  0.37993072  0.87507022  1
  Sr2+  Sr18  1  0.11928346  0.88787280  0.38471663  1
  Sr2+  Sr19  1  0.11214986  0.87843843  0.86944929  1
  Sr2+  Sr20  1  0.62535199  0.37869097  0.37032334  1
  Sr2+  Sr21  1  0.61784902  0.37625044  0.88286734  1
  Sr2+  Sr22  1  0.61373462  0.87475947  0.37781387  1
  Sr2+  Sr23  1  0.62706552  0.87839372  0.87131095  1
  Sr2+  Sr24  1  0.38115119  0.12919256  0.37946790  1
  Sr2+  Sr25  1  0.37546824  0.13685636  0.86744501  1
  Sr2+  Sr26  1  0.37953615  0.63666630  0.37575125  1
  Sr2+  Sr27  1  0.37196880  0.63094237  0.87015076  1
  Sr2+  Sr28  1  0.86333621  0.13791270  0.37228388  1
  Sr2+  Sr29  1  0.85983791  0.12711969  0.87426089  1
  Sr2+  Sr30  1  0.85930353  0.62561625  0.37969696  1
  Sr2+  Sr31  1  0.86787446  0.63759534  0.86972672  1
  Sr2+  Sr32  1  0.12447013  0.13669933  0.37511421  1
  Sr2+  Sr33  1  0.11842908  0.12895234  0.87667427  1
  Sr2+  Sr34  1  0.11440591  0.63304132  0.37793612  1
  Sr2+  Sr35  1  0.12250467  0.64438971  0.87042688  1
  Sr2+  Sr36  1  0.61763043  0.12061664  0.37108384  1
  Sr2+  Sr37  1  0.62090531  0.10424604  0.87909786  1
  Sr2+  Sr38  1  0.62156889  0.63430915  0.37613254  1
  Sr2+  Sr39  1  0.61330335  0.63234704  0.87094023  1
  Sr2+  Sr40  1  0.37903797  0.36719996  0.37985974  1
  Sr2+  Sr41  1  0.37140752  0.37893593  0.87105934  1
  Sr2+  Sr42  1  0.37846533  0.88440655  0.37446008  1
  Sr2+  Sr43  1  0.38005786  0.88654788  0.87195838  1
  Sr2+  Sr44  1  0.87301827  0.38724462  0.37439594  1
  Sr2+  Sr45  1  0.86346887  0.38056430  0.87242727  1
  Sr2+  Sr46  1  0.85799334  0.88844689  0.37581652  1
  Sr2+  Sr47  1  0.87765569  0.88813208  0.87630353  1
  Sr2+  Sr48  1  0.13636286  0.36117280  0.12712499  1
  Sr2+  Sr49  1  0.13571884  0.37630284  0.62916774  1
  Sr2+  Sr50  1  0.13891437  0.87846280  0.12771277  1
  Sr2+  Sr51  1  0.13261337  0.86119732  0.62231136  1
  Sr2+  Sr52  1  0.64373095  0.37773925  0.12020097  1
  Sr2+  Sr53  1  0.62778189  0.36011211  0.62483944  1
  Sr2+  Sr54  1  0.62920185  0.85730674  0.12209486  1
  Sr2+  Sr55  1  0.63978505  0.86992420  0.62453426  1
  Sr2+  Sr56  1  0.37375984  0.12041994  0.12469787  1
  Sr2+  Sr57  1  0.38495751  0.13182551  0.63289353  1
  Sr2+  Sr58  1  0.38324851  0.62274319  0.13236444  1
  Sr2+  Sr59  1  0.36685964  0.61661738  0.62162743  1
  Sr2+  Sr60  1  0.88848675  0.12191396  0.12676773  1
  Sr2+  Sr61  1  0.87980507  0.12506531  0.61748379  1
  Sr2+  Sr62  1  0.88227166  0.61704275  0.11667372  1
  Sr2+  Sr63  1  0.88725090  0.62303206  0.62450396  1
  Ca2+  Ca64  1  -0.00272582  0.00268019  0.49949571  1
  Ca2+  Ca65  1  0.50067528  0.00160279  0.49944983  1
  Ca2+  Ca66  1  0.49874481  0.49691538  0.50196614  1
  Ca2+  Ca67  1  0.49715616  -0.00223193  0.00544420  1
  Ca2+  Ca68  1  0.00336425  0.50011939  -0.00177164  1
  Ca2+  Ca69  1  0.74767390  0.25386143  0.49838455  1
  Ca2+  Ca70  1  0.25120026  0.75244761  -0.00083129  1
  Ca2+  Ca71  1  0.25058056  0.24990189  0.50092589  1
  Ca2+  Ca72  1  0.24969036  0.74639707  0.49977681  1
  Ca2+  Ca73  1  0.75076360  0.74939205  -0.00143991  1
  Ca2+  Ca74  1  0.75081001  0.49691158  0.74832610  1
  Ca2+  Ca75  1  0.50619667  0.25243579  0.75596106  1
  Ca2+  Ca76  1  -0.00054667  0.75031696  0.25263635  1
  Ca2+  Ca77  1  0.49791672  0.75088811  0.74576340  1
  Ca2+  Ca78  1  0.75291200  0.00200310  0.74660037  1
  Ca2+  Ca79  1  0.24872777  -0.00258106  0.75278889  1
  Ca2+  Ca80  1  0.25490194  0.49566016  0.25138555  1
  Ca2+  Ca81  1  -0.00422359  0.24996153  0.75176095  1
  Ca2+  Ca82  1  0.49888437  0.25183791  0.24531912  1
  Ca2+  Ca83  1  0.75229474  0.50239988  0.24764911  1
  Ca2+  Ca84  1  0.74955087  -0.00010657  0.24833215  1
  Nb5+  Nb85  1  0.00308029  0.50050589  0.49691509  1
  Nb5+  Nb86  1  0.00207474  0.00042317  0.00166349  1
  Nb5+  Nb87  1  0.50088009  0.50124617  -0.00358719  1
  Nb5+  Nb88  1  0.25459351  0.24536692  0.00040669  1
  Nb5+  Nb89  1  0.75119462  0.75106542  0.49777140  1
  Nb5+  Nb90  1  0.75623801  0.24878074  0.00029170  1
  Nb5+  Nb91  1  0.25078348  0.50089211  0.75207409  1
  Nb5+  Nb92  1  0.50298799  0.74907478  0.24968006  1
  Nb5+  Nb93  1  -0.00064986  0.75074845  0.74924147  1
  Nb5+  Nb94  1  0.24941195  0.00274034  0.25380677  1
  Nb5+  Nb95  1  -0.00056791  0.24858538  0.25078905  1
  Nb5+  Nb96  1  0.00060976  0.00215383  0.25571888  1
  Nb5+  Nb97  1  -0.00070656  0.00219810  0.74330693  1
  Nb5+  Nb98  1  0.00191803  0.50124630  0.24324561  1
  Nb5+  Nb99  1  0.00117752  0.50393323  0.75670570  1
  Nb5+  Nb100  1  0.50602831  -0.00001891  0.24096043  1
  Nb5+  Nb101  1  0.49660234  -0.00275799  0.75171942  1
  Nb5+  Nb102  1  0.49936404  0.49816730  0.25340249  1
  Nb5+  Nb103  1  0.50184308  0.50045596  0.74497527  1
  Nb5+  Nb104  1  0.25450696  0.24784023  0.24971350  1
  Nb5+  Nb105  1  0.24164817  0.24673762  0.74892377  1
  Nb5+  Nb106  1  0.24401672  0.74938091  0.25853570  1
  Nb5+  Nb107  1  0.25497140  0.75146804  0.74425008  1
  Nb5+  Nb108  1  0.74713552  0.25652906  0.24876360  1
  Nb5+  Nb109  1  0.74834493  0.24620613  0.74386411  1
  Nb5+  Nb110  1  0.75306894  0.74505303  0.24198101  1
  Nb5+  Nb111  1  0.74956487  0.75300854  0.75280073  1
  Nb5+  Nb112  1  0.00237184  0.25205962  0.50825757  1
  Nb5+  Nb113  1  0.00301967  0.24977393  0.99753495  1
  Nb5+  Nb114  1  -0.00424361  0.75189809  0.49417057  1
  Nb5+  Nb115  1  0.00612968  0.74919418  1.00912834  1
  Nb5+  Nb116  1  0.50227565  0.25053631  0.50021222  1
  Nb5+  Nb117  1  0.50906924  0.24733062  1.00347384  1
  Nb5+  Nb118  1  0.50188008  0.74627229  0.50661454  1
  Nb5+  Nb119  1  0.49346074  0.75347933  0.99704573  1
  Nb5+  Nb120  1  0.25060627  0.00043662  -0.00107510  1
  Nb5+  Nb121  1  0.25136455  0.00195348  0.50453445  1
  Nb5+  Nb122  1  0.24897579  0.50133931  -0.00169823  1
  Nb5+  Nb123  1  0.25031290  0.49408988  0.49136896  1
  Nb5+  Nb124  1  0.75257755  -0.00703987  0.00705095  1
  Nb5+  Nb125  1  0.74641854  0.00907692  0.49603310  1
  Nb5+  Nb126  1  0.75137908  0.50762234  -0.00792013  1
  Nb5+  Nb127  1  0.74832644  0.49600661  0.50525523  1
  O2-  O128  1  -0.01613064  -0.00936935  0.12423946  1
  O2-  O129  1  -0.03220970  -0.01033436  0.63428506  1
  O2-  O130  1  -0.02777009  0.48689176  0.13326361  1
  O2-  O131  1  -0.00618902  0.49359347  0.62513860  1
  O2-  O132  1  0.45509089  -0.00741680  0.13616594  1
  O2-  O133  1  0.47144861  0.00981698  0.63369272  1
  O2-  O134  1  0.48281459  0.50631279  0.11815551  1
  O2-  O135  1  0.46582349  0.50372900  0.63596118  1
  O2-  O136  1  0.02836788  0.01961890  0.36593528  1
  O2-  O137  1  0.02382830  0.00814442  0.88437364  1
  O2-  O138  1  0.02591559  0.50847333  0.38002623  1
  O2-  O139  1  0.02753703  0.52554047  0.86683453  1
  O2-  O140  1  0.51525298  0.00047906  0.35928006  1
  O2-  O141  1  0.52244092  -0.01643962  0.87209293  1
  O2-  O142  1  0.52521421  0.49898515  0.36551437  1
  O2-  O143  1  0.52174832  0.50056989  0.87907178  1
  O2-  O144  1  0.23411721  0.23124375  0.12024598  1
  O2-  O145  1  0.22434412  0.23701162  0.63569797  1
  O2-  O146  1  0.23088412  0.74368868  0.13955246  1
  O2-  O147  1  0.22118050  0.72331545  0.63401652  1
  O2-  O148  1  0.74075103  0.23455151  0.12177714  1
  O2-  O149  1  0.72467305  0.22784094  0.63297726  1
  O2-  O150  1  0.72056235  0.72807240  0.13289997  1
  O2-  O151  1  0.73632352  0.73514495  0.61923663  1
  O2-  O152  1  0.25999253  0.26537940  0.36300492  1
  O2-  O153  1  0.25660560  0.25847103  0.88239093  1
  O2-  O154  1  0.28776880  0.76089702  0.36699624  1
  O2-  O155  1  0.26622272  0.76363876  0.86176911  1
  O2-  O156  1  0.76760695  0.27572098  0.36123408  1
  O2-  O157  1  0.76719384  0.26476599  0.88508699  1
  O2-  O158  1  0.77300075  0.76241419  0.38000335  1
  O2-  O159  1  0.77532334  0.77458493  0.86390983  1
  O2-  O160  1  0.00814033  0.26418164  0.12273346  1
  O2-  O161  1  0.00724846  0.28556769  0.61740297  1
  O2-  O162  1  0.01949762  0.78126646  0.11808845  1
  O2-  O163  1  0.00574561  0.76536143  0.62357149  1
  O2-  O164  1  0.48146910  0.26621550  0.11287137  1
  O2-  O165  1  0.51300107  0.25137523  0.62058091  1
  O2-  O166  1  0.51835143  0.75089930  0.12855213  1
  O2-  O167  1  0.53491853  0.75177961  0.61522339  1
  O2-  O168  1  0.22543476  -0.00989114  0.36822230  1
  O2-  O169  1  0.22484753  -0.02014011  0.88913696  1
  O2-  O170  1  0.24126463  0.46031357  0.38323444  1
  O2-  O171  1  0.24179733  0.47424135  0.87907008  1
  O2-  O172  1  0.72273150  -0.02325831  0.38068292  1
  O2-  O173  1  0.74109896  -0.01635057  0.88854737  1
  O2-  O174  1  0.74191216  0.47985339  0.38688681  1
  O2-  O175  1  0.73488223  0.46592473  0.88231544  1
  O2-  O176  1  -0.00834839  0.23136279  0.36621214  1
  O2-  O177  1  -0.01185444  0.21950413  0.88749395  1
  O2-  O178  1  -0.01925161  0.71894828  0.38443367  1
  O2-  O179  1  -0.01300722  0.73356175  0.86725709  1
  O2-  O180  1  0.48785941  0.24966073  0.37923100  1
  O2-  O181  1  0.48003933  0.25333781  0.89153961  1
  O2-  O182  1  0.49338776  0.74118437  0.36968462  1
  O2-  O183  1  0.47582412  0.75009068  0.88348041  1
  O2-  O184  1  0.25635434  0.02055762  0.12990900  1
  O2-  O185  1  0.27343632  0.02322795  0.61671241  1
  O2-  O186  1  0.27321671  0.51496591  0.11282145  1
  O2-  O187  1  0.25657972  0.51663945  0.63619982  1
  O2-  O188  1  0.76988513  0.03258843  0.11594628  1
  O2-  O189  1  0.76943434  0.02634273  0.61213085  1
  O2-  O190  1  0.75794486  0.52707347  0.10958691  1
  O2-  O191  1  0.77349418  0.52803215  0.61626260  1
  O2-  O192  1  0.12263511  0.26411884  0.25524520  1
  O2-  O193  1  0.12984376  0.27827478  0.77090487  1
  O2-  O194  1  0.13429331  0.77301569  0.28510632  1
  O2-  O195  1  0.11953213  0.76574203  0.76258751  1
  O2-  O196  1  0.63345811  0.28210993  0.25059656  1
  O2-  O197  1  0.63879048  0.29019082  0.76554310  1
  O2-  O198  1  0.62463596  0.77049799  0.26489156  1
  O2-  O199  1  0.63436564  0.76908326  0.76771687  1
  O2-  O200  1  0.36347334  0.21237355  0.24339044  1
  O2-  O201  1  0.36156627  0.23889500  0.74373564  1
  O2-  O202  1  0.38214588  0.73718078  0.23381654  1
  O2-  O203  1  0.36404284  0.72034154  0.72818469  1
  O2-  O204  1  0.88030471  0.23354374  0.23371585  1
  O2-  O205  1  0.86507978  0.21025692  0.74014916  1
  O2-  O206  1  0.86705657  0.72688940  0.21948910  1
  O2-  O207  1  0.87833518  0.73129048  0.73295272  1
  O2-  O208  1  0.26988474  0.35916108  0.21993773  1
  O2-  O209  1  0.26363735  0.37815468  0.74175969  1
  O2-  O210  1  0.26073522  0.88169201  0.23871786  1
  O2-  O211  1  0.26619832  0.86348889  0.71978353  1
  O2-  O212  1  0.77307491  0.36958719  0.21866139  1
  O2-  O213  1  0.78953278  0.36093360  0.73605857  1
  O2-  O214  1  0.77182089  0.86332537  0.23709392  1
  O2-  O215  1  0.76619285  0.86667024  0.71965109  1
  O2-  O216  1  0.22252804  0.12373375  0.25905644  1
  O2-  O217  1  0.22524629  0.13310722  0.76901458  1
  O2-  O218  1  0.22844799  0.63378727  0.26670527  1
  O2-  O219  1  0.23337851  0.61808674  0.77406532  1
  O2-  O220  1  0.73049290  0.13882534  0.26411915  1
  O2-  O221  1  0.72195192  0.13507022  0.77910766  1
  O2-  O222  1  0.73640540  0.63498778  0.28015256  1
  O2-  O223  1  0.73457158  0.63554635  0.76533104  1
  O2-  O224  1  0.11749667  0.47047383  0.23399518  1
  O2-  O225  1  0.12756131  0.48473002  0.73986943  1
  O2-  O226  1  0.12189303  0.98752711  0.22928873  1
  O2-  O227  1  0.11238136  0.96605448  0.73522246  1
  O2-  O228  1  0.61428103  0.48461942  0.22340484  1
  O2-  O229  1  0.61413265  0.48752696  0.72077903  1
  O2-  O230  1  0.61486671  0.97835463  0.21225779  1
  O2-  O231  1  0.61499653  0.98028910  0.72987760  1
  O2-  O232  1  0.36450789  0.01635105  0.27142062  1
  O2-  O233  1  0.37888539  0.01553320  0.78380579  1
  O2-  O234  1  0.38688677  0.53743863  0.26311791  1
  O2-  O235  1  0.36696164  0.51393600  0.77297927  1
  O2-  O236  1  0.88634369  0.02825499  0.26435816  1
  O2-  O237  1  0.88843816  0.01075175  0.78337188  1
  O2-  O238  1  0.88989236  0.51363756  0.27917352  1
  O2-  O239  1  0.88782115  0.52816383  0.76349445  1
  O2-  O240  1  0.46428201  0.38790135  0.25101006  1
  O2-  O241  1  0.47559497  0.38688806  0.76278777  1
  O2-  O242  1  0.48485977  0.87111536  0.25420027  1
  O2-  O243  1  0.46685878  0.88088286  0.74551182  1
  O2-  O244  1  0.98506013  0.36892807  0.26341690  1
  O2-  O245  1  0.98332511  0.38989669  0.77146164  1
  O2-  O246  1  0.97943843  0.88788583  0.26775137  1
  O2-  O247  1  0.98025004  0.86870111  0.76303360  1
  O2-  O248  1  0.01773624  0.12935477  0.23062564  1
  O2-  O249  1  0.02901533  0.11351301  0.73579652  1
  O2-  O250  1  0.02893225  0.61418411  0.23355619  1
  O2-  O251  1  0.02028801  0.63018707  0.73121929  1
  O2-  O252  1  0.52293656  0.11541954  0.23587131  1
  O2-  O253  1  0.51324691  0.11750144  0.76196368  1
  O2-  O254  1  0.52314379  0.62951119  0.24442186  1
  O2-  O255  1  0.50520009  0.61597329  0.76555693  1
  O2-  O256  1  0.13800055  0.47301909  0.01956528  1
  O2-  O257  1  0.12190770  0.47779755  0.51630302  1
  O2-  O258  1  0.12090306  0.98912811  0.02402658  1
  O2-  O259  1  0.13169018  0.97674007  0.52124666  1
  O2-  O260  1  0.62329390  0.48766880  0.01478531  1
  O2-  O261  1  0.63570178  0.48444147  0.52661455  1
  O2-  O262  1  0.63679989  0.98329469  0.02159532  1
  O2-  O263  1  0.63415234  0.98099172  0.52541751  1
  O2-  O264  1  0.36084887  0.02929710  -0.01826356  1
  O2-  O265  1  0.36448987  0.00926426  0.46849019  1
  O2-  O266  1  0.37854257  0.50777408  -0.02137249  1
  O2-  O267  1  0.36193833  0.52638615  0.48545378  1
  O2-  O268  1  0.88075853  0.01647510  -0.01424534  1
  O2-  O269  1  0.86402800  0.01374854  0.46844641  1
  O2-  O270  1  0.86703914  0.51835077  -0.02217552  1
  O2-  O271  1  0.88422332  0.51683297  0.48613855  1
  O2-  O272  1  0.49081042  0.38127445  -0.00351668  1
  O2-  O273  1  0.46088528  0.36646938  0.50266922  1
  O2-  O274  1  0.46640609  0.86538217  0.00728490  1
  O2-  O275  1  0.48778717  0.86328675  0.48718741  1
  O2-  O276  1  0.97838070  0.36250577  -0.01814341  1
  O2-  O277  1  0.98170276  0.38032306  0.48227200  1
  O2-  O278  1  0.98532654  0.87998031  -0.01237413  1
  O2-  O279  1  0.97336253  0.86420774  0.47933055  1
  O2-  O280  1  0.01349073  0.12302241  0.02011006  1
  O2-  O281  1  0.01953264  0.13800554  0.52965793  1
  O2-  O282  1  0.02597547  0.63559620  0.02919151  1
  O2-  O283  1  0.01719524  0.62089006  0.51405443  1
  O2-  O284  1  0.52758308  0.13358117  0.01139422  1
  O2-  O285  1  0.53644114  0.13441529  0.49727098  1
  O2-  O286  1  0.51892951  0.62294005  -0.00145989  1
  O2-  O287  1  0.52755495  0.63165128  0.49454874  1
  O2-  O288  1  0.12007750  0.26579659  -0.00947734  1
  O2-  O289  1  0.11356022  0.26947181  0.47458405  1
  O2-  O290  1  0.11594043  0.76726470  -0.02944053  1
  O2-  O291  1  0.11143701  0.76700032  0.48377947  1
  O2-  O292  1  0.62508754  0.27100515  -0.00121114  1
  O2-  O293  1  0.61578431  0.29240783  0.48790030  1
  O2-  O294  1  0.61292950  0.77232626  -0.01547775  1
  O2-  O295  1  0.63331150  0.76459165  0.48025013  1
  O2-  O296  1  0.36684153  0.22072506  0.00606643  1
  O2-  O297  1  0.38351644  0.21473490  0.50908333  1
  O2-  O298  1  0.38226764  0.72069891  0.02324411  1
  O2-  O299  1  0.38805709  0.72692059  0.52068958  1
  O2-  O300  1  0.87340799  0.23204979  0.01646089  1
  O2-  O301  1  0.88544318  0.23186195  0.50042608  1
  O2-  O302  1  0.88843979  0.72942266  0.00963426  1
  O2-  O303  1  0.87361502  0.72928819  0.51712397  1
  O2-  O304  1  0.26741983  0.36445625  0.01455392  1
  O2-  O305  1  0.26435479  0.38519546  0.53528081  1
  O2-  O306  1  0.26511382  0.88831796  0.02663913  1
  O2-  O307  1  0.26539282  0.88132610  0.51384340  1
  O2-  O308  1  0.76472667  0.37057304  0.01962102  1
  O2-  O309  1  0.77741722  0.38564449  0.52433274  1
  O2-  O310  1  0.77526770  0.88241480  0.02969248  1
  O2-  O311  1  0.76818462  0.86862002  0.51477390  1
  O2-  O312  1  0.22056341  0.12619587  -0.00901343  1
  O2-  O313  1  0.22223885  0.11573378  0.48496207  1
  O2-  O314  1  0.23076506  0.61294752  -0.01979285  1
  O2-  O315  1  0.21783785  0.60895769  0.48675317  1
  O2-  O316  1  0.73277492  0.13129651  -0.01557601  1
  O2-  O317  1  0.73092229  0.12055032  0.47028575  1
  O2-  O318  1  0.73153477  0.61766199  -0.03658097  1
  O2-  O319  1  0.73670797  0.62662336  0.48279392  1
