# generated using pymatgen
data_Sr64Ca21Nb43O192
_symmetry_space_group_name_H-M   'P 1'
_cell_length_a   16.60944114
_cell_length_b   16.57848740
_cell_length_c   16.76269707
_cell_angle_alpha   89.94051281
_cell_angle_beta   89.98126006
_cell_angle_gamma   89.94648527
_symmetry_Int_Tables_number   1
_chemical_formula_structural   Sr64Ca21Nb43O192
_chemical_formula_sum   'Sr64 Ca21 Nb43 O192'
_cell_volume   4615.76163864
_cell_formula_units_Z   1
loop_
 _symmetry_equiv_pos_site_id
 _symmetry_equiv_pos_as_xyz
  1  'x, y, z'
loop_
 _atom_type_symbol
 _atom_type_oxidation_number
  Sr2+  2.0
  Ca2+  2.0
  Nb5+  5.0
  O2-  -2.0
loop_
 _atom_site_type_symbol
 _atom_site_label
 _atom_site_symmetry_multiplicity
 _atom_site_fract_x
 _atom_site_fract_y
 _atom_site_fract_z
 _atom_site_occupancy
  Sr2+  Sr0  1  0.13371533  0.13066334  0.11997630  1
  Sr2+  Sr1  1  0.12543568  0.15138639  0.62432067  1
  Sr2+  Sr2  1  0.12350098  0.61218232  0.13122553  1
  Sr2+  Sr3  1  0.12802640  0.63454825  0.62134332  1
  Sr2+  Sr4  1  0.62595296  0.12966268  0.13145434  1
  Sr2+  Sr5  1  0.63220789  0.12792489  0.63344179  1
  Sr2+  Sr6  1  0.62931430  0.62051859  0.12711791  1
  Sr2+  Sr7  1  0.62390805  0.61209978  0.61919902  1
  Sr2+  Sr8  1  0.36850623  0.37521046  0.12540432  1
  Sr2+  Sr9  1  0.38138394  0.38118369  0.63942979  1
  Sr2+  Sr10  1  0.36813945  0.87869503  0.12516271  1
  Sr2+  Sr11  1  0.36588691  0.86196464  0.62739172  1
  Sr2+  Sr12  1  0.87609530  0.37962046  0.12285764  1
  Sr2+  Sr13  1  0.87713732  0.37673789  0.62662711  1
  Sr2+  Sr14  1  0.88623427  0.87381977  0.12301330  1
  Sr2+  Sr15  1  0.87398801  0.89614233  0.63144603  1
  Sr2+  Sr16  1  0.11035446  0.37343793  0.39118105  1
  Sr2+  Sr17  1  0.11531137  0.36904021  0.87099285  1
  Sr2+  Sr18  1  0.11708052  0.87762469  0.37326046  1
  Sr2+  Sr19  1  0.10513934  0.88056163  0.87186059  1
  Sr2+  Sr20  1  0.62626320  0.37947686  0.38308343  1
  Sr2+  Sr21  1  0.61911035  0.37616236  0.88126238  1
  Sr2+  Sr22  1  0.65025291  0.87602002  0.37145367  1
  Sr2+  Sr23  1  0.64725692  0.87379698  0.88270635  1
  Sr2+  Sr24  1  0.37408489  0.12248679  0.37653754  1
  Sr2+  Sr25  1  0.37097370  0.12502806  0.87269419  1
  Sr2+  Sr26  1  0.37093738  0.62695374  0.38146133  1
  Sr2+  Sr27  1  0.38167393  0.61319817  0.87283484  1
  Sr2+  Sr28  1  0.86910930  0.10946573  0.38449025  1
  Sr2+  Sr29  1  0.86246585  0.10892755  0.86977896  1
  Sr2+  Sr30  1  0.88533789  0.62664797  0.37010546  1
  Sr2+  Sr31  1  0.86906918  0.62938517  0.86627875  1
  Sr2+  Sr32  1  0.12448502  0.11345977  0.38730470  1
  Sr2+  Sr33  1  0.12840491  0.11671518  0.86036761  1
  Sr2+  Sr34  1  0.12549942  0.63515583  0.37833493  1
  Sr2+  Sr35  1  0.12897518  0.63011434  0.86240340  1
  Sr2+  Sr36  1  0.62392903  0.14280590  0.37676465  1
  Sr2+  Sr37  1  0.61162984  0.11103165  0.87739477  1
  Sr2+  Sr38  1  0.61716603  0.64042568  0.37369769  1
  Sr2+  Sr39  1  0.62896654  0.63697461  0.87878429  1
  Sr2+  Sr40  1  0.38538531  0.37466341  0.37894468  1
  Sr2+  Sr41  1  0.37533533  0.37180327  0.87979113  1
  Sr2+  Sr42  1  0.37536294  0.87287788  0.37373763  1
  Sr2+  Sr43  1  0.37885743  0.87761796  0.87529250  1
  Sr2+  Sr44  1  0.86301859  0.36281218  0.38159300  1
  Sr2+  Sr45  1  0.86431690  0.37818794  0.87246752  1
  Sr2+  Sr46  1  0.87798469  0.87374799  0.37891578  1
  Sr2+  Sr47  1  0.87216266  0.86713851  0.86872677  1
  Sr2+  Sr48  1  0.10175568  0.37497737  0.11896061  1
  Sr2+  Sr49  1  0.10503142  0.38333555  0.62790261  1
  Sr2+  Sr50  1  0.12854073  0.87890208  0.12481089  1
  Sr2+  Sr51  1  0.12737682  0.87972714  0.64587319  1
  Sr2+  Sr52  1  0.64291641  0.37603878  0.12702925  1
  Sr2+  Sr53  1  0.64936323  0.37488001  0.62209934  1
  Sr2+  Sr54  1  0.63267152  0.87113697  0.12675150  1
  Sr2+  Sr55  1  0.63844955  0.87712824  0.61099816  1
  Sr2+  Sr56  1  0.37036362  0.12406707  0.12590976  1
  Sr2+  Sr57  1  0.37210200  0.13280149  0.63120937  1
  Sr2+  Sr58  1  0.37265149  0.61361480  0.13170508  1
  Sr2+  Sr59  1  0.36264284  0.61629873  0.62019339  1
  Sr2+  Sr60  1  0.88953588  0.13704176  0.12713633  1
  Sr2+  Sr61  1  0.88676927  0.13158830  0.62279625  1
  Sr2+  Sr62  1  0.88918448  0.61521347  0.12644256  1
  Sr2+  Sr63  1  0.87902324  0.61379200  0.63763294  1
  Ca2+  Ca64  1  -0.00061013  0.50404205  -0.00674493  1
  Ca2+  Ca65  1  -0.00284578  0.00270418  0.00239734  1
  Ca2+  Ca66  1  -0.00129563  0.50521586  0.50048018  1
  Ca2+  Ca67  1  0.00517142  -0.00220023  0.50321655  1
  Ca2+  Ca68  1  0.50230708  -0.00045331  0.49981652  1
  Ca2+  Ca69  1  0.75051412  0.24824594  0.50045514  1
  Ca2+  Ca70  1  0.75324270  0.74442548  0.50008405  1
  Ca2+  Ca71  1  0.74680143  0.24851782  -0.00420647  1
  Ca2+  Ca72  1  0.25238765  0.74798392  0.00218301  1
  Ca2+  Ca73  1  0.25092706  0.25348008  0.49592392  1
  Ca2+  Ca74  1  0.74722205  0.00066778  0.24704279  1
  Ca2+  Ca75  1  -0.00220655  0.25135244  0.75548467  1
  Ca2+  Ca76  1  0.25007108  0.49781470  0.74716270  1
  Ca2+  Ca77  1  0.00535552  0.24741221  0.25335202  1
  Ca2+  Ca78  1  0.25480137  0.00018199  0.75052869  1
  Ca2+  Ca79  1  0.50215906  0.74977014  0.74928144  1
  Ca2+  Ca80  1  0.74412479  0.00117470  0.75271967  1
  Ca2+  Ca81  1  0.24751985  0.49436838  0.25396775  1
  Ca2+  Ca82  1  0.74975428  0.49999008  0.25291149  1
  Ca2+  Ca83  1  0.74470729  0.49902139  0.75273793  1
  Ca2+  Ca84  1  -0.00133232  0.74996300  0.74793981  1
  Nb5+  Nb85  1  0.49717432  -0.00768957  0.00246038  1
  Nb5+  Nb86  1  0.49727993  0.49614149  0.00914240  1
  Nb5+  Nb87  1  0.49824441  0.49918349  0.50518125  1
  Nb5+  Nb88  1  0.75309498  0.74863876  0.00721974  1
  Nb5+  Nb89  1  0.24935831  0.75363009  0.50038270  1
  Nb5+  Nb90  1  0.24953646  0.25155386  -0.00047525  1
  Nb5+  Nb91  1  0.50349658  0.25005597  0.75766466  1
  Nb5+  Nb92  1  0.25130414  -0.00094091  0.24991645  1
  Nb5+  Nb93  1  0.00808142  0.75221770  0.24884733  1
  Nb5+  Nb94  1  0.49805050  0.25652909  0.25063560  1
  Nb5+  Nb95  1  0.50219913  0.75653225  0.24950794  1
  Nb5+  Nb96  1  -0.00302365  0.00485841  0.24505322  1
  Nb5+  Nb97  1  -0.00020775  0.00467644  0.74938304  1
  Nb5+  Nb98  1  -0.00241202  0.49391690  0.25393687  1
  Nb5+  Nb99  1  -0.00061425  0.50334413  0.75546990  1
  Nb5+  Nb100  1  0.49920349  0.00394629  0.25046247  1
  Nb5+  Nb101  1  0.50011262  -0.00486778  0.74570199  1
  Nb5+  Nb102  1  0.50072764  0.50409341  0.25589798  1
  Nb5+  Nb103  1  0.50371643  0.50128381  0.75883305  1
  Nb5+  Nb104  1  0.25201419  0.24769040  0.24876396  1
  Nb5+  Nb105  1  0.25251716  0.25557693  0.74495596  1
  Nb5+  Nb106  1  0.25591576  0.74815575  0.24738714  1
  Nb5+  Nb107  1  0.25796284  0.74683463  0.75840531  1
  Nb5+  Nb108  1  0.75674060  0.24319577  0.24860517  1
  Nb5+  Nb109  1  0.75314973  0.24731628  0.75366588  1
  Nb5+  Nb110  1  0.75990235  0.74637669  0.24734643  1
  Nb5+  Nb111  1  0.74379167  0.74739507  0.74210653  1
  Nb5+  Nb112  1  0.00061988  0.25070689  0.49761110  1
  Nb5+  Nb113  1  -0.00796533  0.24687197  0.99312959  1
  Nb5+  Nb114  1  -0.00011656  0.75091443  0.50490979  1
  Nb5+  Nb115  1  0.00423034  0.75149197  0.99954170  1
  Nb5+  Nb116  1  0.49934061  0.25106703  0.51067999  1
  Nb5+  Nb117  1  0.49746916  0.24529451  1.00644872  1
  Nb5+  Nb118  1  0.49931283  0.75198317  0.50162776  1
  Nb5+  Nb119  1  0.49780577  0.74293109  1.00272996  1
  Nb5+  Nb120  1  0.25176347  -0.00289139  -0.00167889  1
  Nb5+  Nb121  1  0.25271408  0.00108440  0.50698851  1
  Nb5+  Nb122  1  0.24432374  0.50091087  -0.00089808  1
  Nb5+  Nb123  1  0.24779906  0.49502789  0.49275449  1
  Nb5+  Nb124  1  0.74965746  0.00424082  0.00676963  1
  Nb5+  Nb125  1  0.74854382  -0.00061583  0.50107191  1
  Nb5+  Nb126  1  0.75124023  0.50270731  0.00042379  1
  Nb5+  Nb127  1  0.75624956  0.50610667  0.49782408  1
  O2-  O128  1  0.01193001  -0.03241864  0.13528637  1
  O2-  O129  1  0.00901207  -0.02680860  0.63461159  1
  O2-  O130  1  -0.01687174  0.48566520  0.13075899  1
  O2-  O131  1  -0.01516213  0.47847944  0.63485639  1
  O2-  O132  1  0.51134400  0.00494765  0.12170123  1
  O2-  O133  1  0.53046416  -0.00234414  0.63649593  1
  O2-  O134  1  0.48738413  0.50366092  0.12537606  1
  O2-  O135  1  0.48864773  0.50807504  0.61996790  1
  O2-  O136  1  -0.00368719  0.01636885  0.36297741  1
  O2-  O137  1  -0.01075822  0.02542056  0.86929402  1
  O2-  O138  1  0.01754256  0.52566967  0.36420615  1
  O2-  O139  1  0.01073989  0.54366210  0.86676910  1
  O2-  O140  1  0.47360369  -0.00051985  0.36194390  1
  O2-  O141  1  0.47258446  0.00643501  0.88686082  1
  O2-  O142  1  0.50826590  0.48875759  0.37133867  1
  O2-  O143  1  0.50396846  0.49425838  0.87766030  1
  O2-  O144  1  0.28023252  0.25054769  0.11934370  1
  O2-  O145  1  0.27927965  0.26054192  0.63241049  1
  O2-  O146  1  0.23825107  0.77401554  0.13618652  1
  O2-  O147  1  0.23488744  0.76994072  0.61456406  1
  O2-  O148  1  0.75950795  0.22403099  0.12999875  1
  O2-  O149  1  0.75440014  0.22376649  0.63452890  1
  O2-  O150  1  0.72456740  0.73766534  0.12653235  1
  O2-  O151  1  0.71755205  0.73372692  0.63246048  1
  O2-  O152  1  0.23878021  0.21995407  0.35871112  1
  O2-  O153  1  0.24040105  0.24026516  0.88073821  1
  O2-  O154  1  0.26551959  0.74361142  0.36983914  1
  O2-  O155  1  0.28012041  0.72603825  0.86822869  1
  O2-  O156  1  0.72681859  0.26783726  0.36136757  1
  O2-  O157  1  0.73260779  0.28298221  0.86486259  1
  O2-  O158  1  0.77067768  0.76144592  0.36292155  1
  O2-  O159  1  0.76393370  0.76041149  0.89097890  1
  O2-  O160  1  -0.01843990  0.27323993  0.11439897  1
  O2-  O161  1  -0.02119185  0.26618816  0.61754853  1
  O2-  O162  1  0.00929039  0.77551955  0.13145454  1
  O2-  O163  1  0.02759422  0.77038993  0.61337538  1
  O2-  O164  1  0.47713964  0.24595575  0.12032142  1
  O2-  O165  1  0.48017597  0.25056012  0.62454762  1
  O2-  O166  1  0.52108365  0.74306046  0.13313192  1
  O2-  O167  1  0.52375308  0.74142815  0.61184805  1
  O2-  O168  1  0.26882000  0.01349416  0.36514983  1
  O2-  O169  1  0.26518269  0.01801388  0.88598044  1
  O2-  O170  1  0.24096061  0.53733569  0.38323347  1
  O2-  O171  1  0.26409844  0.50839933  0.88461858  1
  O2-  O172  1  0.77093256  -0.02043585  0.38142179  1
  O2-  O173  1  0.76880263  -0.02326651  0.89117639  1
  O2-  O174  1  0.74686884  0.47202531  0.38461930  1
  O2-  O175  1  0.72009609  0.49171715  0.88791258  1
  O2-  O176  1  0.03860585  0.23743432  0.38357542  1
  O2-  O177  1  0.03915185  0.23371173  0.88744508  1
  O2-  O178  1  -0.01156625  0.73445220  0.36576165  1
  O2-  O179  1  -0.01474996  0.73085580  0.88809830  1
  O2-  O180  1  0.51555927  0.25872490  0.36453633  1
  O2-  O181  1  0.51496454  0.25116072  0.87412038  1
  O2-  O182  1  0.47740535  0.74304580  0.36612670  1
  O2-  O183  1  0.47354324  0.74723914  0.89074564  1
  O2-  O184  1  0.24233246  -0.01424863  0.12513463  1
  O2-  O185  1  0.24682637  -0.02672501  0.61632284  1
  O2-  O186  1  0.26952171  0.49312437  0.11443692  1
  O2-  O187  1  0.27363905  0.48695741  0.60816250  1
  O2-  O188  1  0.70889669  0.00501033  0.11527408  1
  O2-  O189  1  0.72513761  0.00847486  0.61899012  1
  O2-  O190  1  0.75004215  0.52075881  0.11673611  1
  O2-  O191  1  0.74836660  0.52192484  0.61664618  1
  O2-  O192  1  0.14202340  0.26226901  0.21835109  1
  O2-  O193  1  0.13838681  0.27618343  0.73447406  1
  O2-  O194  1  0.12456673  0.76580260  0.26361309  1
  O2-  O195  1  0.13844288  0.76766986  0.77113693  1
  O2-  O196  1  0.61090135  0.26101935  0.22182754  1
  O2-  O197  1  0.61553294  0.27175497  0.73107194  1
  O2-  O198  1  0.61565552  0.76728341  0.26915390  1
  O2-  O199  1  0.63306812  0.76934870  0.78074663  1
  O2-  O200  1  0.38248665  0.22035047  0.25615645  1
  O2-  O201  1  0.38223388  0.23015794  0.76284672  1
  O2-  O202  1  0.37326215  0.73308159  0.23469354  1
  O2-  O203  1  0.36867880  0.73017998  0.71621100  1
  O2-  O204  1  0.86744389  0.21945848  0.26867839  1
  O2-  O205  1  0.86482216  0.22288858  0.77021352  1
  O2-  O206  1  0.87409199  0.73216111  0.23004595  1
  O2-  O207  1  0.86340257  0.72848051  0.74133653  1
  O2-  O208  1  0.28234282  0.35818086  0.25972543  1
  O2-  O209  1  0.28186484  0.36644364  0.76719796  1
  O2-  O210  1  0.26826988  0.87740865  0.26082742  1
  O2-  O211  1  0.27827111  0.86463461  0.75864685  1
  O2-  O212  1  0.76545458  0.36130014  0.22535889  1
  O2-  O213  1  0.76797637  0.36438899  0.72667769  1
  O2-  O214  1  0.75561375  0.86291182  0.22857342  1
  O2-  O215  1  0.76731796  0.86572393  0.74101621  1
  O2-  O216  1  0.24701756  0.11790558  0.22693237  1
  O2-  O217  1  0.23687053  0.13694651  0.74240739  1
  O2-  O218  1  0.23431093  0.63593407  0.23400482  1
  O2-  O219  1  0.23103225  0.63332282  0.72943062  1
  O2-  O220  1  0.71431881  0.13186766  0.26146086  1
  O2-  O221  1  0.71652692  0.13534826  0.77461716  1
  O2-  O222  1  0.71979440  0.63636446  0.25978892  1
  O2-  O223  1  0.73302053  0.63370447  0.77481542  1
  O2-  O224  1  0.11439699  0.48618741  0.22737241  1
  O2-  O225  1  0.11743516  0.47596199  0.75250102  1
  O2-  O226  1  0.13395759  0.98464201  0.25879234  1
  O2-  O227  1  0.12039585  0.98204256  0.76648318  1
  O2-  O228  1  0.61221069  0.47282934  0.23806027  1
  O2-  O229  1  0.61138612  0.46998638  0.73036480  1
  O2-  O230  1  0.60790583  0.96913274  0.25911886  1
  O2-  O231  1  0.60866910  0.98712443  0.78908074  1
  O2-  O232  1  0.37620606  0.00532509  0.22585491  1
  O2-  O233  1  0.38882856  0.03444013  0.74053996  1
  O2-  O234  1  0.38387464  0.51643483  0.25804581  1
  O2-  O235  1  0.38818049  0.51963184  0.74735046  1
  O2-  O236  1  0.88316219  0.01961565  0.23343489  1
  O2-  O237  1  0.88062750  0.02478281  0.73437815  1
  O2-  O238  1  0.88360503  0.52998295  0.25641430  1
  O2-  O239  1  0.87882716  0.51890262  0.76428836  1
  O2-  O240  1  0.47462958  0.37060219  0.24359500  1
  O2-  O241  1  0.47731302  0.37185390  0.75743908  1
  O2-  O242  1  0.47477003  0.86901743  0.24167292  1
  O2-  O243  1  0.46871391  0.88454483  0.75047447  1
  O2-  O244  1  0.97872153  0.38217735  0.27501528  1
  O2-  O245  1  0.98205283  0.38467234  0.78336956  1
  O2-  O246  1  0.98370504  0.87155336  0.26847192  1
  O2-  O247  1  0.98281079  0.88377427  0.77307422  1
  O2-  O248  1  0.02309431  0.11473289  0.22228031  1
  O2-  O249  1  0.02694866  0.11964614  0.72986806  1
  O2-  O250  1  0.01455025  0.63505380  0.23090053  1
  O2-  O251  1  0.01604504  0.61810774  0.71759601  1
  O2-  O252  1  0.51670741  0.12054718  0.24905083  1
  O2-  O253  1  0.52228184  0.13237398  0.74887435  1
  O2-  O254  1  0.51737914  0.62063358  0.25135969  1
  O2-  O255  1  0.52919565  0.61407741  0.76096653  1
  O2-  O256  1  0.13483169  0.46529408  -0.00063106  1
  O2-  O257  1  0.13463041  0.48401749  0.51212783  1
  O2-  O258  1  0.13632903  0.98394692  -0.00700415  1
  O2-  O259  1  0.14136990  0.98081201  0.47418107  1
  O2-  O260  1  0.61502534  0.48509973  0.01533203  1
  O2-  O261  1  0.61430299  0.47757125  0.50616471  1
  O2-  O262  1  0.61288999  0.98622375  -0.01902039  1
  O2-  O263  1  0.63307952  0.96652334  0.48430265  1
  O2-  O264  1  0.37741992  0.01507174  0.02129699  1
  O2-  O265  1  0.36776536  0.02938318  0.50691064  1
  O2-  O266  1  0.38215854  0.52642682  -0.00337784  1
  O2-  O267  1  0.37866568  0.51250581  0.48085517  1
  O2-  O268  1  0.85992891  0.01836529  0.03439533  1
  O2-  O269  1  0.86779443  0.02066904  0.51834133  1
  O2-  O270  1  0.86221333  0.52524604  -0.01737195  1
  O2-  O271  1  0.86622415  0.53840601  0.49249545  1
  O2-  O272  1  0.47626479  0.37979188  0.00285149  1
  O2-  O273  1  0.47438929  0.37907041  0.50391235  1
  O2-  O274  1  0.48160473  0.87558573  0.00808264  1
  O2-  O275  1  0.47003471  0.86328342  0.50414050  1
  O2-  O276  1  0.98321342  0.36682151  -0.02219601  1
  O2-  O277  1  0.98215151  0.37060418  0.47581165  1
  O2-  O278  1  0.96618663  0.86507494  -0.00947935  1
  O2-  O279  1  0.99273049  0.86343996  0.47112823  1
  O2-  O280  1  0.01500619  0.13554396  0.03030543  1
  O2-  O281  1  0.02108752  0.13357691  0.51762270  1
  O2-  O282  1  0.01109414  0.63906653  0.03358590  1
  O2-  O283  1  0.03593589  0.63872606  0.50103872  1
  O2-  O284  1  0.51343174  0.12962607  0.00244894  1
  O2-  O285  1  0.52540604  0.13829527  0.50081923  1
  O2-  O286  1  0.51870982  0.62497312  0.00088646  1
  O2-  O287  1  0.51045175  0.61942594  0.48911287  1
  O2-  O288  1  0.13741131  0.26537334  0.02029787  1
  O2-  O289  1  0.11930466  0.27739310  0.52404568  1
  O2-  O290  1  0.11552785  0.77707437  -0.01130361  1
  O2-  O291  1  0.13620620  0.76581508  0.47349509  1
  O2-  O292  1  0.60911883  0.27684782  0.01092689  1
  O2-  O293  1  0.61231938  0.28132045  0.50376648  1
  O2-  O294  1  0.61743387  0.76665592  -0.00699850  1
  O2-  O295  1  0.61047629  0.76574704  0.46920956  1
  O2-  O296  1  0.38141533  0.24077538  -0.02421962  1
  O2-  O297  1  0.38822147  0.23985447  0.47212089  1
  O2-  O298  1  0.38707868  0.73405675  0.03742308  1
  O2-  O299  1  0.37492563  0.72781842  0.50657558  1
  O2-  O300  1  0.88213946  0.22558696  -0.03023546  1
  O2-  O301  1  0.88433405  0.23132918  0.47181270  1
  O2-  O302  1  0.86612619  0.73411756  0.02697729  1
  O2-  O303  1  0.88898978  0.72502193  0.51655724  1
  O2-  O304  1  0.27571696  0.36931287  -0.00522074  1
  O2-  O305  1  0.25826124  0.38573851  0.45593731  1
  O2-  O306  1  0.27842742  0.88408299  -0.00984821  1
  O2-  O307  1  0.27858958  0.87210424  0.48632554  1
  O2-  O308  1  0.76548003  0.38684823  0.01753518  1
  O2-  O309  1  0.77033438  0.38580300  0.52075841  1
  O2-  O310  1  0.75166155  0.86984487  0.02087742  1
  O2-  O311  1  0.77196419  0.87786478  0.52083615  1
  O2-  O312  1  0.24744460  0.12760226  0.01322353  1
  O2-  O313  1  0.22715598  0.11592448  0.51482291  1
  O2-  O314  1  0.21601145  0.61406144  0.00757754  1
  O2-  O315  1  0.24109334  0.63339124  0.51419855  1
  O2-  O316  1  0.72543332  0.11377130  -0.02044267  1
  O2-  O317  1  0.72790896  0.11492016  0.47857328  1
  O2-  O318  1  0.72431126  0.63119196  -0.00566521  1
  O2-  O319  1  0.71107597  0.61398995  0.48174050  1
