# generated using pymatgen
data_Sr64Ca21Nb43O192
_symmetry_space_group_name_H-M   'P 1'
_cell_length_a   16.53927533
_cell_length_b   16.55310312
_cell_length_c   16.68162240
_cell_angle_alpha   90.00902708
_cell_angle_beta   89.99564373
_cell_angle_gamma   90.08871435
_symmetry_Int_Tables_number   1
_chemical_formula_structural   Sr64Ca21Nb43O192
_chemical_formula_sum   'Sr64 Ca21 Nb43 O192'
_cell_volume   4567.02781384
_cell_formula_units_Z   1
loop_
 _symmetry_equiv_pos_site_id
 _symmetry_equiv_pos_as_xyz
  1  'x, y, z'
loop_
 _atom_type_symbol
 _atom_type_oxidation_number
  Sr2+  2.0
  Ca2+  2.0
  Nb5+  5.0
  O2-  -2.0
loop_
 _atom_site_type_symbol
 _atom_site_label
 _atom_site_symmetry_multiplicity
 _atom_site_fract_x
 _atom_site_fract_y
 _atom_site_fract_z
 _atom_site_occupancy
  Sr2+  Sr0  1  0.12188006  0.11731908  0.12546782  1
  Sr2+  Sr1  1  0.11989312  0.12308101  0.62444553  1
  Sr2+  Sr2  1  0.12564127  0.61115870  0.12359916  1
  Sr2+  Sr3  1  0.12547083  0.61503088  0.62825229  1
  Sr2+  Sr4  1  0.62545776  0.12479972  0.12029613  1
  Sr2+  Sr5  1  0.62621915  0.12256109  0.62043518  1
  Sr2+  Sr6  1  0.62665724  0.64572349  0.13101479  1
  Sr2+  Sr7  1  0.61708758  0.63122724  0.62776869  1
  Sr2+  Sr8  1  0.38150571  0.37272989  0.12616930  1
  Sr2+  Sr9  1  0.37875089  0.38179977  0.61925910  1
  Sr2+  Sr10  1  0.37099380  0.85836209  0.12231329  1
  Sr2+  Sr11  1  0.36711522  0.85005640  0.62668888  1
  Sr2+  Sr12  1  0.86723865  0.38747679  0.12597289  1
  Sr2+  Sr13  1  0.86718408  0.38557767  0.62313919  1
  Sr2+  Sr14  1  0.87936613  0.86124195  0.12420640  1
  Sr2+  Sr15  1  0.87932991  0.86138169  0.63011885  1
  Sr2+  Sr16  1  0.11232484  0.37126287  0.37295705  1
  Sr2+  Sr17  1  0.11722742  0.36917708  0.86955997  1
  Sr2+  Sr18  1  0.12119849  0.87079874  0.37462889  1
  Sr2+  Sr19  1  0.12154950  0.87390941  0.87780767  1
  Sr2+  Sr20  1  0.62474841  0.36550463  0.37078826  1
  Sr2+  Sr21  1  0.63905146  0.36959809  0.87684658  1
  Sr2+  Sr22  1  0.62553222  0.87169092  0.37439832  1
  Sr2+  Sr23  1  0.61925855  0.88491443  0.87399843  1
  Sr2+  Sr24  1  0.37045260  0.12317589  0.37280552  1
  Sr2+  Sr25  1  0.39052817  0.12283415  0.87063782  1
  Sr2+  Sr26  1  0.38342318  0.62235119  0.37897805  1
  Sr2+  Sr27  1  0.38155005  0.62449922  0.86897524  1
  Sr2+  Sr28  1  0.86442007  0.11964215  0.37932022  1
  Sr2+  Sr29  1  0.89227591  0.13153635  0.87459536  1
  Sr2+  Sr30  1  0.86584518  0.62520697  0.37514799  1
  Sr2+  Sr31  1  0.87105477  0.62514790  0.87599838  1
  Sr2+  Sr32  1  0.12161822  0.11889011  0.38018413  1
  Sr2+  Sr33  1  0.12548934  0.12034124  0.87528886  1
  Sr2+  Sr34  1  0.12286736  0.60472005  0.36921961  1
  Sr2+  Sr35  1  0.12549455  0.59621539  0.87501476  1
  Sr2+  Sr36  1  0.62271729  0.12219028  0.36946624  1
  Sr2+  Sr37  1  0.62846967  0.12912543  0.87751935  1
  Sr2+  Sr38  1  0.62377152  0.65060978  0.37695651  1
  Sr2+  Sr39  1  0.62692802  0.64416376  0.86715074  1
  Sr2+  Sr40  1  0.37917272  0.37060317  0.37588416  1
  Sr2+  Sr41  1  0.37866745  0.37755986  0.87244065  1
  Sr2+  Sr42  1  0.37147984  0.85635684  0.37759957  1
  Sr2+  Sr43  1  0.37430490  0.87268439  0.87576703  1
  Sr2+  Sr44  1  0.87339478  0.38019597  0.37269343  1
  Sr2+  Sr45  1  0.87688600  0.37949878  0.87557017  1
  Sr2+  Sr46  1  0.87932387  0.86265206  0.37578343  1
  Sr2+  Sr47  1  0.88018523  0.86169650  0.87514492  1
  Sr2+  Sr48  1  0.13133160  0.38406214  0.12287920  1
  Sr2+  Sr49  1  0.11574289  0.37558896  0.62386595  1
  Sr2+  Sr50  1  0.12226830  0.86661795  0.12882034  1
  Sr2+  Sr51  1  0.11968231  0.86710659  0.63242612  1
  Sr2+  Sr52  1  0.63566365  0.37348209  0.12341015  1
  Sr2+  Sr53  1  0.61941464  0.38042124  0.62142544  1
  Sr2+  Sr54  1  0.63029461  0.87110760  0.12261632  1
  Sr2+  Sr55  1  0.62660589  0.86170737  0.62673082  1
  Sr2+  Sr56  1  0.38574765  0.12876201  0.12739862  1
  Sr2+  Sr57  1  0.36722055  0.12772988  0.62882494  1
  Sr2+  Sr58  1  0.36788862  0.62027526  0.12545187  1
  Sr2+  Sr59  1  0.39633782  0.62097450  0.62227987  1
  Sr2+  Sr60  1  0.87519148  0.12482405  0.11958966  1
  Sr2+  Sr61  1  0.86612977  0.12256456  0.62432633  1
  Sr2+  Sr62  1  0.86614633  0.63353892  0.12316445  1
  Sr2+  Sr63  1  0.85734296  0.63160432  0.62471977  1
  Ca2+  Ca64  1  -0.00141093  0.49622372  0.00158374  1
  Ca2+  Ca65  1  0.50573428  0.49823488  0.49545406  1
  Ca2+  Ca66  1  0.49470682  0.00034185  0.50062591  1
  Ca2+  Ca67  1  0.50250044  0.50219104  0.00113528  1
  Ca2+  Ca68  1  -0.00102805  0.50026582  0.50190376  1
  Ca2+  Ca69  1  0.24724866  0.74685712  -0.00221610  1
  Ca2+  Ca70  1  0.25328273  0.24977497  0.00073351  1
  Ca2+  Ca71  1  0.75128167  0.75206587  0.50168652  1
  Ca2+  Ca72  1  0.24310230  0.74539285  0.50110378  1
  Ca2+  Ca73  1  0.74816397  0.75290250  -0.00268631  1
  Ca2+  Ca74  1  0.49690188  0.75580973  0.75252019  1
  Ca2+  Ca75  1  0.00220037  0.74646207  0.25035908  1
  Ca2+  Ca76  1  0.00425094  0.74445382  0.75168646  1
  Ca2+  Ca77  1  0.74442278  0.50255351  0.25242335  1
  Ca2+  Ca78  1  0.74895856  0.00150748  0.75315896  1
  Ca2+  Ca79  1  0.49810176  0.75424781  0.24794524  1
  Ca2+  Ca80  1  -0.00137038  0.24916200  0.74591594  1
  Ca2+  Ca81  1  0.74799266  0.49871084  0.75032866  1
  Ca2+  Ca82  1  0.00214724  0.24709507  0.24807552  1
  Ca2+  Ca83  1  0.50354170  0.25278762  0.75062224  1
  Ca2+  Ca84  1  0.74899259  -0.00140128  0.24871893  1
  Nb5+  Nb85  1  0.50156539  -0.00202985  0.00175346  1
  Nb5+  Nb86  1  -0.00303268  0.00015644  0.50443533  1
  Nb5+  Nb87  1  0.00411164  -0.00113299  0.00262924  1
  Nb5+  Nb88  1  0.75408694  0.24759532  -0.00340171  1
  Nb5+  Nb89  1  0.24488292  0.25215461  0.49991970  1
  Nb5+  Nb90  1  0.74498000  0.25060223  0.49683654  1
  Nb5+  Nb91  1  0.25462288  0.49176511  0.24947510  1
  Nb5+  Nb92  1  0.50200167  0.25021104  0.24946233  1
  Nb5+  Nb93  1  0.25302242  0.49103954  0.74408605  1
  Nb5+  Nb94  1  0.24985099  -0.00319138  0.75349224  1
  Nb5+  Nb95  1  0.25132922  -0.00514338  0.25307128  1
  Nb5+  Nb96  1  -0.00438371  0.00501792  0.25410681  1
  Nb5+  Nb97  1  -0.00201564  0.00215201  0.75360739  1
  Nb5+  Nb98  1  -0.00498239  0.50131799  0.24753481  1
  Nb5+  Nb99  1  -0.00515162  0.50199246  0.74737991  1
  Nb5+  Nb100  1  0.49490967  -0.00219346  0.24952602  1
  Nb5+  Nb101  1  0.49944141  0.00297427  0.74339933  1
  Nb5+  Nb102  1  0.50345157  0.50237398  0.25029765  1
  Nb5+  Nb103  1  0.50473749  0.49663978  0.75445847  1
  Nb5+  Nb104  1  0.25087188  0.24538373  0.24949512  1
  Nb5+  Nb105  1  0.24832205  0.24573153  0.75236309  1
  Nb5+  Nb106  1  0.24520733  0.73911207  0.25127550  1
  Nb5+  Nb107  1  0.24653260  0.73729836  0.75091991  1
  Nb5+  Nb108  1  0.75513602  0.24429648  0.24641314  1
  Nb5+  Nb109  1  0.75075538  0.24986597  0.74267657  1
  Nb5+  Nb110  1  0.75189564  0.75315326  0.25162188  1
  Nb5+  Nb111  1  0.75107115  0.75129962  0.75252023  1
  Nb5+  Nb112  1  -0.00886089  0.24707419  0.49802770  1
  Nb5+  Nb113  1  0.00295733  0.25226860  1.00374483  1
  Nb5+  Nb114  1  0.00645119  0.74368891  0.49965769  1
  Nb5+  Nb115  1  0.00496766  0.74246087  0.99882329  1
  Nb5+  Nb116  1  0.49506914  0.24264301  0.50138640  1
  Nb5+  Nb117  1  0.50115779  0.25234036  0.99852922  1
  Nb5+  Nb118  1  0.49913783  0.75386740  0.50058674  1
  Nb5+  Nb119  1  0.50081245  0.74848459  1.00103917  1
  Nb5+  Nb120  1  0.25617613  0.00548939  0.00493389  1
  Nb5+  Nb121  1  0.24994544  0.00010162  0.50455719  1
  Nb5+  Nb122  1  0.25557295  0.49846762  -0.00798673  1
  Nb5+  Nb123  1  0.24861617  0.49819449  0.49608524  1
  Nb5+  Nb124  1  0.75847123  0.00105995  -0.00169568  1
  Nb5+  Nb125  1  0.74786994  -0.00501717  0.50194152  1
  Nb5+  Nb126  1  0.74458990  0.50581209  0.00123805  1
  Nb5+  Nb127  1  0.74677920  0.50173167  0.49979462  1
  O2-  O128  1  -0.00239456  0.01125398  0.12068672  1
  O2-  O129  1  0.00378600  0.00553579  0.62318241  1
  O2-  O130  1  0.02580338  0.49157956  0.13332376  1
  O2-  O131  1  0.02689007  0.49960228  0.63307667  1
  O2-  O132  1  0.48594734  0.00901569  0.12373879  1
  O2-  O133  1  0.49351085  0.03181639  0.63334885  1
  O2-  O134  1  0.47782973  0.49613830  0.13683067  1
  O2-  O135  1  0.50868287  0.50396664  0.63278747  1
  O2-  O136  1  0.00100057  -0.00116828  0.37350708  1
  O2-  O137  1  0.00622220  -0.00434554  0.87386519  1
  O2-  O138  1  0.00174744  0.49821173  0.36675592  1
  O2-  O139  1  -0.00309838  0.48978679  0.86685763  1
  O2-  O140  1  0.49291821  0.01481376  0.36362691  1
  O2-  O141  1  0.49370640  -0.00732767  0.88243909  1
  O2-  O142  1  0.47523690  0.49300030  0.36358602  1
  O2-  O143  1  0.47504112  0.49745472  0.86843917  1
  O2-  O144  1  0.27167565  0.24962011  0.13643033  1
  O2-  O145  1  0.25951926  0.24843900  0.61847095  1
  O2-  O146  1  0.24731922  0.75907484  0.13483205  1
  O2-  O147  1  0.23055206  0.75853145  0.63413834  1
  O2-  O148  1  0.75928387  0.24864248  0.12680430  1
  O2-  O149  1  0.75746566  0.25031288  0.62215620  1
  O2-  O150  1  0.74844787  0.74797290  0.13059526  1
  O2-  O151  1  0.74255241  0.75957711  0.63262784  1
  O2-  O152  1  0.25534241  0.25216716  0.37596791  1
  O2-  O153  1  0.23996756  0.25852328  0.86599467  1
  O2-  O154  1  0.25099798  0.76043921  0.36741645  1
  O2-  O155  1  0.27516551  0.75119888  0.86436655  1
  O2-  O156  1  0.74303818  0.24378443  0.37632976  1
  O2-  O157  1  0.74235572  0.24804054  0.87882224  1
  O2-  O158  1  0.74944870  0.75495114  0.37061566  1
  O2-  O159  1  0.76084816  0.72998601  0.86897906  1
  O2-  O160  1  -0.00723063  0.21957296  0.11576883  1
  O2-  O161  1  0.01267530  0.23993353  0.61158573  1
  O2-  O162  1  -0.00353040  0.76007404  0.11608608  1
  O2-  O163  1  0.00056999  0.76035371  0.61686476  1
  O2-  O164  1  0.49497018  0.24759784  0.12698137  1
  O2-  O165  1  0.50109739  0.23924966  0.61576746  1
  O2-  O166  1  0.51960078  0.76503147  0.11811551  1
  O2-  O167  1  0.51506228  0.74817089  0.61974808  1
  O2-  O168  1  0.24615639  0.00485259  0.37235533  1
  O2-  O169  1  0.24549564  0.00709166  0.87248019  1
  O2-  O170  1  0.25881835  0.49898571  0.37656284  1
  O2-  O171  1  0.26235340  0.49752860  0.87263797  1
  O2-  O172  1  0.74939576  0.01498875  0.38464538  1
  O2-  O173  1  0.72091471  0.00424161  0.88758356  1
  O2-  O174  1  0.77496119  0.49612400  0.38428840  1
  O2-  O175  1  0.76507482  0.49248816  0.88528538  1
  O2-  O176  1  0.01833107  0.24500081  0.38350060  1
  O2-  O177  1  0.00278669  0.24966041  0.88400136  1
  O2-  O178  1  -0.00321916  0.76646910  0.38345203  1
  O2-  O179  1  -0.00512304  0.76648025  0.88391840  1
  O2-  O180  1  0.51120844  0.24710007  0.37062624  1
  O2-  O181  1  0.52391196  0.25744875  0.88595163  1
  O2-  O182  1  0.49775127  0.75818503  0.38040860  1
  O2-  O183  1  0.47782692  0.75867574  0.88513639  1
  O2-  O184  1  0.25002924  0.00532251  0.12383169  1
  O2-  O185  1  0.24346930  0.00915937  0.62345356  1
  O2-  O186  1  0.24631952  0.49865112  0.13049251  1
  O2-  O187  1  0.23806028  0.49377317  0.62651001  1
  O2-  O188  1  0.74183977  0.00723148  0.11351901  1
  O2-  O189  1  0.75617901  0.01396213  0.61752749  1
  O2-  O190  1  0.74625734  0.48345637  0.11887824  1
  O2-  O191  1  0.73907810  0.47579141  0.61647962  1
  O2-  O192  1  0.14147539  0.28254938  0.24384932  1
  O2-  O193  1  0.13679802  0.28127271  0.73782963  1
  O2-  O194  1  0.13454275  0.78216757  0.25245070  1
  O2-  O195  1  0.13750384  0.78138847  0.76404177  1
  O2-  O196  1  0.62044433  0.27111212  0.24348606  1
  O2-  O197  1  0.63716301  0.28730291  0.74190033  1
  O2-  O198  1  0.63359291  0.78451417  0.25260443  1
  O2-  O199  1  0.63227375  0.77933062  0.76704357  1
  O2-  O200  1  0.37844687  0.23036161  0.26101361  1
  O2-  O201  1  0.36563323  0.22743996  0.75239732  1
  O2-  O202  1  0.36469589  0.72526923  0.25080602  1
  O2-  O203  1  0.36361365  0.73014290  0.72486263  1
  O2-  O204  1  0.86574536  0.21643301  0.25854198  1
  O2-  O205  1  0.86512037  0.21182282  0.75065752  1
  O2-  O206  1  0.86777042  0.71723325  0.25348387  1
  O2-  O207  1  0.86911462  0.72207146  0.74453358  1
  O2-  O208  1  0.28242641  0.37842664  0.25177286  1
  O2-  O209  1  0.27937741  0.37752380  0.74531239  1
  O2-  O210  1  0.27704369  0.88446391  0.25020549  1
  O2-  O211  1  0.27412668  0.88557808  0.74856187  1
  O2-  O212  1  0.76780929  0.36174814  0.25541019  1
  O2-  O213  1  0.78794345  0.36256095  0.75631339  1
  O2-  O214  1  0.78753027  0.86902348  0.24782239  1
  O2-  O215  1  0.78219149  0.86822077  0.75783999  1
  O2-  O216  1  0.22752642  0.13118515  0.25332826  1
  O2-  O217  1  0.22309131  0.13040601  0.74635928  1
  O2-  O218  1  0.22256875  0.62366791  0.25041805  1
  O2-  O219  1  0.22397613  0.62234168  0.75308723  1
  O2-  O220  1  0.71326796  0.13395361  0.24772903  1
  O2-  O221  1  0.71129338  0.13635521  0.74850479  1
  O2-  O222  1  0.71663277  0.63453144  0.25456301  1
  O2-  O223  1  0.71854790  0.63170511  0.73870066  1
  O2-  O224  1  0.13681527  0.47550969  0.26178028  1
  O2-  O225  1  0.13645740  0.47564756  0.76434933  1
  O2-  O226  1  0.13308546  0.98018838  0.24349111  1
  O2-  O227  1  0.13033507  0.98000432  0.74904058  1
  O2-  O228  1  0.61148882  0.46353967  0.25205042  1
  O2-  O229  1  0.61494942  0.46805930  0.76594448  1
  O2-  O230  1  0.60847565  0.97438376  0.24534119  1
  O2-  O231  1  0.61044394  0.97118396  0.74059850  1
  O2-  O232  1  0.36545764  0.03498430  0.24699954  1
  O2-  O233  1  0.36405549  0.03289402  0.74950937  1
  O2-  O234  1  0.36602980  0.53183790  0.25159999  1
  O2-  O235  1  0.36565845  0.52944576  0.74059656  1
  O2-  O236  1  0.88535825  0.03591489  0.24873691  1
  O2-  O237  1  0.88615320  0.02989558  0.75446268  1
  O2-  O238  1  0.88353878  0.52784051  0.23647651  1
  O2-  O239  1  0.88396108  0.53148581  0.73726275  1
  O2-  O240  1  0.47433095  0.36675721  0.25053888  1
  O2-  O241  1  0.46341744  0.38444909  0.74383980  1
  O2-  O242  1  0.45751213  0.88921650  0.24967314  1
  O2-  O243  1  0.45949821  0.89178794  0.74568043  1
  O2-  O244  1  0.97436236  0.38112413  0.25016208  1
  O2-  O245  1  0.97796697  0.38310840  0.74097767  1
  O2-  O246  1  0.98384000  0.88934643  0.24135112  1
  O2-  O247  1  0.98350749  0.88610367  0.74290098  1
  O2-  O248  1  0.04077784  0.11411307  0.25165404  1
  O2-  O249  1  0.03477318  0.11524471  0.75237970  1
  O2-  O250  1  0.03519573  0.61425343  0.24809622  1
  O2-  O251  1  0.03777049  0.61365553  0.75581644  1
  O2-  O252  1  0.51560421  0.12840301  0.24147606  1
  O2-  O253  1  0.51337486  0.11594245  0.77787147  1
  O2-  O254  1  0.52815023  0.61581128  0.25241299  1
  O2-  O255  1  0.51849973  0.61750130  0.75713698  1
  O2-  O256  1  0.13730029  0.46662314  -0.01119999  1
  O2-  O257  1  0.13715007  0.45878133  0.49323931  1
  O2-  O258  1  0.11923567  0.97931389  0.00432401  1
  O2-  O259  1  0.12394728  0.98891711  0.49540176  1
  O2-  O260  1  0.63400189  0.46012255  -0.00396063  1
  O2-  O261  1  0.63687986  0.45916064  0.48473841  1
  O2-  O262  1  0.61481293  0.97820366  0.01018572  1
  O2-  O263  1  0.63437556  0.97126546  0.50472248  1
  O2-  O264  1  0.36912623  0.03257430  -0.00167496  1
  O2-  O265  1  0.35926166  0.03730131  0.49949344  1
  O2-  O266  1  0.36652309  0.53867986  0.00083566  1
  O2-  O267  1  0.36526695  0.51293011  0.51406641  1
  O2-  O268  1  0.87250975  0.02946949  -0.00839527  1
  O2-  O269  1  0.88208730  0.02984417  0.49975261  1
  O2-  O270  1  0.86523849  0.52665951  0.01249853  1
  O2-  O271  1  0.86620660  0.52024710  0.52023757  1
  O2-  O272  1  0.47707842  0.36447679  0.00588478  1
  O2-  O273  1  0.48244625  0.36043965  0.49603593  1
  O2-  O274  1  0.46616996  0.88554542  0.00574309  1
  O2-  O275  1  0.46336467  0.86925466  0.50647947  1
  O2-  O276  1  0.96484825  0.36086844  0.01117022  1
  O2-  O277  1  0.97386936  0.36226440  0.49876640  1
  O2-  O278  1  0.96879652  0.88795318  0.00120041  1
  O2-  O279  1  0.97296009  0.88649634  0.50203085  1
  O2-  O280  1  0.01523279  0.11950854  -0.01400076  1
  O2-  O281  1  0.02266759  0.12191610  0.49579613  1
  O2-  O282  1  0.03398342  0.63143628  -0.00348530  1
  O2-  O283  1  0.04097559  0.63404270  0.49656736  1
  O2-  O284  1  0.52158773  0.12110630  -0.00053780  1
  O2-  O285  1  0.53771216  0.13377796  0.49097507  1
  O2-  O286  1  0.53237494  0.63743738  -0.00121784  1
  O2-  O287  1  0.52300696  0.63334380  0.49299638  1
  O2-  O288  1  0.11576521  0.27628691  0.01204518  1
  O2-  O289  1  0.13252426  0.27457645  0.50009522  1
  O2-  O290  1  0.11543104  0.78813572  -0.00027704  1
  O2-  O291  1  0.11473627  0.79281031  0.49925745  1
  O2-  O292  1  0.62965699  0.26166402  0.01642582  1
  O2-  O293  1  0.63151567  0.27353303  0.50373071  1
  O2-  O294  1  0.61506859  0.78951336  -0.01368495  1
  O2-  O295  1  0.61737807  0.78238426  0.49304701  1
  O2-  O296  1  0.38930042  0.21992305  -0.00926543  1
  O2-  O297  1  0.37983981  0.22162523  0.49318322  1
  O2-  O298  1  0.38450937  0.73374242  0.02435822  1
  O2-  O299  1  0.37999842  0.72327792  0.50646571  1
  O2-  O300  1  0.86979806  0.22033413  -0.00431993  1
  O2-  O301  1  0.87702935  0.22011284  0.49562242  1
  O2-  O302  1  0.88442131  0.72493753  0.00037326  1
  O2-  O303  1  0.88566633  0.72088793  0.49993103  1
  O2-  O304  1  0.28705847  0.38491890  0.00671139  1
  O2-  O305  1  0.28118211  0.36737601  0.49850770  1
  O2-  O306  1  0.26798976  0.89011199  -0.00557823  1
  O2-  O307  1  0.27257314  0.88876463  0.50064858  1
  O2-  O308  1  0.77431788  0.36354014  0.00071758  1
  O2-  O309  1  0.78292494  0.36229312  0.49475966  1
  O2-  O310  1  0.77937588  0.88704386  -0.00125708  1
  O2-  O311  1  0.78703014  0.88715219  0.49978771  1
  O2-  O312  1  0.21362884  0.11621391  -0.00076189  1
  O2-  O313  1  0.22469539  0.13242332  0.49675165  1
  O2-  O314  1  0.21789371  0.61253576  0.00375435  1
  O2-  O315  1  0.21949888  0.60951160  0.49844712  1
  O2-  O316  1  0.72856009  0.12742489  0.00290209  1
  O2-  O317  1  0.73387736  0.13053003  0.50354279  1
  O2-  O318  1  0.71277404  0.61586251  0.00388827  1
  O2-  O319  1  0.71827868  0.61420585  0.50353583  1
