# generated using pymatgen
data_Sr64Ca21Nb43O192
_symmetry_space_group_name_H-M   'P 1'
_cell_length_a   16.57282099
_cell_length_b   16.58722774
_cell_length_c   16.72658341
_cell_angle_alpha   89.99138285
_cell_angle_beta   89.95638646
_cell_angle_gamma   89.94173555
_symmetry_Int_Tables_number   1
_chemical_formula_structural   Sr64Ca21Nb43O192
_chemical_formula_sum   'Sr64 Ca21 Nb43 O192'
_cell_volume   4598.08644877
_cell_formula_units_Z   1
loop_
 _symmetry_equiv_pos_site_id
 _symmetry_equiv_pos_as_xyz
  1  'x, y, z'
loop_
 _atom_type_symbol
 _atom_type_oxidation_number
  Sr2+  2.0
  Ca2+  2.0
  Nb5+  5.0
  O2-  -2.0
loop_
 _atom_site_type_symbol
 _atom_site_label
 _atom_site_symmetry_multiplicity
 _atom_site_fract_x
 _atom_site_fract_y
 _atom_site_fract_z
 _atom_site_occupancy
  Sr2+  Sr0  1  0.12618838  0.13220549  0.12225024  1
  Sr2+  Sr1  1  0.13131091  0.13270840  0.61715936  1
  Sr2+  Sr2  1  0.13606117  0.63451247  0.12680057  1
  Sr2+  Sr3  1  0.12674544  0.63947710  0.62661059  1
  Sr2+  Sr4  1  0.63384703  0.12436926  0.12948254  1
  Sr2+  Sr5  1  0.62984525  0.12366503  0.63593587  1
  Sr2+  Sr6  1  0.62729181  0.63594084  0.12117611  1
  Sr2+  Sr7  1  0.63048565  0.64040764  0.62180808  1
  Sr2+  Sr8  1  0.37495971  0.38039654  0.11865467  1
  Sr2+  Sr9  1  0.38606254  0.37312219  0.61391039  1
  Sr2+  Sr10  1  0.38517710  0.88000041  0.12384483  1
  Sr2+  Sr11  1  0.38315268  0.88818982  0.62600524  1
  Sr2+  Sr12  1  0.87907765  0.36766226  0.12851839  1
  Sr2+  Sr13  1  0.88037162  0.38158746  0.62832436  1
  Sr2+  Sr14  1  0.88545642  0.89420865  0.12777803  1
  Sr2+  Sr15  1  0.87969223  0.88232865  0.61482314  1
  Sr2+  Sr16  1  0.10749510  0.36540965  0.37590054  1
  Sr2+  Sr17  1  0.11255736  0.36164093  0.87414011  1
  Sr2+  Sr18  1  0.10696218  0.87046869  0.37782962  1
  Sr2+  Sr19  1  0.11445644  0.87042779  0.87441794  1
  Sr2+  Sr20  1  0.61746980  0.37287878  0.37432903  1
  Sr2+  Sr21  1  0.61550841  0.37036894  0.87414330  1
  Sr2+  Sr22  1  0.62014838  0.86226316  0.37228101  1
  Sr2+  Sr23  1  0.61507564  0.86391381  0.87424029  1
  Sr2+  Sr24  1  0.37492006  0.11708911  0.35510946  1
  Sr2+  Sr25  1  0.36251039  0.12252938  0.87367825  1
  Sr2+  Sr26  1  0.36052527  0.61616005  0.37156347  1
  Sr2+  Sr27  1  0.37125204  0.62168510  0.87495882  1
  Sr2+  Sr28  1  0.87082853  0.12506878  0.37607596  1
  Sr2+  Sr29  1  0.86416787  0.11126855  0.87711425  1
  Sr2+  Sr30  1  0.86649731  0.61990288  0.37662703  1
  Sr2+  Sr31  1  0.86326970  0.61904704  0.86559670  1
  Sr2+  Sr32  1  0.11839927  0.11330197  0.38385314  1
  Sr2+  Sr33  1  0.12088217  0.11146012  0.87172188  1
  Sr2+  Sr34  1  0.11705526  0.61695175  0.36621166  1
  Sr2+  Sr35  1  0.11497355  0.61842130  0.88029683  1
  Sr2+  Sr36  1  0.61148541  0.10260405  0.37041038  1
  Sr2+  Sr37  1  0.61270194  0.11546969  0.88004226  1
  Sr2+  Sr38  1  0.62099523  0.62455563  0.37435500  1
  Sr2+  Sr39  1  0.61856505  0.61171219  0.86997829  1
  Sr2+  Sr40  1  0.36879103  0.37179260  0.37610733  1
  Sr2+  Sr41  1  0.37224841  0.36094060  0.87240788  1
  Sr2+  Sr42  1  0.38041346  0.87258591  0.37208508  1
  Sr2+  Sr43  1  0.36112280  0.86493435  0.87267243  1
  Sr2+  Sr44  1  0.86862169  0.36248882  0.36977064  1
  Sr2+  Sr45  1  0.86486019  0.37517664  0.86727088  1
  Sr2+  Sr46  1  0.87120550  0.85828139  0.37308362  1
  Sr2+  Sr47  1  0.87307375  0.86695506  0.88252184  1
  Sr2+  Sr48  1  0.12456239  0.37738666  0.12110020  1
  Sr2+  Sr49  1  0.11339813  0.37356601  0.62117305  1
  Sr2+  Sr50  1  0.12312522  0.87703548  0.12727129  1
  Sr2+  Sr51  1  0.14331540  0.88443601  0.62315550  1
  Sr2+  Sr52  1  0.63784726  0.38065498  0.12078264  1
  Sr2+  Sr53  1  0.63388280  0.37167219  0.62800377  1
  Sr2+  Sr54  1  0.64166364  0.88323036  0.13255396  1
  Sr2+  Sr55  1  0.63219229  0.87883186  0.61329100  1
  Sr2+  Sr56  1  0.38235789  0.13672909  0.12369553  1
  Sr2+  Sr57  1  0.38034094  0.12791866  0.63055585  1
  Sr2+  Sr58  1  0.37460924  0.63012760  0.12375291  1
  Sr2+  Sr59  1  0.38585833  0.63072960  0.61674141  1
  Sr2+  Sr60  1  0.88621481  0.12963275  0.12404015  1
  Sr2+  Sr61  1  0.88368793  0.13827521  0.61930701  1
  Sr2+  Sr62  1  0.88838025  0.63173081  0.12865366  1
  Sr2+  Sr63  1  0.88995351  0.63399745  0.62870015  1
  Ca2+  Ca64  1  -0.00400678  0.49906206  -0.00099718  1
  Ca2+  Ca65  1  0.49697783  -0.00001917  -0.00014875  1
  Ca2+  Ca66  1  -0.00194147  -0.00158344  0.50416522  1
  Ca2+  Ca67  1  -0.00324557  0.50054410  0.49870485  1
  Ca2+  Ca68  1  0.50105754  0.00044735  0.50138556  1
  Ca2+  Ca69  1  0.74851523  0.24962224  -0.00066705  1
  Ca2+  Ca70  1  0.74939613  0.74883421  0.00114022  1
  Ca2+  Ca71  1  0.25249847  0.75082376  0.49793983  1
  Ca2+  Ca72  1  0.25167244  0.25197767  0.49928337  1
  Ca2+  Ca73  1  0.74455837  0.25204007  0.49902302  1
  Ca2+  Ca74  1  0.24903920  -0.00019466  0.24595062  1
  Ca2+  Ca75  1  0.49827273  0.74585256  0.24768466  1
  Ca2+  Ca76  1  0.00283954  0.24749790  0.24982586  1
  Ca2+  Ca77  1  -0.00006886  0.24631417  0.75109675  1
  Ca2+  Ca78  1  0.75512890  -0.00140031  0.25515816  1
  Ca2+  Ca79  1  0.50255239  0.25264351  0.24787298  1
  Ca2+  Ca80  1  0.00059631  0.75487596  0.75002188  1
  Ca2+  Ca81  1  0.50045136  0.74707746  0.75022585  1
  Ca2+  Ca82  1  0.75066291  -0.00155416  0.74996490  1
  Ca2+  Ca83  1  0.25395464  0.49843725  0.74934000  1
  Ca2+  Ca84  1  0.00106351  0.74828857  0.24896799  1
  Nb5+  Nb85  1  0.49747293  0.49987850  -0.00462816  1
  Nb5+  Nb86  1  0.00058519  0.00167226  -0.00135897  1
  Nb5+  Nb87  1  0.49869671  0.50337521  0.48968264  1
  Nb5+  Nb88  1  0.75181119  0.74724858  0.50064145  1
  Nb5+  Nb89  1  0.24679732  0.24510667  -0.00208743  1
  Nb5+  Nb90  1  0.24844856  0.74608819  -0.00218921  1
  Nb5+  Nb91  1  0.24288282  0.49616600  0.24899718  1
  Nb5+  Nb92  1  0.50141681  0.24928491  0.75139596  1
  Nb5+  Nb93  1  0.74539919  0.50259692  0.74044166  1
  Nb5+  Nb94  1  0.24969619  0.00032679  0.75046766  1
  Nb5+  Nb95  1  0.74407342  0.50054851  0.24481072  1
  Nb5+  Nb96  1  0.00072314  0.00281256  0.25661144  1
  Nb5+  Nb97  1  -0.00213355  0.00138074  0.74695516  1
  Nb5+  Nb98  1  -0.01061888  0.49969932  0.24818225  1
  Nb5+  Nb99  1  0.00689575  0.49851639  0.75223122  1
  Nb5+  Nb100  1  0.50092354  -0.00297666  0.24489755  1
  Nb5+  Nb101  1  0.49972893  -0.00604697  0.75913543  1
  Nb5+  Nb102  1  0.49583751  0.49770691  0.24171440  1
  Nb5+  Nb103  1  0.50190087  0.49864560  0.73874212  1
  Nb5+  Nb104  1  0.24651453  0.25048205  0.25376198  1
  Nb5+  Nb105  1  0.24981763  0.25268222  0.74649236  1
  Nb5+  Nb106  1  0.25213472  0.75673387  0.25064575  1
  Nb5+  Nb107  1  0.24885892  0.74291162  0.75033352  1
  Nb5+  Nb108  1  0.74675483  0.24525844  0.25351430  1
  Nb5+  Nb109  1  0.74843417  0.24516986  0.75670286  1
  Nb5+  Nb110  1  0.75414493  0.74651242  0.24612244  1
  Nb5+  Nb111  1  0.75224079  0.75638203  0.74883612  1
  Nb5+  Nb112  1  -0.00195126  0.24967943  0.49909288  1
  Nb5+  Nb113  1  -0.00612268  0.24804372  0.99297969  1
  Nb5+  Nb114  1  0.00631667  0.75060861  0.50344599  1
  Nb5+  Nb115  1  -0.00117528  0.74598878  0.99957964  1
  Nb5+  Nb116  1  0.50414713  0.24356401  0.49799581  1
  Nb5+  Nb117  1  0.50070436  0.25253410  1.00253023  1
  Nb5+  Nb118  1  0.49655159  0.74982877  0.49793062  1
  Nb5+  Nb119  1  0.49872658  0.75383354  1.00047742  1
  Nb5+  Nb120  1  0.24914791  -0.00585585  0.00151381  1
  Nb5+  Nb121  1  0.25751760  -0.00051989  0.49237655  1
  Nb5+  Nb122  1  0.25031219  0.49353398  -0.00257962  1
  Nb5+  Nb123  1  0.24408379  0.50125687  0.50279697  1
  Nb5+  Nb124  1  0.74430280  -0.00488698  -0.00256577  1
  Nb5+  Nb125  1  0.74866035  0.00571305  0.49770831  1
  Nb5+  Nb126  1  0.75120498  0.50433575  -0.00385781  1
  Nb5+  Nb127  1  0.74991920  0.50046953  0.49614372  1
  O2-  O128  1  0.01757636  -0.01682898  0.11541834  1
  O2-  O129  1  0.01821780  -0.03099432  0.63861199  1
  O2-  O130  1  0.00042168  0.46685753  0.13261333  1
  O2-  O131  1  0.00147411  0.47404951  0.63534199  1
  O2-  O132  1  0.52390490  -0.02148716  0.12962849  1
  O2-  O133  1  0.51371300  -0.01610763  0.64175254  1
  O2-  O134  1  0.51006636  0.47138600  0.12957776  1
  O2-  O135  1  0.51145647  0.47565516  0.62614221  1
  O2-  O136  1  -0.01221251  0.02702028  0.36837238  1
  O2-  O137  1  -0.00909029  0.02548664  0.87934946  1
  O2-  O138  1  -0.00884969  0.53026312  0.36340482  1
  O2-  O139  1  -0.01715619  0.52988890  0.86542087  1
  O2-  O140  1  0.48025826  0.01404073  0.36606333  1
  O2-  O141  1  0.48136201  0.03449246  0.86874294  1
  O2-  O142  1  0.49025059  0.52650905  0.37707196  1
  O2-  O143  1  0.48997062  0.51804272  0.88150400  1
  O2-  O144  1  0.26014700  0.23285483  0.11542572  1
  O2-  O145  1  0.25993101  0.22252337  0.63690039  1
  O2-  O146  1  0.26575564  0.73579800  0.11502024  1
  O2-  O147  1  0.26464898  0.72182469  0.63718751  1
  O2-  O148  1  0.76713625  0.23312267  0.13495459  1
  O2-  O149  1  0.74229266  0.23201666  0.63831162  1
  O2-  O150  1  0.76233008  0.71554914  0.13527130  1
  O2-  O151  1  0.76137522  0.72527667  0.62001426  1
  O2-  O152  1  0.24183215  0.28300520  0.36336172  1
  O2-  O153  1  0.24335374  0.26977972  0.87691016  1
  O2-  O154  1  0.23511894  0.77732022  0.36235972  1
  O2-  O155  1  0.23477782  0.77210798  0.88024730  1
  O2-  O156  1  0.73790763  0.28405268  0.36574955  1
  O2-  O157  1  0.74079423  0.28661887  0.86711974  1
  O2-  O158  1  0.73738686  0.75839071  0.37893303  1
  O2-  O159  1  0.73664930  0.77003489  0.86367977  1
  O2-  O160  1  -0.01014747  0.26160985  0.11115220  1
  O2-  O161  1  -0.01674070  0.27174724  0.61881926  1
  O2-  O162  1  -0.01602037  0.77555424  0.11257131  1
  O2-  O163  1  -0.02723506  0.76649851  0.61652040  1
  O2-  O164  1  0.47498467  0.26951423  0.11368477  1
  O2-  O165  1  0.49823391  0.27123711  0.63613574  1
  O2-  O166  1  0.46725370  0.75105489  0.11356019  1
  O2-  O167  1  0.47865883  0.75830466  0.61654120  1
  O2-  O168  1  0.28537770  -0.01211722  0.38210594  1
  O2-  O169  1  0.26909350  -0.00762228  0.87786759  1
  O2-  O170  1  0.27122497  0.48652179  0.36199414  1
  O2-  O171  1  0.28441754  0.49122762  0.88732099  1
  O2-  O172  1  0.78846705  -0.01653670  0.38797091  1
  O2-  O173  1  0.78144969  -0.01735514  0.88454615  1
  O2-  O174  1  0.76489732  0.48634052  0.38087147  1
  O2-  O175  1  0.75877147  0.48977935  0.88003881  1
  O2-  O176  1  0.02172632  0.22798896  0.38343376  1
  O2-  O177  1  0.03081139  0.23156285  0.88314302  1
  O2-  O178  1  0.02125115  0.73261367  0.38467273  1
  O2-  O179  1  0.02942208  0.74206192  0.88537057  1
  O2-  O180  1  0.50146457  0.22528301  0.38538637  1
  O2-  O181  1  0.50898304  0.24505083  0.87657795  1
  O2-  O182  1  0.52287278  0.73770337  0.38286216  1
  O2-  O183  1  0.51924030  0.72367860  0.88786570  1
  O2-  O184  1  0.21830347  0.01067591  0.11156255  1
  O2-  O185  1  0.23008429  0.01776126  0.63747933  1
  O2-  O186  1  0.23629901  0.51253747  0.12079399  1
  O2-  O187  1  0.23299968  0.52475803  0.61380474  1
  O2-  O188  1  0.73334419  0.01236851  0.11636869  1
  O2-  O189  1  0.71667444  0.00480460  0.61608379  1
  O2-  O190  1  0.73016501  0.51839159  0.13135186  1
  O2-  O191  1  0.72081022  0.51608539  0.62889790  1
  O2-  O192  1  0.13587201  0.27670613  0.22527834  1
  O2-  O193  1  0.13754782  0.27693826  0.73988666  1
  O2-  O194  1  0.13728896  0.75612242  0.22280941  1
  O2-  O195  1  0.13740681  0.77862666  0.73343857  1
  O2-  O196  1  0.63502550  0.27912381  0.22968792  1
  O2-  O197  1  0.62000594  0.27206160  0.75057992  1
  O2-  O198  1  0.63589140  0.76274288  0.23670346  1
  O2-  O199  1  0.63557811  0.76883576  0.72593060  1
  O2-  O200  1  0.36472182  0.23483519  0.25106148  1
  O2-  O201  1  0.38172366  0.23425569  0.76492171  1
  O2-  O202  1  0.36298779  0.71674075  0.26034003  1
  O2-  O203  1  0.36483741  0.73932713  0.77618589  1
  O2-  O204  1  0.86694881  0.23894652  0.26851232  1
  O2-  O205  1  0.86347054  0.23128734  0.76198002  1
  O2-  O206  1  0.86812206  0.71995156  0.26876498  1
  O2-  O207  1  0.86507445  0.72055334  0.75957422  1
  O2-  O208  1  0.26996579  0.38175604  0.22490169  1
  O2-  O209  1  0.28446433  0.36346684  0.73366832  1
  O2-  O210  1  0.27637956  0.86543992  0.22461936  1
  O2-  O211  1  0.27251326  0.88302448  0.73803576  1
  O2-  O212  1  0.77371333  0.38690303  0.23499703  1
  O2-  O213  1  0.76203395  0.38205246  0.73122831  1
  O2-  O214  1  0.77526310  0.86023753  0.23557452  1
  O2-  O215  1  0.77893053  0.86554373  0.72703922  1
  O2-  O216  1  0.22658648  0.13737872  0.27123496  1
  O2-  O217  1  0.24307552  0.12692761  0.77388928  1
  O2-  O218  1  0.23264371  0.61647783  0.25610695  1
  O2-  O219  1  0.22620694  0.63383128  0.77898953  1
  O2-  O220  1  0.72541790  0.13404070  0.27496066  1
  O2-  O221  1  0.72346694  0.13474882  0.77932248  1
  O2-  O222  1  0.73500465  0.61679127  0.27538783  1
  O2-  O223  1  0.72873988  0.61911214  0.76718158  1
  O2-  O224  1  0.12938247  0.47934510  0.26128994  1
  O2-  O225  1  0.11916662  0.47635506  0.76793824  1
  O2-  O226  1  0.11730326  0.97220698  0.26656002  1
  O2-  O227  1  0.13458547  0.98318288  0.77360280  1
  O2-  O228  1  0.63006649  0.47927905  0.26354754  1
  O2-  O229  1  0.62509166  0.47949884  0.76967861  1
  O2-  O230  1  0.61884208  0.97425313  0.27121278  1
  O2-  O231  1  0.61492136  0.98819741  0.78039210  1
  O2-  O232  1  0.38367144  0.02734577  0.22400989  1
  O2-  O233  1  0.37392901  0.01839355  0.73857207  1
  O2-  O234  1  0.38025489  0.51572532  0.23277481  1
  O2-  O235  1  0.38939381  0.52697989  0.73690465  1
  O2-  O236  1  0.88643920  0.02003890  0.22400684  1
  O2-  O237  1  0.88685913  0.03161995  0.73487256  1
  O2-  O238  1  0.87286198  0.52067419  0.23789705  1
  O2-  O239  1  0.86255214  0.51679572  0.73803502  1
  O2-  O240  1  0.48945280  0.38805276  0.28409360  1
  O2-  O241  1  0.48598914  0.37980022  0.77014322  1
  O2-  O242  1  0.47089645  0.88017878  0.25734553  1
  O2-  O243  1  0.48148110  0.88283194  0.78080714  1
  O2-  O244  1  0.98631612  0.38455285  0.27656129  1
  O2-  O245  1  0.97716830  0.38361902  0.77453259  1
  O2-  O246  1  0.97812565  0.88343945  0.26532451  1
  O2-  O247  1  0.98450832  0.88929014  0.78380341  1
  O2-  O248  1  0.02566450  0.11496910  0.22626938  1
  O2-  O249  1  0.03746412  0.11342710  0.73574914  1
  O2-  O250  1  0.02147780  0.61133665  0.21949846  1
  O2-  O251  1  0.01880168  0.61607838  0.72671655  1
  O2-  O252  1  0.52742507  0.11707688  0.23526388  1
  O2-  O253  1  0.51658631  0.13352614  0.73694233  1
  O2-  O254  1  0.52867512  0.60928489  0.23618682  1
  O2-  O255  1  0.53151150  0.61120628  0.73591042  1
  O2-  O256  1  0.13629469  0.48423687  -0.02209780  1
  O2-  O257  1  0.13447624  0.47303440  0.48158847  1
  O2-  O258  1  0.12696196  0.98898624  -0.02447426  1
  O2-  O259  1  0.13765118  0.97964048  0.48273339  1
  O2-  O260  1  0.61535268  0.47807497  -0.00657736  1
  O2-  O261  1  0.62054904  0.48844334  0.48245326  1
  O2-  O262  1  0.63285974  0.97238094  -0.02410100  1
  O2-  O263  1  0.63521989  0.97157312  0.47332513  1
  O2-  O264  1  0.36066463  0.02325169  0.02010751  1
  O2-  O265  1  0.36823898  0.01869283  0.53281859  1
  O2-  O266  1  0.37708779  0.51286943  0.02399797  1
  O2-  O267  1  0.38081220  0.52310363  0.51012036  1
  O2-  O268  1  0.88407012  0.01926858  0.01516175  1
  O2-  O269  1  0.86251011  0.01401336  0.53608047  1
  O2-  O270  1  0.86072461  0.53402280  0.01207101  1
  O2-  O271  1  0.85938352  0.52549064  0.52015981  1
  O2-  O272  1  0.47409541  0.38023690  -0.01647483  1
  O2-  O273  1  0.47985979  0.38621238  0.48144268  1
  O2-  O274  1  0.47316956  0.86443866  -0.02093135  1
  O2-  O275  1  0.48154418  0.86459336  0.48717385  1
  O2-  O276  1  0.97992043  0.36367750  -0.02586247  1
  O2-  O277  1  0.97799273  0.36696890  0.47533533  1
  O2-  O278  1  0.99026246  0.88163458  -0.01919073  1
  O2-  O279  1  0.97686693  0.86496548  0.47731052  1
  O2-  O280  1  0.02173339  0.12325706  0.01544991  1
  O2-  O281  1  0.01466200  0.13150717  0.52607969  1
  O2-  O282  1  0.02369838  0.63498026  0.02211672  1
  O2-  O283  1  0.01469888  0.63333314  0.52487036  1
  O2-  O284  1  0.51864474  0.13857012  0.01686623  1
  O2-  O285  1  0.52846312  0.13510859  0.52607438  1
  O2-  O286  1  0.50924148  0.61580782  0.02219317  1
  O2-  O287  1  0.51828902  0.61947126  0.52192209  1
  O2-  O288  1  0.13146160  0.27076130  0.01003792  1
  O2-  O289  1  0.11816973  0.27101374  0.51628887  1
  O2-  O290  1  0.13179083  0.76812968  0.01706497  1
  O2-  O291  1  0.11857715  0.77073683  0.52409254  1
  O2-  O292  1  0.61249151  0.28074015  0.00914073  1
  O2-  O293  1  0.61103659  0.28889320  0.50742183  1
  O2-  O294  1  0.61135943  0.77201674  0.02493280  1
  O2-  O295  1  0.62553227  0.75921198  0.51560905  1
  O2-  O296  1  0.37054182  0.23959040  -0.01699518  1
  O2-  O297  1  0.38868258  0.24639870  0.51612783  1
  O2-  O298  1  0.36822660  0.73281476  -0.02191233  1
  O2-  O299  1  0.38523416  0.72036034  0.47941437  1
  O2-  O300  1  0.88305878  0.22179048  -0.02023710  1
  O2-  O301  1  0.87889655  0.22695501  0.48672144  1
  O2-  O302  1  0.88599861  0.72994279  -0.02371514  1
  O2-  O303  1  0.86763638  0.72815771  0.48376702  1
  O2-  O304  1  0.26423797  0.37751034  0.01490869  1
  O2-  O305  1  0.28126507  0.38978705  0.50804026  1
  O2-  O306  1  0.26716843  0.87757607  0.01069871  1
  O2-  O307  1  0.27012500  0.88446092  0.52856159  1
  O2-  O308  1  0.76390776  0.39038742  0.02638598  1
  O2-  O309  1  0.75940332  0.38940689  0.52797800  1
  O2-  O310  1  0.77514480  0.88115348  0.02319799  1
  O2-  O311  1  0.76302407  0.86300353  0.51659221  1
  O2-  O312  1  0.23278293  0.13022717  -0.01906895  1
  O2-  O313  1  0.23327601  0.11651402  0.48598654  1
  O2-  O314  1  0.23467523  0.62695406  -0.01464486  1
  O2-  O315  1  0.23554999  0.61367330  0.46448946  1
  O2-  O316  1  0.72990603  0.11425247  -0.01960348  1
  O2-  O317  1  0.72702564  0.11660336  0.47756018  1
  O2-  O318  1  0.71071208  0.61496690  -0.01030167  1
  O2-  O319  1  0.72547362  0.62280890  0.48744633  1
