# generated using pymatgen
data_Sr64Ca21Nb43O192
_symmetry_space_group_name_H-M   'P 1'
_cell_length_a   16.61141518
_cell_length_b   16.61341126
_cell_length_c   16.74188036
_cell_angle_alpha   90.01591282
_cell_angle_beta   89.98207680
_cell_angle_gamma   89.90694702
_symmetry_Int_Tables_number   1
_chemical_formula_structural   Sr64Ca21Nb43O192
_chemical_formula_sum   'Sr64 Ca21 Nb43 O192'
_cell_volume   4620.28826103
_cell_formula_units_Z   1
loop_
 _symmetry_equiv_pos_site_id
 _symmetry_equiv_pos_as_xyz
  1  'x, y, z'
loop_
 _atom_type_symbol
 _atom_type_oxidation_number
  Sr2+  2.0
  Ca2+  2.0
  Nb5+  5.0
  O2-  -2.0
loop_
 _atom_site_type_symbol
 _atom_site_label
 _atom_site_symmetry_multiplicity
 _atom_site_fract_x
 _atom_site_fract_y
 _atom_site_fract_z
 _atom_site_occupancy
  Sr2+  Sr0  1  0.13550300  0.12728528  0.12627898  1
  Sr2+  Sr1  1  0.13311863  0.14160031  0.62903958  1
  Sr2+  Sr2  1  0.12367627  0.62745324  0.11223149  1
  Sr2+  Sr3  1  0.13227358  0.64234528  0.62706347  1
  Sr2+  Sr4  1  0.62485988  0.14160005  0.12204935  1
  Sr2+  Sr5  1  0.62342259  0.11171968  0.62248635  1
  Sr2+  Sr6  1  0.63009813  0.63406882  0.12474801  1
  Sr2+  Sr7  1  0.62772663  0.62824444  0.63096518  1
  Sr2+  Sr8  1  0.38068851  0.37541345  0.12424449  1
  Sr2+  Sr9  1  0.37833826  0.36745605  0.62315655  1
  Sr2+  Sr10  1  0.38079880  0.89941651  0.12482357  1
  Sr2+  Sr11  1  0.38341380  0.87981180  0.62793761  1
  Sr2+  Sr12  1  0.87793244  0.38029121  0.12919196  1
  Sr2+  Sr13  1  0.87660995  0.37518663  0.63575112  1
  Sr2+  Sr14  1  0.87592005  0.88992647  0.12635706  1
  Sr2+  Sr15  1  0.88630749  0.88961838  0.63074393  1
  Sr2+  Sr16  1  0.11474740  0.36221747  0.37654441  1
  Sr2+  Sr17  1  0.11582952  0.36800441  0.88773920  1
  Sr2+  Sr18  1  0.10750764  0.86610167  0.37250395  1
  Sr2+  Sr19  1  0.10629221  0.87013127  0.87152411  1
  Sr2+  Sr20  1  0.62006853  0.37096230  0.37958474  1
  Sr2+  Sr21  1  0.62570995  0.37068402  0.86285104  1
  Sr2+  Sr22  1  0.63186579  0.87050603  0.38460976  1
  Sr2+  Sr23  1  0.62633468  0.86309808  0.87573180  1
  Sr2+  Sr24  1  0.36745450  0.12047217  0.37448275  1
  Sr2+  Sr25  1  0.36339029  0.11748095  0.88732195  1
  Sr2+  Sr26  1  0.37125605  0.61988064  0.37957526  1
  Sr2+  Sr27  1  0.35944565  0.61514453  0.87105081  1
  Sr2+  Sr28  1  0.87302178  0.11640180  0.36766612  1
  Sr2+  Sr29  1  0.87347608  0.11822935  0.86933204  1
  Sr2+  Sr30  1  0.86505089  0.61897420  0.37413089  1
  Sr2+  Sr31  1  0.87952107  0.61828510  0.88091510  1
  Sr2+  Sr32  1  0.11517659  0.11007559  0.37262690  1
  Sr2+  Sr33  1  0.11925236  0.11147179  0.86988378  1
  Sr2+  Sr34  1  0.12132983  0.61933159  0.38324878  1
  Sr2+  Sr35  1  0.11766727  0.61019069  0.87406322  1
  Sr2+  Sr36  1  0.62468822  0.11069840  0.37918683  1
  Sr2+  Sr37  1  0.62192033  0.12156014  0.87935903  1
  Sr2+  Sr38  1  0.62090437  0.61768995  0.37528522  1
  Sr2+  Sr39  1  0.62638852  0.62092120  0.87947450  1
  Sr2+  Sr40  1  0.37288312  0.36646537  0.37134815  1
  Sr2+  Sr41  1  0.36920811  0.36305759  0.87759409  1
  Sr2+  Sr42  1  0.37182087  0.86841387  0.36962748  1
  Sr2+  Sr43  1  0.37181423  0.87493022  0.88306097  1
  Sr2+  Sr44  1  0.86476437  0.36534043  0.37506123  1
  Sr2+  Sr45  1  0.86627892  0.35576927  0.87647543  1
  Sr2+  Sr46  1  0.87438901  0.89153188  0.37745959  1
  Sr2+  Sr47  1  0.86741083  0.87679022  0.87718718  1
  Sr2+  Sr48  1  0.13433221  0.38969389  0.12373151  1
  Sr2+  Sr49  1  0.12490820  0.37514312  0.61842009  1
  Sr2+  Sr50  1  0.13509223  0.88653709  0.12419918  1
  Sr2+  Sr51  1  0.13377245  0.88206558  0.62919850  1
  Sr2+  Sr52  1  0.63513225  0.37803663  0.13410989  1
  Sr2+  Sr53  1  0.63161528  0.38516180  0.62944659  1
  Sr2+  Sr54  1  0.62464306  0.87539166  0.11511324  1
  Sr2+  Sr55  1  0.62472060  0.87702469  0.63056077  1
  Sr2+  Sr56  1  0.38170313  0.13164588  0.12299391  1
  Sr2+  Sr57  1  0.36795759  0.12449844  0.63074676  1
  Sr2+  Sr58  1  0.38315046  0.63016991  0.13265396  1
  Sr2+  Sr59  1  0.37463939  0.62913736  0.62687553  1
  Sr2+  Sr60  1  0.88837776  0.13013159  0.12615758  1
  Sr2+  Sr61  1  0.89286186  0.13744672  0.63107695  1
  Sr2+  Sr62  1  0.88248874  0.62885876  0.12199055  1
  Sr2+  Sr63  1  0.89361161  0.63228212  0.62937772  1
  Ca2+  Ca64  1  0.50309960  0.00118839  0.00008505  1
  Ca2+  Ca65  1  0.50456685  0.49883759  -0.00004046  1
  Ca2+  Ca66  1  0.00406301  0.00247725  0.50280734  1
  Ca2+  Ca67  1  0.00044470  -0.00215807  0.00043420  1
  Ca2+  Ca68  1  -0.00082338  0.50063478  0.49937022  1
  Ca2+  Ca69  1  0.74671550  0.25007179  0.50245107  1
  Ca2+  Ca70  1  0.74905873  0.74911886  0.50056774  1
  Ca2+  Ca71  1  0.24547247  0.24911093  0.00461972  1
  Ca2+  Ca72  1  0.75076250  0.25196766  0.00066653  1
  Ca2+  Ca73  1  0.24995092  0.74959860  0.00238661  1
  Ca2+  Ca74  1  0.25134456  0.49555824  0.74795851  1
  Ca2+  Ca75  1  0.49991568  0.24614558  0.74766978  1
  Ca2+  Ca76  1  0.25123888  -0.00066931  0.25444578  1
  Ca2+  Ca77  1  -0.00437449  0.74832255  0.24730198  1
  Ca2+  Ca78  1  0.25108640  -0.00065602  0.74959403  1
  Ca2+  Ca79  1  -0.00171603  0.75003876  0.75153833  1
  Ca2+  Ca80  1  0.00027704  0.25138819  0.24719080  1
  Ca2+  Ca81  1  0.00362039  0.25301376  0.75224672  1
  Ca2+  Ca82  1  0.25253628  0.50274340  0.25370182  1
  Ca2+  Ca83  1  0.74916734  -0.00318701  0.75005513  1
  Ca2+  Ca84  1  0.74584104  -0.00009196  0.24740320  1
  Nb5+  Nb85  1  -0.00295208  0.49586046  -0.00064625  1
  Nb5+  Nb86  1  0.49932247  0.49524786  0.50117963  1
  Nb5+  Nb87  1  0.49667340  -0.00653174  0.49722974  1
  Nb5+  Nb88  1  0.24974679  0.24646774  0.49617434  1
  Nb5+  Nb89  1  0.75118052  0.74856815  -0.00044416  1
  Nb5+  Nb90  1  0.24834395  0.75073060  0.49838513  1
  Nb5+  Nb91  1  0.50272642  0.75567139  0.25349320  1
  Nb5+  Nb92  1  0.49925809  0.74788421  0.75782493  1
  Nb5+  Nb93  1  0.75055050  0.50141943  0.25524497  1
  Nb5+  Nb94  1  0.75352851  0.50296630  0.75655537  1
  Nb5+  Nb95  1  0.49945817  0.25503834  0.25247094  1
  Nb5+  Nb96  1  0.00002017  -0.00243003  0.24739014  1
  Nb5+  Nb97  1  0.00066768  0.00031038  0.74814899  1
  Nb5+  Nb98  1  0.00212128  0.50121408  0.25344609  1
  Nb5+  Nb99  1  0.00522244  0.49344571  0.74886778  1
  Nb5+  Nb100  1  0.50516510  0.00897709  0.24975971  1
  Nb5+  Nb101  1  0.49985118  -0.00021560  0.75462134  1
  Nb5+  Nb102  1  0.50513068  0.50461973  0.24930059  1
  Nb5+  Nb103  1  0.49751084  0.50169750  0.75115680  1
  Nb5+  Nb104  1  0.24744361  0.25318845  0.24992843  1
  Nb5+  Nb105  1  0.25005928  0.25293479  0.75854186  1
  Nb5+  Nb106  1  0.24671816  0.74845804  0.24731024  1
  Nb5+  Nb107  1  0.24818705  0.75487492  0.75510205  1
  Nb5+  Nb108  1  0.74859811  0.24554202  0.25324228  1
  Nb5+  Nb109  1  0.74526531  0.24250677  0.74773192  1
  Nb5+  Nb110  1  0.74957850  0.74792734  0.25081633  1
  Nb5+  Nb111  1  0.75436732  0.74413836  0.75004764  1
  Nb5+  Nb112  1  -0.00552076  0.24814005  0.49400918  1
  Nb5+  Nb113  1  0.00165319  0.24256135  1.00277058  1
  Nb5+  Nb114  1  -0.00766509  0.74823744  0.49595074  1
  Nb5+  Nb115  1  -0.00026505  0.75188996  1.00165036  1
  Nb5+  Nb116  1  0.49895764  0.24309580  0.50095883  1
  Nb5+  Nb117  1  0.50283509  0.25325420  0.99519242  1
  Nb5+  Nb118  1  0.49846602  0.74746633  0.50366047  1
  Nb5+  Nb119  1  0.49727038  0.74393072  1.00491080  1
  Nb5+  Nb120  1  0.24872844  -0.00238860  -0.00005539  1
  Nb5+  Nb121  1  0.25178546  -0.00716518  0.49862589  1
  Nb5+  Nb122  1  0.25879338  0.50326380  0.00473139  1
  Nb5+  Nb123  1  0.25112012  0.49462700  0.49925010  1
  Nb5+  Nb124  1  0.74622089  0.00589937  0.00098435  1
  Nb5+  Nb125  1  0.75449942  0.00400274  0.50425958  1
  Nb5+  Nb126  1  0.74983472  0.49840547  0.00526140  1
  Nb5+  Nb127  1  0.75120727  0.50562390  0.51002883  1
  O2-  O128  1  0.01191404  -0.03173196  0.13288994  1
  O2-  O129  1  0.01448599  -0.03054088  0.63235396  1
  O2-  O130  1  0.00310300  0.47839652  0.11791801  1
  O2-  O131  1  0.00611308  0.47267099  0.63405119  1
  O2-  O132  1  0.52484318  -0.00606366  0.13738633  1
  O2-  O133  1  0.51895321  -0.00904499  0.61541202  1
  O2-  O134  1  0.52908511  0.49194331  0.13764662  1
  O2-  O135  1  0.52211246  0.50215954  0.61853789  1
  O2-  O136  1  -0.01790909  0.01899359  0.36810297  1
  O2-  O137  1  -0.01061165  0.02467188  0.86670950  1
  O2-  O138  1  -0.01558409  0.53055467  0.36292265  1
  O2-  O139  1  -0.01039815  0.51721012  0.87609323  1
  O2-  O140  1  0.47830061  0.00906041  0.37763535  1
  O2-  O141  1  0.47432702  0.00218504  0.86549706  1
  O2-  O142  1  0.49134825  0.50916587  0.37922980  1
  O2-  O143  1  0.48619868  0.51763783  0.86366575  1
  O2-  O144  1  0.26382207  0.22418502  0.13937870  1
  O2-  O145  1  0.27030688  0.23854687  0.61220116  1
  O2-  O146  1  0.26124729  0.71400070  0.13879153  1
  O2-  O147  1  0.26813258  0.73327835  0.61632872  1
  O2-  O148  1  0.76008090  0.25098818  0.13691129  1
  O2-  O149  1  0.77694099  0.25133340  0.63422766  1
  O2-  O150  1  0.75505233  0.73563375  0.11928742  1
  O2-  O151  1  0.75407933  0.73004886  0.63531364  1
  O2-  O152  1  0.24488888  0.28067304  0.37977424  1
  O2-  O153  1  0.23623706  0.27468775  0.86969369  1
  O2-  O154  1  0.24269420  0.78279426  0.38332653  1
  O2-  O155  1  0.24047260  0.78146211  0.86578462  1
  O2-  O156  1  0.73206154  0.27426550  0.36689210  1
  O2-  O157  1  0.73107421  0.26629010  0.86513449  1
  O2-  O158  1  0.72254690  0.74423713  0.36178105  1
  O2-  O159  1  0.72957655  0.74740885  0.87456523  1
  O2-  O160  1  -0.03298289  0.26464075  0.11495627  1
  O2-  O161  1  -0.01259900  0.27344421  0.61145524  1
  O2-  O162  1  -0.04007673  0.75867960  0.11216000  1
  O2-  O163  1  -0.02307467  0.76418299  0.61444202  1
  O2-  O164  1  0.48196177  0.25117057  0.13587607  1
  O2-  O165  1  0.47054644  0.24482906  0.61271088  1
  O2-  O166  1  0.49071643  0.74508418  0.12414089  1
  O2-  O167  1  0.48080250  0.75221786  0.61886477  1
  O2-  O168  1  0.28676203  -0.00766086  0.38735502  1
  O2-  O169  1  0.27852333  -0.00967267  0.88312099  1
  O2-  O170  1  0.28745955  0.49307726  0.38799477  1
  O2-  O171  1  0.27407767  0.48048980  0.88684461  1
  O2-  O172  1  0.76701974  0.00761698  0.38410038  1
  O2-  O173  1  0.77652332  -0.00229212  0.88448676  1
  O2-  O174  1  0.76617964  0.49890467  0.37071145  1
  O2-  O175  1  0.76934090  0.50001405  0.87108878  1
  O2-  O176  1  0.02971915  0.23350120  0.38069855  1
  O2-  O177  1  0.03114543  0.23994541  0.88544080  1
  O2-  O178  1  0.02936882  0.73362531  0.38253398  1
  O2-  O179  1  0.01848628  0.72587079  0.88598794  1
  O2-  O180  1  0.51512417  0.24977904  0.37522926  1
  O2-  O181  1  0.52658889  0.25241345  0.88276989  1
  O2-  O182  1  0.52053047  0.75182040  0.37016515  1
  O2-  O183  1  0.51559622  0.74510505  0.87241590  1
  O2-  O184  1  0.22790275  0.00924727  0.12026480  1
  O2-  O185  1  0.23627396  0.02616776  0.61002810  1
  O2-  O186  1  0.22417958  0.51935948  0.11928185  1
  O2-  O187  1  0.23548292  0.52648008  0.61126044  1
  O2-  O188  1  0.72021309  -0.01140653  0.11524580  1
  O2-  O189  1  0.71799646  -0.00723066  0.61626825  1
  O2-  O190  1  0.73038035  0.50595891  0.12091246  1
  O2-  O191  1  0.72902055  0.50789184  0.62414745  1
  O2-  O192  1  0.13633556  0.28062062  0.23758530  1
  O2-  O193  1  0.13813863  0.27493208  0.72281978  1
  O2-  O194  1  0.13558584  0.77175025  0.23545799  1
  O2-  O195  1  0.13523065  0.76598436  0.72810155  1
  O2-  O196  1  0.61897436  0.26978630  0.23773459  1
  O2-  O197  1  0.63295397  0.27833124  0.72788330  1
  O2-  O198  1  0.62166544  0.76132546  0.22453582  1
  O2-  O199  1  0.61813699  0.76428610  0.73695854  1
  O2-  O200  1  0.38310088  0.23302722  0.26992854  1
  O2-  O201  1  0.36669588  0.21979835  0.76878406  1
  O2-  O202  1  0.39005965  0.72452378  0.26208201  1
  O2-  O203  1  0.37937439  0.72817886  0.76396284  1
  O2-  O204  1  0.86273806  0.23252230  0.27143087  1
  O2-  O205  1  0.86489337  0.23121477  0.76947721  1
  O2-  O206  1  0.85876776  0.71358578  0.25896035  1
  O2-  O207  1  0.86363656  0.71478761  0.76496467  1
  O2-  O208  1  0.28346947  0.36655875  0.23918643  1
  O2-  O209  1  0.28521338  0.36435476  0.73318925  1
  O2-  O210  1  0.28623594  0.85927481  0.23806442  1
  O2-  O211  1  0.27340333  0.86441690  0.72176086  1
  O2-  O212  1  0.76026360  0.38407277  0.23876666  1
  O2-  O213  1  0.76259780  0.38679121  0.74223900  1
  O2-  O214  1  0.76951710  0.86063822  0.24618544  1
  O2-  O215  1  0.77106547  0.85851015  0.74880482  1
  O2-  O216  1  0.23611162  0.13917070  0.28261097  1
  O2-  O217  1  0.22497803  0.13545247  0.75822128  1
  O2-  O218  1  0.24409944  0.63957796  0.29246644  1
  O2-  O219  1  0.23774736  0.63554041  0.76798987  1
  O2-  O220  1  0.71835356  0.13537521  0.25764958  1
  O2-  O221  1  0.71726225  0.13139952  0.75393003  1
  O2-  O222  1  0.71928273  0.61757690  0.24924283  1
  O2-  O223  1  0.71949985  0.62065521  0.75719192  1
  O2-  O224  1  0.11412552  0.47616894  0.26635972  1
  O2-  O225  1  0.11583761  0.47142503  0.76953578  1
  O2-  O226  1  0.11733412  0.97717275  0.27092681  1
  O2-  O227  1  0.11805513  0.97393061  0.76584760  1
  O2-  O228  1  0.62592913  0.48127144  0.27407271  1
  O2-  O229  1  0.62450326  0.48728668  0.76078083  1
  O2-  O230  1  0.61291996  0.97890334  0.28424223  1
  O2-  O231  1  0.61190040  0.96192069  0.76032745  1
  O2-  O232  1  0.38826216  0.01698484  0.23343849  1
  O2-  O233  1  0.38819706  0.00639286  0.71890415  1
  O2-  O234  1  0.39089568  0.51697200  0.23461698  1
  O2-  O235  1  0.38648253  0.52372220  0.72807512  1
  O2-  O236  1  0.88004644  0.02300150  0.23123209  1
  O2-  O237  1  0.88178332  0.02168676  0.72656567  1
  O2-  O238  1  0.86389790  0.52264971  0.23361907  1
  O2-  O239  1  0.86546759  0.52442852  0.73188202  1
  O2-  O240  1  0.48685935  0.37491562  0.25957798  1
  O2-  O241  1  0.48498529  0.38673889  0.74864601  1
  O2-  O242  1  0.48404451  0.86989638  0.25026421  1
  O2-  O243  1  0.47829409  0.86447109  0.75075813  1
  O2-  O244  1  0.96465292  0.38908027  0.26035438  1
  O2-  O245  1  0.96208137  0.38584496  0.76840482  1
  O2-  O246  1  0.97236817  0.88044978  0.26979137  1
  O2-  O247  1  0.97225948  0.88183979  0.77161384  1
  O2-  O248  1  0.02288293  0.11596952  0.22708408  1
  O2-  O249  1  0.02165365  0.11774079  0.72632542  1
  O2-  O250  1  0.01383689  0.61236112  0.21575612  1
  O2-  O251  1  0.01583312  0.61124152  0.73153029  1
  O2-  O252  1  0.52238495  0.12606746  0.25008840  1
  O2-  O253  1  0.52967662  0.11083073  0.74593555  1
  O2-  O254  1  0.52397659  0.62195219  0.24886127  1
  O2-  O255  1  0.51843932  0.62998522  0.73670202  1
  O2-  O256  1  0.11493943  0.48588237  -0.01311673  1
  O2-  O257  1  0.13880536  0.48622853  0.47305777  1
  O2-  O258  1  0.13527787  0.96379668  -0.01754944  1
  O2-  O259  1  0.14026198  0.98188975  0.47351669  1
  O2-  O260  1  0.63987975  0.47975242  -0.02701933  1
  O2-  O261  1  0.61950691  0.48234454  0.48576958  1
  O2-  O262  1  0.63413395  0.97339859  -0.02894264  1
  O2-  O263  1  0.61318301  0.98635391  0.47756663  1
  O2-  O264  1  0.36870168  0.02442629  0.02303562  1
  O2-  O265  1  0.38116799  0.02282257  0.51890820  1
  O2-  O266  1  0.36945896  0.52507726  0.02579482  1
  O2-  O267  1  0.38317078  0.52194309  0.51885866  1
  O2-  O268  1  0.86317491  0.01385212  0.02771411  1
  O2-  O269  1  0.86546858  0.02289853  0.52704924  1
  O2-  O270  1  0.87227966  0.52355862  0.00821661  1
  O2-  O271  1  0.86303628  0.53278061  0.51497877  1
  O2-  O272  1  0.46866275  0.36816765  -0.00202521  1
  O2-  O273  1  0.47730433  0.38158226  0.49578495  1
  O2-  O274  1  0.48443377  0.86167338  -0.00145748  1
  O2-  O275  1  0.47694498  0.87774798  0.49090919  1
  O2-  O276  1  0.97501761  0.38212389  -0.01970620  1
  O2-  O277  1  0.98889881  0.36723100  0.46941521  1
  O2-  O278  1  0.97916893  0.86248159  -0.02451136  1
  O2-  O279  1  0.98669173  0.86561650  0.47805536  1
  O2-  O280  1  0.02360396  0.13178798  0.02474565  1
  O2-  O281  1  0.02740933  0.13664393  0.52054882  1
  O2-  O282  1  0.00620343  0.62052137  0.01475914  1
  O2-  O283  1  0.02883941  0.63487691  0.52022599  1
  O2-  O284  1  0.52662946  0.13512138  0.00727300  1
  O2-  O285  1  0.51660801  0.12812327  0.49864244  1
  O2-  O286  1  0.53565936  0.63250833  0.00439212  1
  O2-  O287  1  0.51321062  0.63161758  0.49855875  1
  O2-  O288  1  0.11205279  0.28306559  0.02492192  1
  O2-  O289  1  0.13630477  0.27228152  0.51115496  1
  O2-  O290  1  0.11176576  0.76227648  0.03052764  1
  O2-  O291  1  0.13570388  0.77106734  0.51864693  1
  O2-  O292  1  0.61409747  0.27686186  0.02991612  1
  O2-  O293  1  0.60763114  0.27871356  0.51593045  1
  O2-  O294  1  0.62849510  0.76721565  0.00744905  1
  O2-  O295  1  0.60999896  0.77660171  0.51193280  1
  O2-  O296  1  0.38427282  0.22676532  -0.00930218  1
  O2-  O297  1  0.37627348  0.24532807  0.47501081  1
  O2-  O298  1  0.38724357  0.71716237  -0.01481002  1
  O2-  O299  1  0.37915357  0.74377157  0.47756913  1
  O2-  O300  1  0.88529038  0.22828781  -0.02702864  1
  O2-  O301  1  0.88310430  0.22618578  0.47596938  1
  O2-  O302  1  0.86618712  0.72976038  -0.02211071  1
  O2-  O303  1  0.88219764  0.72484190  0.47547361  1
  O2-  O304  1  0.26232514  0.38581425  0.02686178  1
  O2-  O305  1  0.26802746  0.38174011  0.51978459  1
  O2-  O306  1  0.28064659  0.88014827  0.01910883  1
  O2-  O307  1  0.27207951  0.87979003  0.52146765  1
  O2-  O308  1  0.77836561  0.38689784  0.00763119  1
  O2-  O309  1  0.76713268  0.38960856  0.50339304  1
  O2-  O310  1  0.76854235  0.86461328  0.00229031  1
  O2-  O311  1  0.76091626  0.88438492  0.49247970  1
  O2-  O312  1  0.22175076  0.11501795  -0.01640881  1
  O2-  O313  1  0.23927012  0.13302143  0.47768111  1
  O2-  O314  1  0.22694394  0.61553194  -0.02531096  1
  O2-  O315  1  0.24184416  0.63541415  0.47937382  1
  O2-  O316  1  0.72045249  0.11837159  -0.00150638  1
  O2-  O317  1  0.71501018  0.11757475  0.50042604  1
  O2-  O318  1  0.73279295  0.62334332  -0.00698908  1
  O2-  O319  1  0.71597611  0.61574290  0.48857384  1
