# generated using pymatgen
data_Sr64Ca21Nb43O192
_symmetry_space_group_name_H-M   'P 1'
_cell_length_a   16.53100501
_cell_length_b   16.51953611
_cell_length_c   16.70243705
_cell_angle_alpha   90.01328234
_cell_angle_beta   90.04020513
_cell_angle_gamma   89.99661328
_symmetry_Int_Tables_number   1
_chemical_formula_structural   Sr64Ca21Nb43O192
_chemical_formula_sum   'Sr64 Ca21 Nb43 O192'
_cell_volume   4561.17599071
_cell_formula_units_Z   1
loop_
 _symmetry_equiv_pos_site_id
 _symmetry_equiv_pos_as_xyz
  1  'x, y, z'
loop_
 _atom_type_symbol
 _atom_type_oxidation_number
  Sr2+  2.0
  Ca2+  2.0
  Nb5+  5.0
  O2-  -2.0
loop_
 _atom_site_type_symbol
 _atom_site_label
 _atom_site_symmetry_multiplicity
 _atom_site_fract_x
 _atom_site_fract_y
 _atom_site_fract_z
 _atom_site_occupancy
  Sr2+  Sr0  1  0.12489407  0.10822085  0.12221882  1
  Sr2+  Sr1  1  0.12968648  0.12699486  0.62472562  1
  Sr2+  Sr2  1  0.12658774  0.59888326  0.12053419  1
  Sr2+  Sr3  1  0.12549652  0.60361070  0.62616574  1
  Sr2+  Sr4  1  0.63029263  0.13547008  0.12930474  1
  Sr2+  Sr5  1  0.61015541  0.12979469  0.62563313  1
  Sr2+  Sr6  1  0.62237292  0.62492627  0.12596400  1
  Sr2+  Sr7  1  0.62839248  0.62358179  0.62397623  1
  Sr2+  Sr8  1  0.36458750  0.37734654  0.12307966  1
  Sr2+  Sr9  1  0.36626247  0.38857841  0.62398508  1
  Sr2+  Sr10  1  0.37172946  0.86440447  0.13263101  1
  Sr2+  Sr11  1  0.36644762  0.87532498  0.62078994  1
  Sr2+  Sr12  1  0.87267703  0.38322683  0.13088235  1
  Sr2+  Sr13  1  0.87670797  0.37497726  0.63312355  1
  Sr2+  Sr14  1  0.86397481  0.87647284  0.12839866  1
  Sr2+  Sr15  1  0.87826411  0.86687748  0.62544268  1
  Sr2+  Sr16  1  0.10809664  0.37056730  0.36152895  1
  Sr2+  Sr17  1  0.12190294  0.36675752  0.87609958  1
  Sr2+  Sr18  1  0.10946869  0.88725515  0.36862756  1
  Sr2+  Sr19  1  0.12512221  0.87711318  0.87649542  1
  Sr2+  Sr20  1  0.62806657  0.37950391  0.36670303  1
  Sr2+  Sr21  1  0.63185745  0.37369699  0.88172181  1
  Sr2+  Sr22  1  0.63390897  0.87695539  0.37339612  1
  Sr2+  Sr23  1  0.63022593  0.88517774  0.88287713  1
  Sr2+  Sr24  1  0.36294606  0.12727287  0.37709584  1
  Sr2+  Sr25  1  0.38689821  0.12472104  0.87418521  1
  Sr2+  Sr26  1  0.38252008  0.62506295  0.37347848  1
  Sr2+  Sr27  1  0.37964553  0.62688190  0.89117905  1
  Sr2+  Sr28  1  0.87219903  0.12100295  0.37318149  1
  Sr2+  Sr29  1  0.84260628  0.12124442  0.87184931  1
  Sr2+  Sr30  1  0.87672475  0.62303772  0.37755994  1
  Sr2+  Sr31  1  0.87163562  0.62341065  0.87454194  1
  Sr2+  Sr32  1  0.11915701  0.12250448  0.35821269  1
  Sr2+  Sr33  1  0.12960680  0.12320681  0.87948074  1
  Sr2+  Sr34  1  0.12846308  0.61571057  0.36293124  1
  Sr2+  Sr35  1  0.12375704  0.61355351  0.87875958  1
  Sr2+  Sr36  1  0.62995096  0.14099696  0.37949961  1
  Sr2+  Sr37  1  0.62501941  0.12489996  0.87395467  1
  Sr2+  Sr38  1  0.63402972  0.62899389  0.37525404  1
  Sr2+  Sr39  1  0.63563840  0.63169714  0.88615677  1
  Sr2+  Sr40  1  0.37772815  0.38912306  0.37176267  1
  Sr2+  Sr41  1  0.38303775  0.36308334  0.87527753  1
  Sr2+  Sr42  1  0.38401543  0.88181228  0.37252053  1
  Sr2+  Sr43  1  0.37597530  0.88366029  0.87540659  1
  Sr2+  Sr44  1  0.86316348  0.36990500  0.36984226  1
  Sr2+  Sr45  1  0.87100905  0.35837260  0.87559753  1
  Sr2+  Sr46  1  0.87156819  0.87737982  0.38332016  1
  Sr2+  Sr47  1  0.87454082  0.86051447  0.87135664  1
  Sr2+  Sr48  1  0.11706111  0.37689065  0.12269913  1
  Sr2+  Sr49  1  0.12529993  0.37473126  0.62852653  1
  Sr2+  Sr50  1  0.12633906  0.87147804  0.12408090  1
  Sr2+  Sr51  1  0.12104582  0.87168442  0.62966190  1
  Sr2+  Sr52  1  0.64820926  0.38060457  0.12957023  1
  Sr2+  Sr53  1  0.61371751  0.38669668  0.62203066  1
  Sr2+  Sr54  1  0.60974644  0.86979875  0.12880962  1
  Sr2+  Sr55  1  0.61877470  0.86470735  0.62267004  1
  Sr2+  Sr56  1  0.36395571  0.12885076  0.12581185  1
  Sr2+  Sr57  1  0.36712358  0.12644043  0.62361704  1
  Sr2+  Sr58  1  0.37063576  0.62491377  0.12985270  1
  Sr2+  Sr59  1  0.35714811  0.62072406  0.61755554  1
  Sr2+  Sr60  1  0.86375222  0.12014818  0.12852900  1
  Sr2+  Sr61  1  0.87322290  0.12435091  0.62710199  1
  Sr2+  Sr62  1  0.87845323  0.61325788  0.12236323  1
  Sr2+  Sr63  1  0.86809744  0.62869747  0.63156139  1
  Ca2+  Ca64  1  -0.00249791  0.49962546  -0.00755473  1
  Ca2+  Ca65  1  0.50050926  0.00210481  0.00362043  1
  Ca2+  Ca66  1  -0.00191557  0.49874678  0.50081351  1
  Ca2+  Ca67  1  0.50062061  0.49731637  0.00155270  1
  Ca2+  Ca68  1  -0.00482280  0.00110075  -0.00771889  1
  Ca2+  Ca69  1  0.75009953  0.75234361  0.00428981  1
  Ca2+  Ca70  1  0.24743613  0.75031371  0.49814453  1
  Ca2+  Ca71  1  0.75247268  0.25064542  0.50753355  1
  Ca2+  Ca72  1  0.74961920  0.24950340  -0.00040638  1
  Ca2+  Ca73  1  0.24984474  0.25249808  0.50073432  1
  Ca2+  Ca74  1  0.74538423  -0.00051911  0.25422546  1
  Ca2+  Ca75  1  0.25145166  0.49729813  0.24757130  1
  Ca2+  Ca76  1  0.75044131  0.50612069  0.25178657  1
  Ca2+  Ca77  1  0.49753791  0.74729955  0.74908150  1
  Ca2+  Ca78  1  0.25358919  0.50078710  0.75421723  1
  Ca2+  Ca79  1  -0.00112258  0.74996021  0.24934760  1
  Ca2+  Ca80  1  0.74788974  -0.00331768  0.74512402  1
  Ca2+  Ca81  1  0.49638092  0.25223320  0.25052066  1
  Ca2+  Ca82  1  0.25325059  -0.00310410  0.25083790  1
  Ca2+  Ca83  1  -0.00274425  0.24855307  0.24422922  1
  Ca2+  Ca84  1  0.74632997  0.49826543  0.74963044  1
  Nb5+  Nb85  1  0.49769342  0.00529114  0.49842585  1
  Nb5+  Nb86  1  0.50383859  0.50785666  0.49877854  1
  Nb5+  Nb87  1  -0.00504918  0.00374763  0.50153966  1
  Nb5+  Nb88  1  0.75055876  0.74911595  0.50007171  1
  Nb5+  Nb89  1  0.24952834  0.24419994  -0.00075191  1
  Nb5+  Nb90  1  0.24741962  0.74568257  0.00254421  1
  Nb5+  Nb91  1  0.00326171  0.74236091  0.74855311  1
  Nb5+  Nb92  1  0.49357887  0.25172622  0.74703343  1
  Nb5+  Nb93  1  -0.00307373  0.24075946  0.75203451  1
  Nb5+  Nb94  1  0.24953006  -0.00057113  0.75032462  1
  Nb5+  Nb95  1  0.50078502  0.74884653  0.25196408  1
  Nb5+  Nb96  1  -0.00446663  -0.00350524  0.24059146  1
  Nb5+  Nb97  1  -0.00086030  -0.00285654  0.75062796  1
  Nb5+  Nb98  1  -0.00149331  0.50357903  0.25246104  1
  Nb5+  Nb99  1  -0.00066545  0.49011246  0.75143229  1
  Nb5+  Nb100  1  0.50112541  0.00622231  0.25138284  1
  Nb5+  Nb101  1  0.49900629  -0.00414782  0.74586261  1
  Nb5+  Nb102  1  0.49818456  0.50072672  0.24533229  1
  Nb5+  Nb103  1  0.50155190  0.50417327  0.75404630  1
  Nb5+  Nb104  1  0.24833199  0.24822222  0.25325588  1
  Nb5+  Nb105  1  0.24890580  0.25192066  0.75124332  1
  Nb5+  Nb106  1  0.24778183  0.74886953  0.25567471  1
  Nb5+  Nb107  1  0.24993616  0.74668513  0.75125191  1
  Nb5+  Nb108  1  0.74871719  0.24915533  0.25147495  1
  Nb5+  Nb109  1  0.73817353  0.25239767  0.74389374  1
  Nb5+  Nb110  1  0.75168737  0.75036213  0.24722064  1
  Nb5+  Nb111  1  0.74474307  0.75415329  0.75153748  1
  Nb5+  Nb112  1  -0.00030355  0.24993478  0.49873055  1
  Nb5+  Nb113  1  -0.00295609  0.24885669  0.99677685  1
  Nb5+  Nb114  1  0.00505899  0.75031823  0.49993737  1
  Nb5+  Nb115  1  -0.00068492  0.75206666  1.00298568  1
  Nb5+  Nb116  1  0.49834761  0.25961907  0.50209323  1
  Nb5+  Nb117  1  0.50086702  0.25078393  1.00591160  1
  Nb5+  Nb118  1  0.50046634  0.75362119  0.50122631  1
  Nb5+  Nb119  1  0.49846698  0.75450684  0.99469576  1
  Nb5+  Nb120  1  0.25478045  -0.00754144  0.00149883  1
  Nb5+  Nb121  1  0.24181557  -0.00284877  0.49915670  1
  Nb5+  Nb122  1  0.25439960  0.48968317  -0.00611492  1
  Nb5+  Nb123  1  0.24315608  0.49435049  0.49535455  1
  Nb5+  Nb124  1  0.74792981  -0.00057896  0.00292567  1
  Nb5+  Nb125  1  0.74014849  0.00200736  0.50798833  1
  Nb5+  Nb126  1  0.75138060  0.50245696  -0.00066246  1
  Nb5+  Nb127  1  0.75490920  0.49821847  0.50368711  1
  O2-  O128  1  -0.01851345  -0.02124545  0.12838408  1
  O2-  O129  1  -0.00853985  -0.00951221  0.62525608  1
  O2-  O130  1  -0.00347234  0.48627181  0.12992052  1
  O2-  O131  1  0.02262217  0.48478973  0.63344324  1
  O2-  O132  1  0.47796919  0.01906536  0.13965242  1
  O2-  O133  1  0.47953472  0.01585297  0.62004188  1
  O2-  O134  1  0.50306844  0.52890233  0.13499699  1
  O2-  O135  1  0.52009881  0.51145203  0.61772289  1
  O2-  O136  1  0.01513304  0.01200524  0.38428499  1
  O2-  O137  1  0.03263285  0.00872934  0.85943708  1
  O2-  O138  1  0.00238860  0.52576731  0.37044669  1
  O2-  O139  1  -0.01004442  0.53104534  0.85966564  1
  O2-  O140  1  0.52137893  -0.02089645  0.38670184  1
  O2-  O141  1  0.51307151  -0.01553591  0.86079974  1
  O2-  O142  1  0.49521175  0.48512149  0.38066152  1
  O2-  O143  1  0.47536405  0.48718003  0.86411531  1
  O2-  O144  1  0.26560244  0.26019317  0.11446448  1
  O2-  O145  1  0.27177993  0.25847465  0.63810145  1
  O2-  O146  1  0.24572441  0.77239886  0.11845233  1
  O2-  O147  1  0.24186623  0.77115437  0.63715436  1
  O2-  O148  1  0.75951883  0.24210940  0.13171232  1
  O2-  O149  1  0.78555445  0.25286550  0.63752989  1
  O2-  O150  1  0.73106036  0.77595520  0.13668654  1
  O2-  O151  1  0.73514981  0.76041087  0.62101537  1
  O2-  O152  1  0.23335711  0.23164269  0.36671066  1
  O2-  O153  1  0.23893234  0.23526914  0.87427577  1
  O2-  O154  1  0.26081638  0.72061411  0.36574887  1
  O2-  O155  1  0.25972456  0.74592380  0.87773763  1
  O2-  O156  1  0.73742815  0.25799723  0.37315101  1
  O2-  O157  1  0.72922699  0.24521593  0.86380672  1
  O2-  O158  1  0.76365172  0.73537107  0.38125476  1
  O2-  O159  1  0.76073771  0.73907199  0.86584190  1
  O2-  O160  1  -0.01587572  0.27230651  0.10878188  1
  O2-  O161  1  -0.01388649  0.26428403  0.63568395  1
  O2-  O162  1  0.00315132  0.78257056  0.11348347  1
  O2-  O163  1  0.00561099  0.77043789  0.62487067  1
  O2-  O164  1  0.48670901  0.22391788  0.11536771  1
  O2-  O165  1  0.48397936  0.22865622  0.62903312  1
  O2-  O166  1  0.51346601  0.73688863  0.13248052  1
  O2-  O167  1  0.52650263  0.73862858  0.61440066  1
  O2-  O168  1  0.22671729  0.01194240  0.38606804  1
  O2-  O169  1  0.23081538  0.00424019  0.86997529  1
  O2-  O170  1  0.25956639  0.51965251  0.38206959  1
  O2-  O171  1  0.26980942  0.52620002  0.88361808  1
  O2-  O172  1  0.74923883  0.00546046  0.39208876  1
  O2-  O173  1  0.72814611  0.00440266  0.87992323  1
  O2-  O174  1  0.74980590  0.50774675  0.38660466  1
  O2-  O175  1  0.74286066  0.51973890  0.88081753  1
  O2-  O176  1  0.02039070  0.23714732  0.38571680  1
  O2-  O177  1  0.02986349  0.23834085  0.86554544  1
  O2-  O178  1  -0.02415946  0.74180547  0.38840328  1
  O2-  O179  1  -0.00625077  0.73043855  0.86437103  1
  O2-  O180  1  0.51682442  0.26993128  0.38862232  1
  O2-  O181  1  0.51539795  0.26930883  0.86319940  1
  O2-  O182  1  0.48589891  0.76148946  0.37861942  1
  O2-  O183  1  0.47575191  0.76789409  0.88296120  1
  O2-  O184  1  0.27826265  -0.00680268  0.11450157  1
  O2-  O185  1  0.26668594  -0.01097173  0.63006272  1
  O2-  O186  1  0.23643744  0.47797837  0.11258541  1
  O2-  O187  1  0.23982404  0.48350347  0.61806833  1
  O2-  O188  1  0.76649192  -0.00076306  0.12085140  1
  O2-  O189  1  0.78424077  -0.01098950  0.61417722  1
  O2-  O190  1  0.75942734  0.49519018  0.11926201  1
  O2-  O191  1  0.72299126  0.49873043  0.61603875  1
  O2-  O192  1  0.13369886  0.27918937  0.23480251  1
  O2-  O193  1  0.13114270  0.26393592  0.73701856  1
  O2-  O194  1  0.13554815  0.77786294  0.26299450  1
  O2-  O195  1  0.11987587  0.77764124  0.75904732  1
  O2-  O196  1  0.63010555  0.27834871  0.23868179  1
  O2-  O197  1  0.62268945  0.26547502  0.72355811  1
  O2-  O198  1  0.61872776  0.77141102  0.26785723  1
  O2-  O199  1  0.63280570  0.78233889  0.76243318  1
  O2-  O200  1  0.36493065  0.21284379  0.25280642  1
  O2-  O201  1  0.37768538  0.23063390  0.76654675  1
  O2-  O202  1  0.38117574  0.72815714  0.24209059  1
  O2-  O203  1  0.36227269  0.71923364  0.74233969  1
  O2-  O204  1  0.86596188  0.22165239  0.26249888  1
  O2-  O205  1  0.88440061  0.23038993  0.77361008  1
  O2-  O206  1  0.86320134  0.72469259  0.23154472  1
  O2-  O207  1  0.88293682  0.73791088  0.73806704  1
  O2-  O208  1  0.28424518  0.36217578  0.25613926  1
  O2-  O209  1  0.27040686  0.36415416  0.77019916  1
  O2-  O210  1  0.28329502  0.86231209  0.25854917  1
  O2-  O211  1  0.26643618  0.87882186  0.76420375  1
  O2-  O212  1  0.77452974  0.36932487  0.24722735  1
  O2-  O213  1  0.77530664  0.36449346  0.75782122  1
  O2-  O214  1  0.76763642  0.86457041  0.27585469  1
  O2-  O215  1  0.78328440  0.86578323  0.74887641  1
  O2-  O216  1  0.22493006  0.13091844  0.22792130  1
  O2-  O217  1  0.23701088  0.12309027  0.74261349  1
  O2-  O218  1  0.23494531  0.63660967  0.21859094  1
  O2-  O219  1  0.21401873  0.63735375  0.74491114  1
  O2-  O220  1  0.71641293  0.13245097  0.25477772  1
  O2-  O221  1  0.73529399  0.13291365  0.74143312  1
  O2-  O222  1  0.71385749  0.63821460  0.24653419  1
  O2-  O223  1  0.74036318  0.63743498  0.73109419  1
  O2-  O224  1  0.11819540  0.47492028  0.25495220  1
  O2-  O225  1  0.11863610  0.48095262  0.76796871  1
  O2-  O226  1  0.11724028  0.97386377  0.23722769  1
  O2-  O227  1  0.13060645  0.98889576  0.72753966  1
  O2-  O228  1  0.61479528  0.47933899  0.25487675  1
  O2-  O229  1  0.61003997  0.45757589  0.75609988  1
  O2-  O230  1  0.61199732  0.96691064  0.24354614  1
  O2-  O231  1  0.61162671  0.98485983  0.71931340  1
  O2-  O232  1  0.38766811  0.00857741  0.28803088  1
  O2-  O233  1  0.37110089  0.01971180  0.76099788  1
  O2-  O234  1  0.38374191  0.53110452  0.25730966  1
  O2-  O235  1  0.38855629  0.51522674  0.71912238  1
  O2-  O236  1  0.88209177  0.02600932  0.25892193  1
  O2-  O237  1  0.88864165  0.02450629  0.76397744  1
  O2-  O238  1  0.88321608  0.53554033  0.25171486  1
  O2-  O239  1  0.88422431  0.51107601  0.72589636  1
  O2-  O240  1  0.46914897  0.38798399  0.23570918  1
  O2-  O241  1  0.47522525  0.36670422  0.72879178  1
  O2-  O242  1  0.47895150  0.86801706  0.24204857  1
  O2-  O243  1  0.46994606  0.88399444  0.73080853  1
  O2-  O244  1  0.97422122  0.38485222  0.27105965  1
  O2-  O245  1  0.98508366  0.37250298  0.76660998  1
  O2-  O246  1  0.97820028  0.88473253  0.27746323  1
  O2-  O247  1  0.98575685  0.87970154  0.75598643  1
  O2-  O248  1  0.02557352  0.11378471  0.23803460  1
  O2-  O249  1  0.01965056  0.12663733  0.73117827  1
  O2-  O250  1  0.03406963  0.61992205  0.23516382  1
  O2-  O251  1  0.01751060  0.63000723  0.72686260  1
  O2-  O252  1  0.52707784  0.11593891  0.27312721  1
  O2-  O253  1  0.51406204  0.12587763  0.75928903  1
  O2-  O254  1  0.51991257  0.62959873  0.27421320  1
  O2-  O255  1  0.53635408  0.61398998  0.76441331  1
  O2-  O256  1  0.13540106  0.48841255  -0.01996686  1
  O2-  O257  1  0.13278788  0.46304765  0.48478873  1
  O2-  O258  1  0.13679503  0.98568140  0.01739123  1
  O2-  O259  1  0.12834967  0.97765078  0.51838378  1
  O2-  O260  1  0.63305579  0.46764268  0.00210429  1
  O2-  O261  1  0.62135235  0.47637766  0.48832563  1
  O2-  O262  1  0.63175148  0.96458908  0.01582959  1
  O2-  O263  1  0.62504954  0.97885205  0.52368370  1
  O2-  O264  1  0.36588294  0.01679504  -0.02944270  1
  O2-  O265  1  0.38291789  0.01366411  0.48167775  1
  O2-  O266  1  0.36517905  0.52330715  0.01826045  1
  O2-  O267  1  0.38479086  0.52029073  0.50716628  1
  O2-  O268  1  0.86413664  0.03836813  -0.00970624  1
  O2-  O269  1  0.88132184  0.02107045  0.49115300  1
  O2-  O270  1  0.86749662  0.53596123  -0.00433941  1
  O2-  O271  1  0.86505726  0.53533556  0.51245849  1
  O2-  O272  1  0.46312743  0.36290557  0.00472349  1
  O2-  O273  1  0.48133852  0.37454236  0.52030267  1
  O2-  O274  1  0.47277027  0.86682352  0.02327923  1
  O2-  O275  1  0.48875089  0.87260801  0.51602667  1
  O2-  O276  1  0.99565789  0.36474692  -0.03492340  1
  O2-  O277  1  0.97003810  0.36184396  0.48944887  1
  O2-  O278  1  0.99397721  0.86414915  -0.03838688  1
  O2-  O279  1  0.98041377  0.88161172  0.49514381  1
  O2-  O280  1  0.03375680  0.13709036  0.00472547  1
  O2-  O281  1  0.02644707  0.11754017  0.51693552  1
  O2-  O282  1  0.03456914  0.63950258  0.00727969  1
  O2-  O283  1  0.02445861  0.63820321  0.51688784  1
  O2-  O284  1  0.51051019  0.13747318  -0.03050982  1
  O2-  O285  1  0.52390334  0.11879054  0.49076246  1
  O2-  O286  1  0.51368879  0.63584115  -0.01628015  1
  O2-  O287  1  0.52187827  0.62410146  0.48442025  1
  O2-  O288  1  0.13401392  0.27398911  0.00468298  1
  O2-  O289  1  0.11468106  0.26040840  0.53055150  1
  O2-  O290  1  0.13258263  0.77543881  -0.00961580  1
  O2-  O291  1  0.11444116  0.78325617  0.48519715  1
  O2-  O292  1  0.61297117  0.27784018  0.01351483  1
  O2-  O293  1  0.61384095  0.25876005  0.53070600  1
  O2-  O294  1  0.61322724  0.77442415  -0.01361053  1
  O2-  O295  1  0.62612961  0.76506821  0.48168413  1
  O2-  O296  1  0.36930408  0.23144408  -0.01783378  1
  O2-  O297  1  0.38800585  0.22100168  0.49288027  1
  O2-  O298  1  0.37028885  0.72980193  0.01286259  1
  O2-  O299  1  0.38731495  0.73094970  0.51545087  1
  O2-  O300  1  0.88663612  0.22922511  -0.02955549  1
  O2-  O301  1  0.88867688  0.20862490  0.49882140  1
  O2-  O302  1  0.88641704  0.72652191  0.00311757  1
  O2-  O303  1  0.86993533  0.74014709  0.51888015  1
  O2-  O304  1  0.27075488  0.37334130  -0.02147217  1
  O2-  O305  1  0.28793825  0.38380791  0.48988824  1
  O2-  O306  1  0.26944072  0.87705186  -0.01379199  1
  O2-  O307  1  0.28133071  0.88605969  0.49322002  1
  O2-  O308  1  0.78243461  0.38377704  -0.00503718  1
  O2-  O309  1  0.78202327  0.38557934  0.50401401  1
  O2-  O310  1  0.78682169  0.88454926  -0.00828947  1
  O2-  O311  1  0.75825679  0.87097584  0.49251584  1
  O2-  O312  1  0.23433926  0.12651344  0.00787000  1
  O2-  O313  1  0.24772426  0.11259413  0.52232264  1
  O2-  O314  1  0.23020065  0.63155118  0.01056387  1
  O2-  O315  1  0.23264626  0.61364250  0.51921750  1
  O2-  O316  1  0.71213013  0.11719061  0.00380263  1
  O2-  O317  1  0.72247411  0.11584781  0.51649835  1
  O2-  O318  1  0.71675243  0.62031034  0.01375957  1
  O2-  O319  1  0.72680105  0.63080646  0.50852235  1
