# generated using pymatgen
data_Sr64Ca21Nb43O192
_symmetry_space_group_name_H-M   'P 1'
_cell_length_a   16.57555859
_cell_length_b   16.58855448
_cell_length_c   16.71370138
_cell_angle_alpha   90.04198747
_cell_angle_beta   90.01712925
_cell_angle_gamma   90.03410595
_symmetry_Int_Tables_number   1
_chemical_formula_structural   Sr64Ca21Nb43O192
_chemical_formula_sum   'Sr64 Ca21 Nb43 O192'
_cell_volume   4595.67323812
_cell_formula_units_Z   1
loop_
 _symmetry_equiv_pos_site_id
 _symmetry_equiv_pos_as_xyz
  1  'x, y, z'
loop_
 _atom_type_symbol
 _atom_type_oxidation_number
  Sr2+  2.0
  Ca2+  2.0
  Nb5+  5.0
  O2-  -2.0
loop_
 _atom_site_type_symbol
 _atom_site_label
 _atom_site_symmetry_multiplicity
 _atom_site_fract_x
 _atom_site_fract_y
 _atom_site_fract_z
 _atom_site_occupancy
  Sr2+  Sr0  1  0.13186920  0.11193731  0.12739638  1
  Sr2+  Sr1  1  0.13164702  0.10999516  0.62736015  1
  Sr2+  Sr2  1  0.12631724  0.62650148  0.13049106  1
  Sr2+  Sr3  1  0.13120348  0.61925955  0.62605138  1
  Sr2+  Sr4  1  0.63402259  0.10999657  0.11929554  1
  Sr2+  Sr5  1  0.62770486  0.11652680  0.63497404  1
  Sr2+  Sr6  1  0.62945691  0.62416360  0.12066291  1
  Sr2+  Sr7  1  0.63240452  0.63290128  0.63093961  1
  Sr2+  Sr8  1  0.37583516  0.37871372  0.12260929  1
  Sr2+  Sr9  1  0.37850170  0.36505515  0.61976095  1
  Sr2+  Sr10  1  0.38540974  0.85639439  0.13035036  1
  Sr2+  Sr11  1  0.38538047  0.86040593  0.62972990  1
  Sr2+  Sr12  1  0.88000640  0.37134939  0.13562561  1
  Sr2+  Sr13  1  0.88037064  0.37336489  0.63093093  1
  Sr2+  Sr14  1  0.87617514  0.88753439  0.12602838  1
  Sr2+  Sr15  1  0.88062130  0.85913047  0.62535965  1
  Sr2+  Sr16  1  0.11626765  0.37518492  0.38015174  1
  Sr2+  Sr17  1  0.12200326  0.37829626  0.87723723  1
  Sr2+  Sr18  1  0.13189456  0.87883882  0.37113634  1
  Sr2+  Sr19  1  0.11639738  0.88503346  0.87582584  1
  Sr2+  Sr20  1  0.61997360  0.38657085  0.37373853  1
  Sr2+  Sr21  1  0.61587694  0.37872163  0.86972999  1
  Sr2+  Sr22  1  0.60865873  0.88145907  0.37884678  1
  Sr2+  Sr23  1  0.61146799  0.87763614  0.87244084  1
  Sr2+  Sr24  1  0.36523241  0.12678709  0.38194508  1
  Sr2+  Sr25  1  0.37192137  0.13325532  0.87806453  1
  Sr2+  Sr26  1  0.36105231  0.64061810  0.37188976  1
  Sr2+  Sr27  1  0.36263701  0.63282703  0.87472273  1
  Sr2+  Sr28  1  0.87373908  0.12847556  0.37264412  1
  Sr2+  Sr29  1  0.86551822  0.13315499  0.87981759  1
  Sr2+  Sr30  1  0.86407798  0.62971909  0.37480360  1
  Sr2+  Sr31  1  0.86462894  0.63088566  0.88198676  1
  Sr2+  Sr32  1  0.11915077  0.12951039  0.38175912  1
  Sr2+  Sr33  1  0.12227534  0.12557686  0.87691070  1
  Sr2+  Sr34  1  0.11541424  0.64014525  0.37277280  1
  Sr2+  Sr35  1  0.11972342  0.64707577  0.87549603  1
  Sr2+  Sr36  1  0.61495418  0.13004301  0.36392628  1
  Sr2+  Sr37  1  0.61954341  0.13622718  0.87554337  1
  Sr2+  Sr38  1  0.62263512  0.63905705  0.38150954  1
  Sr2+  Sr39  1  0.61738411  0.63412119  0.87647395  1
  Sr2+  Sr40  1  0.36614459  0.38128969  0.38000808  1
  Sr2+  Sr41  1  0.37064384  0.38329572  0.87915234  1
  Sr2+  Sr42  1  0.37192883  0.88897080  0.37539677  1
  Sr2+  Sr43  1  0.36033467  0.89025359  0.87222401  1
  Sr2+  Sr44  1  0.87128230  0.38299404  0.37823950  1
  Sr2+  Sr45  1  0.87015643  0.38575539  0.87820288  1
  Sr2+  Sr46  1  0.86191118  0.89018470  0.37614025  1
  Sr2+  Sr47  1  0.86712305  0.88732724  0.87871964  1
  Sr2+  Sr48  1  0.13714917  0.36828565  0.12833773  1
  Sr2+  Sr49  1  0.13986537  0.37273232  0.62323088  1
  Sr2+  Sr50  1  0.13851899  0.86150870  0.12538013  1
  Sr2+  Sr51  1  0.13516051  0.86609724  0.62895226  1
  Sr2+  Sr52  1  0.61287123  0.37466423  0.13007686  1
  Sr2+  Sr53  1  0.63800583  0.36232038  0.62718794  1
  Sr2+  Sr54  1  0.62880636  0.87240807  0.12488472  1
  Sr2+  Sr55  1  0.63755219  0.86779644  0.62831987  1
  Sr2+  Sr56  1  0.38937166  0.11922359  0.12045276  1
  Sr2+  Sr57  1  0.38960143  0.11678132  0.62483047  1
  Sr2+  Sr58  1  0.38531942  0.62163289  0.12740759  1
  Sr2+  Sr59  1  0.36750908  0.61548870  0.62896030  1
  Sr2+  Sr60  1  0.87367130  0.12205878  0.12667209  1
  Sr2+  Sr61  1  0.88294197  0.11825952  0.63332420  1
  Sr2+  Sr62  1  0.88168373  0.61855012  0.12767276  1
  Sr2+  Sr63  1  0.88558198  0.62436892  0.62326283  1
  Ca2+  Ca64  1  0.50079778  0.50191936  0.50283652  1
  Ca2+  Ca65  1  0.49932709  -0.00039658  -0.00158307  1
  Ca2+  Ca66  1  -0.00201858  0.00062127  0.50056616  1
  Ca2+  Ca67  1  0.00115615  0.00557020  0.00136553  1
  Ca2+  Ca68  1  0.50209552  -0.00208569  0.50359881  1
  Ca2+  Ca69  1  0.25217565  0.75020372  -0.00097890  1
  Ca2+  Ca70  1  0.24887106  0.75113369  0.50025739  1
  Ca2+  Ca71  1  0.75195929  0.24773342  0.49904464  1
  Ca2+  Ca72  1  0.75200871  0.75152773  0.00396238  1
  Ca2+  Ca73  1  0.74965502  0.25426698  0.00218690  1
  Ca2+  Ca74  1  0.25003257  0.00226646  0.24723275  1
  Ca2+  Ca75  1  0.74948524  0.00085101  0.74914948  1
  Ca2+  Ca76  1  0.49907741  0.74688260  0.75081293  1
  Ca2+  Ca77  1  -0.00045701  0.74892625  0.75142130  1
  Ca2+  Ca78  1  0.74651735  0.50012641  0.75000893  1
  Ca2+  Ca79  1  -0.00453567  0.75098258  0.25015125  1
  Ca2+  Ca80  1  0.24838073  0.50074696  0.25076144  1
  Ca2+  Ca81  1  0.24932214  0.00339989  0.74863547  1
  Ca2+  Ca82  1  0.24803027  0.49765884  0.75258655  1
  Ca2+  Ca83  1  0.50362809  0.74737565  0.25253019  1
  Ca2+  Ca84  1  0.49618085  0.24784506  0.24979935  1
  Nb5+  Nb85  1  -0.00094921  0.50049384  0.00384428  1
  Nb5+  Nb86  1  0.49532544  0.50228872  -0.00105013  1
  Nb5+  Nb87  1  0.00042505  0.50003517  0.50577089  1
  Nb5+  Nb88  1  0.24933082  0.24991506  0.00553701  1
  Nb5+  Nb89  1  0.24947618  0.24649011  0.50670218  1
  Nb5+  Nb90  1  0.75293807  0.75378251  0.49827541  1
  Nb5+  Nb91  1  0.50329044  0.25254788  0.74937629  1
  Nb5+  Nb92  1  0.74637205  0.00582420  0.25249653  1
  Nb5+  Nb93  1  0.00635069  0.25263649  0.75531326  1
  Nb5+  Nb94  1  0.00130147  0.24979838  0.25489923  1
  Nb5+  Nb95  1  0.74779215  0.50432635  0.25082729  1
  Nb5+  Nb96  1  -0.00126553  -0.00359629  0.25073111  1
  Nb5+  Nb97  1  -0.00570148  -0.00493008  0.75020761  1
  Nb5+  Nb98  1  0.00222137  0.49784471  0.25507365  1
  Nb5+  Nb99  1  0.00301020  0.50157592  0.75981313  1
  Nb5+  Nb100  1  0.49464709  0.00188579  0.24997912  1
  Nb5+  Nb101  1  0.49688195  -0.00477586  0.75395255  1
  Nb5+  Nb102  1  0.49849662  0.50372335  0.25759843  1
  Nb5+  Nb103  1  0.49732232  0.49909454  0.74644147  1
  Nb5+  Nb104  1  0.25146433  0.24753142  0.25585673  1
  Nb5+  Nb105  1  0.25474183  0.25082228  0.75431644  1
  Nb5+  Nb106  1  0.25021171  0.75113952  0.24963971  1
  Nb5+  Nb107  1  0.24998580  0.75188782  0.74930019  1
  Nb5+  Nb108  1  0.74854224  0.25621378  0.25112469  1
  Nb5+  Nb109  1  0.75857943  0.24970092  0.74972538  1
  Nb5+  Nb110  1  0.75074254  0.75827093  0.25050519  1
  Nb5+  Nb111  1  0.75437492  0.75233251  0.75661935  1
  Nb5+  Nb112  1  0.00180772  0.25147479  0.51042304  1
  Nb5+  Nb113  1  0.00371251  0.25394846  1.00651115  1
  Nb5+  Nb114  1  -0.00165193  0.75680216  0.49312284  1
  Nb5+  Nb115  1  -0.00304465  0.75631533  0.99942302  1
  Nb5+  Nb116  1  0.50408603  0.25043586  0.49661188  1
  Nb5+  Nb117  1  0.50129482  0.25496697  1.00155390  1
  Nb5+  Nb118  1  0.49478111  0.74267675  0.50251098  1
  Nb5+  Nb119  1  0.49822060  0.75392583  0.99484503  1
  Nb5+  Nb120  1  0.25323206  -0.00279153  0.00505995  1
  Nb5+  Nb121  1  0.25410270  -0.00539656  0.50484984  1
  Nb5+  Nb122  1  0.24226248  0.50081525  -0.00056946  1
  Nb5+  Nb123  1  0.24888597  0.50276658  0.49209699  1
  Nb5+  Nb124  1  0.74736645  -0.00162831  -0.00583950  1
  Nb5+  Nb125  1  0.74543844  0.00868634  0.49924001  1
  Nb5+  Nb126  1  0.74180970  0.49433577  0.00086962  1
  Nb5+  Nb127  1  0.75153477  0.49934724  0.50372009  1
  O2-  O128  1  -0.02922572  0.00526264  0.13629529  1
  O2-  O129  1  -0.03501641  -0.00931540  0.63333682  1
  O2-  O130  1  -0.01841195  0.48277252  0.11773043  1
  O2-  O131  1  -0.01851822  0.48563967  0.61897109  1
  O2-  O132  1  0.48089637  -0.02166890  0.13340965  1
  O2-  O133  1  0.47018981  -0.01244824  0.63736212  1
  O2-  O134  1  0.49001178  0.48033406  0.12021714  1
  O2-  O135  1  0.46445410  0.48866773  0.63675013  1
  O2-  O136  1  0.00848368  0.03017043  0.36269305  1
  O2-  O137  1  0.02329078  0.01610202  0.86557313  1
  O2-  O138  1  0.01730216  0.50727296  0.36955489  1
  O2-  O139  1  0.02558897  0.50947224  0.87434896  1
  O2-  O140  1  0.52326587  0.01678304  0.36632836  1
  O2-  O141  1  0.53159657  0.01886338  0.86645520  1
  O2-  O142  1  0.53163763  0.51325111  0.36669944  1
  O2-  O143  1  0.52725981  0.50525088  0.88456284  1
  O2-  O144  1  0.23514704  0.23481706  0.11876301  1
  O2-  O145  1  0.23164101  0.23370102  0.62003507  1
  O2-  O146  1  0.22797660  0.73193715  0.13215264  1
  O2-  O147  1  0.22024296  0.73544157  0.63145817  1
  O2-  O148  1  0.74335905  0.22523890  0.13811727  1
  O2-  O149  1  0.73071693  0.22872581  0.63431275  1
  O2-  O150  1  0.72219160  0.74195157  0.13935918  1
  O2-  O151  1  0.73660232  0.73665485  0.61445446  1
  O2-  O152  1  0.25987187  0.26540325  0.37107159  1
  O2-  O153  1  0.25906183  0.27071657  0.86856457  1
  O2-  O154  1  0.27269613  0.77457616  0.36738209  1
  O2-  O155  1  0.27940698  0.76332446  0.86542044  1
  O2-  O156  1  0.78338156  0.25556623  0.36311400  1
  O2-  O157  1  0.76164202  0.27752592  0.86520858  1
  O2-  O158  1  0.77795877  0.75836272  0.37749382  1
  O2-  O159  1  0.77998875  0.76441933  0.86779042  1
  O2-  O160  1  0.01059846  0.27796414  0.12000033  1
  O2-  O161  1  0.00939502  0.27854544  0.62310302  1
  O2-  O162  1  0.02363441  0.75533687  0.11491591  1
  O2-  O163  1  0.01127621  0.76381071  0.61159935  1
  O2-  O164  1  0.49291035  0.27698402  0.11534303  1
  O2-  O165  1  0.50533529  0.27519987  0.63194237  1
  O2-  O166  1  0.52017009  0.76608920  0.11331165  1
  O2-  O167  1  0.52307927  0.77018673  0.61563924  1
  O2-  O168  1  0.23991829  -0.01728336  0.38437283  1
  O2-  O169  1  0.22855363  -0.01345379  0.88699766  1
  O2-  O170  1  0.23452719  0.46328359  0.38176316  1
  O2-  O171  1  0.24329503  0.46691190  0.88678262  1
  O2-  O172  1  0.73322220  -0.02312571  0.36835317  1
  O2-  O173  1  0.73443625  -0.02986708  0.88338305  1
  O2-  O174  1  0.74536063  0.47840538  0.36997960  1
  O2-  O175  1  0.73758812  0.47398180  0.88756682  1
  O2-  O176  1  -0.00455793  0.23737660  0.37053867  1
  O2-  O177  1  -0.00155442  0.23578415  0.87019621  1
  O2-  O178  1  -0.01576156  0.71538355  0.38336972  1
  O2-  O179  1  -0.01507661  0.71977762  0.88534198  1
  O2-  O180  1  0.48732717  0.22224566  0.38631554  1
  O2-  O181  1  0.49084117  0.23731367  0.87417628  1
  O2-  O182  1  0.49144481  0.71651451  0.38566252  1
  O2-  O183  1  0.48845334  0.71330164  0.88347019  1
  O2-  O184  1  0.26506904  0.04017656  0.11526099  1
  O2-  O185  1  0.26315869  0.03697078  0.61456776  1
  O2-  O186  1  0.27078501  0.51354463  0.11328933  1
  O2-  O187  1  0.25069753  0.51268794  0.61108820  1
  O2-  O188  1  0.76538786  0.01498196  0.13378813  1
  O2-  O189  1  0.76024924  0.02886365  0.61166971  1
  O2-  O190  1  0.76127643  0.51863928  0.13118260  1
  O2-  O191  1  0.77027917  0.52431326  0.61381506  1
  O2-  O192  1  0.11801461  0.27810583  0.25493575  1
  O2-  O193  1  0.12058404  0.27536873  0.75716609  1
  O2-  O194  1  0.13021959  0.77063761  0.26910389  1
  O2-  O195  1  0.13249969  0.77711328  0.77269039  1
  O2-  O196  1  0.63525509  0.26808660  0.27159637  1
  O2-  O197  1  0.61849562  0.26665307  0.76195725  1
  O2-  O198  1  0.63857252  0.76125836  0.28426688  1
  O2-  O199  1  0.63588251  0.77447935  0.76203455  1
  O2-  O200  1  0.36114492  0.21785238  0.24098743  1
  O2-  O201  1  0.36964949  0.23026906  0.73985132  1
  O2-  O202  1  0.36831442  0.72661613  0.23294719  1
  O2-  O203  1  0.36692001  0.72763808  0.72149484  1
  O2-  O204  1  0.88325608  0.23890291  0.23081252  1
  O2-  O205  1  0.87576436  0.23507634  0.73752961  1
  O2-  O206  1  0.86124012  0.71955506  0.23680714  1
  O2-  O207  1  0.86678073  0.72737226  0.72448731  1
  O2-  O208  1  0.26410629  0.36165849  0.22509992  1
  O2-  O209  1  0.26198197  0.36264227  0.71947079  1
  O2-  O210  1  0.26652730  0.86881768  0.22326463  1
  O2-  O211  1  0.27114838  0.86986485  0.72863412  1
  O2-  O212  1  0.76558239  0.37105348  0.23429215  1
  O2-  O213  1  0.76106760  0.36610257  0.72069765  1
  O2-  O214  1  0.77085771  0.87328669  0.23872875  1
  O2-  O215  1  0.77067344  0.86729735  0.72427355  1
  O2-  O216  1  0.20912901  0.13835424  0.26150657  1
  O2-  O217  1  0.21917368  0.14007936  0.76138612  1
  O2-  O218  1  0.22814477  0.63271834  0.27439273  1
  O2-  O219  1  0.22783262  0.63147583  0.76625203  1
  O2-  O220  1  0.73392136  0.12168806  0.26825524  1
  O2-  O221  1  0.73262096  0.13699567  0.77698421  1
  O2-  O222  1  0.73258698  0.61682433  0.26883383  1
  O2-  O223  1  0.72608681  0.63449039  0.76466892  1
  O2-  O224  1  0.11233672  0.47822601  0.22805169  1
  O2-  O225  1  0.11202763  0.46580363  0.73497113  1
  O2-  O226  1  0.11149207  0.97777412  0.23221177  1
  O2-  O227  1  0.11051873  0.98799593  0.72229876  1
  O2-  O228  1  0.63331310  0.47569432  0.23784649  1
  O2-  O229  1  0.61019704  0.46227168  0.73729118  1
  O2-  O230  1  0.63146930  0.98155793  0.23200409  1
  O2-  O231  1  0.61391656  0.98961925  0.72261211  1
  O2-  O232  1  0.38334048  0.02827984  0.26756302  1
  O2-  O233  1  0.38302572  0.02628725  0.77701266  1
  O2-  O234  1  0.38571549  0.52268043  0.27066895  1
  O2-  O235  1  0.38520019  0.51293897  0.78401331  1
  O2-  O236  1  0.86754365  0.01853732  0.26772359  1
  O2-  O237  1  0.88297633  0.03468559  0.77142236  1
  O2-  O238  1  0.87306313  0.50561664  0.25865779  1
  O2-  O239  1  0.88501327  0.50982193  0.77198327  1
  O2-  O240  1  0.48668812  0.38444356  0.26459603  1
  O2-  O241  1  0.47403249  0.36831851  0.76921345  1
  O2-  O242  1  0.48578066  0.88354425  0.27173129  1
  O2-  O243  1  0.48006504  0.88284388  0.77688742  1
  O2-  O244  1  0.97821637  0.37480130  0.26217671  1
  O2-  O245  1  0.97418685  0.37039869  0.76263119  1
  O2-  O246  1  0.97050671  0.88593255  0.26561966  1
  O2-  O247  1  0.97356087  0.88380692  0.77064696  1
  O2-  O248  1  0.01579758  0.13650146  0.23073142  1
  O2-  O249  1  0.01459395  0.13938437  0.72621263  1
  O2-  O250  1  0.00808854  0.61046265  0.22973974  1
  O2-  O251  1  0.02047049  0.61114135  0.73014581  1
  O2-  O252  1  0.52722824  0.11625537  0.22403175  1
  O2-  O253  1  0.51098892  0.13506323  0.73437379  1
  O2-  O254  1  0.52471943  0.61200295  0.22199865  1
  O2-  O255  1  0.52644754  0.61020145  0.73990074  1
  O2-  O256  1  0.12789877  0.47704964  0.01691268  1
  O2-  O257  1  0.11823663  0.47505429  0.50720536  1
  O2-  O258  1  0.13445231  0.98602941  0.02800539  1
  O2-  O259  1  0.13395662  0.98336872  0.51710086  1
  O2-  O260  1  0.62843995  0.47797747  0.02153618  1
  O2-  O261  1  0.63953391  0.47380688  0.51265198  1
  O2-  O262  1  0.63378324  0.98377184  0.02711627  1
  O2-  O263  1  0.63663579  0.96467221  0.51107556  1
  O2-  O264  1  0.36652926  0.02788135  -0.01964433  1
  O2-  O265  1  0.36898124  0.02173838  0.48185453  1
  O2-  O266  1  0.38031167  0.51626704  -0.01514286  1
  O2-  O267  1  0.36330423  0.51641234  0.47729136  1
  O2-  O268  1  0.86479076  0.02754176  -0.01208971  1
  O2-  O269  1  0.86079265  0.01512137  0.47212278  1
  O2-  O270  1  0.88555640  0.51474090  -0.01914664  1
  O2-  O271  1  0.88457786  0.51319435  0.47666425  1
  O2-  O272  1  0.47949217  0.37832677  -0.01657319  1
  O2-  O273  1  0.46930980  0.36447611  0.48883332  1
  O2-  O274  1  0.47686575  0.86467656  -0.02841859  1
  O2-  O275  1  0.48237758  0.85974173  0.47743703  1
  O2-  O276  1  0.99436784  0.37669428  -0.02530489  1
  O2-  O277  1  0.98678581  0.37258287  0.48017511  1
  O2-  O278  1  0.97166901  0.86819472  -0.01270778  1
  O2-  O279  1  0.97418790  0.86625982  0.47434124  1
  O2-  O280  1  0.03283774  0.14281464  0.01140494  1
  O2-  O281  1  0.02835019  0.13874822  0.51608710  1
  O2-  O282  1  0.02780999  0.61182891  0.01326102  1
  O2-  O283  1  0.01981121  0.61450018  0.51559363  1
  O2-  O284  1  0.51523664  0.14017975  0.01726026  1
  O2-  O285  1  0.51682979  0.13871554  0.53312698  1
  O2-  O286  1  0.52174671  0.61453932  0.01776916  1
  O2-  O287  1  0.53578024  0.63078434  0.52120541  1
  O2-  O288  1  0.13062499  0.27620502  -0.01233558  1
  O2-  O289  1  0.12692397  0.26925037  0.48661231  1
  O2-  O290  1  0.11617198  0.76960788  -0.02365614  1
  O2-  O291  1  0.11405358  0.76708038  0.47523659  1
  O2-  O292  1  0.61420636  0.27970717  -0.00824088  1
  O2-  O293  1  0.61583449  0.27875937  0.48630782  1
  O2-  O294  1  0.61814583  0.76132991  -0.02468622  1
  O2-  O295  1  0.63766353  0.76348885  0.47906615  1
  O2-  O296  1  0.37015451  0.23887520  0.00129730  1
  O2-  O297  1  0.36820764  0.23107674  0.51340697  1
  O2-  O298  1  0.38573709  0.72292632  0.02087772  1
  O2-  O299  1  0.38318401  0.71781534  0.52076372  1
  O2-  O300  1  0.88985378  0.23481034  0.00559506  1
  O2-  O301  1  0.88874350  0.22730776  0.51254702  1
  O2-  O302  1  0.88593502  0.71815963  0.02019800  1
  O2-  O303  1  0.87588159  0.72588696  0.51386980  1
  O2-  O304  1  0.26792796  0.37151571  0.01728504  1
  O2-  O305  1  0.26562077  0.36734930  0.51386845  1
  O2-  O306  1  0.27728500  0.88617705  0.02383977  1
  O2-  O307  1  0.27497838  0.88375640  0.52838042  1
  O2-  O308  1  0.78258980  0.38716267  0.02559738  1
  O2-  O309  1  0.78249771  0.38523206  0.51153629  1
  O2-  O310  1  0.77481809  0.88501363  0.02260308  1
  O2-  O311  1  0.77569658  0.86810450  0.51162115  1
  O2-  O312  1  0.23359203  0.13786605  -0.02452370  1
  O2-  O313  1  0.23382035  0.13376256  0.47533219  1
  O2-  O314  1  0.23116469  0.61239023  -0.02476554  1
  O2-  O315  1  0.22371898  0.61366442  0.47425597  1
  O2-  O316  1  0.72612664  0.11830957  -0.01677507  1
  O2-  O317  1  0.71801597  0.11602204  0.47163372  1
  O2-  O318  1  0.74000472  0.61143849  -0.01201127  1
  O2-  O319  1  0.74308850  0.61961502  0.47647718  1
