# generated using pymatgen
data_Sr64Ca21Nb43O192
_symmetry_space_group_name_H-M   'P 1'
_cell_length_a   16.55545610
_cell_length_b   16.54381508
_cell_length_c   16.72451426
_cell_angle_alpha   89.97975711
_cell_angle_beta   90.02679516
_cell_angle_gamma   89.92426987
_symmetry_Int_Tables_number   1
_chemical_formula_structural   Sr64Ca21Nb43O192
_chemical_formula_sum   'Sr64 Ca21 Nb43 O192'
_cell_volume   4580.67918228
_cell_formula_units_Z   1
loop_
 _symmetry_equiv_pos_site_id
 _symmetry_equiv_pos_as_xyz
  1  'x, y, z'
loop_
 _atom_type_symbol
 _atom_type_oxidation_number
  Sr2+  2.0
  Ca2+  2.0
  Nb5+  5.0
  O2-  -2.0
loop_
 _atom_site_type_symbol
 _atom_site_label
 _atom_site_symmetry_multiplicity
 _atom_site_fract_x
 _atom_site_fract_y
 _atom_site_fract_z
 _atom_site_occupancy
  Sr2+  Sr0  1  0.11917612  0.12061126  0.15471067  1
  Sr2+  Sr1  1  0.12629659  0.13506309  0.62257433  1
  Sr2+  Sr2  1  0.12543802  0.63001415  0.13281904  1
  Sr2+  Sr3  1  0.11913612  0.62938178  0.62861057  1
  Sr2+  Sr4  1  0.62354329  0.15342193  0.11923311  1
  Sr2+  Sr5  1  0.62467309  0.11578620  0.62950025  1
  Sr2+  Sr6  1  0.63162576  0.61367216  0.12457303  1
  Sr2+  Sr7  1  0.62073012  0.60243459  0.62493968  1
  Sr2+  Sr8  1  0.38207887  0.37563519  0.12887892  1
  Sr2+  Sr9  1  0.38581355  0.38324569  0.62297755  1
  Sr2+  Sr10  1  0.37598823  0.88895986  0.13472055  1
  Sr2+  Sr11  1  0.38110533  0.88065849  0.62175416  1
  Sr2+  Sr12  1  0.86660459  0.36498050  0.12493161  1
  Sr2+  Sr13  1  0.86657125  0.36260161  0.61329020  1
  Sr2+  Sr14  1  0.86821343  0.87567694  0.12523003  1
  Sr2+  Sr15  1  0.87406979  0.88646817  0.62564941  1
  Sr2+  Sr16  1  0.12696884  0.37648807  0.37555859  1
  Sr2+  Sr17  1  0.12545436  0.37835161  0.88342889  1
  Sr2+  Sr18  1  0.12764887  0.88169865  0.36152836  1
  Sr2+  Sr19  1  0.12056296  0.87421774  0.87234865  1
  Sr2+  Sr20  1  0.64062901  0.38243559  0.36743151  1
  Sr2+  Sr21  1  0.62505541  0.37080093  0.87291252  1
  Sr2+  Sr22  1  0.61964330  0.87095113  0.36656006  1
  Sr2+  Sr23  1  0.62967251  0.86941015  0.87796554  1
  Sr2+  Sr24  1  0.36425113  0.12843495  0.37250833  1
  Sr2+  Sr25  1  0.37312981  0.12265921  0.87680561  1
  Sr2+  Sr26  1  0.38021444  0.62028650  0.37806125  1
  Sr2+  Sr27  1  0.36652629  0.61925633  0.86983285  1
  Sr2+  Sr28  1  0.87934278  0.12058669  0.36471974  1
  Sr2+  Sr29  1  0.87452227  0.12173076  0.87629868  1
  Sr2+  Sr30  1  0.86516486  0.62125824  0.37455942  1
  Sr2+  Sr31  1  0.87882637  0.62245654  0.88078123  1
  Sr2+  Sr32  1  0.12304831  0.15326692  0.37799206  1
  Sr2+  Sr33  1  0.13440401  0.14098276  0.86380066  1
  Sr2+  Sr34  1  0.12458931  0.64075133  0.37757676  1
  Sr2+  Sr35  1  0.12088136  0.60688519  0.87704667  1
  Sr2+  Sr36  1  0.63417443  0.12810865  0.35949701  1
  Sr2+  Sr37  1  0.62509391  0.12278117  0.88229459  1
  Sr2+  Sr38  1  0.62407258  0.62236428  0.34966878  1
  Sr2+  Sr39  1  0.62827636  0.62211225  0.87582149  1
  Sr2+  Sr40  1  0.36673659  0.37171978  0.36943940  1
  Sr2+  Sr41  1  0.35929992  0.37008428  0.87698975  1
  Sr2+  Sr42  1  0.36724548  0.85850753  0.37421068  1
  Sr2+  Sr43  1  0.37020592  0.87248946  0.87770579  1
  Sr2+  Sr44  1  0.88400674  0.37942649  0.37716929  1
  Sr2+  Sr45  1  0.88713150  0.37107224  0.88358981  1
  Sr2+  Sr46  1  0.87787916  0.86159148  0.36816818  1
  Sr2+  Sr47  1  0.87697290  0.86387739  0.87695220  1
  Sr2+  Sr48  1  0.13676661  0.38033753  0.12390034  1
  Sr2+  Sr49  1  0.12385454  0.38112188  0.61988043  1
  Sr2+  Sr50  1  0.10658318  0.88428467  0.12841026  1
  Sr2+  Sr51  1  0.12391261  0.88291527  0.62284433  1
  Sr2+  Sr52  1  0.62434568  0.38009093  0.13358189  1
  Sr2+  Sr53  1  0.62500817  0.37045668  0.62865465  1
  Sr2+  Sr54  1  0.62245707  0.87617578  0.12584435  1
  Sr2+  Sr55  1  0.62815634  0.88125098  0.62204386  1
  Sr2+  Sr56  1  0.38628460  0.12531147  0.12198366  1
  Sr2+  Sr57  1  0.37978361  0.12699739  0.62566137  1
  Sr2+  Sr58  1  0.39516712  0.62055021  0.13120545  1
  Sr2+  Sr59  1  0.38407727  0.62800232  0.62516685  1
  Sr2+  Sr60  1  0.88227809  0.12405497  0.12312633  1
  Sr2+  Sr61  1  0.86074749  0.11594612  0.62391226  1
  Sr2+  Sr62  1  0.86522839  0.62449047  0.13073612  1
  Sr2+  Sr63  1  0.86734291  0.62309489  0.61889594  1
  Ca2+  Ca64  1  -0.00170636  -0.00076473  0.49638056  1
  Ca2+  Ca65  1  0.49869436  0.49599393  0.49859965  1
  Ca2+  Ca66  1  0.50006985  0.50093007  -0.00255931  1
  Ca2+  Ca67  1  0.00079299  0.00066126  -0.00366774  1
  Ca2+  Ca68  1  0.49879335  0.00154501  0.49975093  1
  Ca2+  Ca69  1  0.74553177  0.24598382  0.49711579  1
  Ca2+  Ca70  1  0.75163571  0.24976215  -0.00102942  1
  Ca2+  Ca71  1  0.25377234  0.75263901  -0.00128730  1
  Ca2+  Ca72  1  0.24934250  0.24519292  0.00167806  1
  Ca2+  Ca73  1  0.75197091  0.75160916  0.50452245  1
  Ca2+  Ca74  1  0.49673787  0.75261486  0.24734884  1
  Ca2+  Ca75  1  0.74588063  0.00187498  0.24069031  1
  Ca2+  Ca76  1  0.75742267  0.49873045  0.25049225  1
  Ca2+  Ca77  1  -0.00225117  0.25569512  0.75035574  1
  Ca2+  Ca78  1  0.24698940  0.50077546  0.25281739  1
  Ca2+  Ca79  1  0.25200767  0.00121604  0.25265192  1
  Ca2+  Ca80  1  0.75728998  0.49716387  0.75231566  1
  Ca2+  Ca81  1  0.00155792  0.74696666  0.24827622  1
  Ca2+  Ca82  1  0.24653602  0.50056131  0.74856381  1
  Ca2+  Ca83  1  0.50152012  0.24883885  0.25229698  1
  Ca2+  Ca84  1  -0.00195534  0.25625674  0.24887215  1
  Nb5+  Nb85  1  -0.00261892  0.50161789  0.00961673  1
  Nb5+  Nb86  1  0.50140475  -0.00027892  -0.00119206  1
  Nb5+  Nb87  1  0.00108303  0.50185703  0.50422815  1
  Nb5+  Nb88  1  0.24879562  0.75390444  0.50559984  1
  Nb5+  Nb89  1  0.25363537  0.25709543  0.50363931  1
  Nb5+  Nb90  1  0.74939990  0.75089027  -0.00030065  1
  Nb5+  Nb91  1  0.50002507  0.24309872  0.75105384  1
  Nb5+  Nb92  1  0.50001880  0.74686662  0.75027773  1
  Nb5+  Nb93  1  0.25317973  -0.00237698  0.74585070  1
  Nb5+  Nb94  1  0.75246851  -0.00065666  0.75290654  1
  Nb5+  Nb95  1  -0.00666674  0.74607123  0.74943294  1
  Nb5+  Nb96  1  -0.00507431  -0.00120004  0.25113060  1
  Nb5+  Nb97  1  0.00484716  0.00234475  0.75188199  1
  Nb5+  Nb98  1  0.00279749  0.50079193  0.25713731  1
  Nb5+  Nb99  1  -0.00812645  0.49706946  0.75242372  1
  Nb5+  Nb100  1  0.49825576  0.00488557  0.25709374  1
  Nb5+  Nb101  1  0.50353179  -0.00673646  0.75301674  1
  Nb5+  Nb102  1  0.49929641  0.49829072  0.25150487  1
  Nb5+  Nb103  1  0.49826076  0.49089723  0.75574893  1
  Nb5+  Nb104  1  0.25179537  0.24565253  0.24378601  1
  Nb5+  Nb105  1  0.25307271  0.25439420  0.74535669  1
  Nb5+  Nb106  1  0.25536916  0.74622816  0.24027190  1
  Nb5+  Nb107  1  0.24247043  0.75149743  0.74925385  1
  Nb5+  Nb108  1  0.75213483  0.24951378  0.25083609  1
  Nb5+  Nb109  1  0.75347208  0.24788513  0.75518014  1
  Nb5+  Nb110  1  0.74853859  0.75219768  0.25472428  1
  Nb5+  Nb111  1  0.74396236  0.74910604  0.74810612  1
  Nb5+  Nb112  1  -0.00316213  0.24818694  0.50533892  1
  Nb5+  Nb113  1  0.00761714  0.24226386  0.99864203  1
  Nb5+  Nb114  1  0.00114508  0.75072379  0.50300612  1
  Nb5+  Nb115  1  0.00182283  0.74804087  1.00287040  1
  Nb5+  Nb116  1  0.50104223  0.24847545  0.49482204  1
  Nb5+  Nb117  1  0.49730792  0.25634103  0.99458450  1
  Nb5+  Nb118  1  0.50676283  0.75076153  0.50027813  1
  Nb5+  Nb119  1  0.50014124  0.75229485  0.99705637  1
  Nb5+  Nb120  1  0.24637632  -0.00070590  0.00181595  1
  Nb5+  Nb121  1  0.24780518  0.00468226  0.50010092  1
  Nb5+  Nb122  1  0.25429533  0.50584501  0.00348637  1
  Nb5+  Nb123  1  0.24688715  0.50825450  0.50244974  1
  Nb5+  Nb124  1  0.74833979  0.00169241  -0.00037202  1
  Nb5+  Nb125  1  0.74866912  0.00044255  0.48784757  1
  Nb5+  Nb126  1  0.75152316  0.49556272  -0.00382972  1
  Nb5+  Nb127  1  0.74718348  0.49763889  0.50259055  1
  O2-  O128  1  0.00536194  0.02358367  0.12937042  1
  O2-  O129  1  -0.00684186  0.00758703  0.63593114  1
  O2-  O130  1  0.00684572  0.52291057  0.12141751  1
  O2-  O131  1  0.00582912  0.51080720  0.62285620  1
  O2-  O132  1  0.50516811  -0.02574712  0.10998282  1
  O2-  O133  1  0.51300634  -0.01325299  0.63748858  1
  O2-  O134  1  0.49515831  0.47750518  0.13088785  1
  O2-  O135  1  0.50437143  0.48416248  0.63674404  1
  O2-  O136  1  -0.01402069  -0.03434869  0.36534557  1
  O2-  O137  1  -0.01277817  -0.03180821  0.86203125  1
  O2-  O138  1  -0.00005293  0.48978219  0.37531308  1
  O2-  O139  1  -0.01045815  0.49120110  0.87165542  1
  O2-  O140  1  0.49233682  0.03517264  0.36697899  1
  O2-  O141  1  0.49308803  0.02420071  0.86736476  1
  O2-  O142  1  0.50648214  0.52686952  0.36864711  1
  O2-  O143  1  0.49955518  0.53234008  0.86532932  1
  O2-  O144  1  0.24675846  0.21714350  0.13370270  1
  O2-  O145  1  0.25307239  0.22443376  0.62431062  1
  O2-  O146  1  0.28369330  0.72682421  0.13192365  1
  O2-  O147  1  0.26462841  0.72452890  0.63098239  1
  O2-  O148  1  0.73636165  0.27952075  0.13166491  1
  O2-  O149  1  0.73580603  0.26433311  0.63860706  1
  O2-  O150  1  0.76274617  0.76206298  0.11554673  1
  O2-  O151  1  0.77754940  0.77011039  0.63992945  1
  O2-  O152  1  0.25413773  0.26764608  0.38618378  1
  O2-  O153  1  0.24873201  0.26351648  0.86244784  1
  O2-  O154  1  0.22766639  0.76646905  0.39229030  1
  O2-  O155  1  0.24422040  0.78342816  0.86054485  1
  O2-  O156  1  0.76244161  0.21643632  0.36670010  1
  O2-  O157  1  0.74877073  0.21285511  0.86727109  1
  O2-  O158  1  0.73241280  0.74274914  0.36879183  1
  O2-  O159  1  0.73799786  0.74083232  0.87074505  1
  O2-  O160  1  0.01020985  0.22423922  0.11494397  1
  O2-  O161  1  0.02016357  0.26156478  0.61854039  1
  O2-  O162  1  -0.01501864  0.72043228  0.11226985  1
  O2-  O163  1  -0.01499780  0.72411111  0.63044511  1
  O2-  O164  1  0.50516774  0.26984995  0.11128934  1
  O2-  O165  1  0.49706606  0.27623301  0.63774849  1
  O2-  O166  1  0.47947461  0.77663596  0.10762507  1
  O2-  O167  1  0.49153871  0.77414602  0.63511005  1
  O2-  O168  1  0.27552892  -0.01660518  0.39054784  1
  O2-  O169  1  0.25320980  -0.02503718  0.86015252  1
  O2-  O170  1  0.25204584  0.47201729  0.39035003  1
  O2-  O171  1  0.25038298  0.47866169  0.88446412  1
  O2-  O172  1  0.74667372  0.01764274  0.37622059  1
  O2-  O173  1  0.75079300  0.01696690  0.87170929  1
  O2-  O174  1  0.74396672  0.52585574  0.38657896  1
  O2-  O175  1  0.75618151  0.52885916  0.88395394  1
  O2-  O176  1  -0.00197808  0.27085605  0.38882742  1
  O2-  O177  1  0.00532564  0.28039905  0.88189798  1
  O2-  O178  1  0.02671502  0.76534377  0.38996865  1
  O2-  O179  1  0.01012659  0.76121818  0.86989712  1
  O2-  O180  1  0.49830166  0.21713647  0.38660210  1
  O2-  O181  1  0.49535636  0.22746543  0.87046679  1
  O2-  O182  1  0.51647081  0.73175697  0.38741525  1
  O2-  O183  1  0.53024878  0.74347764  0.86604635  1
  O2-  O184  1  0.24395405  0.02579660  0.11185714  1
  O2-  O185  1  0.22276079  0.01263277  0.62919318  1
  O2-  O186  1  0.22571654  0.51544219  0.11664406  1
  O2-  O187  1  0.22189278  0.51097183  0.61656574  1
  O2-  O188  1  0.74320213  -0.03267894  0.10839996  1
  O2-  O189  1  0.74626281  -0.01457449  0.63378905  1
  O2-  O190  1  0.75589768  0.49626235  0.11436725  1
  O2-  O191  1  0.76718677  0.47407679  0.61972480  1
  O2-  O192  1  0.13432106  0.26641241  0.25878124  1
  O2-  O193  1  0.13674340  0.25576599  0.74283923  1
  O2-  O194  1  0.13727252  0.76976808  0.22441005  1
  O2-  O195  1  0.12825506  0.76593356  0.73272852  1
  O2-  O196  1  0.63222910  0.27438125  0.26591066  1
  O2-  O197  1  0.61747607  0.26256938  0.75997636  1
  O2-  O198  1  0.63174395  0.77609925  0.23731376  1
  O2-  O199  1  0.62954693  0.77711492  0.73691333  1
  O2-  O200  1  0.36848814  0.22535596  0.25708965  1
  O2-  O201  1  0.37640623  0.22959968  0.75235001  1
  O2-  O202  1  0.36607763  0.73112949  0.28452182  1
  O2-  O203  1  0.38320956  0.74082943  0.76410541  1
  O2-  O204  1  0.86724878  0.22829902  0.22920936  1
  O2-  O205  1  0.86536131  0.22207527  0.74129184  1
  O2-  O206  1  0.86794992  0.72848806  0.26446888  1
  O2-  O207  1  0.87799886  0.73685963  0.76955410  1
  O2-  O208  1  0.27380821  0.36302862  0.23294637  1
  O2-  O209  1  0.27512809  0.36520377  0.72736325  1
  O2-  O210  1  0.27222793  0.86461382  0.24916567  1
  O2-  O211  1  0.26193283  0.87590413  0.72001204  1
  O2-  O212  1  0.77209521  0.36687529  0.27948986  1
  O2-  O213  1  0.76056730  0.36004563  0.78558152  1
  O2-  O214  1  0.77731238  0.86713734  0.25361379  1
  O2-  O215  1  0.76287131  0.87940774  0.76951724  1
  O2-  O216  1  0.23254530  0.13228977  0.28359567  1
  O2-  O217  1  0.24307103  0.11737575  0.75896884  1
  O2-  O218  1  0.22706821  0.63532147  0.27193217  1
  O2-  O219  1  0.23833451  0.63779864  0.77484893  1
  O2-  O220  1  0.71962902  0.13504246  0.22698745  1
  O2-  O221  1  0.73039981  0.11759105  0.73537547  1
  O2-  O222  1  0.73052319  0.63554300  0.23148319  1
  O2-  O223  1  0.72545776  0.63686724  0.73411704  1
  O2-  O224  1  0.11482653  0.46091383  0.25007858  1
  O2-  O225  1  0.10916983  0.47336173  0.75483390  1
  O2-  O226  1  0.11754976  0.98042000  0.24647627  1
  O2-  O227  1  0.12185226  0.98076259  0.75508947  1
  O2-  O228  1  0.62052220  0.48035392  0.24861455  1
  O2-  O229  1  0.61847769  0.48282219  0.75397266  1
  O2-  O230  1  0.61256184  0.97174936  0.25288425  1
  O2-  O231  1  0.62296063  0.98663498  0.76078711  1
  O2-  O232  1  0.38399957  0.01758644  0.22364823  1
  O2-  O233  1  0.37349506  0.00733870  0.73812209  1
  O2-  O234  1  0.38142981  0.52552719  0.25051325  1
  O2-  O235  1  0.38301594  0.52229458  0.74326227  1
  O2-  O236  1  0.87952484  0.02709262  0.24049377  1
  O2-  O237  1  0.87121007  0.01476464  0.74892355  1
  O2-  O238  1  0.88792060  0.53718299  0.25225272  1
  O2-  O239  1  0.88683594  0.54919127  0.74645302  1
  O2-  O240  1  0.47805171  0.38280254  0.27149083  1
  O2-  O241  1  0.48045151  0.37556959  0.77615270  1
  O2-  O242  1  0.47439226  0.88599825  0.27109578  1
  O2-  O243  1  0.48705099  0.87954742  0.76968725  1
  O2-  O244  1  0.96501557  0.38949682  0.23246816  1
  O2-  O245  1  0.95188823  0.39001176  0.73760069  1
  O2-  O246  1  0.98103361  0.88039636  0.22154592  1
  O2-  O247  1  0.99131166  0.86396102  0.73010239  1
  O2-  O248  1  0.01730127  0.11614536  0.27949657  1
  O2-  O249  1  0.01590041  0.11540611  0.76926472  1
  O2-  O250  1  0.03945328  0.61447803  0.25746985  1
  O2-  O251  1  0.03010150  0.63035851  0.75846133  1
  O2-  O252  1  0.51995207  0.11462308  0.21567293  1
  O2-  O253  1  0.50970706  0.12681854  0.73351348  1
  O2-  O254  1  0.52145383  0.61933899  0.22455434  1
  O2-  O255  1  0.51787231  0.63419187  0.73242669  1
  O2-  O256  1  0.11440790  0.48587646  -0.00969499  1
  O2-  O257  1  0.12058351  0.47595621  0.49367507  1
  O2-  O258  1  0.13560160  0.96770305  -0.00812464  1
  O2-  O259  1  0.13549597  0.96833680  0.49098185  1
  O2-  O260  1  0.63563517  0.47724427  -0.00369468  1
  O2-  O261  1  0.63367172  0.47667996  0.51269621  1
  O2-  O262  1  0.62374624  0.98526018  -0.02190317  1
  O2-  O263  1  0.63326991  0.96289759  0.49357754  1
  O2-  O264  1  0.38337455  0.01884928  -0.00330132  1
  O2-  O265  1  0.36120214  0.00799973  0.53503441  1
  O2-  O266  1  0.36666197  0.53276626  0.00792047  1
  O2-  O267  1  0.36197707  0.51798627  0.51573215  1
  O2-  O268  1  0.86383962  0.02087804  -0.00405975  1
  O2-  O269  1  0.86432077  0.03688235  0.50086779  1
  O2-  O270  1  0.87798184  0.52695894  0.00243822  1
  O2-  O271  1  0.88402660  0.52123573  0.49443890  1
  O2-  O272  1  0.47687655  0.36709184  -0.03055916  1
  O2-  O273  1  0.45809920  0.36002919  0.49131998  1
  O2-  O274  1  0.49399301  0.87969929  -0.03200593  1
  O2-  O275  1  0.46813194  0.86294608  0.49088957  1
  O2-  O276  1  0.97534409  0.38646183  0.01728517  1
  O2-  O277  1  0.98263509  0.38203211  0.51061443  1
  O2-  O278  1  0.97410370  0.86166604  0.01197787  1
  O2-  O279  1  0.98872408  0.86156284  0.52947028  1
  O2-  O280  1  0.02434801  0.13361561  -0.03482065  1
  O2-  O281  1  0.02643065  0.13608318  0.49707072  1
  O2-  O282  1  0.00911988  0.62566820  -0.02464478  1
  O2-  O283  1  0.02604103  0.62093420  0.49539621  1
  O2-  O284  1  0.52051054  0.11873709  0.00912912  1
  O2-  O285  1  0.50760871  0.13940495  0.53951678  1
  O2-  O286  1  0.52507352  0.64010415  0.01528706  1
  O2-  O287  1  0.50455075  0.63650172  0.53221402  1
  O2-  O288  1  0.11880308  0.28491368  0.00232439  1
  O2-  O289  1  0.13326773  0.26542472  0.50049134  1
  O2-  O290  1  0.11509395  0.76875693  0.01215242  1
  O2-  O291  1  0.12768597  0.75236733  0.53379584  1
  O2-  O292  1  0.61572691  0.26163044  -0.01737931  1
  O2-  O293  1  0.61130310  0.28293074  0.49672422  1
  O2-  O294  1  0.62791061  0.77520004  0.00424407  1
  O2-  O295  1  0.61727686  0.77352879  0.51741038  1
  O2-  O296  1  0.38440434  0.22178633  -0.00273088  1
  O2-  O297  1  0.36715144  0.22077810  0.50118814  1
  O2-  O298  1  0.39092342  0.73700291  -0.03730199  1
  O2-  O299  1  0.36467665  0.72795344  0.49458578  1
  O2-  O300  1  0.88727132  0.23476125  -0.00026981  1
  O2-  O301  1  0.88345928  0.23392670  0.52253851  1
  O2-  O302  1  0.86820721  0.73580173  -0.01741791  1
  O2-  O303  1  0.88972012  0.72609931  0.48376299  1
  O2-  O304  1  0.27346006  0.38447273  0.02031259  1
  O2-  O305  1  0.26551812  0.36953077  0.52845365  1
  O2-  O306  1  0.28689737  0.88796542  0.01012547  1
  O2-  O307  1  0.26246716  0.86680208  0.52691876  1
  O2-  O308  1  0.77813499  0.38482351  -0.01808549  1
  O2-  O309  1  0.77655879  0.38292354  0.47920573  1
  O2-  O310  1  0.76242085  0.87229929  -0.02485153  1
  O2-  O311  1  0.78907393  0.88669426  0.49199653  1
  O2-  O312  1  0.24279049  0.10954059  -0.04048224  1
  O2-  O313  1  0.22911342  0.12017424  0.49016801  1
  O2-  O314  1  0.22687310  0.61946802  -0.02199974  1
  O2-  O315  1  0.22977265  0.62196341  0.48592378  1
  O2-  O316  1  0.72706325  0.11367821  0.01811151  1
  O2-  O317  1  0.71480278  0.11278046  0.51663232  1
  O2-  O318  1  0.72895048  0.63348174  0.00763492  1
  O2-  O319  1  0.74196043  0.61521748  0.53171765  1
