# generated using pymatgen
data_Sr64Ca21Nb43O192
_symmetry_space_group_name_H-M   'P 1'
_cell_length_a   16.53382778
_cell_length_b   16.53741718
_cell_length_c   16.69359288
_cell_angle_alpha   90.02982491
_cell_angle_beta   89.98672001
_cell_angle_gamma   90.04566714
_symmetry_Int_Tables_number   1
_chemical_formula_structural   Sr64Ca21Nb43O192
_chemical_formula_sum   'Sr64 Ca21 Nb43 O192'
_cell_volume   4564.47361663
_cell_formula_units_Z   1
loop_
 _symmetry_equiv_pos_site_id
 _symmetry_equiv_pos_as_xyz
  1  'x, y, z'
loop_
 _atom_type_symbol
 _atom_type_oxidation_number
  Sr2+  2.0
  Ca2+  2.0
  Nb5+  5.0
  O2-  -2.0
loop_
 _atom_site_type_symbol
 _atom_site_label
 _atom_site_symmetry_multiplicity
 _atom_site_fract_x
 _atom_site_fract_y
 _atom_site_fract_z
 _atom_site_occupancy
  Sr2+  Sr0  1  0.12425861  0.12379453  0.11852931  1
  Sr2+  Sr1  1  0.11583460  0.14212729  0.62783969  1
  Sr2+  Sr2  1  0.12328804  0.62503840  0.13247960  1
  Sr2+  Sr3  1  0.12489647  0.61026666  0.61828046  1
  Sr2+  Sr4  1  0.63065304  0.12687141  0.13796900  1
  Sr2+  Sr5  1  0.63472568  0.12507718  0.62437378  1
  Sr2+  Sr6  1  0.62186604  0.62505826  0.11153389  1
  Sr2+  Sr7  1  0.62092255  0.62891497  0.62884251  1
  Sr2+  Sr8  1  0.37600575  0.37591879  0.12358774  1
  Sr2+  Sr9  1  0.37859155  0.36767544  0.61779169  1
  Sr2+  Sr10  1  0.37385368  0.89263559  0.13257470  1
  Sr2+  Sr11  1  0.37159395  0.86901128  0.62445947  1
  Sr2+  Sr12  1  0.88143055  0.35351170  0.12436370  1
  Sr2+  Sr13  1  0.89137126  0.38581324  0.62960571  1
  Sr2+  Sr14  1  0.88608353  0.86411538  0.12384232  1
  Sr2+  Sr15  1  0.87947903  0.87551602  0.62602325  1
  Sr2+  Sr16  1  0.12873907  0.38370515  0.36975418  1
  Sr2+  Sr17  1  0.13451062  0.36561589  0.87302718  1
  Sr2+  Sr18  1  0.12071268  0.87932934  0.37597909  1
  Sr2+  Sr19  1  0.13035711  0.88997555  0.87847091  1
  Sr2+  Sr20  1  0.63084429  0.37224636  0.37553972  1
  Sr2+  Sr21  1  0.63888060  0.38074905  0.87708155  1
  Sr2+  Sr22  1  0.60583868  0.87568306  0.37515380  1
  Sr2+  Sr23  1  0.62882519  0.87428741  0.86887715  1
  Sr2+  Sr24  1  0.38962714  0.12922199  0.37264756  1
  Sr2+  Sr25  1  0.37117229  0.13474703  0.87824991  1
  Sr2+  Sr26  1  0.36591010  0.62218718  0.36958194  1
  Sr2+  Sr27  1  0.38176897  0.62365367  0.87711396  1
  Sr2+  Sr28  1  0.86114190  0.11839569  0.37092350  1
  Sr2+  Sr29  1  0.86790893  0.12630776  0.87692296  1
  Sr2+  Sr30  1  0.86176415  0.63026327  0.37764784  1
  Sr2+  Sr31  1  0.86469434  0.61906562  0.86757707  1
  Sr2+  Sr32  1  0.12233225  0.11577528  0.37949104  1
  Sr2+  Sr33  1  0.12549232  0.12923792  0.87504272  1
  Sr2+  Sr34  1  0.12520995  0.62288932  0.37325991  1
  Sr2+  Sr35  1  0.13551349  0.61853375  0.87121116  1
  Sr2+  Sr36  1  0.61484324  0.13215993  0.37659772  1
  Sr2+  Sr37  1  0.63253958  0.12080823  0.87180928  1
  Sr2+  Sr38  1  0.61822278  0.61966354  0.38228085  1
  Sr2+  Sr39  1  0.61403470  0.63039218  0.87470609  1
  Sr2+  Sr40  1  0.37570643  0.36161082  0.37056452  1
  Sr2+  Sr41  1  0.37599665  0.37912681  0.88153021  1
  Sr2+  Sr42  1  0.37308649  0.89030103  0.37467860  1
  Sr2+  Sr43  1  0.38569654  0.87953017  0.86924616  1
  Sr2+  Sr44  1  0.86839319  0.37434323  0.36269351  1
  Sr2+  Sr45  1  0.87581393  0.37378553  0.87504953  1
  Sr2+  Sr46  1  0.87624644  0.87319643  0.37089353  1
  Sr2+  Sr47  1  0.87329832  0.88269314  0.87859188  1
  Sr2+  Sr48  1  0.12979026  0.37720064  0.12266245  1
  Sr2+  Sr49  1  0.13032691  0.37827029  0.63447487  1
  Sr2+  Sr50  1  0.12404164  0.87608098  0.12069371  1
  Sr2+  Sr51  1  0.12894137  0.87455758  0.62292086  1
  Sr2+  Sr52  1  0.64904731  0.38161517  0.12628461  1
  Sr2+  Sr53  1  0.62163785  0.38069313  0.61637377  1
  Sr2+  Sr54  1  0.60993009  0.87835705  0.13273356  1
  Sr2+  Sr55  1  0.62243043  0.86926637  0.62913414  1
  Sr2+  Sr56  1  0.38149627  0.12903131  0.12856726  1
  Sr2+  Sr57  1  0.39701180  0.12747169  0.61780701  1
  Sr2+  Sr58  1  0.38780355  0.61769408  0.12204738  1
  Sr2+  Sr59  1  0.35375919  0.62390293  0.62679159  1
  Sr2+  Sr60  1  0.87107905  0.12167089  0.12694750  1
  Sr2+  Sr61  1  0.87709629  0.12450987  0.62609711  1
  Sr2+  Sr62  1  0.87624213  0.62511898  0.13301999  1
  Sr2+  Sr63  1  0.85363576  0.62611114  0.61774719  1
  Ca2+  Ca64  1  0.00300694  0.50054056  -0.00172506  1
  Ca2+  Ca65  1  0.50403438  0.00269588  -0.00300559  1
  Ca2+  Ca66  1  0.50276639  -0.00139563  0.50306773  1
  Ca2+  Ca67  1  0.49557248  0.50332774  0.49800731  1
  Ca2+  Ca68  1  -0.00126713  0.49974247  0.49816177  1
  Ca2+  Ca69  1  0.24747832  0.24737696  0.50273883  1
  Ca2+  Ca70  1  0.75001174  0.24711579  0.00077096  1
  Ca2+  Ca71  1  0.25035276  0.75177400  0.00022085  1
  Ca2+  Ca72  1  0.75505463  0.24983149  0.50194854  1
  Ca2+  Ca73  1  0.75231199  0.75004835  0.00040064  1
  Ca2+  Ca74  1  0.50189333  0.25404523  0.75349913  1
  Ca2+  Ca75  1  0.74808712  0.49970495  0.74783458  1
  Ca2+  Ca76  1  -0.00069906  0.75223087  0.74956639  1
  Ca2+  Ca77  1  0.25351822  0.49811055  0.75254110  1
  Ca2+  Ca78  1  0.75063216  0.50341138  0.25080414  1
  Ca2+  Ca79  1  0.24530633  0.00232671  0.25131458  1
  Ca2+  Ca80  1  0.00589616  0.24747720  0.25224167  1
  Ca2+  Ca81  1  0.74922247  -0.00600772  0.25286970  1
  Ca2+  Ca82  1  0.25196089  0.00332395  0.74740032  1
  Ca2+  Ca83  1  0.50021035  0.25628021  0.24512883  1
  Ca2+  Ca84  1  0.49516893  0.74687861  0.24820320  1
  Nb5+  Nb85  1  -0.00066847  0.00077412  -0.00326901  1
  Nb5+  Nb86  1  0.50263379  0.49461702  -0.00025909  1
  Nb5+  Nb87  1  -0.00048632  0.00007820  0.49870077  1
  Nb5+  Nb88  1  0.24329942  0.75209539  0.49742250  1
  Nb5+  Nb89  1  0.25106235  0.24829070  0.00188312  1
  Nb5+  Nb90  1  0.74096658  0.75567866  0.49708004  1
  Nb5+  Nb91  1  0.75106295  -0.00080916  0.74854629  1
  Nb5+  Nb92  1  0.49563045  0.74923413  0.74655321  1
  Nb5+  Nb93  1  0.00274452  0.74956354  0.25250408  1
  Nb5+  Nb94  1  -0.00461053  0.25151389  0.75127622  1
  Nb5+  Nb95  1  0.25168820  0.49945497  0.24799003  1
  Nb5+  Nb96  1  0.00199615  0.00080904  0.24531613  1
  Nb5+  Nb97  1  0.00117610  -0.00167642  0.74752451  1
  Nb5+  Nb98  1  -0.00260070  0.49951792  0.25050782  1
  Nb5+  Nb99  1  0.00239279  0.50856409  0.75185870  1
  Nb5+  Nb100  1  0.49907737  0.00265128  0.25032212  1
  Nb5+  Nb101  1  0.50172204  0.00486055  0.75144694  1
  Nb5+  Nb102  1  0.50307207  0.49943667  0.25037065  1
  Nb5+  Nb103  1  0.49542124  0.49612961  0.74743043  1
  Nb5+  Nb104  1  0.24210813  0.24762428  0.25309445  1
  Nb5+  Nb105  1  0.25519119  0.24660765  0.74809321  1
  Nb5+  Nb106  1  0.25004015  0.75067958  0.24804744  1
  Nb5+  Nb107  1  0.24543994  0.75228189  0.75307803  1
  Nb5+  Nb108  1  0.75101946  0.24850127  0.25126134  1
  Nb5+  Nb109  1  0.75144605  0.25565411  0.74638103  1
  Nb5+  Nb110  1  0.74351969  0.75096049  0.24893010  1
  Nb5+  Nb111  1  0.75110140  0.75010464  0.75149131  1
  Nb5+  Nb112  1  -0.00189108  0.25217504  0.49534789  1
  Nb5+  Nb113  1  0.00057621  0.24847501  0.99975639  1
  Nb5+  Nb114  1  -0.00507886  0.75030115  0.50169814  1
  Nb5+  Nb115  1  0.00268575  0.74610460  0.99340113  1
  Nb5+  Nb116  1  0.50131449  0.25284476  0.50069852  1
  Nb5+  Nb117  1  0.50725626  0.25053218  0.99831708  1
  Nb5+  Nb118  1  0.48919554  0.74468470  0.49861936  1
  Nb5+  Nb119  1  0.49594297  0.75505780  1.00059130  1
  Nb5+  Nb120  1  0.25520265  0.00270796  -0.00263360  1
  Nb5+  Nb121  1  0.24963021  0.00374069  0.50312396  1
  Nb5+  Nb122  1  0.24860210  0.50475725  0.00017762  1
  Nb5+  Nb123  1  0.25416310  0.49394728  0.49935642  1
  Nb5+  Nb124  1  0.74705543  -0.00449564  0.00603222  1
  Nb5+  Nb125  1  0.74844930  -0.00420266  0.49957715  1
  Nb5+  Nb126  1  0.75993189  0.50486979  0.00125310  1
  Nb5+  Nb127  1  0.75067344  0.49277882  0.50175983  1
  O2-  O128  1  -0.00420272  -0.00465917  0.12482680  1
  O2-  O129  1  -0.00624331  -0.00616823  0.62779904  1
  O2-  O130  1  0.01238328  0.50987895  0.13394894  1
  O2-  O131  1  0.01648162  0.48070479  0.63444003  1
  O2-  O132  1  0.49760797  -0.00246792  0.12973532  1
  O2-  O133  1  0.49157321  -0.00682153  0.63557915  1
  O2-  O134  1  0.49877016  0.49219154  0.11943816  1
  O2-  O135  1  0.50994049  0.49348053  0.63347085  1
  O2-  O136  1  0.00284097  0.00542380  0.37821827  1
  O2-  O137  1  0.00398410  0.00657842  0.87621829  1
  O2-  O138  1  0.02015232  0.50486727  0.36530645  1
  O2-  O139  1  -0.02702073  0.50605747  0.86559810  1
  O2-  O140  1  0.49822413  0.00419860  0.37024043  1
  O2-  O141  1  0.51827211  -0.02061195  0.86547734  1
  O2-  O142  1  0.49127722  0.52133944  0.36251723  1
  O2-  O143  1  0.48815835  0.50221425  0.87999242  1
  O2-  O144  1  0.24106780  0.25656227  0.12127598  1
  O2-  O145  1  0.25345583  0.27449572  0.63648133  1
  O2-  O146  1  0.22606172  0.75852827  0.13586866  1
  O2-  O147  1  0.24737302  0.76505477  0.61903963  1
  O2-  O148  1  0.75228866  0.21973523  0.13230237  1
  O2-  O149  1  0.75495423  0.21909080  0.63492181  1
  O2-  O150  1  0.74077891  0.72234617  0.13689480  1
  O2-  O151  1  0.73430131  0.73949468  0.62027883  1
  O2-  O152  1  0.24297812  0.25418308  0.36816068  1
  O2-  O153  1  0.24777135  0.23396315  0.87937876  1
  O2-  O154  1  0.25889012  0.73730703  0.37898333  1
  O2-  O155  1  0.25765825  0.72404710  0.86429867  1
  O2-  O156  1  0.75321804  0.27610378  0.36885248  1
  O2-  O157  1  0.75077508  0.25281933  0.86504821  1
  O2-  O158  1  0.76099743  0.77397141  0.38127218  1
  O2-  O159  1  0.76723903  0.77179739  0.86343629  1
  O2-  O160  1  0.01030458  0.25046710  0.11559460  1
  O2-  O161  1  -0.01616940  0.25028946  0.63200347  1
  O2-  O162  1  0.02135387  0.75859255  0.13501992  1
  O2-  O163  1  0.01021810  0.77272620  0.61411511  1
  O2-  O164  1  0.48419167  0.24706906  0.11181991  1
  O2-  O165  1  0.49189163  0.26064400  0.62048224  1
  O2-  O166  1  0.51910129  0.75332019  0.11312215  1
  O2-  O167  1  0.50970228  0.75535251  0.62479651  1
  O2-  O168  1  0.23133776  -0.00364304  0.38639082  1
  O2-  O169  1  0.22918816  0.01435161  0.88246441  1
  O2-  O170  1  0.25069172  0.50547295  0.37076853  1
  O2-  O171  1  0.26138727  0.51946972  0.88561953  1
  O2-  O172  1  0.76753436  -0.01988957  0.38754622  1
  O2-  O173  1  0.74870627  -0.01741280  0.86808620  1
  O2-  O174  1  0.75812805  0.47611235  0.38359881  1
  O2-  O175  1  0.76175220  0.47352553  0.88399254  1
  O2-  O176  1  0.02735344  0.23888862  0.38595967  1
  O2-  O177  1  0.00201908  0.23783512  0.87329706  1
  O2-  O178  1  -0.00576954  0.75159836  0.37794852  1
  O2-  O179  1  -0.02991041  0.74302378  0.88417020  1
  O2-  O180  1  0.50002642  0.24351912  0.38023021  1
  O2-  O181  1  0.47355208  0.25343767  0.88552170  1
  O2-  O182  1  0.49570924  0.73477973  0.38323514  1
  O2-  O183  1  0.48516377  0.74944854  0.86739883  1
  O2-  O184  1  0.24750840  -0.00765986  0.11520658  1
  O2-  O185  1  0.25254749  -0.02875943  0.61557105  1
  O2-  O186  1  0.24847509  0.49061169  0.12580575  1
  O2-  O187  1  0.25007643  0.48859813  0.61713086  1
  O2-  O188  1  0.74851721  0.02022289  0.11791564  1
  O2-  O189  1  0.75706612  0.01130267  0.62579074  1
  O2-  O190  1  0.73415549  0.52422325  0.11629058  1
  O2-  O191  1  0.73172222  0.52889125  0.61516330  1
  O2-  O192  1  0.13421247  0.29488102  0.24545775  1
  O2-  O193  1  0.11511087  0.26805189  0.74608996  1
  O2-  O194  1  0.12562432  0.76579123  0.27353787  1
  O2-  O195  1  0.13494300  0.78470377  0.76058754  1
  O2-  O196  1  0.63414901  0.27571590  0.24091406  1
  O2-  O197  1  0.63674523  0.28176233  0.74477568  1
  O2-  O198  1  0.63280140  0.77942857  0.25913600  1
  O2-  O199  1  0.62500893  0.77147797  0.75327297  1
  O2-  O200  1  0.36015621  0.22870889  0.24610332  1
  O2-  O201  1  0.36534879  0.21410980  0.74627634  1
  O2-  O202  1  0.36099787  0.71673681  0.23884609  1
  O2-  O203  1  0.37982854  0.72986004  0.73441479  1
  O2-  O204  1  0.87177224  0.22378168  0.25323817  1
  O2-  O205  1  0.87699860  0.22252564  0.75790194  1
  O2-  O206  1  0.88484734  0.72716497  0.24747005  1
  O2-  O207  1  0.86372387  0.73096653  0.72721070  1
  O2-  O208  1  0.27554090  0.38200545  0.25231468  1
  O2-  O209  1  0.26096354  0.36221537  0.77888640  1
  O2-  O210  1  0.27555058  0.86360090  0.25925201  1
  O2-  O211  1  0.28501439  0.86471880  0.75859662  1
  O2-  O212  1  0.77682446  0.36693643  0.22545911  1
  O2-  O213  1  0.78514477  0.36509804  0.73508445  1
  O2-  O214  1  0.78435559  0.86076281  0.23549986  1
  O2-  O215  1  0.76612924  0.87694141  0.73137844  1
  O2-  O216  1  0.20971300  0.13667869  0.24695507  1
  O2-  O217  1  0.21296036  0.13605764  0.74321280  1
  O2-  O218  1  0.22296824  0.62185645  0.24974159  1
  O2-  O219  1  0.22850375  0.63654270  0.72495057  1
  O2-  O220  1  0.72675044  0.13119600  0.27689654  1
  O2-  O221  1  0.73030819  0.11702432  0.76006697  1
  O2-  O222  1  0.73802308  0.63832644  0.28733646  1
  O2-  O223  1  0.72897729  0.63648144  0.76883902  1
  O2-  O224  1  0.13112075  0.47958614  0.24712127  1
  O2-  O225  1  0.11682706  0.47508879  0.77070022  1
  O2-  O226  1  0.11400792  0.96259425  0.24843102  1
  O2-  O227  1  0.11375577  0.97470514  0.74689713  1
  O2-  O228  1  0.61485468  0.46932643  0.25434275  1
  O2-  O229  1  0.61234624  0.48010302  0.76683503  1
  O2-  O230  1  0.61602948  0.96889687  0.25125376  1
  O2-  O231  1  0.63111135  0.97759305  0.74052596  1
  O2-  O232  1  0.37912371  0.02865855  0.24984469  1
  O2-  O233  1  0.38791525  0.02529187  0.76766190  1
  O2-  O234  1  0.36829652  0.52878292  0.24268689  1
  O2-  O235  1  0.38514456  0.53965526  0.74917984  1
  O2-  O236  1  0.88573930  0.01964752  0.25287693  1
  O2-  O237  1  0.87154840  0.02132433  0.75411776  1
  O2-  O238  1  0.88642977  0.53279571  0.25610303  1
  O2-  O239  1  0.88434649  0.52515173  0.72809551  1
  O2-  O240  1  0.46218367  0.38808453  0.24922454  1
  O2-  O241  1  0.45904475  0.38632451  0.75267404  1
  O2-  O242  1  0.46902980  0.88166433  0.25075909  1
  O2-  O243  1  0.48329724  0.86950307  0.74564963  1
  O2-  O244  1  0.97293479  0.38545344  0.25055797  1
  O2-  O245  1  0.97541727  0.36725927  0.75993623  1
  O2-  O246  1  0.97909315  0.87116240  0.25623171  1
  O2-  O247  1  0.96805992  0.88713482  0.75961830  1
  O2-  O248  1  0.03245703  0.11203350  0.24642505  1
  O2-  O249  1  0.01431302  0.12174645  0.74571122  1
  O2-  O250  1  0.02588030  0.63170732  0.25201610  1
  O2-  O251  1  0.03527647  0.61934143  0.74696512  1
  O2-  O252  1  0.52674597  0.11950764  0.24762480  1
  O2-  O253  1  0.53436444  0.11687007  0.75049047  1
  O2-  O254  1  0.52182451  0.61450951  0.22433470  1
  O2-  O255  1  0.52499969  0.63141834  0.74919543  1
  O2-  O256  1  0.13755018  0.46721207  -0.00888716  1
  O2-  O257  1  0.13638025  0.48389373  0.49523803  1
  O2-  O258  1  0.11909825  0.98285307  0.00638654  1
  O2-  O259  1  0.11686784  0.97118114  0.50648394  1
  O2-  O260  1  0.61903117  0.47746282  -0.00508017  1
  O2-  O261  1  0.63187510  0.48203342  0.48616801  1
  O2-  O262  1  0.63688700  0.96044834  0.00312890  1
  O2-  O263  1  0.63734492  0.96351652  0.50380288  1
  O2-  O264  1  0.36728446  0.03369274  -0.00564951  1
  O2-  O265  1  0.36334254  0.02521290  0.49394339  1
  O2-  O266  1  0.37216249  0.51059523  0.00927770  1
  O2-  O267  1  0.36335527  0.53977515  0.49851405  1
  O2-  O268  1  0.88104408  0.02456492  -0.00242906  1
  O2-  O269  1  0.87987445  0.01628216  0.50667457  1
  O2-  O270  1  0.86982164  0.53629260  0.00752321  1
  O2-  O271  1  0.86510939  0.53093773  0.50127887  1
  O2-  O272  1  0.47291355  0.37686284  -0.00155776  1
  O2-  O273  1  0.46834539  0.36919335  0.49376787  1
  O2-  O274  1  0.46683755  0.86641988  0.00147269  1
  O2-  O275  1  0.47811908  0.86306518  0.49424587  1
  O2-  O276  1  0.97732289  0.36334349  -0.00796747  1
  O2-  O277  1  0.96440967  0.36265284  0.48776113  1
  O2-  O278  1  0.97941554  0.88287840  -0.00510103  1
  O2-  O279  1  0.97928158  0.87791323  0.48971844  1
  O2-  O280  1  0.02432306  0.12187486  0.00196767  1
  O2-  O281  1  0.02516918  0.11608954  0.50839368  1
  O2-  O282  1  0.03819580  0.63671674  -0.00135084  1
  O2-  O283  1  0.02497310  0.63865638  0.50497011  1
  O2-  O284  1  0.53589601  0.13645069  -0.00715158  1
  O2-  O285  1  0.52973503  0.13288034  0.51233870  1
  O2-  O286  1  0.51480143  0.61661188  0.00072928  1
  O2-  O287  1  0.53382185  0.63645474  0.51029976  1
  O2-  O288  1  0.12519630  0.26539070  -0.00786881  1
  O2-  O289  1  0.11081813  0.26925707  0.53043803  1
  O2-  O290  1  0.11380768  0.78788156  -0.01194826  1
  O2-  O291  1  0.12834741  0.77558081  0.49088702  1
  O2-  O292  1  0.61650896  0.28625167  -0.00234908  1
  O2-  O293  1  0.61890738  0.28073124  0.50247130  1
  O2-  O294  1  0.61278314  0.75934265  -0.02677660  1
  O2-  O295  1  0.62740774  0.77681277  0.49213547  1
  O2-  O296  1  0.36570941  0.22432079  0.00506956  1
  O2-  O297  1  0.38154737  0.21768882  0.49905648  1
  O2-  O298  1  0.38406236  0.71558491  0.00349407  1
  O2-  O299  1  0.37460687  0.72589689  0.51035442  1
  O2-  O300  1  0.88605377  0.22189798  0.00259099  1
  O2-  O301  1  0.88801067  0.20839393  0.49424665  1
  O2-  O302  1  0.89125030  0.73763506  0.03481354  1
  O2-  O303  1  0.87844430  0.73355504  0.50623332  1
  O2-  O304  1  0.26953047  0.36768293  -0.00648497  1
  O2-  O305  1  0.28086224  0.38298424  0.48860584  1
  O2-  O306  1  0.27449393  0.88746100  -0.01688509  1
  O2-  O307  1  0.27387739  0.86834925  0.48770986  1
  O2-  O308  1  0.77128459  0.38509432  0.02443663  1
  O2-  O309  1  0.77128106  0.38448800  0.53469588  1
  O2-  O310  1  0.78858303  0.88494065  0.00780898  1
  O2-  O311  1  0.77707700  0.87083847  0.51997325  1
  O2-  O312  1  0.22476442  0.12750591  0.00813637  1
  O2-  O313  1  0.21457707  0.11305413  0.51442574  1
  O2-  O314  1  0.22301014  0.61549472  0.01536419  1
  O2-  O315  1  0.22603165  0.63237594  0.50796534  1
  O2-  O316  1  0.73545174  0.10979053  -0.02423760  1
  O2-  O317  1  0.72611608  0.10995702  0.48835618  1
  O2-  O318  1  0.72696515  0.61603868  -0.02919086  1
  O2-  O319  1  0.73506487  0.63785962  0.48116821  1
