# generated using pymatgen
data_Sr64Ca21Nb43O192
_symmetry_space_group_name_H-M   'P 1'
_cell_length_a   16.60447546
_cell_length_b   16.58896739
_cell_length_c   16.73743194
_cell_angle_alpha   90.03073549
_cell_angle_beta   89.95965826
_cell_angle_gamma   89.91289738
_symmetry_Int_Tables_number   1
_chemical_formula_structural   Sr64Ca21Nb43O192
_chemical_formula_sum   'Sr64 Ca21 Nb43 O192'
_cell_volume   4610.33693666
_cell_formula_units_Z   1
loop_
 _symmetry_equiv_pos_site_id
 _symmetry_equiv_pos_as_xyz
  1  'x, y, z'
loop_
 _atom_type_symbol
 _atom_type_oxidation_number
  Sr2+  2.0
  Ca2+  2.0
  Nb5+  5.0
  O2-  -2.0
loop_
 _atom_site_type_symbol
 _atom_site_label
 _atom_site_symmetry_multiplicity
 _atom_site_fract_x
 _atom_site_fract_y
 _atom_site_fract_z
 _atom_site_occupancy
  Sr2+  Sr0  1  0.12250689  0.12959579  0.12733337  1
  Sr2+  Sr1  1  0.12399757  0.14317165  0.61459810  1
  Sr2+  Sr2  1  0.11871298  0.63329242  0.12725220  1
  Sr2+  Sr3  1  0.12495921  0.63516767  0.62583271  1
  Sr2+  Sr4  1  0.63032321  0.13480827  0.12920375  1
  Sr2+  Sr5  1  0.63979527  0.13658058  0.62511843  1
  Sr2+  Sr6  1  0.64103582  0.63767364  0.12341829  1
  Sr2+  Sr7  1  0.62755438  0.64006901  0.62011500  1
  Sr2+  Sr8  1  0.38169378  0.38138623  0.12714690  1
  Sr2+  Sr9  1  0.37518270  0.38903419  0.62941308  1
  Sr2+  Sr10  1  0.37804776  0.88799335  0.13006594  1
  Sr2+  Sr11  1  0.37349130  0.87604737  0.62258648  1
  Sr2+  Sr12  1  0.87625578  0.39988387  0.12519473  1
  Sr2+  Sr13  1  0.87571154  0.37426755  0.62065100  1
  Sr2+  Sr14  1  0.87638834  0.85012505  0.12203987  1
  Sr2+  Sr15  1  0.87471653  0.85157168  0.63013529  1
  Sr2+  Sr16  1  0.11749109  0.36950827  0.38719704  1
  Sr2+  Sr17  1  0.12195678  0.37564494  0.86228771  1
  Sr2+  Sr18  1  0.12759478  0.87982522  0.37944330  1
  Sr2+  Sr19  1  0.12434566  0.87889327  0.88621276  1
  Sr2+  Sr20  1  0.62070515  0.36838022  0.38365869  1
  Sr2+  Sr21  1  0.60898542  0.36810505  0.87036340  1
  Sr2+  Sr22  1  0.62509278  0.87542303  0.37195509  1
  Sr2+  Sr23  1  0.61403878  0.87336714  0.87058610  1
  Sr2+  Sr24  1  0.38008137  0.12126656  0.36993990  1
  Sr2+  Sr25  1  0.37737649  0.12064353  0.88199926  1
  Sr2+  Sr26  1  0.37861289  0.62195113  0.38053586  1
  Sr2+  Sr27  1  0.37066256  0.62344856  0.87962704  1
  Sr2+  Sr28  1  0.89130317  0.11874089  0.38171255  1
  Sr2+  Sr29  1  0.86604244  0.11805134  0.87062680  1
  Sr2+  Sr30  1  0.85965069  0.61632870  0.36875785  1
  Sr2+  Sr31  1  0.86596561  0.61422155  0.87533887  1
  Sr2+  Sr32  1  0.12663866  0.12714484  0.37013911  1
  Sr2+  Sr33  1  0.12115328  0.13636542  0.88074679  1
  Sr2+  Sr34  1  0.13689835  0.61249229  0.38171559  1
  Sr2+  Sr35  1  0.13430079  0.61819950  0.87203189  1
  Sr2+  Sr36  1  0.62740550  0.13241978  0.38058478  1
  Sr2+  Sr37  1  0.62528308  0.12104345  0.86526378  1
  Sr2+  Sr38  1  0.61589256  0.60837987  0.37570242  1
  Sr2+  Sr39  1  0.61631773  0.61229456  0.87861328  1
  Sr2+  Sr40  1  0.37650774  0.37953216  0.37840186  1
  Sr2+  Sr41  1  0.36349831  0.36329297  0.87125366  1
  Sr2+  Sr42  1  0.36457953  0.87670610  0.37779418  1
  Sr2+  Sr43  1  0.37557518  0.87282956  0.88417989  1
  Sr2+  Sr44  1  0.87915858  0.37013253  0.37449127  1
  Sr2+  Sr45  1  0.86297168  0.36914197  0.87898179  1
  Sr2+  Sr46  1  0.87358837  0.86288085  0.35960886  1
  Sr2+  Sr47  1  0.87169214  0.87020489  0.86248493  1
  Sr2+  Sr48  1  0.11723071  0.38208064  0.13221925  1
  Sr2+  Sr49  1  0.11803333  0.39037465  0.62702720  1
  Sr2+  Sr50  1  0.11414387  0.88447152  0.12300120  1
  Sr2+  Sr51  1  0.10712111  0.87278760  0.62603252  1
  Sr2+  Sr52  1  0.64586844  0.38044860  0.12504566  1
  Sr2+  Sr53  1  0.63407405  0.38260560  0.62199419  1
  Sr2+  Sr54  1  0.64427700  0.88629779  0.12925057  1
  Sr2+  Sr55  1  0.64328757  0.88300289  0.62099906  1
  Sr2+  Sr56  1  0.37977470  0.12895582  0.12576590  1
  Sr2+  Sr57  1  0.38820221  0.12038199  0.62858994  1
  Sr2+  Sr58  1  0.38253922  0.63358379  0.13195996  1
  Sr2+  Sr59  1  0.38386257  0.62994710  0.62652606  1
  Sr2+  Sr60  1  0.87418162  0.12706235  0.11864704  1
  Sr2+  Sr61  1  0.87034953  0.11826639  0.63375353  1
  Sr2+  Sr62  1  0.87453213  0.62706056  0.12339948  1
  Sr2+  Sr63  1  0.88038299  0.63127149  0.62818085  1
  Ca2+  Ca64  1  0.50057407  0.49802772  0.00277600  1
  Ca2+  Ca65  1  0.00329176  0.49917079  -0.00536144  1
  Ca2+  Ca66  1  -0.00037359  0.50654823  0.50086629  1
  Ca2+  Ca67  1  0.50504394  -0.00046136  0.49720327  1
  Ca2+  Ca68  1  -0.00033964  -0.00242664  0.50365892  1
  Ca2+  Ca69  1  0.74969262  0.75018484  0.49758702  1
  Ca2+  Ca70  1  0.74775999  0.24922786  -0.00217262  1
  Ca2+  Ca71  1  0.75189524  0.24975760  0.49848541  1
  Ca2+  Ca72  1  0.74776655  0.75244322  -0.00508472  1
  Ca2+  Ca73  1  0.25346977  0.25002367  0.49750507  1
  Ca2+  Ca74  1  -0.00337597  0.25119831  0.75328834  1
  Ca2+  Ca75  1  0.49904509  0.75318543  0.25016656  1
  Ca2+  Ca76  1  0.00187164  0.74726415  0.75655275  1
  Ca2+  Ca77  1  0.75557683  0.00396775  0.24817678  1
  Ca2+  Ca78  1  0.00484669  0.75109570  0.25485357  1
  Ca2+  Ca79  1  0.25013582  0.00014626  0.75301325  1
  Ca2+  Ca80  1  0.74636263  0.50108450  0.74743812  1
  Ca2+  Ca81  1  0.74716945  0.49803444  0.25309490  1
  Ca2+  Ca82  1  0.49723063  0.24885282  0.74963790  1
  Ca2+  Ca83  1  0.24754012  0.49834905  0.25027958  1
  Ca2+  Ca84  1  0.49959042  0.75035852  0.74874760  1
  Nb5+  Nb85  1  0.50042682  0.00076643  0.00191922  1
  Nb5+  Nb86  1  0.50051408  0.49853152  0.50259969  1
  Nb5+  Nb87  1  -0.00704850  0.00086217  0.00063453  1
  Nb5+  Nb88  1  0.24828605  0.25599506  0.00326396  1
  Nb5+  Nb89  1  0.25240691  0.75368485  0.00753835  1
  Nb5+  Nb90  1  0.25277362  0.75194532  0.50815692  1
  Nb5+  Nb91  1  0.00505997  0.24970944  0.24723460  1
  Nb5+  Nb92  1  0.24894642  -0.00071063  0.24917668  1
  Nb5+  Nb93  1  0.25279871  0.50062657  0.75039937  1
  Nb5+  Nb94  1  0.75021380  -0.00116860  0.74916547  1
  Nb5+  Nb95  1  0.50254318  0.25122349  0.24742930  1
  Nb5+  Nb96  1  -0.00314092  0.00170712  0.24676528  1
  Nb5+  Nb97  1  0.00513745  0.00202403  0.75034064  1
  Nb5+  Nb98  1  0.00440435  0.50684878  0.25323052  1
  Nb5+  Nb99  1  -0.00618127  0.50085815  0.74906614  1
  Nb5+  Nb100  1  0.50485618  0.00183914  0.25169469  1
  Nb5+  Nb101  1  0.50000577  -0.00208585  0.74607577  1
  Nb5+  Nb102  1  0.50248253  0.49995398  0.24430895  1
  Nb5+  Nb103  1  0.49937417  0.50046342  0.75278169  1
  Nb5+  Nb104  1  0.25331930  0.24922186  0.24692420  1
  Nb5+  Nb105  1  0.24923858  0.24390045  0.74350398  1
  Nb5+  Nb106  1  0.24563749  0.74762390  0.25767468  1
  Nb5+  Nb107  1  0.25473991  0.75334661  0.75627758  1
  Nb5+  Nb108  1  0.76059206  0.24535206  0.25001748  1
  Nb5+  Nb109  1  0.74933672  0.25613957  0.74933941  1
  Nb5+  Nb110  1  0.74831110  0.75116824  0.25180963  1
  Nb5+  Nb111  1  0.74384015  0.74471953  0.75398129  1
  Nb5+  Nb112  1  -0.00280347  0.24820391  0.50513960  1
  Nb5+  Nb113  1  -0.00120493  0.25110452  1.00294599  1
  Nb5+  Nb114  1  -0.00262858  0.74904031  0.49716948  1
  Nb5+  Nb115  1  0.00093920  0.74480071  0.99567909  1
  Nb5+  Nb116  1  0.49265489  0.25074061  0.50789609  1
  Nb5+  Nb117  1  0.49930601  0.25089779  1.00288451  1
  Nb5+  Nb118  1  0.49972132  0.75514146  0.49597128  1
  Nb5+  Nb119  1  0.50456714  0.75029772  1.00724492  1
  Nb5+  Nb120  1  0.24821228  0.00354680  0.00154208  1
  Nb5+  Nb121  1  0.25058545  0.00412512  0.50461541  1
  Nb5+  Nb122  1  0.24718390  0.50604639  0.00537891  1
  Nb5+  Nb123  1  0.25308778  0.49836998  0.50163290  1
  Nb5+  Nb124  1  0.74456983  0.00035862  -0.00317631  1
  Nb5+  Nb125  1  0.75555252  -0.00195732  0.49383133  1
  Nb5+  Nb126  1  0.74819105  0.50055413  -0.00363782  1
  Nb5+  Nb127  1  0.75425468  0.50383266  0.50378909  1
  O2-  O128  1  0.01472402  0.01716005  0.12252654  1
  O2-  O129  1  0.01749428  0.03094674  0.64015728  1
  O2-  O130  1  0.02546560  0.50635733  0.13349476  1
  O2-  O131  1  0.02803322  0.52352921  0.63600458  1
  O2-  O132  1  0.51027409  -0.01634571  0.12337199  1
  O2-  O133  1  0.49868722  -0.03115570  0.63457824  1
  O2-  O134  1  0.51517558  0.46440800  0.13566848  1
  O2-  O135  1  0.50671714  0.47255405  0.61891385  1
  O2-  O136  1  0.00052395  -0.01063567  0.36255928  1
  O2-  O137  1  -0.00758557  -0.02051085  0.88604741  1
  O2-  O138  1  -0.02577314  0.48910664  0.36635249  1
  O2-  O139  1  -0.01440520  0.46240180  0.86248395  1
  O2-  O140  1  0.50302550  0.03410141  0.36195645  1
  O2-  O141  1  0.49879310  0.02273174  0.88545981  1
  O2-  O142  1  0.48050105  0.50925497  0.37836973  1
  O2-  O143  1  0.48598164  0.52825737  0.86467392  1
  O2-  O144  1  0.25987367  0.22895988  0.12249146  1
  O2-  O145  1  0.27357752  0.22636577  0.63358477  1
  O2-  O146  1  0.26439319  0.73663399  0.11963034  1
  O2-  O147  1  0.27228079  0.74605991  0.62216727  1
  O2-  O148  1  0.75719885  0.22229137  0.13249061  1
  O2-  O149  1  0.77033627  0.22723975  0.63426255  1
  O2-  O150  1  0.76595317  0.72949835  0.13182418  1
  O2-  O151  1  0.76837501  0.73117569  0.63520126  1
  O2-  O152  1  0.22493546  0.25626441  0.35883012  1
  O2-  O153  1  0.22749898  0.25937882  0.88689468  1
  O2-  O154  1  0.23340643  0.75757266  0.37270367  1
  O2-  O155  1  0.23478631  0.75518558  0.87231162  1
  O2-  O156  1  0.72961620  0.26739540  0.36167964  1
  O2-  O157  1  0.71680470  0.26631214  0.86455778  1
  O2-  O158  1  0.74089653  0.78370876  0.36681033  1
  O2-  O159  1  0.73150446  0.78242123  0.86494256  1
  O2-  O160  1  -0.01013098  0.22459073  0.12681618  1
  O2-  O161  1  -0.02089660  0.22644355  0.61641350  1
  O2-  O162  1  -0.00609149  0.73662317  0.11529868  1
  O2-  O163  1  -0.00514005  0.72738076  0.61955073  1
  O2-  O164  1  0.46842238  0.25657624  0.12483189  1
  O2-  O165  1  0.46082981  0.26451054  0.61612598  1
  O2-  O166  1  0.45940559  0.76537690  0.11546013  1
  O2-  O167  1  0.46721666  0.75958805  0.61017555  1
  O2-  O168  1  0.24619569  -0.00470289  0.36670140  1
  O2-  O169  1  0.26681709  -0.01433642  0.88902613  1
  O2-  O170  1  0.27071373  0.50735529  0.38513533  1
  O2-  O171  1  0.27660263  0.49799531  0.86813537  1
  O2-  O172  1  0.77423615  -0.01992353  0.38241290  1
  O2-  O173  1  0.76048268  -0.01672112  0.87304650  1
  O2-  O174  1  0.77222436  0.48170661  0.38650292  1
  O2-  O175  1  0.77573796  0.48911477  0.88027575  1
  O2-  O176  1  0.01729875  0.25937053  0.36373029  1
  O2-  O177  1  0.02805753  0.26169439  0.89178153  1
  O2-  O178  1  0.01262848  0.78747234  0.38625338  1
  O2-  O179  1  0.01509414  0.78460784  0.88741712  1
  O2-  O180  1  0.51569069  0.23387446  0.36197829  1
  O2-  O181  1  0.51319074  0.22547458  0.88999304  1
  O2-  O182  1  0.50986945  0.71737840  0.38397981  1
  O2-  O183  1  0.51701303  0.73655743  0.88962413  1
  O2-  O184  1  0.24594753  0.00061332  0.12292337  1
  O2-  O185  1  0.26848077  0.00752886  0.61724164  1
  O2-  O186  1  0.21756135  0.50632674  0.11436243  1
  O2-  O187  1  0.23772932  0.50312203  0.62522337  1
  O2-  O188  1  0.73624260  0.02271848  0.11090940  1
  O2-  O189  1  0.73583656  0.01732019  0.63371994  1
  O2-  O190  1  0.72716170  0.51408245  0.11639558  1
  O2-  O191  1  0.71631500  0.51997979  0.61568726  1
  O2-  O192  1  0.12168584  0.26129920  0.22645531  1
  O2-  O193  1  0.13492302  0.27445980  0.73052279  1
  O2-  O194  1  0.13747916  0.78430432  0.22994751  1
  O2-  O195  1  0.14030395  0.75932903  0.72752495  1
  O2-  O196  1  0.61302901  0.26714032  0.22536172  1
  O2-  O197  1  0.63062343  0.26638535  0.72160345  1
  O2-  O198  1  0.63199512  0.77735153  0.23148681  1
  O2-  O199  1  0.63169436  0.77290907  0.72356692  1
  O2-  O200  1  0.36719116  0.22624963  0.25958159  1
  O2-  O201  1  0.36052047  0.23231178  0.78312534  1
  O2-  O202  1  0.36200560  0.72711097  0.26060561  1
  O2-  O203  1  0.36601576  0.71600151  0.76310551  1
  O2-  O204  1  0.87615257  0.22713896  0.26473504  1
  O2-  O205  1  0.86386846  0.23985905  0.78354117  1
  O2-  O206  1  0.86965144  0.73052526  0.26825285  1
  O2-  O207  1  0.86445009  0.73733422  0.77147782  1
  O2-  O208  1  0.26682593  0.36178787  0.22735657  1
  O2-  O209  1  0.26991525  0.37530434  0.74483092  1
  O2-  O210  1  0.27386096  0.87963879  0.24585969  1
  O2-  O211  1  0.28402081  0.86419476  0.74790208  1
  O2-  O212  1  0.76445867  0.36182271  0.22542863  1
  O2-  O213  1  0.77057637  0.36840704  0.73087729  1
  O2-  O214  1  0.77626422  0.87022697  0.22708137  1
  O2-  O215  1  0.76587713  0.88190657  0.73326699  1
  O2-  O216  1  0.22938279  0.12159568  0.24901436  1
  O2-  O217  1  0.21817130  0.13379523  0.76352553  1
  O2-  O218  1  0.21782777  0.63546035  0.25095333  1
  O2-  O219  1  0.23433249  0.61944028  0.75316602  1
  O2-  O220  1  0.71695093  0.13476318  0.26358369  1
  O2-  O221  1  0.73565116  0.12124284  0.76503505  1
  O2-  O222  1  0.72624124  0.63473271  0.27291148  1
  O2-  O223  1  0.72247900  0.63385307  0.77498657  1
  O2-  O224  1  0.11494012  0.46320181  0.27208085  1
  O2-  O225  1  0.13592059  0.48350441  0.76239076  1
  O2-  O226  1  0.12876316  0.98417377  0.24498791  1
  O2-  O227  1  0.11623877  0.97211202  0.76597139  1
  O2-  O228  1  0.61191511  0.47233974  0.27760315  1
  O2-  O229  1  0.61183509  0.47469318  0.76342070  1
  O2-  O230  1  0.61725209  0.97781897  0.25406438  1
  O2-  O231  1  0.62699646  0.98364407  0.76516197  1
  O2-  O232  1  0.36876076  0.02238395  0.24020461  1
  O2-  O233  1  0.38726601  0.02747421  0.75293604  1
  O2-  O234  1  0.38325824  0.51512728  0.23405669  1
  O2-  O235  1  0.37273240  0.51430690  0.72631407  1
  O2-  O236  1  0.88764419  0.03743279  0.24077414  1
  O2-  O237  1  0.87053438  0.01783941  0.74963547  1
  O2-  O238  1  0.88629408  0.51842191  0.22827239  1
  O2-  O239  1  0.88230430  0.52229244  0.73150380  1
  O2-  O240  1  0.47021107  0.36422061  0.26145283  1
  O2-  O241  1  0.47200838  0.38378850  0.76837015  1
  O2-  O242  1  0.47086399  0.89156191  0.26694081  1
  O2-  O243  1  0.48584187  0.88599977  0.78381912  1
  O2-  O244  1  0.97970223  0.36407384  0.23412770  1
  O2-  O245  1  0.99238838  0.38381159  0.71657779  1
  O2-  O246  1  0.97903204  0.88872565  0.22780760  1
  O2-  O247  1  0.97514954  0.88741690  0.73612462  1
  O2-  O248  1  0.02516899  0.12672609  0.25822546  1
  O2-  O249  1  0.00454606  0.11420084  0.78747646  1
  O2-  O250  1  0.03435193  0.61716391  0.26444720  1
  O2-  O251  1  0.01557978  0.61326555  0.78517599  1
  O2-  O252  1  0.50600863  0.12637866  0.22385398  1
  O2-  O253  1  0.52584908  0.11370222  0.72979978  1
  O2-  O254  1  0.52240957  0.61240415  0.22800865  1
  O2-  O255  1  0.51530164  0.61283882  0.71883340  1
  O2-  O256  1  0.14006794  0.48418120  -0.03628742  1
  O2-  O257  1  0.13758856  0.48584289  0.48437731  1
  O2-  O258  1  0.13145634  0.98560178  -0.00463168  1
  O2-  O259  1  0.13860166  0.96730530  0.50111143  1
  O2-  O260  1  0.63170602  0.47519543  -0.02654774  1
  O2-  O261  1  0.61525534  0.48403070  0.48149254  1
  O2-  O262  1  0.62584004  0.98195396  -0.01095230  1
  O2-  O263  1  0.63625618  0.97120038  0.48779054  1
  O2-  O264  1  0.37816042  0.00919545  0.01252530  1
  O2-  O265  1  0.36666109  0.01325437  0.48044174  1
  O2-  O266  1  0.36371335  0.51290483  0.02025790  1
  O2-  O267  1  0.37586609  0.51732410  0.51708728  1
  O2-  O268  1  0.87917701  0.02240836  0.00523399  1
  O2-  O269  1  0.86826840  0.03408936  0.51259937  1
  O2-  O270  1  0.86912975  0.52518671  0.01487150  1
  O2-  O271  1  0.86583492  0.52216294  0.52736991  1
  O2-  O272  1  0.47537256  0.36185688  -0.01918954  1
  O2-  O273  1  0.48040653  0.37700550  0.48323454  1
  O2-  O274  1  0.48633297  0.88113045  -0.01364864  1
  O2-  O275  1  0.48462470  0.86539129  0.46712703  1
  O2-  O276  1  0.99179113  0.36277796  0.02825528  1
  O2-  O277  1  0.98457876  0.36830095  0.50560407  1
  O2-  O278  1  0.99401118  0.88266305  0.02430106  1
  O2-  O279  1  0.98889228  0.86495122  0.53304105  1
  O2-  O280  1  0.02202282  0.11881995  -0.00608147  1
  O2-  O281  1  0.02287402  0.13425440  0.47804044  1
  O2-  O282  1  0.03209216  0.63525460  -0.01712324  1
  O2-  O283  1  0.03647331  0.63901658  0.48198996  1
  O2-  O284  1  0.50695625  0.12049234  0.02379140  1
  O2-  O285  1  0.50987516  0.13528641  0.52336190  1
  O2-  O286  1  0.51347190  0.63506018  0.02580050  1
  O2-  O287  1  0.50985804  0.61721531  0.51760295  1
  O2-  O288  1  0.13017645  0.25328207  0.02679262  1
  O2-  O289  1  0.11685007  0.27002396  0.51758226  1
  O2-  O290  1  0.13360513  0.76805585  0.01145493  1
  O2-  O291  1  0.13688032  0.77155193  0.51493944  1
  O2-  O292  1  0.61010440  0.26311969  0.02873523  1
  O2-  O293  1  0.60911109  0.27106483  0.50822654  1
  O2-  O294  1  0.61347761  0.77516237  0.03100647  1
  O2-  O295  1  0.61237362  0.76539899  0.52039840  1
  O2-  O296  1  0.36606474  0.23099388  -0.01055131  1
  O2-  O297  1  0.38470648  0.23977545  0.46081388  1
  O2-  O298  1  0.36744617  0.74077404  -0.02337487  1
  O2-  O299  1  0.36918742  0.73643643  0.47663985  1
  O2-  O300  1  0.88765775  0.22910538  -0.01547522  1
  O2-  O301  1  0.88480093  0.24080768  0.46724889  1
  O2-  O302  1  0.88671083  0.73101356  -0.01579588  1
  O2-  O303  1  0.88567847  0.72386615  0.48386950  1
  O2-  O304  1  0.26561319  0.37169721  0.01143482  1
  O2-  O305  1  0.27353093  0.38451400  0.50681305  1
  O2-  O306  1  0.26573762  0.87195263  0.01178485  1
  O2-  O307  1  0.27588015  0.87126653  0.50249009  1
  O2-  O308  1  0.77251753  0.38235554  0.01638082  1
  O2-  O309  1  0.75593356  0.38513566  0.52406678  1
  O2-  O310  1  0.77545795  0.88787403  0.01492828  1
  O2-  O311  1  0.77188412  0.88601089  0.53088543  1
  O2-  O312  1  0.23962498  0.11958966  -0.00790256  1
  O2-  O313  1  0.22225355  0.11543205  0.49202079  1
  O2-  O314  1  0.23781159  0.62537141  -0.00982155  1
  O2-  O315  1  0.23815661  0.63032479  0.50110616  1
  O2-  O316  1  0.73943975  0.11510441  -0.03062529  1
  O2-  O317  1  0.72181830  0.11458447  0.49196214  1
  O2-  O318  1  0.72414490  0.61928842  -0.01903499  1
  O2-  O319  1  0.72540033  0.61668755  0.47526561  1
