# generated using pymatgen
data_Sr64Ca21Nb43O192
_symmetry_space_group_name_H-M   'P 1'
_cell_length_a   16.57166840
_cell_length_b   16.53278576
_cell_length_c   16.70446160
_cell_angle_alpha   89.98962016
_cell_angle_beta   90.02213134
_cell_angle_gamma   90.05794021
_symmetry_Int_Tables_number   1
_chemical_formula_structural   Sr64Ca21Nb43O192
_chemical_formula_sum   'Sr64 Ca21 Nb43 O192'
_cell_volume   4576.61619921
_cell_formula_units_Z   1
loop_
 _symmetry_equiv_pos_site_id
 _symmetry_equiv_pos_as_xyz
  1  'x, y, z'
loop_
 _atom_type_symbol
 _atom_type_oxidation_number
  Sr2+  2.0
  Ca2+  2.0
  Nb5+  5.0
  O2-  -2.0
loop_
 _atom_site_type_symbol
 _atom_site_label
 _atom_site_symmetry_multiplicity
 _atom_site_fract_x
 _atom_site_fract_y
 _atom_site_fract_z
 _atom_site_occupancy
  Sr2+  Sr0  1  0.12301539  0.10651900  0.12924245  1
  Sr2+  Sr1  1  0.11903226  0.10952758  0.62809728  1
  Sr2+  Sr2  1  0.12170900  0.61805876  0.12495647  1
  Sr2+  Sr3  1  0.12844701  0.61861847  0.62156680  1
  Sr2+  Sr4  1  0.62145398  0.12133527  0.12298028  1
  Sr2+  Sr5  1  0.62372233  0.11654856  0.62731172  1
  Sr2+  Sr6  1  0.61975922  0.63395317  0.12811955  1
  Sr2+  Sr7  1  0.62729588  0.61918986  0.62867246  1
  Sr2+  Sr8  1  0.36397429  0.36802738  0.12670119  1
  Sr2+  Sr9  1  0.36176438  0.38087455  0.63302165  1
  Sr2+  Sr10  1  0.36985531  0.86389927  0.12934765  1
  Sr2+  Sr11  1  0.37090606  0.86812889  0.62199188  1
  Sr2+  Sr12  1  0.86687034  0.37449027  0.12141806  1
  Sr2+  Sr13  1  0.87464657  0.36002001  0.61975454  1
  Sr2+  Sr14  1  0.87187647  0.87027477  0.13091004  1
  Sr2+  Sr15  1  0.87206671  0.86784281  0.62674744  1
  Sr2+  Sr16  1  0.11424683  0.38070605  0.36758730  1
  Sr2+  Sr17  1  0.12985153  0.37705169  0.87553350  1
  Sr2+  Sr18  1  0.12211293  0.88006731  0.37235616  1
  Sr2+  Sr19  1  0.11579865  0.87247923  0.87694535  1
  Sr2+  Sr20  1  0.61760091  0.36718517  0.37629028  1
  Sr2+  Sr21  1  0.60101813  0.37517208  0.86837355  1
  Sr2+  Sr22  1  0.62366757  0.87533036  0.37094739  1
  Sr2+  Sr23  1  0.63071575  0.88115132  0.87551925  1
  Sr2+  Sr24  1  0.38970442  0.13087814  0.37577317  1
  Sr2+  Sr25  1  0.38641314  0.13794485  0.87922157  1
  Sr2+  Sr26  1  0.38889837  0.62409611  0.37330849  1
  Sr2+  Sr27  1  0.39840285  0.62594513  0.87536079  1
  Sr2+  Sr28  1  0.87300294  0.14205930  0.37630799  1
  Sr2+  Sr29  1  0.87586716  0.12751663  0.86904377  1
  Sr2+  Sr30  1  0.86863475  0.62663043  0.37419343  1
  Sr2+  Sr31  1  0.87614190  0.62531387  0.87451500  1
  Sr2+  Sr32  1  0.12821554  0.11871139  0.36714233  1
  Sr2+  Sr33  1  0.12516166  0.12792365  0.87486689  1
  Sr2+  Sr34  1  0.12319712  0.62353125  0.37975278  1
  Sr2+  Sr35  1  0.12461706  0.62257986  0.87445998  1
  Sr2+  Sr36  1  0.62928799  0.13366756  0.37911483  1
  Sr2+  Sr37  1  0.63732476  0.12038006  0.87737711  1
  Sr2+  Sr38  1  0.63786029  0.62475291  0.36969273  1
  Sr2+  Sr39  1  0.63148463  0.61097165  0.87697255  1
  Sr2+  Sr40  1  0.37604869  0.37455519  0.36307475  1
  Sr2+  Sr41  1  0.37562472  0.37588409  0.88335026  1
  Sr2+  Sr42  1  0.37958689  0.88989120  0.37704319  1
  Sr2+  Sr43  1  0.37715445  0.87465093  0.88436020  1
  Sr2+  Sr44  1  0.87291520  0.37886742  0.37840451  1
  Sr2+  Sr45  1  0.88022913  0.36161227  0.87347332  1
  Sr2+  Sr46  1  0.86930262  0.87600891  0.37483137  1
  Sr2+  Sr47  1  0.87159758  0.87690675  0.87091860  1
  Sr2+  Sr48  1  0.12518625  0.37458527  0.12609119  1
  Sr2+  Sr49  1  0.11995934  0.37641266  0.62134189  1
  Sr2+  Sr50  1  0.12075145  0.86941641  0.12944060  1
  Sr2+  Sr51  1  0.13145450  0.86240073  0.62464864  1
  Sr2+  Sr52  1  0.62727713  0.37248654  0.13068867  1
  Sr2+  Sr53  1  0.60398097  0.37356804  0.62962449  1
  Sr2+  Sr54  1  0.63822387  0.87057226  0.12504969  1
  Sr2+  Sr55  1  0.60963296  0.87624405  0.62329291  1
  Sr2+  Sr56  1  0.37162840  0.12485378  0.12314635  1
  Sr2+  Sr57  1  0.38018509  0.11950363  0.61766262  1
  Sr2+  Sr58  1  0.38394242  0.62435656  0.12553015  1
  Sr2+  Sr59  1  0.38170795  0.62671480  0.62428589  1
  Sr2+  Sr60  1  0.85609847  0.12635070  0.11714859  1
  Sr2+  Sr61  1  0.86471618  0.12398052  0.62865885  1
  Sr2+  Sr62  1  0.84627903  0.62387329  0.12477953  1
  Sr2+  Sr63  1  0.87075265  0.62264667  0.62468437  1
  Ca2+  Ca64  1  0.49887743  -0.00050001  -0.00008893  1
  Ca2+  Ca65  1  0.49759384  0.49999975  0.49901465  1
  Ca2+  Ca66  1  0.49868728  0.49901495  0.00423112  1
  Ca2+  Ca67  1  0.00030223  0.00037018  0.49996590  1
  Ca2+  Ca68  1  -0.00227941  0.00010137  0.00136126  1
  Ca2+  Ca69  1  0.74849675  0.25333273  -0.00386849  1
  Ca2+  Ca70  1  0.74879431  0.74889618  0.50291124  1
  Ca2+  Ca71  1  0.74788038  0.25119891  0.50308224  1
  Ca2+  Ca72  1  0.75206180  0.74881275  -0.00337867  1
  Ca2+  Ca73  1  0.24719141  0.25039247  0.49916105  1
  Ca2+  Ca74  1  -0.00109680  0.74557136  0.25018773  1
  Ca2+  Ca75  1  0.49790309  0.75308311  0.25163423  1
  Ca2+  Ca76  1  -0.00425694  0.24859672  0.24622976  1
  Ca2+  Ca77  1  0.75334218  0.49745232  0.75174674  1
  Ca2+  Ca78  1  0.50155040  0.75172407  0.74936294  1
  Ca2+  Ca79  1  0.74913924  0.00314053  0.25295762  1
  Ca2+  Ca80  1  0.49646684  0.24539948  0.74716665  1
  Ca2+  Ca81  1  0.24879246  0.50273618  0.75285242  1
  Ca2+  Ca82  1  0.75146361  0.49593098  0.25157648  1
  Ca2+  Ca83  1  0.50044294  0.24953619  0.24690403  1
  Ca2+  Ca84  1  0.24901593  0.00109751  0.75155544  1
  Nb5+  Nb85  1  -0.00262658  0.50361766  0.49615545  1
  Nb5+  Nb86  1  0.50326175  -0.00052828  0.49799008  1
  Nb5+  Nb87  1  -0.00121514  0.50191035  -0.00454834  1
  Nb5+  Nb88  1  0.24745098  0.74342582  0.00483758  1
  Nb5+  Nb89  1  0.25079075  0.74740947  0.50196387  1
  Nb5+  Nb90  1  0.24500185  0.24279672  0.00161703  1
  Nb5+  Nb91  1  0.75083935  -0.00218934  0.74802711  1
  Nb5+  Nb92  1  0.24727967  0.50566808  0.24995622  1
  Nb5+  Nb93  1  0.00604118  0.74167016  0.74854984  1
  Nb5+  Nb94  1  0.25253945  0.00120854  0.24921505  1
  Nb5+  Nb95  1  0.00594597  0.24621687  0.74898317  1
  Nb5+  Nb96  1  -0.00785151  0.00101002  0.25673727  1
  Nb5+  Nb97  1  0.00059331  -0.00765280  0.74769505  1
  Nb5+  Nb98  1  -0.00292319  0.50298327  0.24300345  1
  Nb5+  Nb99  1  -0.00125289  0.49501137  0.74472523  1
  Nb5+  Nb100  1  0.50186916  -0.00001818  0.24639716  1
  Nb5+  Nb101  1  0.49544594  -0.00030985  0.75346387  1
  Nb5+  Nb102  1  0.50503380  0.49732092  0.25110633  1
  Nb5+  Nb103  1  0.49799491  0.50220465  0.74777503  1
  Nb5+  Nb104  1  0.24813801  0.25130531  0.25219130  1
  Nb5+  Nb105  1  0.25001993  0.24983954  0.74748943  1
  Nb5+  Nb106  1  0.24921441  0.75210068  0.25778393  1
  Nb5+  Nb107  1  0.25280949  0.74733519  0.75884262  1
  Nb5+  Nb108  1  0.75107982  0.25069142  0.24841462  1
  Nb5+  Nb109  1  0.74788099  0.25440563  0.75106618  1
  Nb5+  Nb110  1  0.75113788  0.75100243  0.25044336  1
  Nb5+  Nb111  1  0.74649259  0.74981637  0.74983913  1
  Nb5+  Nb112  1  0.00632324  0.24747387  0.49779425  1
  Nb5+  Nb113  1  0.00249087  0.24975862  1.00208492  1
  Nb5+  Nb114  1  -0.00101352  0.74823154  0.49873697  1
  Nb5+  Nb115  1  -0.00100256  0.74798342  0.99971265  1
  Nb5+  Nb116  1  0.49386810  0.25433182  0.50426506  1
  Nb5+  Nb117  1  0.50350129  0.25228847  1.00043184  1
  Nb5+  Nb118  1  0.50337602  0.74944608  0.49502413  1
  Nb5+  Nb119  1  0.50476947  0.75624604  0.99763548  1
  Nb5+  Nb120  1  0.24662730  -0.00756324  -0.00176354  1
  Nb5+  Nb121  1  0.24952184  -0.00051392  0.50217553  1
  Nb5+  Nb122  1  0.24883664  0.49834695  0.00087194  1
  Nb5+  Nb123  1  0.25095954  0.49784473  0.49793094  1
  Nb5+  Nb124  1  0.75416558  -0.00265764  0.00285597  1
  Nb5+  Nb125  1  0.75448837  0.00151373  0.49667515  1
  Nb5+  Nb126  1  0.74511604  0.49437534  -0.00205842  1
  Nb5+  Nb127  1  0.74327254  0.49661437  0.50304381  1
  O2-  O128  1  -0.01944933  -0.01239370  0.13845422  1
  O2-  O129  1  -0.02393187  0.01709937  0.63462730  1
  O2-  O130  1  0.00491812  0.49215464  0.12604612  1
  O2-  O131  1  0.00672345  0.49831927  0.62730023  1
  O2-  O132  1  0.48854708  0.02758377  0.13479544  1
  O2-  O133  1  0.49408999  0.02190985  0.61885712  1
  O2-  O134  1  0.50629510  0.53029045  0.13569003  1
  O2-  O135  1  0.50743119  0.53033394  0.63067267  1
  O2-  O136  1  0.03431778  0.00245254  0.36981768  1
  O2-  O137  1  0.02244500  0.00693929  0.86264278  1
  O2-  O138  1  0.00152255  0.51009644  0.37945340  1
  O2-  O139  1  0.00074998  0.51153028  0.87720121  1
  O2-  O140  1  0.50977094  -0.02371719  0.38007329  1
  O2-  O141  1  0.50771327  -0.03208029  0.86349331  1
  O2-  O142  1  0.48452655  0.47391871  0.36737852  1
  O2-  O143  1  0.48775629  0.47870472  0.86743418  1
  O2-  O144  1  0.23844704  0.26217430  0.12004315  1
  O2-  O145  1  0.24221262  0.27576904  0.63522645  1
  O2-  O146  1  0.24373877  0.76079671  0.12073980  1
  O2-  O147  1  0.24847473  0.75399139  0.62118218  1
  O2-  O148  1  0.74964691  0.26470935  0.12867155  1
  O2-  O149  1  0.75598015  0.24090957  0.63668315  1
  O2-  O150  1  0.74907751  0.76216349  0.12945817  1
  O2-  O151  1  0.76957842  0.74854470  0.63578539  1
  O2-  O152  1  0.25799822  0.23145452  0.36392104  1
  O2-  O153  1  0.24878697  0.23789471  0.88175905  1
  O2-  O154  1  0.24803557  0.73878162  0.37293419  1
  O2-  O155  1  0.24846021  0.74463684  0.87634260  1
  O2-  O156  1  0.75809630  0.24103419  0.36925108  1
  O2-  O157  1  0.76340289  0.22963867  0.86474253  1
  O2-  O158  1  0.75654660  0.74201037  0.36957666  1
  O2-  O159  1  0.77309933  0.75086967  0.86370852  1
  O2-  O160  1  0.00188978  0.27917686  0.11280410  1
  O2-  O161  1  0.01568775  0.25814230  0.63096477  1
  O2-  O162  1  0.00898814  0.76223314  0.11298806  1
  O2-  O163  1  0.01414417  0.75362068  0.62742802  1
  O2-  O164  1  0.50394503  0.21930657  0.11314027  1
  O2-  O165  1  0.51123672  0.21691430  0.61565116  1
  O2-  O166  1  0.49821730  0.73272570  0.11478949  1
  O2-  O167  1  0.49452365  0.73244875  0.61272535  1
  O2-  O168  1  0.23534877  -0.00039512  0.37193311  1
  O2-  O169  1  0.21613625  -0.00168690  0.88719047  1
  O2-  O170  1  0.24379040  0.51013872  0.36970980  1
  O2-  O171  1  0.23658042  0.51206917  0.88807076  1
  O2-  O172  1  0.72556285  -0.00680943  0.38602804  1
  O2-  O173  1  0.73816647  -0.00244164  0.86999979  1
  O2-  O174  1  0.76283319  0.51099149  0.38613447  1
  O2-  O175  1  0.76452889  0.52196154  0.88480087  1
  O2-  O176  1  -0.01438317  0.25257639  0.38493081  1
  O2-  O177  1  0.00207045  0.25476489  0.87312315  1
  O2-  O178  1  0.00751358  0.73288260  0.38594967  1
  O2-  O179  1  0.00753555  0.73559668  0.86929975  1
  O2-  O180  1  0.48503243  0.26874279  0.38365712  1
  O2-  O181  1  0.48013687  0.27054646  0.88118210  1
  O2-  O182  1  0.48091919  0.77869484  0.38408969  1
  O2-  O183  1  0.48343515  0.77238378  0.88144247  1
  O2-  O184  1  0.27455380  -0.00798206  0.13042372  1
  O2-  O185  1  0.27657401  -0.00932208  0.61455616  1
  O2-  O186  1  0.24473539  0.49381008  0.12732846  1
  O2-  O187  1  0.23924058  0.48838692  0.61405096  1
  O2-  O188  1  0.76879761  -0.00797441  0.11839984  1
  O2-  O189  1  0.76569193  0.00066909  0.62907800  1
  O2-  O190  1  0.75316919  0.48099754  0.11655288  1
  O2-  O191  1  0.76278908  0.50857651  0.61826197  1
  O2-  O192  1  0.13207535  0.26959469  0.25237976  1
  O2-  O193  1  0.12102383  0.28204190  0.75893803  1
  O2-  O194  1  0.13515342  0.77184819  0.24677718  1
  O2-  O195  1  0.12326176  0.78083580  0.75498237  1
  O2-  O196  1  0.63345984  0.28460296  0.25342891  1
  O2-  O197  1  0.63460281  0.27466683  0.75512658  1
  O2-  O198  1  0.63188925  0.77856709  0.25344072  1
  O2-  O199  1  0.63717748  0.78486114  0.75056638  1
  O2-  O200  1  0.36311418  0.23466612  0.22873143  1
  O2-  O201  1  0.36090628  0.21591833  0.74358289  1
  O2-  O202  1  0.36118241  0.72471331  0.23696176  1
  O2-  O203  1  0.36404351  0.71969127  0.74894175  1
  O2-  O204  1  0.86596416  0.20945321  0.23952793  1
  O2-  O205  1  0.88759504  0.23204818  0.74573946  1
  O2-  O206  1  0.86784620  0.71779607  0.24364144  1
  O2-  O207  1  0.88931685  0.73334041  0.74583164  1
  O2-  O208  1  0.26556989  0.37307840  0.25612243  1
  O2-  O209  1  0.27164233  0.36517889  0.77473508  1
  O2-  O210  1  0.27164377  0.87131318  0.25875278  1
  O2-  O211  1  0.27250533  0.86462385  0.75276160  1
  O2-  O212  1  0.79124478  0.36525704  0.25593713  1
  O2-  O213  1  0.78458717  0.36393359  0.75440246  1
  O2-  O214  1  0.78211242  0.86837470  0.25460647  1
  O2-  O215  1  0.77887711  0.87857163  0.74931535  1
  O2-  O216  1  0.23155946  0.12067868  0.23776716  1
  O2-  O217  1  0.20945932  0.13730427  0.74674239  1
  O2-  O218  1  0.22624337  0.62338757  0.24188640  1
  O2-  O219  1  0.21260964  0.63737846  0.74406445  1
  O2-  O220  1  0.71305794  0.13382054  0.23964974  1
  O2-  O221  1  0.73987036  0.11860665  0.74745325  1
  O2-  O222  1  0.72071863  0.63161672  0.23849633  1
  O2-  O223  1  0.72152417  0.63621152  0.75038456  1
  O2-  O224  1  0.12993213  0.47493005  0.24712313  1
  O2-  O225  1  0.11374709  0.48029996  0.75874113  1
  O2-  O226  1  0.13646513  0.97672410  0.23397671  1
  O2-  O227  1  0.11409568  0.98241255  0.71864052  1
  O2-  O228  1  0.61720663  0.47285690  0.25844271  1
  O2-  O229  1  0.61800125  0.47364420  0.75100877  1
  O2-  O230  1  0.61368518  0.97217000  0.23695699  1
  O2-  O231  1  0.63384180  0.97859442  0.73761428  1
  O2-  O232  1  0.36959941  0.01998950  0.26972210  1
  O2-  O233  1  0.38423975  0.02709827  0.76367182  1
  O2-  O234  1  0.36504455  0.51774660  0.24729986  1
  O2-  O235  1  0.38033352  0.52634533  0.74184700  1
  O2-  O236  1  0.88338179  0.02389813  0.28320905  1
  O2-  O237  1  0.87663647  0.01498234  0.76733703  1
  O2-  O238  1  0.88652701  0.53150971  0.24609726  1
  O2-  O239  1  0.88974954  0.53658739  0.75154215  1
  O2-  O240  1  0.47355708  0.38496133  0.22370129  1
  O2-  O241  1  0.47929596  0.38229359  0.72284830  1
  O2-  O242  1  0.46411463  0.88788694  0.24060050  1
  O2-  O243  1  0.48643657  0.88717669  0.71571464  1
  O2-  O244  1  0.98734966  0.38860926  0.26910856  1
  O2-  O245  1  0.97511741  0.38007141  0.75073321  1
  O2-  O246  1  0.98310628  0.88108561  0.26963382  1
  O2-  O247  1  0.98209884  0.87623984  0.75240424  1
  O2-  O248  1  0.03196652  0.11423943  0.24610066  1
  O2-  O249  1  0.02329353  0.13156573  0.75254913  1
  O2-  O250  1  0.03947726  0.61246774  0.25065748  1
  O2-  O251  1  0.02922221  0.62768789  0.74237535  1
  O2-  O252  1  0.51308279  0.11375283  0.28114372  1
  O2-  O253  1  0.53490615  0.11105920  0.76493470  1
  O2-  O254  1  0.51214958  0.61578019  0.27849315  1
  O2-  O255  1  0.52428444  0.61800432  0.77629576  1
  O2-  O256  1  0.12312598  0.48525461  0.01003269  1
  O2-  O257  1  0.12500660  0.48562390  0.49234084  1
  O2-  O258  1  0.13411273  0.98586391  0.03448043  1
  O2-  O259  1  0.13766599  0.96752200  0.51518590  1
  O2-  O260  1  0.63347342  0.46924093  -0.01406198  1
  O2-  O261  1  0.63265968  0.46194506  0.50281302  1
  O2-  O262  1  0.63548744  0.97165858  0.00498644  1
  O2-  O263  1  0.61909448  0.97916433  0.51466166  1
  O2-  O264  1  0.35861683  0.02613819  -0.01710407  1
  O2-  O265  1  0.37385379  0.01343527  0.48052425  1
  O2-  O266  1  0.36141379  0.52539126  0.00451334  1
  O2-  O267  1  0.36140239  0.53491999  0.50038123  1
  O2-  O268  1  0.86738014  0.03334955  -0.01813884  1
  O2-  O269  1  0.86559841  0.03113610  0.48249824  1
  O2-  O270  1  0.88720644  0.52796690  0.00964847  1
  O2-  O271  1  0.88471066  0.53103339  0.50136226  1
  O2-  O272  1  0.46826753  0.36513715  0.02053978  1
  O2-  O273  1  0.47378593  0.36526361  0.53282374  1
  O2-  O274  1  0.46282854  0.86743284  0.01585686  1
  O2-  O275  1  0.47662774  0.88003512  0.51861154  1
  O2-  O276  1  0.98668609  0.38402012  -0.01492801  1
  O2-  O277  1  0.97929144  0.38577784  0.50406942  1
  O2-  O278  1  0.98645386  0.86215360  -0.02464570  1
  O2-  O279  1  0.97726289  0.86304178  0.49857503  1
  O2-  O280  1  0.03221435  0.13862067  0.00716566  1
  O2-  O281  1  0.03915177  0.13728256  0.50034013  1
  O2-  O282  1  0.03183406  0.62444093  0.00036973  1
  O2-  O283  1  0.02768134  0.62193408  0.51236820  1
  O2-  O284  1  0.51423725  0.13467093  -0.03128550  1
  O2-  O285  1  0.51320282  0.11631966  0.47641317  1
  O2-  O286  1  0.51612413  0.63696422  -0.02321523  1
  O2-  O287  1  0.51772848  0.63686988  0.46933386  1
  O2-  O288  1  0.12725849  0.27846202  -0.00742071  1
  O2-  O289  1  0.11581682  0.29263933  0.49427970  1
  O2-  O290  1  0.12924350  0.76972740  -0.00952658  1
  O2-  O291  1  0.12872082  0.76875889  0.49788239  1
  O2-  O292  1  0.61465300  0.28137060  -0.00629737  1
  O2-  O293  1  0.61300201  0.26717932  0.49090382  1
  O2-  O294  1  0.61708915  0.78239173  -0.00503452  1
  O2-  O295  1  0.61424086  0.78103054  0.49719868  1
  O2-  O296  1  0.36296856  0.23216891  0.00676635  1
  O2-  O297  1  0.37990743  0.21834950  0.50682316  1
  O2-  O298  1  0.36352966  0.72771596  -0.00093515  1
  O2-  O299  1  0.36762012  0.72713970  0.49992851  1
  O2-  O300  1  0.88854392  0.23027166  -0.00301333  1
  O2-  O301  1  0.89063351  0.23205617  0.52141306  1
  O2-  O302  1  0.88870657  0.71712357  0.00119057  1
  O2-  O303  1  0.88762508  0.71886681  0.50539720  1
  O2-  O304  1  0.26378209  0.37996180  -0.00503026  1
  O2-  O305  1  0.27849925  0.38717438  0.48215735  1
  O2-  O306  1  0.26670608  0.87546574  -0.00413526  1
  O2-  O307  1  0.27073845  0.86693873  0.48921932  1
  O2-  O308  1  0.79075854  0.38523936  -0.01299700  1
  O2-  O309  1  0.78571948  0.38451116  0.50142866  1
  O2-  O310  1  0.78630731  0.88267197  -0.00616896  1
  O2-  O311  1  0.77728071  0.88488697  0.50822012  1
  O2-  O312  1  0.22499611  0.12770991  0.01201071  1
  O2-  O313  1  0.22485585  0.11219880  0.50812960  1
  O2-  O314  1  0.22417106  0.62822023  0.01166264  1
  O2-  O315  1  0.22378993  0.62876212  0.50078541  1
  O2-  O316  1  0.72326717  0.11658274  0.01012783  1
  O2-  O317  1  0.72025263  0.11439835  0.50998947  1
  O2-  O318  1  0.72693073  0.61415117  0.01845048  1
  O2-  O319  1  0.71349452  0.61578834  0.50449913  1
