# generated using pymatgen
data_Sr64Ca21Nb43O192
_symmetry_space_group_name_H-M   'P 1'
_cell_length_a   16.56799691
_cell_length_b   16.58367102
_cell_length_c   16.71534544
_cell_angle_alpha   90.04998380
_cell_angle_beta   89.98369091
_cell_angle_gamma   89.96968032
_symmetry_Int_Tables_number   1
_chemical_formula_structural   Sr64Ca21Nb43O192
_chemical_formula_sum   'Sr64 Ca21 Nb43 O192'
_cell_volume   4592.67581955
_cell_formula_units_Z   1
loop_
 _symmetry_equiv_pos_site_id
 _symmetry_equiv_pos_as_xyz
  1  'x, y, z'
loop_
 _atom_type_symbol
 _atom_type_oxidation_number
  Sr2+  2.0
  Ca2+  2.0
  Nb5+  5.0
  O2-  -2.0
loop_
 _atom_site_type_symbol
 _atom_site_label
 _atom_site_symmetry_multiplicity
 _atom_site_fract_x
 _atom_site_fract_y
 _atom_site_fract_z
 _atom_site_occupancy
  Sr2+  Sr0  1  0.12310194  0.12204996  0.12304590  1
  Sr2+  Sr1  1  0.13791986  0.13212925  0.63100071  1
  Sr2+  Sr2  1  0.13507474  0.63546061  0.12776110  1
  Sr2+  Sr3  1  0.12529499  0.62999976  0.61914367  1
  Sr2+  Sr4  1  0.62468949  0.13429945  0.11725629  1
  Sr2+  Sr5  1  0.62797703  0.13133495  0.62809519  1
  Sr2+  Sr6  1  0.63366068  0.62743157  0.12789367  1
  Sr2+  Sr7  1  0.62617497  0.63032079  0.63176247  1
  Sr2+  Sr8  1  0.37934247  0.38207101  0.12707991  1
  Sr2+  Sr9  1  0.37519809  0.35885788  0.62238577  1
  Sr2+  Sr10  1  0.36479714  0.88164722  0.12099581  1
  Sr2+  Sr11  1  0.37029189  0.88011781  0.62079959  1
  Sr2+  Sr12  1  0.88232434  0.37921137  0.12418590  1
  Sr2+  Sr13  1  0.88305729  0.39077631  0.63125428  1
  Sr2+  Sr14  1  0.88060962  0.89231274  0.12718650  1
  Sr2+  Sr15  1  0.87695288  0.87760083  0.62843302  1
  Sr2+  Sr16  1  0.11518246  0.37072228  0.37624521  1
  Sr2+  Sr17  1  0.11455266  0.37374723  0.87585325  1
  Sr2+  Sr18  1  0.11344603  0.86528914  0.37013705  1
  Sr2+  Sr19  1  0.11832992  0.87016224  0.88358090  1
  Sr2+  Sr20  1  0.61613104  0.36684558  0.37653145  1
  Sr2+  Sr21  1  0.62537671  0.37114230  0.86938108  1
  Sr2+  Sr22  1  0.63049668  0.87456104  0.37363508  1
  Sr2+  Sr23  1  0.62640335  0.86903516  0.86694879  1
  Sr2+  Sr24  1  0.37913148  0.11622700  0.37244725  1
  Sr2+  Sr25  1  0.36662352  0.11717760  0.86469824  1
  Sr2+  Sr26  1  0.36860097  0.61623146  0.37526399  1
  Sr2+  Sr27  1  0.38728800  0.61860175  0.87296091  1
  Sr2+  Sr28  1  0.86048861  0.12426890  0.37159997  1
  Sr2+  Sr29  1  0.85993330  0.11263749  0.87641846  1
  Sr2+  Sr30  1  0.86766307  0.61609036  0.37766250  1
  Sr2+  Sr31  1  0.86160242  0.61558835  0.88160535  1
  Sr2+  Sr32  1  0.11621713  0.11627464  0.37055749  1
  Sr2+  Sr33  1  0.11994045  0.10850817  0.87077704  1
  Sr2+  Sr34  1  0.12257779  0.61242725  0.37364575  1
  Sr2+  Sr35  1  0.12553948  0.61827586  0.87946058  1
  Sr2+  Sr36  1  0.61975453  0.11005321  0.37467892  1
  Sr2+  Sr37  1  0.61633258  0.11175599  0.87525488  1
  Sr2+  Sr38  1  0.62790698  0.62008166  0.37772053  1
  Sr2+  Sr39  1  0.62456916  0.59896038  0.87403311  1
  Sr2+  Sr40  1  0.36819004  0.37397605  0.36815910  1
  Sr2+  Sr41  1  0.37224597  0.36903096  0.87125709  1
  Sr2+  Sr42  1  0.37867817  0.87829101  0.37975100  1
  Sr2+  Sr43  1  0.37139541  0.86536120  0.87800901  1
  Sr2+  Sr44  1  0.86938209  0.36549697  0.37422138  1
  Sr2+  Sr45  1  0.86476586  0.36867249  0.88025855  1
  Sr2+  Sr46  1  0.86227842  0.86167568  0.37120276  1
  Sr2+  Sr47  1  0.87282986  0.86776524  0.88445981  1
  Sr2+  Sr48  1  0.13508347  0.38000557  0.12325373  1
  Sr2+  Sr49  1  0.12831711  0.38529766  0.62780193  1
  Sr2+  Sr50  1  0.11754697  0.87982376  0.12035461  1
  Sr2+  Sr51  1  0.13045825  0.87673525  0.61862446  1
  Sr2+  Sr52  1  0.62342660  0.38360474  0.11853237  1
  Sr2+  Sr53  1  0.63295656  0.37978958  0.63036092  1
  Sr2+  Sr54  1  0.64376559  0.88461670  0.12805980  1
  Sr2+  Sr55  1  0.62670405  0.88188427  0.62530101  1
  Sr2+  Sr56  1  0.37812364  0.13491213  0.11548028  1
  Sr2+  Sr57  1  0.37926887  0.12341615  0.61574916  1
  Sr2+  Sr58  1  0.37308212  0.62809634  0.13439427  1
  Sr2+  Sr59  1  0.36794527  0.63534982  0.62967329  1
  Sr2+  Sr60  1  0.87859330  0.13249298  0.11954921  1
  Sr2+  Sr61  1  0.88984199  0.13056802  0.63337243  1
  Sr2+  Sr62  1  0.88663918  0.63312010  0.12812761  1
  Sr2+  Sr63  1  0.88085856  0.62871515  0.62185838  1
  Ca2+  Ca64  1  0.49559226  -0.00583205  -0.00122325  1
  Ca2+  Ca65  1  0.49707959  0.50024015  0.50218683  1
  Ca2+  Ca66  1  0.49777129  0.49958767  -0.00026449  1
  Ca2+  Ca67  1  -0.00111027  0.50053604  0.00433796  1
  Ca2+  Ca68  1  -0.00123349  -0.00058065  0.49880302  1
  Ca2+  Ca69  1  0.74926422  0.24941286  0.00004382  1
  Ca2+  Ca70  1  0.74841875  0.74931594  -0.00058668  1
  Ca2+  Ca71  1  0.24942617  0.24986556  0.49771780  1
  Ca2+  Ca72  1  0.25016690  0.25212982  -0.00127493  1
  Ca2+  Ca73  1  0.75291851  0.24948933  0.50336039  1
  Ca2+  Ca74  1  0.50028683  0.75374930  0.25055047  1
  Ca2+  Ca75  1  0.00125175  0.25048053  0.75200273  1
  Ca2+  Ca76  1  -0.00022949  0.74896726  0.25006903  1
  Ca2+  Ca77  1  0.24940640  -0.00385047  0.75055715  1
  Ca2+  Ca78  1  0.75003849  0.00465136  0.25030020  1
  Ca2+  Ca79  1  0.74829387  -0.00021867  0.74873913  1
  Ca2+  Ca80  1  0.25127708  0.00154287  0.24957047  1
  Ca2+  Ca81  1  0.75104191  0.49710502  0.25077789  1
  Ca2+  Ca82  1  0.00269551  0.74941437  0.75222147  1
  Ca2+  Ca83  1  0.75176016  0.50022532  0.74690320  1
  Ca2+  Ca84  1  0.25191144  0.50124635  0.74663202  1
  Nb5+  Nb85  1  -0.00014581  0.49957306  0.49881319  1
  Nb5+  Nb86  1  -0.00271810  0.00272995  -0.00136301  1
  Nb5+  Nb87  1  0.50195093  -0.00197385  0.50262467  1
  Nb5+  Nb88  1  0.74397408  0.74923167  0.50188041  1
  Nb5+  Nb89  1  0.25099024  0.74769109  0.00482111  1
  Nb5+  Nb90  1  0.24611644  0.75146677  0.50014838  1
  Nb5+  Nb91  1  -0.00410298  0.24955458  0.25197758  1
  Nb5+  Nb92  1  0.49943807  0.24333979  0.74522947  1
  Nb5+  Nb93  1  0.50007060  0.74579430  0.75063099  1
  Nb5+  Nb94  1  0.24840359  0.50102596  0.24809296  1
  Nb5+  Nb95  1  0.49514752  0.24761984  0.24685884  1
  Nb5+  Nb96  1  -0.00382667  0.00147965  0.25543890  1
  Nb5+  Nb97  1  0.00048833  -0.00509481  0.74572167  1
  Nb5+  Nb98  1  0.00105542  0.50007074  0.24793214  1
  Nb5+  Nb99  1  0.00044188  0.50515606  0.75815093  1
  Nb5+  Nb100  1  0.49963053  -0.00184628  0.24219367  1
  Nb5+  Nb101  1  0.49331661  -0.00877516  0.74872347  1
  Nb5+  Nb102  1  0.50439649  0.50222211  0.25753830  1
  Nb5+  Nb103  1  0.49760643  0.49036691  0.74566066  1
  Nb5+  Nb104  1  0.24242132  0.25117832  0.24955861  1
  Nb5+  Nb105  1  0.24671744  0.25482220  0.75009161  1
  Nb5+  Nb106  1  0.25282777  0.75406091  0.25681908  1
  Nb5+  Nb107  1  0.24630022  0.75315294  0.75640600  1
  Nb5+  Nb108  1  0.73988451  0.25324583  0.25085540  1
  Nb5+  Nb109  1  0.75529384  0.24576149  0.75019834  1
  Nb5+  Nb110  1  0.75090085  0.74746746  0.24527954  1
  Nb5+  Nb111  1  0.75377689  0.74770476  0.75068590  1
  Nb5+  Nb112  1  0.00223284  0.24846303  0.50329697  1
  Nb5+  Nb113  1  0.00420975  0.24902711  0.99594296  1
  Nb5+  Nb114  1  -0.00706567  0.74993130  0.49395360  1
  Nb5+  Nb115  1  -0.00017138  0.74582285  1.00172246  1
  Nb5+  Nb116  1  0.50098600  0.24768455  0.49410312  1
  Nb5+  Nb117  1  0.49998480  0.24914137  0.98907643  1
  Nb5+  Nb118  1  0.49670964  0.74929399  0.49960145  1
  Nb5+  Nb119  1  0.50190479  0.75064798  1.00319266  1
  Nb5+  Nb120  1  0.24833853  0.00289396  0.00122236  1
  Nb5+  Nb121  1  0.24470156  0.00053738  0.49364822  1
  Nb5+  Nb122  1  0.25465987  0.50107333  -0.00402471  1
  Nb5+  Nb123  1  0.25211153  0.49998710  0.50053438  1
  Nb5+  Nb124  1  0.74201881  -0.00358447  -0.00279818  1
  Nb5+  Nb125  1  0.75304936  0.00250059  0.50378863  1
  Nb5+  Nb126  1  0.74913693  0.49843483  0.00401245  1
  Nb5+  Nb127  1  0.74846766  0.49558769  0.49912574  1
  O2-  O128  1  0.01401315  -0.00866611  0.12532444  1
  O2-  O129  1  0.01448731  -0.03064492  0.63371587  1
  O2-  O130  1  0.01576054  0.46816307  0.13735406  1
  O2-  O131  1  0.01716330  0.48506601  0.61465895  1
  O2-  O132  1  0.52821708  -0.00215272  0.13268012  1
  O2-  O133  1  0.51829399  0.00668870  0.62471988  1
  O2-  O134  1  0.51092852  0.49159654  0.13966504  1
  O2-  O135  1  0.53254933  0.50392950  0.63246531  1
  O2-  O136  1  -0.01756582  0.03266580  0.36684615  1
  O2-  O137  1  -0.01459856  0.02202720  0.88315436  1
  O2-  O138  1  -0.00740440  0.51700038  0.37376904  1
  O2-  O139  1  -0.01202599  0.53026800  0.86947927  1
  O2-  O140  1  0.48180773  -0.00020073  0.38364397  1
  O2-  O141  1  0.46921624  -0.00463135  0.86316759  1
  O2-  O142  1  0.46481487  0.49445175  0.36813491  1
  O2-  O143  1  0.47456830  0.49120197  0.86323412  1
  O2-  O144  1  0.28071937  0.25092261  0.13853038  1
  O2-  O145  1  0.27579591  0.23134625  0.63373292  1
  O2-  O146  1  0.26949935  0.74387757  0.12175818  1
  O2-  O147  1  0.26389451  0.74982719  0.61584646  1
  O2-  O148  1  0.75672618  0.22078286  0.13797347  1
  O2-  O149  1  0.76194470  0.21237116  0.63470327  1
  O2-  O150  1  0.76256617  0.72282919  0.13348874  1
  O2-  O151  1  0.76274641  0.72693107  0.61840589  1
  O2-  O152  1  0.24494297  0.27618185  0.36358162  1
  O2-  O153  1  0.23606943  0.28192187  0.86559383  1
  O2-  O154  1  0.23467865  0.75705435  0.37267841  1
  O2-  O155  1  0.23284772  0.75177100  0.87274700  1
  O2-  O156  1  0.73800327  0.28195100  0.36868915  1
  O2-  O157  1  0.74065436  0.27982678  0.86487968  1
  O2-  O158  1  0.73636501  0.76691637  0.38307017  1
  O2-  O159  1  0.74138663  0.77254758  0.86285385  1
  O2-  O160  1  -0.01900036  0.26119806  0.13435882  1
  O2-  O161  1  -0.02699504  0.26740566  0.61357084  1
  O2-  O162  1  -0.02070313  0.77441545  0.11614092  1
  O2-  O163  1  -0.01181998  0.76401535  0.61112407  1
  O2-  O164  1  0.48144258  0.24714474  0.13305649  1
  O2-  O165  1  0.47874881  0.24046876  0.62982246  1
  O2-  O166  1  0.48693045  0.72626738  0.11383720  1
  O2-  O167  1  0.48359805  0.74096906  0.62498331  1
  O2-  O168  1  0.28313186  -0.00237469  0.38285770  1
  O2-  O169  1  0.26988806  -0.01224281  0.88682169  1
  O2-  O170  1  0.26322173  0.50027352  0.37257959  1
  O2-  O171  1  0.27617017  0.50598798  0.88301416  1
  O2-  O172  1  0.76361143  -0.02575053  0.38850815  1
  O2-  O173  1  0.77386813  -0.02301924  0.88301415  1
  O2-  O174  1  0.78160110  0.49277208  0.38527432  1
  O2-  O175  1  0.77415044  0.49202928  0.88251095  1
  O2-  O176  1  0.02922904  0.24050941  0.37026837  1
  O2-  O177  1  0.03457814  0.23532144  0.88591549  1
  O2-  O178  1  0.02972107  0.73156340  0.38273528  1
  O2-  O179  1  0.03360068  0.74063840  0.88779554  1
  O2-  O180  1  0.52300761  0.24198873  0.37936481  1
  O2-  O181  1  0.52112372  0.25551971  0.87418133  1
  O2-  O182  1  0.51186648  0.77532196  0.38830627  1
  O2-  O183  1  0.50567261  0.77355264  0.86485639  1
  O2-  O184  1  0.22289451  -0.01223119  0.11722615  1
  O2-  O185  1  0.23351148  -0.00696797  0.61258822  1
  O2-  O186  1  0.22840026  0.51020069  0.13066250  1
  O2-  O187  1  0.22075355  0.51085416  0.61036960  1
  O2-  O188  1  0.72602286  0.01852996  0.11507639  1
  O2-  O189  1  0.71474406  0.00658504  0.61447249  1
  O2-  O190  1  0.71676865  0.50601988  0.11953622  1
  O2-  O191  1  0.73707934  0.52659521  0.61141514  1
  O2-  O192  1  0.12949027  0.27564650  0.23297529  1
  O2-  O193  1  0.13500632  0.26746630  0.72184334  1
  O2-  O194  1  0.13830406  0.76851475  0.22770498  1
  O2-  O195  1  0.13708372  0.78057331  0.73191476  1
  O2-  O196  1  0.62378355  0.27320873  0.23720780  1
  O2-  O197  1  0.61508169  0.26904032  0.73412796  1
  O2-  O198  1  0.63417752  0.77934541  0.23883715  1
  O2-  O199  1  0.61542930  0.77034973  0.73121698  1
  O2-  O200  1  0.38227625  0.23391970  0.27375788  1
  O2-  O201  1  0.38330134  0.24157983  0.77646862  1
  O2-  O202  1  0.36537995  0.71826301  0.26248114  1
  O2-  O203  1  0.37816405  0.72944844  0.76083207  1
  O2-  O204  1  0.88308576  0.23342898  0.26977005  1
  O2-  O205  1  0.86762335  0.22545056  0.76927825  1
  O2-  O206  1  0.86577783  0.72838694  0.27593369  1
  O2-  O207  1  0.86576857  0.72168277  0.75917105  1
  O2-  O208  1  0.26854409  0.38296136  0.23963936  1
  O2-  O209  1  0.27727258  0.36895233  0.72979870  1
  O2-  O210  1  0.28066219  0.86551610  0.25032799  1
  O2-  O211  1  0.28497416  0.86365044  0.74429536  1
  O2-  O212  1  0.77918304  0.36315918  0.23066167  1
  O2-  O213  1  0.75915936  0.36302998  0.71755322  1
  O2-  O214  1  0.77442824  0.86703092  0.23519190  1
  O2-  O215  1  0.75746888  0.86241077  0.71956902  1
  O2-  O216  1  0.22571149  0.13783259  0.25962253  1
  O2-  O217  1  0.23797343  0.13564857  0.77155511  1
  O2-  O218  1  0.23004174  0.62322946  0.25559894  1
  O2-  O219  1  0.23564640  0.63798827  0.73858287  1
  O2-  O220  1  0.73721480  0.13818123  0.28407473  1
  O2-  O221  1  0.71933062  0.13450474  0.77432482  1
  O2-  O222  1  0.72173849  0.63315575  0.26708026  1
  O2-  O223  1  0.71559519  0.63655817  0.75773029  1
  O2-  O224  1  0.12911053  0.48091875  0.26900783  1
  O2-  O225  1  0.11689064  0.47248910  0.76407196  1
  O2-  O226  1  0.11483792  0.98713386  0.27024541  1
  O2-  O227  1  0.11493468  0.97942367  0.77866879  1
  O2-  O228  1  0.61494994  0.47847278  0.28050480  1
  O2-  O229  1  0.61585936  0.48371025  0.77179567  1
  O2-  O230  1  0.61294333  0.98726870  0.27737661  1
  O2-  O231  1  0.61021832  0.98523031  0.77016230  1
  O2-  O232  1  0.38848751  0.04004382  0.23501470  1
  O2-  O233  1  0.38256229  0.02412030  0.72462528  1
  O2-  O234  1  0.36858466  0.51584117  0.23568235  1
  O2-  O235  1  0.38734025  0.52478743  0.72325424  1
  O2-  O236  1  0.88404109  0.02879983  0.22803668  1
  O2-  O237  1  0.88377903  0.02471211  0.73767469  1
  O2-  O238  1  0.88751459  0.51949016  0.23457305  1
  O2-  O239  1  0.88685840  0.52215818  0.72445878  1
  O2-  O240  1  0.48463757  0.36693696  0.25981486  1
  O2-  O241  1  0.48086707  0.37381986  0.73828319  1
  O2-  O242  1  0.46540553  0.88804106  0.24635867  1
  O2-  O243  1  0.47860240  0.87632294  0.73330253  1
  O2-  O244  1  0.98830879  0.37225210  0.27229898  1
  O2-  O245  1  0.97475487  0.38585521  0.76689200  1
  O2-  O246  1  0.97781385  0.88745769  0.26871007  1
  O2-  O247  1  0.97091878  0.88258741  0.77420371  1
  O2-  O248  1  0.02545066  0.13385029  0.23781146  1
  O2-  O249  1  0.02577110  0.11430160  0.73060311  1
  O2-  O250  1  0.02660287  0.61280433  0.23161499  1
  O2-  O251  1  0.03172849  0.61663566  0.72998022  1
  O2-  O252  1  0.52644678  0.13189595  0.25224407  1
  O2-  O253  1  0.51411327  0.12814999  0.75490435  1
  O2-  O254  1  0.52016852  0.61639819  0.26130102  1
  O2-  O255  1  0.51740415  0.63099225  0.75965601  1
  O2-  O256  1  0.13555765  0.48580161  -0.01862575  1
  O2-  O257  1  0.12499065  0.49228924  0.47702409  1
  O2-  O258  1  0.12086946  0.98421435  -0.01600012  1
  O2-  O259  1  0.13444839  0.97178822  0.47307635  1
  O2-  O260  1  0.63146247  0.47030582  -0.02037665  1
  O2-  O261  1  0.63551601  0.48360003  0.47437110  1
  O2-  O262  1  0.63035854  0.97383632  -0.02465400  1
  O2-  O263  1  0.61905642  0.97855542  0.48345375  1
  O2-  O264  1  0.36162340  0.01130382  0.03057967  1
  O2-  O265  1  0.37907852  0.00722984  0.51833915  1
  O2-  O266  1  0.36461659  0.53140140  0.02565931  1
  O2-  O267  1  0.36207905  0.53445434  0.51414558  1
  O2-  O268  1  0.88000495  0.01532445  0.01760147  1
  O2-  O269  1  0.86511850  0.01157634  0.53237230  1
  O2-  O270  1  0.86510297  0.53142558  0.02443709  1
  O2-  O271  1  0.88332295  0.52032495  0.51391894  1
  O2-  O272  1  0.46917227  0.36262742  0.00349216  1
  O2-  O273  1  0.47689164  0.36145139  0.49696288  1
  O2-  O274  1  0.45775924  0.86037146  0.00377483  1
  O2-  O275  1  0.48792107  0.87627618  0.51864289  1
  O2-  O276  1  0.98398075  0.36388466  -0.01701539  1
  O2-  O277  1  0.98407632  0.38356409  0.48031262  1
  O2-  O278  1  0.98978575  0.88107565  -0.01255405  1
  O2-  O279  1  0.98636545  0.86445427  0.47068365  1
  O2-  O280  1  0.01905706  0.12091870  0.01755019  1
  O2-  O281  1  0.02632366  0.13591565  0.52055932  1
  O2-  O282  1  0.01753911  0.63533200  0.02941577  1
  O2-  O283  1  0.01480226  0.62502090  0.51119584  1
  O2-  O284  1  0.52171586  0.13050758  0.00290103  1
  O2-  O285  1  0.51920374  0.11862334  0.50327717  1
  O2-  O286  1  0.51183244  0.63854915  -0.03220210  1
  O2-  O287  1  0.52094974  0.63734479  0.49025532  1
  O2-  O288  1  0.11625606  0.26041906  0.03551418  1
  O2-  O289  1  0.11571108  0.28472927  0.51253628  1
  O2-  O290  1  0.12827237  0.76637007  0.02089217  1
  O2-  O291  1  0.13016322  0.76601568  0.51349280  1
  O2-  O292  1  0.61292332  0.26765031  0.02382441  1
  O2-  O293  1  0.61363215  0.26195191  0.52872321  1
  O2-  O294  1  0.61203825  0.78209339  0.01162021  1
  O2-  O295  1  0.62704710  0.76403313  0.51909558  1
  O2-  O296  1  0.38399754  0.21834476  -0.01917766  1
  O2-  O297  1  0.38619741  0.21829516  0.48754170  1
  O2-  O298  1  0.36453759  0.72738315  -0.02066496  1
  O2-  O299  1  0.37752450  0.73713464  0.48615445  1
  O2-  O300  1  0.88879327  0.22227913  -0.00991430  1
  O2-  O301  1  0.88986804  0.23777011  0.46709110  1
  O2-  O302  1  0.88661293  0.73502813  -0.02598319  1
  O2-  O303  1  0.87665465  0.73349999  0.48161991  1
  O2-  O304  1  0.27306146  0.38838138  0.01424476  1
  O2-  O305  1  0.27668200  0.38762342  0.50475782  1
  O2-  O306  1  0.26052733  0.86640098  0.00026267  1
  O2-  O307  1  0.26971307  0.86897576  0.49559850  1
  O2-  O308  1  0.78069488  0.38259012  0.01574406  1
  O2-  O309  1  0.77198386  0.38555341  0.52399573  1
  O2-  O310  1  0.77094197  0.88280430  0.02702327  1
  O2-  O311  1  0.76690358  0.86663872  0.51894774  1
  O2-  O312  1  0.22706511  0.11578205  -0.00554436  1
  O2-  O313  1  0.22411394  0.11464072  0.49219220  1
  O2-  O314  1  0.22293264  0.62959503  -0.00149334  1
  O2-  O315  1  0.23408708  0.63334854  0.48461176  1
  O2-  O316  1  0.73539003  0.11347441  -0.02555267  1
  O2-  O317  1  0.73504696  0.11316414  0.47762384  1
  O2-  O318  1  0.72026130  0.61711686  -0.01214454  1
  O2-  O319  1  0.74072011  0.63023215  0.47975961  1
