# generated using pymatgen
data_Sr64Ca21Nb43O192
_symmetry_space_group_name_H-M   'P 1'
_cell_length_a   16.55998215
_cell_length_b   16.56828862
_cell_length_c   16.72159872
_cell_angle_alpha   89.99016663
_cell_angle_beta   89.99443026
_cell_angle_gamma   90.12148250
_symmetry_Int_Tables_number   1
_chemical_formula_structural   Sr64Ca21Nb43O192
_chemical_formula_sum   'Sr64 Ca21 Nb43 O192'
_cell_volume   4587.90406693
_cell_formula_units_Z   1
loop_
 _symmetry_equiv_pos_site_id
 _symmetry_equiv_pos_as_xyz
  1  'x, y, z'
loop_
 _atom_type_symbol
 _atom_type_oxidation_number
  Sr2+  2.0
  Ca2+  2.0
  Nb5+  5.0
  O2-  -2.0
loop_
 _atom_site_type_symbol
 _atom_site_label
 _atom_site_symmetry_multiplicity
 _atom_site_fract_x
 _atom_site_fract_y
 _atom_site_fract_z
 _atom_site_occupancy
  Sr2+  Sr0  1  0.12542321  0.10048862  0.12271807  1
  Sr2+  Sr1  1  0.11903804  0.10552193  0.62231028  1
  Sr2+  Sr2  1  0.11845967  0.62422823  0.12517066  1
  Sr2+  Sr3  1  0.12698558  0.62603585  0.62510947  1
  Sr2+  Sr4  1  0.62366581  0.12859245  0.12548259  1
  Sr2+  Sr5  1  0.61863893  0.12784660  0.63169257  1
  Sr2+  Sr6  1  0.63242052  0.63024104  0.11008613  1
  Sr2+  Sr7  1  0.60945240  0.62861712  0.62032954  1
  Sr2+  Sr8  1  0.36452178  0.36617195  0.12977932  1
  Sr2+  Sr9  1  0.36561172  0.38332475  0.62527714  1
  Sr2+  Sr10  1  0.36491585  0.86623492  0.12261625  1
  Sr2+  Sr11  1  0.36743349  0.88234130  0.62831380  1
  Sr2+  Sr12  1  0.87542627  0.37711331  0.12286570  1
  Sr2+  Sr13  1  0.87410757  0.36997916  0.62470136  1
  Sr2+  Sr14  1  0.88232081  0.85652817  0.12752465  1
  Sr2+  Sr15  1  0.86869767  0.88850356  0.62923352  1
  Sr2+  Sr16  1  0.12253085  0.36954277  0.37186381  1
  Sr2+  Sr17  1  0.12919056  0.37273552  0.87586709  1
  Sr2+  Sr18  1  0.13444034  0.87624082  0.37283458  1
  Sr2+  Sr19  1  0.12105836  0.88061419  0.87931297  1
  Sr2+  Sr20  1  0.62848959  0.37246307  0.38308876  1
  Sr2+  Sr21  1  0.63508477  0.37163771  0.87363883  1
  Sr2+  Sr22  1  0.63211113  0.86922426  0.38615051  1
  Sr2+  Sr23  1  0.62615244  0.88303316  0.87170697  1
  Sr2+  Sr24  1  0.38356196  0.11417211  0.36862872  1
  Sr2+  Sr25  1  0.39428234  0.12669898  0.87906182  1
  Sr2+  Sr26  1  0.38296716  0.61498153  0.37454653  1
  Sr2+  Sr27  1  0.38436243  0.62981784  0.87118098  1
  Sr2+  Sr28  1  0.86764505  0.12584000  0.38287961  1
  Sr2+  Sr29  1  0.88867643  0.11899181  0.87016482  1
  Sr2+  Sr30  1  0.86528872  0.63091876  0.37453359  1
  Sr2+  Sr31  1  0.86980277  0.63027885  0.87824158  1
  Sr2+  Sr32  1  0.12899992  0.11080998  0.37376371  1
  Sr2+  Sr33  1  0.12388758  0.12778062  0.87516943  1
  Sr2+  Sr34  1  0.12762857  0.63576179  0.37787228  1
  Sr2+  Sr35  1  0.13018676  0.63753426  0.87048808  1
  Sr2+  Sr36  1  0.63177494  0.12608858  0.37375947  1
  Sr2+  Sr37  1  0.63284846  0.11773808  0.87651164  1
  Sr2+  Sr38  1  0.62676560  0.63847057  0.37778109  1
  Sr2+  Sr39  1  0.62358626  0.65577373  0.86877393  1
  Sr2+  Sr40  1  0.38310094  0.36357476  0.37154659  1
  Sr2+  Sr41  1  0.37444776  0.36440997  0.87840831  1
  Sr2+  Sr42  1  0.37853618  0.86208667  0.37330567  1
  Sr2+  Sr43  1  0.38799970  0.87169127  0.87955574  1
  Sr2+  Sr44  1  0.87357276  0.36986654  0.38393228  1
  Sr2+  Sr45  1  0.88097563  0.37528263  0.87946737  1
  Sr2+  Sr46  1  0.87871515  0.86238579  0.36856577  1
  Sr2+  Sr47  1  0.87356858  0.87850423  0.86904093  1
  Sr2+  Sr48  1  0.12622234  0.37874079  0.12652515  1
  Sr2+  Sr49  1  0.10956364  0.38390769  0.63158481  1
  Sr2+  Sr50  1  0.11624550  0.86844425  0.12818423  1
  Sr2+  Sr51  1  0.12962106  0.86611519  0.61951155  1
  Sr2+  Sr52  1  0.64549786  0.38051223  0.12537830  1
  Sr2+  Sr53  1  0.59935731  0.37243853  0.62716521  1
  Sr2+  Sr54  1  0.59906355  0.87503369  0.11947547  1
  Sr2+  Sr55  1  0.62571791  0.87914603  0.63375452  1
  Sr2+  Sr56  1  0.37795596  0.12192666  0.12441962  1
  Sr2+  Sr57  1  0.37934044  0.12482090  0.62488488  1
  Sr2+  Sr58  1  0.39601870  0.62330531  0.12790644  1
  Sr2+  Sr59  1  0.36581584  0.62633406  0.62398842  1
  Sr2+  Sr60  1  0.86718773  0.12794430  0.13097255  1
  Sr2+  Sr61  1  0.87506671  0.12515263  0.63088248  1
  Sr2+  Sr62  1  0.86871803  0.62092096  0.12715154  1
  Sr2+  Sr63  1  0.87495015  0.61637041  0.62531832  1
  Ca2+  Ca64  1  -0.00602036  -0.00158271  0.00302379  1
  Ca2+  Ca65  1  0.50178676  0.49662245  -0.00100831  1
  Ca2+  Ca66  1  0.49925027  0.00365207  0.00086383  1
  Ca2+  Ca67  1  -0.00273016  -0.00429750  0.49706127  1
  Ca2+  Ca68  1  0.49883874  0.00096106  0.49974079  1
  Ca2+  Ca69  1  0.75431972  0.75100158  0.50655483  1
  Ca2+  Ca70  1  0.24823436  0.24686051  0.50043812  1
  Ca2+  Ca71  1  0.75320037  0.75631951  -0.00207510  1
  Ca2+  Ca72  1  0.25317022  0.75024126  0.49725019  1
  Ca2+  Ca73  1  0.24985081  0.74505487  0.00093517  1
  Ca2+  Ca74  1  0.24965040  0.00159193  0.75522905  1
  Ca2+  Ca75  1  0.74926135  0.50020599  0.74728628  1
  Ca2+  Ca76  1  0.00171259  0.25033083  0.74802000  1
  Ca2+  Ca77  1  0.49772399  0.25322511  0.75382880  1
  Ca2+  Ca78  1  0.50265127  0.25149080  0.24808453  1
  Ca2+  Ca79  1  0.49712971  0.75220262  0.74412170  1
  Ca2+  Ca80  1  0.00052637  0.74992660  0.74683655  1
  Ca2+  Ca81  1  0.74846403  -0.00297660  0.25129329  1
  Ca2+  Ca82  1  0.50227098  0.74949080  0.25173154  1
  Ca2+  Ca83  1  -0.00314267  0.24839933  0.24786785  1
  Ca2+  Ca84  1  0.75336318  0.50015021  0.25362411  1
  Nb5+  Nb85  1  -0.00342531  0.50310471  0.50087693  1
  Nb5+  Nb86  1  0.00262906  0.50070548  0.00405679  1
  Nb5+  Nb87  1  0.49243947  0.49871557  0.50157065  1
  Nb5+  Nb88  1  0.74867390  0.25052282  0.51016295  1
  Nb5+  Nb89  1  0.24871138  0.24717190  -0.00049652  1
  Nb5+  Nb90  1  0.75714496  0.24747695  0.00175779  1
  Nb5+  Nb91  1  0.75061410  0.00370390  0.75157719  1
  Nb5+  Nb92  1  0.25388894  -0.00736568  0.24732170  1
  Nb5+  Nb93  1  0.00086770  0.74482531  0.25131763  1
  Nb5+  Nb94  1  0.25020125  0.50019396  0.75768641  1
  Nb5+  Nb95  1  0.25080053  0.49601818  0.25413714  1
  Nb5+  Nb96  1  -0.00279262  0.00077049  0.25144404  1
  Nb5+  Nb97  1  0.00498246  -0.00496165  0.74818296  1
  Nb5+  Nb98  1  0.00071667  0.50058530  0.25541565  1
  Nb5+  Nb99  1  -0.00058456  0.50514671  0.75843130  1
  Nb5+  Nb100  1  0.50300485  -0.00380331  0.25438358  1
  Nb5+  Nb101  1  0.49651147  0.00511752  0.75022989  1
  Nb5+  Nb102  1  0.50867263  0.49604512  0.25026372  1
  Nb5+  Nb103  1  0.49985101  0.49691189  0.75450934  1
  Nb5+  Nb104  1  0.24175604  0.24086712  0.24984510  1
  Nb5+  Nb105  1  0.24843966  0.24821598  0.74612597  1
  Nb5+  Nb106  1  0.24970360  0.73960565  0.24690710  1
  Nb5+  Nb107  1  0.25472030  0.75433301  0.75469059  1
  Nb5+  Nb108  1  0.74956799  0.25024535  0.25726557  1
  Nb5+  Nb109  1  0.75201280  0.25175575  0.75593150  1
  Nb5+  Nb110  1  0.74452067  0.75355680  0.24718042  1
  Nb5+  Nb111  1  0.75213736  0.74864695  0.74453310  1
  Nb5+  Nb112  1  0.00454197  0.24979025  0.49817149  1
  Nb5+  Nb113  1  0.00521012  0.25023521  1.00220738  1
  Nb5+  Nb114  1  -0.00064300  0.74951340  0.50161557  1
  Nb5+  Nb115  1  -0.00283469  0.74848511  0.99404423  1
  Nb5+  Nb116  1  0.49799019  0.24542619  0.49659960  1
  Nb5+  Nb117  1  0.51137135  0.25719839  1.00249745  1
  Nb5+  Nb118  1  0.49701736  0.75554047  0.50274343  1
  Nb5+  Nb119  1  0.50050268  0.74791464  1.00073036  1
  Nb5+  Nb120  1  0.24945403  -0.00491619  -0.00285795  1
  Nb5+  Nb121  1  0.25167291  0.00124787  0.50373995  1
  Nb5+  Nb122  1  0.25126763  0.50110982  0.00520767  1
  Nb5+  Nb123  1  0.24171538  0.49460663  0.50252048  1
  Nb5+  Nb124  1  0.75375222  0.00021403  0.00544095  1
  Nb5+  Nb125  1  0.75123310  -0.00075072  0.49900562  1
  Nb5+  Nb126  1  0.74871508  0.50139707  -0.00652344  1
  Nb5+  Nb127  1  0.74138582  0.49858102  0.50331103  1
  O2-  O128  1  -0.00975822  -0.02096678  0.13645832  1
  O2-  O129  1  -0.00836163  0.01121358  0.63129757  1
  O2-  O130  1  0.00575328  0.50761564  0.12341903  1
  O2-  O131  1  0.00456744  0.51049074  0.61892422  1
  O2-  O132  1  0.50997603  0.02315929  0.13640650  1
  O2-  O133  1  0.50128366  0.03112381  0.63337727  1
  O2-  O134  1  0.51607730  0.52387767  0.13823894  1
  O2-  O135  1  0.50450685  0.51622710  0.62054847  1
  O2-  O136  1  0.02154202  -0.01634586  0.36451345  1
  O2-  O137  1  0.00110431  -0.00724086  0.86842497  1
  O2-  O138  1  0.01099712  0.49297461  0.37274263  1
  O2-  O139  1  0.00062752  0.49469334  0.87534054  1
  O2-  O140  1  0.47268117  -0.02229725  0.36808563  1
  O2-  O141  1  0.49946438  -0.02578277  0.86667304  1
  O2-  O142  1  0.49065114  0.47399806  0.38339774  1
  O2-  O143  1  0.47321420  0.48347245  0.86481213  1
  O2-  O144  1  0.24936051  0.26433034  0.11933478  1
  O2-  O145  1  0.28009081  0.25332351  0.63552143  1
  O2-  O146  1  0.23471248  0.77063593  0.13477428  1
  O2-  O147  1  0.23946379  0.75704214  0.63409268  1
  O2-  O148  1  0.76392124  0.24991815  0.11904171  1
  O2-  O149  1  0.76751049  0.25122589  0.62471633  1
  O2-  O150  1  0.75198320  0.73625154  0.13118803  1
  O2-  O151  1  0.75179646  0.78807849  0.63448822  1
  O2-  O152  1  0.22999508  0.24024346  0.36362122  1
  O2-  O153  1  0.22137523  0.24926654  0.88372479  1
  O2-  O154  1  0.24958615  0.75097671  0.36180939  1
  O2-  O155  1  0.26120499  0.72289240  0.86889527  1
  O2-  O156  1  0.73696455  0.25004422  0.37531764  1
  O2-  O157  1  0.73203911  0.24856287  0.87473693  1
  O2-  O158  1  0.75804213  0.75195059  0.36888210  1
  O2-  O159  1  0.76955440  0.75126369  0.86373997  1
  O2-  O160  1  -0.03271457  0.25199335  0.11284321  1
  O2-  O161  1  -0.02311778  0.24574502  0.61252634  1
  O2-  O162  1  0.01136193  0.74596430  0.12847435  1
  O2-  O163  1  0.02644738  0.74356000  0.61340420  1
  O2-  O164  1  0.49506416  0.22079238  0.11462263  1
  O2-  O165  1  0.49482475  0.23154041  0.61514183  1
  O2-  O166  1  0.52027367  0.72846576  0.11971456  1
  O2-  O167  1  0.48917640  0.71690921  0.61322510  1
  O2-  O168  1  0.24491884  0.00952420  0.36647981  1
  O2-  O169  1  0.22094104  0.01033076  0.88638215  1
  O2-  O170  1  0.24769244  0.51295047  0.37041884  1
  O2-  O171  1  0.25316910  0.50725197  0.87465923  1
  O2-  O172  1  0.74540689  0.02256478  0.38597003  1
  O2-  O173  1  0.75144588  0.01113153  0.87302126  1
  O2-  O174  1  0.76020384  0.49378254  0.38881796  1
  O2-  O175  1  0.77082037  0.48703502  0.88076862  1
  O2-  O176  1  -0.00074701  0.27533981  0.38250491  1
  O2-  O177  1  0.00364008  0.26428348  0.88488392  1
  O2-  O178  1  -0.01364912  0.73884245  0.37102346  1
  O2-  O179  1  -0.01440644  0.73398060  0.88124104  1
  O2-  O180  1  0.51480928  0.27997624  0.38400690  1
  O2-  O181  1  0.50897691  0.28774264  0.88630068  1
  O2-  O182  1  0.52027478  0.76470095  0.38475167  1
  O2-  O183  1  0.48478931  0.75785805  0.88147611  1
  O2-  O184  1  0.25903946  -0.00399678  0.12534025  1
  O2-  O185  1  0.25644859  -0.00614533  0.61948123  1
  O2-  O186  1  0.24373660  0.48460810  0.12364469  1
  O2-  O187  1  0.24218534  0.48535979  0.62008651  1
  O2-  O188  1  0.74687875  0.01494821  0.11842411  1
  O2-  O189  1  0.75173883  -0.00268245  0.62888002  1
  O2-  O190  1  0.75596346  0.49905422  0.11414154  1
  O2-  O191  1  0.77938769  0.49236179  0.61364113  1
  O2-  O192  1  0.13127655  0.28102039  0.23787508  1
  O2-  O193  1  0.13670957  0.28645231  0.74193000  1
  O2-  O194  1  0.12239128  0.76615451  0.25957193  1
  O2-  O195  1  0.13624823  0.77292363  0.77156279  1
  O2-  O196  1  0.63631622  0.28251893  0.23528019  1
  O2-  O197  1  0.63668869  0.26966611  0.73344554  1
  O2-  O198  1  0.63551474  0.78771721  0.24926150  1
  O2-  O199  1  0.63320003  0.77580967  0.76128743  1
  O2-  O200  1  0.36002865  0.23826877  0.24679015  1
  O2-  O201  1  0.35971275  0.23774696  0.78630655  1
  O2-  O202  1  0.36512558  0.72606708  0.24049863  1
  O2-  O203  1  0.36590953  0.71491766  0.74340077  1
  O2-  O204  1  0.86383196  0.21389373  0.25959991  1
  O2-  O205  1  0.86571305  0.21902047  0.76007940  1
  O2-  O206  1  0.88351369  0.72292175  0.24131256  1
  O2-  O207  1  0.86764856  0.72011296  0.73485340  1
  O2-  O208  1  0.26668398  0.38104729  0.26044406  1
  O2-  O209  1  0.27376759  0.38131576  0.75807948  1
  O2-  O210  1  0.27281955  0.87854634  0.25668658  1
  O2-  O211  1  0.28681362  0.86606598  0.76343471  1
  O2-  O212  1  0.78571640  0.36477206  0.24739726  1
  O2-  O213  1  0.78179501  0.36375140  0.75564329  1
  O2-  O214  1  0.79041505  0.86471213  0.24598505  1
  O2-  O215  1  0.76940759  0.88612532  0.76070073  1
  O2-  O216  1  0.22427595  0.12636210  0.23617654  1
  O2-  O217  1  0.21612904  0.13665870  0.74377529  1
  O2-  O218  1  0.22496950  0.62493365  0.23940993  1
  O2-  O219  1  0.22618112  0.61539713  0.73859469  1
  O2-  O220  1  0.71652896  0.13568943  0.24401049  1
  O2-  O221  1  0.72689151  0.12517420  0.74462638  1
  O2-  O222  1  0.72475523  0.63404393  0.25789648  1
  O2-  O223  1  0.71948635  0.63648444  0.73171954  1
  O2-  O224  1  0.12810127  0.48433361  0.24599774  1
  O2-  O225  1  0.13036273  0.47535269  0.75400327  1
  O2-  O226  1  0.13324328  0.97893812  0.23649970  1
  O2-  O227  1  0.11647810  0.96398664  0.73779606  1
  O2-  O228  1  0.61847021  0.46830276  0.26187974  1
  O2-  O229  1  0.61372205  0.46812238  0.75638423  1
  O2-  O230  1  0.61426778  0.96923018  0.26724950  1
  O2-  O231  1  0.62899087  0.98584145  0.74958544  1
  O2-  O232  1  0.36668705  0.02897636  0.24416517  1
  O2-  O233  1  0.38210966  0.03097079  0.75487752  1
  O2-  O234  1  0.36391510  0.52449991  0.24252539  1
  O2-  O235  1  0.36770538  0.52180210  0.73616834  1
  O2-  O236  1  0.88544447  0.02304375  0.26523580  1
  O2-  O237  1  0.86989155  0.02476618  0.75014141  1
  O2-  O238  1  0.88984589  0.53231550  0.25364526  1
  O2-  O239  1  0.88820368  0.53413299  0.75448657  1
  O2-  O240  1  0.46308238  0.38868477  0.23876004  1
  O2-  O241  1  0.47444136  0.38487205  0.72097385  1
  O2-  O242  1  0.46855318  0.88360967  0.22648825  1
  O2-  O243  1  0.48491067  0.88783295  0.72108727  1
  O2-  O244  1  0.98172749  0.38853787  0.23928534  1
  O2-  O245  1  0.98243322  0.38957002  0.73508417  1
  O2-  O246  1  0.98477476  0.86402787  0.25235976  1
  O2-  O247  1  0.96357405  0.88254613  0.74632442  1
  O2-  O248  1  0.03029020  0.11214587  0.24492563  1
  O2-  O249  1  0.02416257  0.11503931  0.75859044  1
  O2-  O250  1  0.03119043  0.62430153  0.25132767  1
  O2-  O251  1  0.03859246  0.61454071  0.74802062  1
  O2-  O252  1  0.51189546  0.11534435  0.27975877  1
  O2-  O253  1  0.52360963  0.12007209  0.77576892  1
  O2-  O254  1  0.50672130  0.60973667  0.28485068  1
  O2-  O255  1  0.52262481  0.61324536  0.76148366  1
  O2-  O256  1  0.11983503  0.47176462  -0.00198310  1
  O2-  O257  1  0.12742867  0.47197127  0.49478348  1
  O2-  O258  1  0.13236006  0.97953155  0.02243754  1
  O2-  O259  1  0.13315516  0.96708071  0.50643394  1
  O2-  O260  1  0.63737027  0.46755269  -0.00632804  1
  O2-  O261  1  0.62700107  0.47296079  0.50614527  1
  O2-  O262  1  0.63633727  0.98249583  -0.00706228  1
  O2-  O263  1  0.63436986  0.97407687  0.50731426  1
  O2-  O264  1  0.36122402  0.03489569  -0.00351474  1
  O2-  O265  1  0.36393517  0.04151264  0.49939061  1
  O2-  O266  1  0.36331853  0.52476850  0.00908402  1
  O2-  O267  1  0.37648827  0.51851921  0.50529713  1
  O2-  O268  1  0.86394569  0.04492761  -0.00165662  1
  O2-  O269  1  0.86462347  0.03640698  0.50743323  1
  O2-  O270  1  0.88221846  0.51907380  0.00174823  1
  O2-  O271  1  0.88471275  0.52470730  0.48989092  1
  O2-  O272  1  0.46984206  0.36517368  0.02711074  1
  O2-  O273  1  0.48437981  0.37706493  0.52302110  1
  O2-  O274  1  0.47625217  0.86667475  0.02176917  1
  O2-  O275  1  0.46995358  0.86547999  0.51987363  1
  O2-  O276  1  0.97696892  0.38055044  0.00436683  1
  O2-  O277  1  0.97724552  0.38454289  0.50743908  1
  O2-  O278  1  0.97160755  0.86146381  -0.00451027  1
  O2-  O279  1  0.96558273  0.85983710  0.50144462  1
  O2-  O280  1  0.02510635  0.13598042  -0.00071040  1
  O2-  O281  1  0.02130849  0.13652667  0.48384399  1
  O2-  O282  1  0.02679238  0.61795863  -0.00278554  1
  O2-  O283  1  0.03327475  0.61683146  0.49257467  1
  O2-  O284  1  0.51388910  0.14123302  -0.02959440  1
  O2-  O285  1  0.53006225  0.13620721  0.48029385  1
  O2-  O286  1  0.53030583  0.63071787  -0.01616290  1
  O2-  O287  1  0.52357077  0.61081080  0.48135525  1
  O2-  O288  1  0.11779163  0.27793936  0.01387540  1
  O2-  O289  1  0.11411262  0.28353550  0.51252999  1
  O2-  O290  1  0.11450896  0.77120545  -0.00892294  1
  O2-  O291  1  0.11509522  0.76703228  0.47528700  1
  O2-  O292  1  0.62665834  0.27719644  0.01286632  1
  O2-  O293  1  0.63112067  0.27602111  0.51153620  1
  O2-  O294  1  0.61926451  0.77947157  -0.01210945  1
  O2-  O295  1  0.61722544  0.76611807  0.51638207  1
  O2-  O296  1  0.36307265  0.23560471  -0.01112131  1
  O2-  O297  1  0.38504425  0.23058877  0.47743052  1
  O2-  O298  1  0.38365539  0.72208247  0.01640830  1
  O2-  O299  1  0.38580927  0.71941897  0.47853150  1
  O2-  O300  1  0.86936235  0.23033881  -0.01995940  1
  O2-  O301  1  0.86734583  0.23783785  0.48418081  1
  O2-  O302  1  0.88559907  0.71584466  0.01676109  1
  O2-  O303  1  0.88804106  0.70747712  0.50547169  1
  O2-  O304  1  0.26102785  0.37707524  -0.01137197  1
  O2-  O305  1  0.27919461  0.38515581  0.48266378  1
  O2-  O306  1  0.27773831  0.88404464  -0.01369837  1
  O2-  O307  1  0.28200542  0.88640789  0.48768440  1
  O2-  O308  1  0.77278142  0.36823184  -0.00098887  1
  O2-  O309  1  0.77024175  0.37149706  0.49838644  1
  O2-  O310  1  0.78763807  0.89003331  0.00241492  1
  O2-  O311  1  0.78077335  0.88849176  0.48659925  1
  O2-  O312  1  0.22144945  0.13328655  0.00986354  1
  O2-  O313  1  0.20961880  0.11509732  0.50231896  1
  O2-  O314  1  0.21354673  0.60973024  0.00648170  1
  O2-  O315  1  0.23338108  0.61223837  0.50502028  1
  O2-  O316  1  0.71893209  0.13539784  0.00234240  1
  O2-  O317  1  0.72428925  0.13387228  0.50942706  1
  O2-  O318  1  0.72857022  0.61515851  -0.01411760  1
  O2-  O319  1  0.72391037  0.61385210  0.50644408  1
