# generated using pymatgen
data_Sr64Ca21Nb43O192
_symmetry_space_group_name_H-M   'P 1'
_cell_length_a   16.56129909
_cell_length_b   16.59385034
_cell_length_c   16.73645447
_cell_angle_alpha   89.86715319
_cell_angle_beta   90.02650662
_cell_angle_gamma   89.95405202
_symmetry_Int_Tables_number   1
_chemical_formula_structural   Sr64Ca21Nb43O192
_chemical_formula_sum   'Sr64 Ca21 Nb43 O192'
_cell_volume   4599.42642064
_cell_formula_units_Z   1
loop_
 _symmetry_equiv_pos_site_id
 _symmetry_equiv_pos_as_xyz
  1  'x, y, z'
loop_
 _atom_type_symbol
 _atom_type_oxidation_number
  Sr2+  2.0
  Ca2+  2.0
  Nb5+  5.0
  O2-  -2.0
loop_
 _atom_site_type_symbol
 _atom_site_label
 _atom_site_symmetry_multiplicity
 _atom_site_fract_x
 _atom_site_fract_y
 _atom_site_fract_z
 _atom_site_occupancy
  Sr2+  Sr0  1  0.11398095  0.14023191  0.13014559  1
  Sr2+  Sr1  1  0.12055061  0.13564336  0.62286931  1
  Sr2+  Sr2  1  0.12243442  0.63246608  0.13069449  1
  Sr2+  Sr3  1  0.11497958  0.63712288  0.62609412  1
  Sr2+  Sr4  1  0.61238284  0.13413620  0.12687651  1
  Sr2+  Sr5  1  0.63035383  0.13709242  0.62691792  1
  Sr2+  Sr6  1  0.62582668  0.62939081  0.12948857  1
  Sr2+  Sr7  1  0.61170571  0.63384675  0.62852740  1
  Sr2+  Sr8  1  0.36769125  0.39141409  0.12741068  1
  Sr2+  Sr9  1  0.36866116  0.36941361  0.62595226  1
  Sr2+  Sr10  1  0.37261318  0.87871285  0.12018630  1
  Sr2+  Sr11  1  0.37242554  0.88618063  0.62263757  1
  Sr2+  Sr12  1  0.87435787  0.36382681  0.12191375  1
  Sr2+  Sr13  1  0.87417848  0.36634900  0.61886520  1
  Sr2+  Sr14  1  0.86539048  0.89043629  0.12727150  1
  Sr2+  Sr15  1  0.86869254  0.88994724  0.62549476  1
  Sr2+  Sr16  1  0.14110949  0.37109804  0.37379421  1
  Sr2+  Sr17  1  0.13349560  0.38038991  0.88304614  1
  Sr2+  Sr18  1  0.13235489  0.87442862  0.37913548  1
  Sr2+  Sr19  1  0.13529610  0.86391548  0.87461177  1
  Sr2+  Sr20  1  0.62711349  0.37287988  0.36110602  1
  Sr2+  Sr21  1  0.62201191  0.36970550  0.87631198  1
  Sr2+  Sr22  1  0.62545384  0.87030734  0.38204734  1
  Sr2+  Sr23  1  0.63824707  0.86884410  0.87717962  1
  Sr2+  Sr24  1  0.38747522  0.12442669  0.37538153  1
  Sr2+  Sr25  1  0.38975185  0.11523929  0.87247915  1
  Sr2+  Sr26  1  0.39673307  0.61465926  0.37394773  1
  Sr2+  Sr27  1  0.38938795  0.61620576  0.87109594  1
  Sr2+  Sr28  1  0.88992673  0.11863046  0.36594492  1
  Sr2+  Sr29  1  0.88259981  0.11304663  0.87666404  1
  Sr2+  Sr30  1  0.87077449  0.61357466  0.38238560  1
  Sr2+  Sr31  1  0.88708212  0.62214553  0.87415897  1
  Sr2+  Sr32  1  0.13312417  0.11245946  0.36823577  1
  Sr2+  Sr33  1  0.13519226  0.11011335  0.87324509  1
  Sr2+  Sr34  1  0.12866584  0.61461117  0.37924840  1
  Sr2+  Sr35  1  0.12903004  0.62320631  0.87472002  1
  Sr2+  Sr36  1  0.62524059  0.13955742  0.37760354  1
  Sr2+  Sr37  1  0.62556110  0.12968729  0.87476334  1
  Sr2+  Sr38  1  0.62699314  0.63212141  0.37609869  1
  Sr2+  Sr39  1  0.63760469  0.61583908  0.87241750  1
  Sr2+  Sr40  1  0.38527585  0.36598783  0.37732889  1
  Sr2+  Sr41  1  0.38629374  0.35933815  0.87009106  1
  Sr2+  Sr42  1  0.38599453  0.85527532  0.37792694  1
  Sr2+  Sr43  1  0.38294361  0.87245703  0.87497769  1
  Sr2+  Sr44  1  0.87425820  0.36120073  0.37039440  1
  Sr2+  Sr45  1  0.88364305  0.36475375  0.88162421  1
  Sr2+  Sr46  1  0.87716687  0.87459343  0.37636412  1
  Sr2+  Sr47  1  0.87794968  0.86451877  0.87441123  1
  Sr2+  Sr48  1  0.11500768  0.38654909  0.12792238  1
  Sr2+  Sr49  1  0.12060883  0.37388538  0.62168426  1
  Sr2+  Sr50  1  0.11628552  0.88273041  0.12909786  1
  Sr2+  Sr51  1  0.11509185  0.88137119  0.62659277  1
  Sr2+  Sr52  1  0.63878032  0.37816445  0.12178280  1
  Sr2+  Sr53  1  0.61266412  0.38470092  0.63409991  1
  Sr2+  Sr54  1  0.60932467  0.88186404  0.12843305  1
  Sr2+  Sr55  1  0.61896387  0.88293059  0.61445265  1
  Sr2+  Sr56  1  0.37175761  0.12286516  0.11017567  1
  Sr2+  Sr57  1  0.35787349  0.13299590  0.62793479  1
  Sr2+  Sr58  1  0.37294584  0.63208268  0.13188130  1
  Sr2+  Sr59  1  0.37442552  0.62481131  0.61548975  1
  Sr2+  Sr60  1  0.87568764  0.13369609  0.12767167  1
  Sr2+  Sr61  1  0.87584265  0.12988407  0.63807493  1
  Sr2+  Sr62  1  0.86990527  0.62680250  0.13065303  1
  Sr2+  Sr63  1  0.87218388  0.62960262  0.61979009  1
  Ca2+  Ca64  1  0.00069047  -0.00185314  0.00166889  1
  Ca2+  Ca65  1  -0.00261611  0.00255858  0.50182706  1
  Ca2+  Ca66  1  0.49945743  0.50159163  -0.00034011  1
  Ca2+  Ca67  1  0.50292698  0.49483171  0.49927446  1
  Ca2+  Ca68  1  0.50029909  0.00336073  0.50233824  1
  Ca2+  Ca69  1  0.25045385  0.25148376  0.00040089  1
  Ca2+  Ca70  1  0.74962329  0.24774683  -0.00319636  1
  Ca2+  Ca71  1  0.75207921  0.25007754  0.49980152  1
  Ca2+  Ca72  1  0.75339389  0.75003826  0.50218882  1
  Ca2+  Ca73  1  0.24982275  0.74829419  0.50211154  1
  Ca2+  Ca74  1  0.49973816  0.75220310  0.75130022  1
  Ca2+  Ca75  1  0.49912018  0.24652093  0.74573228  1
  Ca2+  Ca76  1  0.25464605  -0.00114416  0.24793370  1
  Ca2+  Ca77  1  -0.00000000  0.25032723  0.75380733  1
  Ca2+  Ca78  1  0.74481787  -0.00136361  0.24966231  1
  Ca2+  Ca79  1  0.49623685  0.25063529  0.24641781  1
  Ca2+  Ca80  1  0.00334049  0.25544026  0.25313377  1
  Ca2+  Ca81  1  0.25124002  0.50311277  0.74838068  1
  Ca2+  Ca82  1  0.75320841  0.50198676  0.75030194  1
  Ca2+  Ca83  1  -0.00195291  0.74933825  0.24842237  1
  Ca2+  Ca84  1  0.50013460  0.74984057  0.24638412  1
  Nb5+  Nb85  1  0.50366620  -0.00224550  -0.00197657  1
  Nb5+  Nb86  1  0.00218532  0.50032411  0.50920144  1
  Nb5+  Nb87  1  -0.00118128  0.50586829  0.00714619  1
  Nb5+  Nb88  1  0.25792487  0.74774428  -0.00165538  1
  Nb5+  Nb89  1  0.24788994  0.24728212  0.49648939  1
  Nb5+  Nb90  1  0.75845315  0.74922367  0.00032758  1
  Nb5+  Nb91  1  0.75282134  -0.00049575  0.75154297  1
  Nb5+  Nb92  1  0.25502144  -0.00112868  0.74987071  1
  Nb5+  Nb93  1  0.25312775  0.50253039  0.25215208  1
  Nb5+  Nb94  1  -0.00082602  0.75005277  0.75085488  1
  Nb5+  Nb95  1  0.75663550  0.50035557  0.24846368  1
  Nb5+  Nb96  1  0.00092633  -0.00100052  0.24847013  1
  Nb5+  Nb97  1  0.00667514  -0.00201186  0.75712255  1
  Nb5+  Nb98  1  0.00214541  0.49900090  0.26160374  1
  Nb5+  Nb99  1  -0.00303972  0.49686233  0.75548623  1
  Nb5+  Nb100  1  0.49577051  -0.00269943  0.25696881  1
  Nb5+  Nb101  1  0.51226623  -0.00238154  0.75014949  1
  Nb5+  Nb102  1  0.50882407  0.49834192  0.24611668  1
  Nb5+  Nb103  1  0.49918879  0.50091502  0.75125752  1
  Nb5+  Nb104  1  0.25282781  0.24856272  0.24451360  1
  Nb5+  Nb105  1  0.24353472  0.25247124  0.75584871  1
  Nb5+  Nb106  1  0.24685367  0.75046806  0.25676410  1
  Nb5+  Nb107  1  0.25191296  0.74965637  0.75021500  1
  Nb5+  Nb108  1  0.74633128  0.24465180  0.24703966  1
  Nb5+  Nb109  1  0.75365607  0.25650781  0.75150645  1
  Nb5+  Nb110  1  0.75168712  0.75269037  0.25248713  1
  Nb5+  Nb111  1  0.74857839  0.75264685  0.74702059  1
  Nb5+  Nb112  1  0.00153191  0.24703729  0.49357355  1
  Nb5+  Nb113  1  0.00559729  0.24690914  0.99496264  1
  Nb5+  Nb114  1  0.00024582  0.75386543  0.49723139  1
  Nb5+  Nb115  1  0.00526043  0.75118908  1.00235397  1
  Nb5+  Nb116  1  0.50366025  0.25124434  0.50324569  1
  Nb5+  Nb117  1  0.49571787  0.25501040  1.00223089  1
  Nb5+  Nb118  1  0.50055779  0.74727203  0.50249489  1
  Nb5+  Nb119  1  0.51167150  0.74938267  0.99648240  1
  Nb5+  Nb120  1  0.24770398  -0.00269414  0.00046584  1
  Nb5+  Nb121  1  0.25355088  -0.00123247  0.49499148  1
  Nb5+  Nb122  1  0.25193929  0.50679082  -0.00170617  1
  Nb5+  Nb123  1  0.24921069  0.49826127  0.50305223  1
  Nb5+  Nb124  1  0.74641461  0.00320925  0.00206059  1
  Nb5+  Nb125  1  0.75354180  0.00298369  0.49314088  1
  Nb5+  Nb126  1  0.75374555  0.50131999  -0.00135296  1
  Nb5+  Nb127  1  0.74533705  0.49166466  0.50142757  1
  O2-  O128  1  0.03145674  0.01752465  0.13162290  1
  O2-  O129  1  0.01566096  0.01282536  0.64035086  1
  O2-  O130  1  0.01172446  0.52159042  0.12100615  1
  O2-  O131  1  0.01800642  0.51640886  0.62430022  1
  O2-  O132  1  0.51849746  0.01212973  0.11426916  1
  O2-  O133  1  0.53016224  0.01578654  0.63796098  1
  O2-  O134  1  0.50210861  0.52838842  0.13222581  1
  O2-  O135  1  0.52326992  0.51453335  0.63349139  1
  O2-  O136  1  -0.02547564  -0.01459790  0.36663352  1
  O2-  O137  1  -0.02702281  -0.02029955  0.86886516  1
  O2-  O138  1  -0.01568290  0.48674762  0.37499301  1
  O2-  O139  1  -0.01664080  0.49071292  0.87312149  1
  O2-  O140  1  0.46903326  -0.01806969  0.36743176  1
  O2-  O141  1  0.48510728  -0.01669031  0.87637005  1
  O2-  O142  1  0.48872708  0.48157370  0.36224014  1
  O2-  O143  1  0.47387165  0.48046533  0.86845483  1
  O2-  O144  1  0.28498214  0.26285124  0.13523685  1
  O2-  O145  1  0.26462030  0.25970358  0.61944077  1
  O2-  O146  1  0.27044728  0.75795536  0.11577451  1
  O2-  O147  1  0.26976589  0.77125069  0.63870523  1
  O2-  O148  1  0.77317406  0.25093219  0.13050242  1
  O2-  O149  1  0.77926849  0.24460050  0.63440807  1
  O2-  O150  1  0.77607729  0.75417800  0.11732427  1
  O2-  O151  1  0.78382803  0.75961943  0.63808365  1
  O2-  O152  1  0.22151351  0.23726551  0.38023127  1
  O2-  O153  1  0.21501651  0.23774954  0.86618710  1
  O2-  O154  1  0.21613060  0.73853657  0.36672038  1
  O2-  O155  1  0.22543837  0.73937479  0.87890799  1
  O2-  O156  1  0.72589744  0.25983420  0.36431837  1
  O2-  O157  1  0.71946329  0.24950570  0.86521679  1
  O2-  O158  1  0.72556216  0.75045050  0.36430428  1
  O2-  O159  1  0.73550926  0.74268519  0.87734435  1
  O2-  O160  1  -0.01687516  0.23912724  0.11383544  1
  O2-  O161  1  -0.01600760  0.23672861  0.61264195  1
  O2-  O162  1  -0.01012566  0.71637634  0.11089092  1
  O2-  O163  1  -0.01322524  0.73011012  0.63557905  1
  O2-  O164  1  0.48400892  0.21663476  0.11339774  1
  O2-  O165  1  0.47478842  0.22155907  0.61419742  1
  O2-  O166  1  0.48270042  0.73384818  0.10914950  1
  O2-  O167  1  0.48417312  0.72248918  0.61933347  1
  O2-  O168  1  0.26628682  0.02858516  0.38567094  1
  O2-  O169  1  0.26519887  0.01569344  0.87348835  1
  O2-  O170  1  0.24855885  0.51377476  0.37105649  1
  O2-  O171  1  0.25241271  0.52929798  0.88559819  1
  O2-  O172  1  0.77904329  0.01073734  0.38242309  1
  O2-  O173  1  0.75978073  0.00528304  0.87798611  1
  O2-  O174  1  0.75819072  0.49395960  0.36533320  1
  O2-  O175  1  0.76828695  0.52224717  0.88621135  1
  O2-  O176  1  0.01562027  0.29143751  0.38514044  1
  O2-  O177  1  0.01792392  0.28832263  0.88448036  1
  O2-  O178  1  0.01612810  0.77253580  0.38525919  1
  O2-  O179  1  0.01073655  0.76604444  0.87735943  1
  O2-  O180  1  0.51651396  0.27447733  0.38357203  1
  O2-  O181  1  0.51645489  0.26343116  0.88306418  1
  O2-  O182  1  0.51726976  0.76827264  0.38187363  1
  O2-  O183  1  0.50921011  0.78323008  0.88471763  1
  O2-  O184  1  0.24340130  -0.03229025  0.11201699  1
  O2-  O185  1  0.23296408  -0.02094710  0.63576386  1
  O2-  O186  1  0.23571688  0.48981846  0.12886250  1
  O2-  O187  1  0.24351497  0.46839870  0.61379556  1
  O2-  O188  1  0.72933348  -0.02375061  0.11306053  1
  O2-  O189  1  0.73323033  -0.01692873  0.63832738  1
  O2-  O190  1  0.74808780  0.50544585  0.12359930  1
  O2-  O191  1  0.73843125  0.49377400  0.61491072  1
  O2-  O192  1  0.13838475  0.28108270  0.23348618  1
  O2-  O193  1  0.13159546  0.25841228  0.71790563  1
  O2-  O194  1  0.13551916  0.76331661  0.21705438  1
  O2-  O195  1  0.12022229  0.77449191  0.74199862  1
  O2-  O196  1  0.63193067  0.27645102  0.22650875  1
  O2-  O197  1  0.63601954  0.26213526  0.72181753  1
  O2-  O198  1  0.63862222  0.75817331  0.21567398  1
  O2-  O199  1  0.63745194  0.78072778  0.73164210  1
  O2-  O200  1  0.36236610  0.24198640  0.28687440  1
  O2-  O201  1  0.35807135  0.22276819  0.76241306  1
  O2-  O202  1  0.36086094  0.71708572  0.26181916  1
  O2-  O203  1  0.36220345  0.73602919  0.77917336  1
  O2-  O204  1  0.86533922  0.23720220  0.27031963  1
  O2-  O205  1  0.86570733  0.22012320  0.77647037  1
  O2-  O206  1  0.86300896  0.71268662  0.26191822  1
  O2-  O207  1  0.88039681  0.73940641  0.77465387  1
  O2-  O208  1  0.26722622  0.38360817  0.26341557  1
  O2-  O209  1  0.26470848  0.36535085  0.76978671  1
  O2-  O210  1  0.27298040  0.86246286  0.26833266  1
  O2-  O211  1  0.25934829  0.87856098  0.77321221  1
  O2-  O212  1  0.76671168  0.38213238  0.23918197  1
  O2-  O213  1  0.78146163  0.36806545  0.75630899  1
  O2-  O214  1  0.78189313  0.86375435  0.25472843  1
  O2-  O215  1  0.76934074  0.87629415  0.76975589  1
  O2-  O216  1  0.22650436  0.13630740  0.23409433  1
  O2-  O217  1  0.22464334  0.11520146  0.73854694  1
  O2-  O218  1  0.22397539  0.61913323  0.23989543  1
  O2-  O219  1  0.22297012  0.63922064  0.73443881  1
  O2-  O220  1  0.72184941  0.13231319  0.24370986  1
  O2-  O221  1  0.73013151  0.11510691  0.74763215  1
  O2-  O222  1  0.72653786  0.61751890  0.24654726  1
  O2-  O223  1  0.72718098  0.63870002  0.74228208  1
  O2-  O224  1  0.11974153  0.47931632  0.26074792  1
  O2-  O225  1  0.11425088  0.48452380  0.76350569  1
  O2-  O226  1  0.11946938  0.97662842  0.27373102  1
  O2-  O227  1  0.12184408  0.98025945  0.77417575  1
  O2-  O228  1  0.62603818  0.47830603  0.24569885  1
  O2-  O229  1  0.61849907  0.47365246  0.77085566  1
  O2-  O230  1  0.61234041  0.96276590  0.26251915  1
  O2-  O231  1  0.62579576  0.97838427  0.77276960  1
  O2-  O232  1  0.38543531  0.02969889  0.22346573  1
  O2-  O233  1  0.36873953  0.01606088  0.73587560  1
  O2-  O234  1  0.36729416  0.52137248  0.24082360  1
  O2-  O235  1  0.38308567  0.53361717  0.73351518  1
  O2-  O236  1  0.88321018  0.02259663  0.22408928  1
  O2-  O237  1  0.87029021  0.01236567  0.73972841  1
  O2-  O238  1  0.87409949  0.52143425  0.24438764  1
  O2-  O239  1  0.88824574  0.53922995  0.73741764  1
  O2-  O240  1  0.47635749  0.38635342  0.22623560  1
  O2-  O241  1  0.47572506  0.38157591  0.73109510  1
  O2-  O242  1  0.47277044  0.88231559  0.22607449  1
  O2-  O243  1  0.47358974  0.88769207  0.73482361  1
  O2-  O244  1  0.97957825  0.39042778  0.22388318  1
  O2-  O245  1  0.97324668  0.38728115  0.73357009  1
  O2-  O246  1  0.98185481  0.88228262  0.22366786  1
  O2-  O247  1  0.98391323  0.87292986  0.73598940  1
  O2-  O248  1  0.02012639  0.12015269  0.26743862  1
  O2-  O249  1  0.01232545  0.11324870  0.77676090  1
  O2-  O250  1  0.02048646  0.61438591  0.26459147  1
  O2-  O251  1  0.02238061  0.63322450  0.76717276  1
  O2-  O252  1  0.52759753  0.11316743  0.26562973  1
  O2-  O253  1  0.51032716  0.11234973  0.77543669  1
  O2-  O254  1  0.51784370  0.61579984  0.27089398  1
  O2-  O255  1  0.52595696  0.61801041  0.77359915  1
  O2-  O256  1  0.11976519  0.49038602  -0.00818840  1
  O2-  O257  1  0.12217711  0.48167038  0.48231910  1
  O2-  O258  1  0.13612330  0.97670584  -0.02446756  1
  O2-  O259  1  0.13519605  0.97998766  0.49349806  1
  O2-  O260  1  0.63803126  0.48231801  -0.00904306  1
  O2-  O261  1  0.63673942  0.46001564  0.48506885  1
  O2-  O262  1  0.62107536  0.97462376  -0.01887215  1
  O2-  O263  1  0.63684539  0.97082649  0.48911460  1
  O2-  O264  1  0.37613159  0.00724071  0.00639669  1
  O2-  O265  1  0.36305256  0.01657656  0.53513461  1
  O2-  O266  1  0.36205244  0.53186635  0.01746633  1
  O2-  O267  1  0.36340633  0.51754111  0.49915613  1
  O2-  O268  1  0.86145356  0.02210599  0.01743162  1
  O2-  O269  1  0.86372478  0.02520765  0.53451593  1
  O2-  O270  1  0.87936802  0.52963556  0.01198096  1
  O2-  O271  1  0.88608792  0.52119610  0.50999264  1
  O2-  O272  1  0.46973012  0.36642415  0.01801020  1
  O2-  O273  1  0.46777806  0.36361619  0.51812735  1
  O2-  O274  1  0.48400234  0.87607152  0.01684306  1
  O2-  O275  1  0.48043211  0.86546981  0.51974052  1
  O2-  O276  1  0.98015905  0.39008466  0.01328853  1
  O2-  O277  1  0.99129891  0.38294926  0.52435013  1
  O2-  O278  1  0.97519877  0.86141843  0.02040748  1
  O2-  O279  1  0.97706843  0.86443772  0.52257447  1
  O2-  O280  1  0.02542883  0.13514050  -0.02390063  1
  O2-  O281  1  0.02579863  0.13606759  0.47291568  1
  O2-  O282  1  0.01342646  0.62496329  -0.02606791  1
  O2-  O283  1  0.02463889  0.62084777  0.48983425  1
  O2-  O284  1  0.51463114  0.11513988  -0.01961033  1
  O2-  O285  1  0.50759260  0.13502686  0.47025175  1
  O2-  O286  1  0.52132152  0.63691892  -0.02875373  1
  O2-  O287  1  0.52326575  0.62861729  0.48244282  1
  O2-  O288  1  0.11762917  0.27708684  0.02486670  1
  O2-  O289  1  0.12588542  0.26663398  0.51855768  1
  O2-  O290  1  0.12047097  0.77016817  0.01227190  1
  O2-  O291  1  0.11453980  0.76238124  0.53034340  1
  O2-  O292  1  0.61429576  0.26912542  0.01969327  1
  O2-  O293  1  0.61498754  0.26591324  0.52907286  1
  O2-  O294  1  0.62648018  0.76880557  0.01432148  1
  O2-  O295  1  0.62004300  0.76328788  0.52291014  1
  O2-  O296  1  0.38158877  0.22581536  -0.02672189  1
  O2-  O297  1  0.36352256  0.23343629  0.47987952  1
  O2-  O298  1  0.37027628  0.72916019  -0.02102564  1
  O2-  O299  1  0.38236319  0.72544574  0.47857442  1
  O2-  O300  1  0.88611488  0.23788094  -0.02361364  1
  O2-  O301  1  0.88717540  0.23452989  0.47213762  1
  O2-  O302  1  0.87268802  0.73146878  -0.01979626  1
  O2-  O303  1  0.88832371  0.71800190  0.48980705  1
  O2-  O304  1  0.26583402  0.39201294  -0.01615806  1
  O2-  O305  1  0.25969991  0.37152061  0.47914457  1
  O2-  O306  1  0.26690810  0.86674557  -0.02055673  1
  O2-  O307  1  0.27222575  0.88454261  0.47866926  1
  O2-  O308  1  0.77819618  0.38803142  -0.00113825  1
  O2-  O309  1  0.79298750  0.38451088  0.49248148  1
  O2-  O310  1  0.76581514  0.86900276  -0.01343508  1
  O2-  O311  1  0.78087127  0.88343544  0.49453570  1
  O2-  O312  1  0.23294126  0.11103032  0.01956236  1
  O2-  O313  1  0.23023511  0.12757736  0.51804456  1
  O2-  O314  1  0.22166042  0.63190641  0.01462316  1
  O2-  O315  1  0.22511314  0.61098831  0.51983883  1
  O2-  O316  1  0.71557452  0.11340985  0.00658793  1
  O2-  O317  1  0.71823738  0.11610918  0.50624426  1
  O2-  O318  1  0.72996629  0.63179990  0.01043418  1
  O2-  O319  1  0.74196269  0.60887193  0.48445906  1
