# generated using pymatgen
data_Sr64Ca21Nb43O192
_symmetry_space_group_name_H-M   'P 1'
_cell_length_a   16.61331883
_cell_length_b   16.60208690
_cell_length_c   16.72865779
_cell_angle_alpha   90.03955698
_cell_angle_beta   89.96781511
_cell_angle_gamma   89.90202905
_symmetry_Int_Tables_number   1
_chemical_formula_structural   Sr64Ca21Nb43O192
_chemical_formula_sum   'Sr64 Ca21 Nb43 O192'
_cell_volume   4614.01893588
_cell_formula_units_Z   1
loop_
 _symmetry_equiv_pos_site_id
 _symmetry_equiv_pos_as_xyz
  1  'x, y, z'
loop_
 _atom_type_symbol
 _atom_type_oxidation_number
  Sr2+  2.0
  Ca2+  2.0
  Nb5+  5.0
  O2-  -2.0
loop_
 _atom_site_type_symbol
 _atom_site_label
 _atom_site_symmetry_multiplicity
 _atom_site_fract_x
 _atom_site_fract_y
 _atom_site_fract_z
 _atom_site_occupancy
  Sr2+  Sr0  1  0.12961646  0.10767530  0.12454343  1
  Sr2+  Sr1  1  0.11306566  0.13313012  0.62285653  1
  Sr2+  Sr2  1  0.11358372  0.63890802  0.12658329  1
  Sr2+  Sr3  1  0.12039455  0.63265369  0.63110194  1
  Sr2+  Sr4  1  0.62758596  0.13609933  0.12666918  1
  Sr2+  Sr5  1  0.62623815  0.13229207  0.62231526  1
  Sr2+  Sr6  1  0.64026014  0.63635801  0.12116510  1
  Sr2+  Sr7  1  0.63472828  0.64196606  0.62152679  1
  Sr2+  Sr8  1  0.37608164  0.38339564  0.13395607  1
  Sr2+  Sr9  1  0.37229781  0.38762446  0.61783582  1
  Sr2+  Sr10  1  0.37486911  0.87738224  0.11840359  1
  Sr2+  Sr11  1  0.37344634  0.87944260  0.60841540  1
  Sr2+  Sr12  1  0.87678386  0.38630574  0.11745846  1
  Sr2+  Sr13  1  0.88210298  0.36193767  0.62933824  1
  Sr2+  Sr14  1  0.88745878  0.88191583  0.13214450  1
  Sr2+  Sr15  1  0.87380753  0.87420608  0.62248407  1
  Sr2+  Sr16  1  0.12573551  0.36967665  0.38118227  1
  Sr2+  Sr17  1  0.13445789  0.37058189  0.87604722  1
  Sr2+  Sr18  1  0.13060190  0.86293904  0.36908816  1
  Sr2+  Sr19  1  0.14021552  0.86088034  0.87840718  1
  Sr2+  Sr20  1  0.61002695  0.37502496  0.36996666  1
  Sr2+  Sr21  1  0.61647907  0.36338844  0.86762649  1
  Sr2+  Sr22  1  0.62102277  0.86800788  0.37950891  1
  Sr2+  Sr23  1  0.61694199  0.87828446  0.87465318  1
  Sr2+  Sr24  1  0.37724597  0.12422271  0.36899499  1
  Sr2+  Sr25  1  0.37986709  0.12502223  0.87381323  1
  Sr2+  Sr26  1  0.37944291  0.61866031  0.37845043  1
  Sr2+  Sr27  1  0.36414437  0.61767296  0.87410130  1
  Sr2+  Sr28  1  0.87457460  0.11868554  0.37125151  1
  Sr2+  Sr29  1  0.87083448  0.11609932  0.87101838  1
  Sr2+  Sr30  1  0.86775685  0.61748453  0.37544897  1
  Sr2+  Sr31  1  0.87203421  0.61358984  0.87390848  1
  Sr2+  Sr32  1  0.12811195  0.11396418  0.37534759  1
  Sr2+  Sr33  1  0.13508301  0.11899685  0.87678049  1
  Sr2+  Sr34  1  0.11900994  0.61954824  0.37103834  1
  Sr2+  Sr35  1  0.12518461  0.61432598  0.87553097  1
  Sr2+  Sr36  1  0.61916434  0.11137362  0.36866654  1
  Sr2+  Sr37  1  0.62000606  0.11698376  0.87257411  1
  Sr2+  Sr38  1  0.62228682  0.61236507  0.37880114  1
  Sr2+  Sr39  1  0.61180091  0.61499029  0.87371840  1
  Sr2+  Sr40  1  0.37695816  0.39133713  0.37273185  1
  Sr2+  Sr41  1  0.37437590  0.38400316  0.87153583  1
  Sr2+  Sr42  1  0.37796377  0.85951227  0.37389173  1
  Sr2+  Sr43  1  0.38558032  0.84964621  0.87815157  1
  Sr2+  Sr44  1  0.87981420  0.36805274  0.38299757  1
  Sr2+  Sr45  1  0.88313413  0.36476856  0.87934724  1
  Sr2+  Sr46  1  0.87748191  0.86583361  0.37051069  1
  Sr2+  Sr47  1  0.86958497  0.87922136  0.86424509  1
  Sr2+  Sr48  1  0.11761013  0.38502880  0.12354132  1
  Sr2+  Sr49  1  0.11803462  0.38122797  0.61888459  1
  Sr2+  Sr50  1  0.13288941  0.87580680  0.13792555  1
  Sr2+  Sr51  1  0.12152279  0.88340924  0.62805674  1
  Sr2+  Sr52  1  0.64086027  0.37920433  0.12624908  1
  Sr2+  Sr53  1  0.63583610  0.37751544  0.62886821  1
  Sr2+  Sr54  1  0.63336473  0.88699313  0.12098159  1
  Sr2+  Sr55  1  0.63278972  0.87953813  0.61713920  1
  Sr2+  Sr56  1  0.36589257  0.13156185  0.12535205  1
  Sr2+  Sr57  1  0.36581720  0.13138392  0.61799238  1
  Sr2+  Sr58  1  0.36796575  0.63626901  0.12783932  1
  Sr2+  Sr59  1  0.36430761  0.62838144  0.63065363  1
  Sr2+  Sr60  1  0.87506023  0.13675223  0.12711541  1
  Sr2+  Sr61  1  0.88281796  0.12713496  0.62559767  1
  Sr2+  Sr62  1  0.88414603  0.62687983  0.11737870  1
  Sr2+  Sr63  1  0.87156497  0.63789333  0.62385679  1
  Ca2+  Ca64  1  -0.00338339  -0.00156067  0.49809592  1
  Ca2+  Ca65  1  -0.00386388  0.50300355  0.50335542  1
  Ca2+  Ca66  1  0.49950843  0.49656477  0.00209944  1
  Ca2+  Ca67  1  -0.00009052  -0.00254103  -0.00111852  1
  Ca2+  Ca68  1  0.50390549  0.49796974  0.50522348  1
  Ca2+  Ca69  1  0.74769483  0.24702239  0.49884881  1
  Ca2+  Ca70  1  0.75411594  0.75266900  -0.00280989  1
  Ca2+  Ca71  1  0.24847787  0.74582863  0.00189342  1
  Ca2+  Ca72  1  0.24971692  0.74896062  0.50101622  1
  Ca2+  Ca73  1  0.25127264  0.24976032  0.50065938  1
  Ca2+  Ca74  1  0.25440932  0.00007224  0.75053882  1
  Ca2+  Ca75  1  0.50410530  0.75082843  0.24639798  1
  Ca2+  Ca76  1  0.75155204  0.00089521  0.24748332  1
  Ca2+  Ca77  1  0.24745017  0.49958205  0.24644172  1
  Ca2+  Ca78  1  0.74996766  0.50021053  0.74855870  1
  Ca2+  Ca79  1  0.75327899  0.50023113  0.25151294  1
  Ca2+  Ca80  1  -0.00084647  0.25318934  0.24696575  1
  Ca2+  Ca81  1  0.00229978  0.24979222  0.75345207  1
  Ca2+  Ca82  1  0.00043738  0.75165768  0.75193645  1
  Ca2+  Ca83  1  0.25441979  0.00018611  0.25426046  1
  Ca2+  Ca84  1  0.50036489  0.75103986  0.74533658  1
  Nb5+  Nb85  1  0.49945586  0.00063531  0.49362804  1
  Nb5+  Nb86  1  0.00121264  0.50130375  -0.00133088  1
  Nb5+  Nb87  1  0.49834698  0.00180047  -0.00321487  1
  Nb5+  Nb88  1  0.75117954  0.75051825  0.49591624  1
  Nb5+  Nb89  1  0.25717360  0.25056509  0.00070050  1
  Nb5+  Nb90  1  0.75364069  0.24732187  -0.00350239  1
  Nb5+  Nb91  1  0.49856473  0.24869963  0.24301477  1
  Nb5+  Nb92  1  0.49484804  0.24910219  0.74409220  1
  Nb5+  Nb93  1  0.24591193  0.49542036  0.74812122  1
  Nb5+  Nb94  1  0.74733216  0.00334555  0.74664025  1
  Nb5+  Nb95  1  -0.00151441  0.74892902  0.25176080  1
  Nb5+  Nb96  1  0.00217780  0.00373886  0.25025866  1
  Nb5+  Nb97  1  0.00743848  -0.00315688  0.75601604  1
  Nb5+  Nb98  1  -0.00648698  0.49724973  0.25376830  1
  Nb5+  Nb99  1  -0.00376485  0.50441374  0.74763009  1
  Nb5+  Nb100  1  0.49928799  -0.00175640  0.24236235  1
  Nb5+  Nb101  1  0.49984189  0.00130635  0.74236905  1
  Nb5+  Nb102  1  0.50560883  0.50603718  0.24225317  1
  Nb5+  Nb103  1  0.50188725  0.50053170  0.74703972  1
  Nb5+  Nb104  1  0.24477902  0.25310294  0.25028734  1
  Nb5+  Nb105  1  0.24753802  0.25206144  0.74725020  1
  Nb5+  Nb106  1  0.25412151  0.74459013  0.25313212  1
  Nb5+  Nb107  1  0.25357403  0.75491372  0.75136798  1
  Nb5+  Nb108  1  0.74858923  0.25353835  0.25572303  1
  Nb5+  Nb109  1  0.75010671  0.24663566  0.74992806  1
  Nb5+  Nb110  1  0.75143806  0.75104285  0.24564438  1
  Nb5+  Nb111  1  0.74462916  0.75058223  0.75588008  1
  Nb5+  Nb112  1  0.00004427  0.24911711  0.49663504  1
  Nb5+  Nb113  1  0.01347011  0.24942410  1.00320348  1
  Nb5+  Nb114  1  0.00461855  0.75370179  0.50182205  1
  Nb5+  Nb115  1  -0.00189893  0.75480114  0.99549071  1
  Nb5+  Nb116  1  0.50077263  0.24765161  0.49125562  1
  Nb5+  Nb117  1  0.50219981  0.24952015  0.99749503  1
  Nb5+  Nb118  1  0.50203182  0.74498266  0.49921460  1
  Nb5+  Nb119  1  0.50539388  0.74229095  1.00356160  1
  Nb5+  Nb120  1  0.25155244  -0.00482169  -0.00508446  1
  Nb5+  Nb121  1  0.24409394  -0.00304461  0.50054289  1
  Nb5+  Nb122  1  0.24892597  0.49990432  0.00352414  1
  Nb5+  Nb123  1  0.25016539  0.50244817  0.49673289  1
  Nb5+  Nb124  1  0.75267389  0.00438022  0.00183817  1
  Nb5+  Nb125  1  0.75062159  0.00079730  0.49570757  1
  Nb5+  Nb126  1  0.74487882  0.50003524  -0.01002695  1
  Nb5+  Nb127  1  0.75313112  0.49323072  0.50329725  1
  O2-  O128  1  0.02588313  -0.01607894  0.13275696  1
  O2-  O129  1  0.01610040  0.00588204  0.63624514  1
  O2-  O130  1  0.01581744  0.50146141  0.12037026  1
  O2-  O131  1  0.02644333  0.50288746  0.63702155  1
  O2-  O132  1  0.51619071  -0.00782986  0.12696364  1
  O2-  O133  1  0.51871830  -0.00989231  0.62906900  1
  O2-  O134  1  0.51447227  0.46243554  0.13307376  1
  O2-  O135  1  0.50822308  0.45792726  0.63774759  1
  O2-  O136  1  -0.03104015  -0.00000623  0.36363924  1
  O2-  O137  1  -0.03359773  -0.00108182  0.86742983  1
  O2-  O138  1  -0.02042532  0.50172032  0.36748121  1
  O2-  O139  1  -0.01257525  0.50405079  0.87915966  1
  O2-  O140  1  0.48745813  0.01453627  0.37909273  1
  O2-  O141  1  0.49006649  0.01763443  0.88153026  1
  O2-  O142  1  0.48399174  0.51061891  0.36269548  1
  O2-  O143  1  0.47754264  0.51465930  0.86411605  1
  O2-  O144  1  0.27074071  0.26755442  0.11686601  1
  O2-  O145  1  0.27976496  0.26534114  0.63859193  1
  O2-  O146  1  0.27065913  0.76776142  0.13450133  1
  O2-  O147  1  0.28121435  0.75886375  0.63573821  1
  O2-  O148  1  0.75302189  0.22862217  0.11340584  1
  O2-  O149  1  0.76070444  0.22205825  0.63710740  1
  O2-  O150  1  0.76906270  0.72395496  0.13444876  1
  O2-  O151  1  0.76458350  0.74400681  0.62028585  1
  O2-  O152  1  0.23184518  0.23345083  0.36330040  1
  O2-  O153  1  0.23387709  0.23775426  0.87929322  1
  O2-  O154  1  0.22231858  0.72981252  0.36711994  1
  O2-  O155  1  0.22485332  0.72791380  0.86657635  1
  O2-  O156  1  0.73386214  0.28285008  0.36517678  1
  O2-  O157  1  0.72867566  0.26244174  0.87652792  1
  O2-  O158  1  0.74221908  0.77748086  0.38053967  1
  O2-  O159  1  0.73322974  0.78287258  0.86537223  1
  O2-  O160  1  -0.03039336  0.25766161  0.11141423  1
  O2-  O161  1  -0.01680482  0.23901224  0.61904440  1
  O2-  O162  1  -0.01974198  0.74510757  0.13107959  1
  O2-  O163  1  -0.01887694  0.74330021  0.61527376  1
  O2-  O164  1  0.48294154  0.25354716  0.12643934  1
  O2-  O165  1  0.47486594  0.25365420  0.63217327  1
  O2-  O166  1  0.46850962  0.75848243  0.11472705  1
  O2-  O167  1  0.48321785  0.77099992  0.61165299  1
  O2-  O168  1  0.26439071  0.03147138  0.38826949  1
  O2-  O169  1  0.26651327  0.03290572  0.88521320  1
  O2-  O170  1  0.26463089  0.52181467  0.38350869  1
  O2-  O171  1  0.25833433  0.50789425  0.87728314  1
  O2-  O172  1  0.77277927  -0.01069034  0.38458002  1
  O2-  O173  1  0.75812281  -0.00738082  0.87640705  1
  O2-  O174  1  0.78214054  0.48745268  0.38608401  1
  O2-  O175  1  0.78716228  0.48159350  0.88164339  1
  O2-  O176  1  0.01281493  0.26932772  0.37998788  1
  O2-  O177  1  0.01004592  0.25875064  0.88821647  1
  O2-  O178  1  0.01484817  0.75425108  0.37271371  1
  O2-  O179  1  0.02875299  0.75418004  0.88574180  1
  O2-  O180  1  0.52119021  0.23269651  0.37729700  1
  O2-  O181  1  0.51354515  0.23152006  0.88286608  1
  O2-  O182  1  0.52823860  0.74612044  0.38145235  1
  O2-  O183  1  0.52682745  0.75241382  0.88502923  1
  O2-  O184  1  0.23998030  -0.01085839  0.11373916  1
  O2-  O185  1  0.24459596  -0.03116274  0.61891753  1
  O2-  O186  1  0.23970354  0.46535878  0.11279845  1
  O2-  O187  1  0.23717063  0.47373570  0.63427557  1
  O2-  O188  1  0.72124489  0.01843454  0.11311998  1
  O2-  O189  1  0.72255471  0.01213479  0.63247842  1
  O2-  O190  1  0.73536627  0.51177920  0.10789409  1
  O2-  O191  1  0.71836165  0.51841950  0.61602895  1
  O2-  O192  1  0.13533433  0.28117708  0.23057942  1
  O2-  O193  1  0.13602823  0.27878570  0.73476730  1
  O2-  O194  1  0.11876485  0.76526284  0.23581358  1
  O2-  O195  1  0.13742065  0.76581255  0.72269125  1
  O2-  O196  1  0.62030094  0.26801843  0.23045876  1
  O2-  O197  1  0.61860870  0.26247811  0.73784346  1
  O2-  O198  1  0.63894529  0.77716086  0.22942178  1
  O2-  O199  1  0.63346266  0.77202999  0.72123409  1
  O2-  O200  1  0.38261096  0.22617082  0.25806036  1
  O2-  O201  1  0.37850736  0.23534770  0.77356525  1
  O2-  O202  1  0.36753170  0.72354846  0.27276412  1
  O2-  O203  1  0.36871262  0.72401281  0.77298439  1
  O2-  O204  1  0.86169861  0.22573785  0.26202561  1
  O2-  O205  1  0.86279013  0.23374873  0.77264387  1
  O2-  O206  1  0.87944209  0.73242885  0.27147056  1
  O2-  O207  1  0.86202497  0.73462101  0.76243880  1
  O2-  O208  1  0.28453040  0.36397581  0.25946383  1
  O2-  O209  1  0.26564623  0.37414215  0.77328484  1
  O2-  O210  1  0.26109396  0.86429951  0.27052273  1
  O2-  O211  1  0.27011868  0.86535751  0.77937729  1
  O2-  O212  1  0.76375818  0.36339177  0.21555992  1
  O2-  O213  1  0.75665397  0.36229976  0.73170672  1
  O2-  O214  1  0.78111771  0.86628640  0.23780070  1
  O2-  O215  1  0.76310620  0.88573700  0.73788511  1
  O2-  O216  1  0.23924575  0.13826335  0.22178429  1
  O2-  O217  1  0.22758474  0.13737641  0.73948973  1
  O2-  O218  1  0.22882737  0.63209797  0.22289951  1
  O2-  O219  1  0.23810373  0.61329089  0.73659930  1
  O2-  O220  1  0.72260868  0.13696312  0.26089977  1
  O2-  O221  1  0.72677694  0.12454124  0.76887844  1
  O2-  O222  1  0.73262934  0.63875110  0.27974499  1
  O2-  O223  1  0.72238199  0.63756025  0.76845009  1
  O2-  O224  1  0.11194653  0.47690748  0.26269119  1
  O2-  O225  1  0.12987610  0.47926093  0.77019748  1
  O2-  O226  1  0.11839166  0.98142130  0.27481807  1
  O2-  O227  1  0.11708550  0.96891245  0.77517291  1
  O2-  O228  1  0.61889476  0.47604125  0.26554388  1
  O2-  O229  1  0.61387405  0.48235228  0.77371500  1
  O2-  O230  1  0.61336323  0.98192385  0.27278464  1
  O2-  O231  1  0.62184796  0.99284099  0.77121182  1
  O2-  O232  1  0.38761238  0.03342815  0.24038133  1
  O2-  O233  1  0.38869752  0.03168644  0.73742526  1
  O2-  O234  1  0.38582994  0.51633707  0.22679153  1
  O2-  O235  1  0.37097631  0.50260385  0.73674406  1
  O2-  O236  1  0.88559806  0.01978577  0.21907001  1
  O2-  O237  1  0.86110085  0.02741436  0.73820394  1
  O2-  O238  1  0.88379119  0.53332627  0.22848982  1
  O2-  O239  1  0.88491075  0.53285521  0.73432523  1
  O2-  O240  1  0.48427327  0.36197976  0.26951844  1
  O2-  O241  1  0.48938643  0.36314386  0.77464076  1
  O2-  O242  1  0.47017191  0.88685558  0.25420889  1
  O2-  O243  1  0.48409871  0.89032597  0.76764622  1
  O2-  O244  1  0.96358884  0.38633334  0.24360148  1
  O2-  O245  1  0.97475030  0.38706975  0.75455252  1
  O2-  O246  1  0.98299436  0.86920637  0.25154361  1
  O2-  O247  1  0.96577974  0.88525699  0.74387181  1
  O2-  O248  1  0.02637909  0.11826142  0.24814720  1
  O2-  O249  1  0.02287709  0.11564714  0.76112006  1
  O2-  O250  1  0.02123454  0.62819907  0.25235878  1
  O2-  O251  1  0.02997225  0.61735656  0.76097422  1
  O2-  O252  1  0.52504977  0.12792168  0.24509033  1
  O2-  O253  1  0.52054129  0.12918056  0.74732880  1
  O2-  O254  1  0.53015749  0.61636075  0.22366907  1
  O2-  O255  1  0.51310597  0.61182806  0.72067029  1
  O2-  O256  1  0.12277855  0.47704831  -0.01537987  1
  O2-  O257  1  0.13456370  0.47599679  0.48811298  1
  O2-  O258  1  0.13676937  0.98442724  -0.02337433  1
  O2-  O259  1  0.13327211  0.97416734  0.48280328  1
  O2-  O260  1  0.63461703  0.47393507  -0.03065867  1
  O2-  O261  1  0.63689474  0.48525119  0.47047376  1
  O2-  O262  1  0.61846646  0.98826075  -0.01456331  1
  O2-  O263  1  0.62291862  0.97800344  0.48851503  1
  O2-  O264  1  0.37942242  0.01783587  0.01796711  1
  O2-  O265  1  0.38696017  0.01524472  0.52216756  1
  O2-  O266  1  0.36339782  0.51958097  0.01254696  1
  O2-  O267  1  0.36878654  0.52003009  0.52341530  1
  O2-  O268  1  0.86248211  0.03611031  0.01275837  1
  O2-  O269  1  0.85978324  0.01761835  0.52892685  1
  O2-  O270  1  0.88146251  0.51261182  0.01445861  1
  O2-  O271  1  0.86275268  0.53435039  0.52199371  1
  O2-  O272  1  0.47417657  0.36026742  -0.01220217  1
  O2-  O273  1  0.48133959  0.36088069  0.48075567  1
  O2-  O274  1  0.48272544  0.88425024  -0.00502005  1
  O2-  O275  1  0.48792400  0.88081122  0.48579049  1
  O2-  O276  1  0.98580171  0.37884060  0.00031726  1
  O2-  O277  1  0.96925149  0.36797183  0.50984436  1
  O2-  O278  1  0.96204371  0.86400714  -0.00143462  1
  O2-  O279  1  0.96498566  0.86575751  0.49667483  1
  O2-  O280  1  0.02836967  0.13480499  0.00612858  1
  O2-  O281  1  0.03031710  0.13222017  0.48985966  1
  O2-  O282  1  0.02298536  0.61992761  0.00113152  1
  O2-  O283  1  0.02510513  0.63723398  0.49204314  1
  O2-  O284  1  0.51086151  0.12472742  0.01701274  1
  O2-  O285  1  0.52500780  0.11814532  0.50904974  1
  O2-  O286  1  0.53234407  0.63026641  0.01135965  1
  O2-  O287  1  0.52603868  0.63324901  0.51386281  1
  O2-  O288  1  0.12662056  0.27335034  0.01669220  1
  O2-  O289  1  0.11751752  0.27628194  0.51520133  1
  O2-  O290  1  0.11212712  0.77056592  0.02966820  1
  O2-  O291  1  0.11537276  0.78420933  0.51438932  1
  O2-  O292  1  0.61680391  0.26541022  0.01442185  1
  O2-  O293  1  0.61097545  0.26186784  0.53167745  1
  O2-  O294  1  0.61848746  0.77333145  0.02908874  1
  O2-  O295  1  0.62860877  0.77067632  0.51419918  1
  O2-  O296  1  0.37272984  0.22721771  -0.01137525  1
  O2-  O297  1  0.38818813  0.21542033  0.49133958  1
  O2-  O298  1  0.38646053  0.72863929  -0.02383935  1
  O2-  O299  1  0.38792707  0.73402473  0.47422422  1
  O2-  O300  1  0.86673759  0.23169414  -0.02019050  1
  O2-  O301  1  0.88157082  0.22090474  0.48040421  1
  O2-  O302  1  0.88710621  0.71380856  -0.01552606  1
  O2-  O303  1  0.86834516  0.73200434  0.48370065  1
  O2-  O304  1  0.26393184  0.36915625  -0.02240375  1
  O2-  O305  1  0.27850558  0.38448127  0.49006039  1
  O2-  O306  1  0.27448971  0.88318076  -0.02207232  1
  O2-  O307  1  0.28261416  0.88446482  0.48142729  1
  O2-  O308  1  0.76286681  0.36699692  0.01085767  1
  O2-  O309  1  0.77055340  0.38188489  0.52792726  1
  O2-  O310  1  0.76873338  0.89036701  0.01661453  1
  O2-  O311  1  0.75847422  0.87854120  0.51840789  1
  O2-  O312  1  0.23268445  0.13316018  0.01590952  1
  O2-  O313  1  0.23512154  0.11298419  0.53304365  1
  O2-  O314  1  0.22230157  0.61121002  0.01756088  1
  O2-  O315  1  0.23131617  0.61458933  0.53175916  1
  O2-  O316  1  0.72440047  0.12987763  -0.01935524  1
  O2-  O317  1  0.72040102  0.11302690  0.48719504  1
  O2-  O318  1  0.73038697  0.61442132  -0.02823398  1
  O2-  O319  1  0.72746347  0.63645104  0.48601568  1
