# generated using pymatgen
data_Sr64Ca21Nb43O192
_symmetry_space_group_name_H-M   'P 1'
_cell_length_a   16.61338906
_cell_length_b   16.55638665
_cell_length_c   16.71037746
_cell_angle_alpha   89.91116353
_cell_angle_beta   90.06843333
_cell_angle_gamma   89.98993120
_symmetry_Int_Tables_number   1
_chemical_formula_structural   Sr64Ca21Nb43O192
_chemical_formula_sum   'Sr64 Ca21 Nb43 O192'
_cell_volume   4596.30899261
_cell_formula_units_Z   1
loop_
 _symmetry_equiv_pos_site_id
 _symmetry_equiv_pos_as_xyz
  1  'x, y, z'
loop_
 _atom_type_symbol
 _atom_type_oxidation_number
  Sr2+  2.0
  Ca2+  2.0
  Nb5+  5.0
  O2-  -2.0
loop_
 _atom_site_type_symbol
 _atom_site_label
 _atom_site_symmetry_multiplicity
 _atom_site_fract_x
 _atom_site_fract_y
 _atom_site_fract_z
 _atom_site_occupancy
  Sr2+  Sr0  1  0.12244103  0.12160510  0.13433057  1
  Sr2+  Sr1  1  0.11967765  0.13073216  0.63017375  1
  Sr2+  Sr2  1  0.11461061  0.62606707  0.12075113  1
  Sr2+  Sr3  1  0.11894742  0.62412806  0.62635216  1
  Sr2+  Sr4  1  0.61966294  0.11694773  0.11958182  1
  Sr2+  Sr5  1  0.62319018  0.11326595  0.61830006  1
  Sr2+  Sr6  1  0.61498080  0.62060254  0.12896600  1
  Sr2+  Sr7  1  0.61196671  0.62296025  0.62620066  1
  Sr2+  Sr8  1  0.37236640  0.36025210  0.12644747  1
  Sr2+  Sr9  1  0.36850903  0.37568194  0.62680742  1
  Sr2+  Sr10  1  0.36627698  0.87038053  0.12549054  1
  Sr2+  Sr11  1  0.36911093  0.87207908  0.62786462  1
  Sr2+  Sr12  1  0.86519455  0.36620028  0.12264637  1
  Sr2+  Sr13  1  0.87333923  0.36407848  0.62784844  1
  Sr2+  Sr14  1  0.87339008  0.87082577  0.13160445  1
  Sr2+  Sr15  1  0.86902268  0.87936225  0.63127432  1
  Sr2+  Sr16  1  0.13325665  0.38444374  0.37214304  1
  Sr2+  Sr17  1  0.13914787  0.37947940  0.87491303  1
  Sr2+  Sr18  1  0.13204220  0.87018192  0.37828813  1
  Sr2+  Sr19  1  0.13135375  0.87828947  0.89053303  1
  Sr2+  Sr20  1  0.62380927  0.38241670  0.37491780  1
  Sr2+  Sr21  1  0.62525716  0.38134125  0.88954614  1
  Sr2+  Sr22  1  0.62005028  0.87519410  0.37450357  1
  Sr2+  Sr23  1  0.62382505  0.86782390  0.87281324  1
  Sr2+  Sr24  1  0.39034281  0.12496205  0.37270938  1
  Sr2+  Sr25  1  0.38968979  0.13116566  0.87363390  1
  Sr2+  Sr26  1  0.40465968  0.62934116  0.37537130  1
  Sr2+  Sr27  1  0.39772954  0.62695499  0.87395125  1
  Sr2+  Sr28  1  0.87526036  0.13018901  0.38025229  1
  Sr2+  Sr29  1  0.87839891  0.12910902  0.87962510  1
  Sr2+  Sr30  1  0.86981289  0.63008721  0.37521022  1
  Sr2+  Sr31  1  0.87261170  0.63379233  0.87552063  1
  Sr2+  Sr32  1  0.13477528  0.13749182  0.37633852  1
  Sr2+  Sr33  1  0.12722487  0.13640291  0.87706350  1
  Sr2+  Sr34  1  0.12855088  0.63157630  0.37458704  1
  Sr2+  Sr35  1  0.13412968  0.61814504  0.88200887  1
  Sr2+  Sr36  1  0.62929140  0.14025092  0.37328685  1
  Sr2+  Sr37  1  0.62830956  0.13369871  0.87876749  1
  Sr2+  Sr38  1  0.63527474  0.61749687  0.37180768  1
  Sr2+  Sr39  1  0.62970173  0.62680227  0.86847360  1
  Sr2+  Sr40  1  0.39025813  0.38374354  0.37197493  1
  Sr2+  Sr41  1  0.38194176  0.39197018  0.87208514  1
  Sr2+  Sr42  1  0.37917172  0.87130151  0.37664137  1
  Sr2+  Sr43  1  0.38567314  0.88017283  0.87717565  1
  Sr2+  Sr44  1  0.87595053  0.39575181  0.37431791  1
  Sr2+  Sr45  1  0.88093632  0.38345489  0.87704651  1
  Sr2+  Sr46  1  0.88590774  0.86912277  0.37580755  1
  Sr2+  Sr47  1  0.88288937  0.88504839  0.87957178  1
  Sr2+  Sr48  1  0.11877987  0.37084535  0.12902324  1
  Sr2+  Sr49  1  0.11654928  0.37294506  0.62534523  1
  Sr2+  Sr50  1  0.11622938  0.87086168  0.13045529  1
  Sr2+  Sr51  1  0.12533119  0.87551605  0.62275157  1
  Sr2+  Sr52  1  0.61079184  0.36560665  0.13298336  1
  Sr2+  Sr53  1  0.61012874  0.36068296  0.62520530  1
  Sr2+  Sr54  1  0.59999394  0.86834329  0.12216628  1
  Sr2+  Sr55  1  0.63355375  0.87215129  0.62990910  1
  Sr2+  Sr56  1  0.36872070  0.11645692  0.13543369  1
  Sr2+  Sr57  1  0.36764011  0.11466607  0.63163204  1
  Sr2+  Sr58  1  0.37951692  0.62153203  0.11698696  1
  Sr2+  Sr59  1  0.36864324  0.62829910  0.62437266  1
  Sr2+  Sr60  1  0.86378273  0.12019614  0.12419931  1
  Sr2+  Sr61  1  0.86331873  0.12030491  0.62631017  1
  Sr2+  Sr62  1  0.85841494  0.63433627  0.13035415  1
  Sr2+  Sr63  1  0.86655261  0.62051846  0.62878399  1
  Ca2+  Ca64  1  0.50424026  0.49892344  0.00091298  1
  Ca2+  Ca65  1  0.49719223  -0.00179888  0.50142171  1
  Ca2+  Ca66  1  0.50001457  0.50034638  0.50377955  1
  Ca2+  Ca67  1  0.49687682  0.00021439  0.00118167  1
  Ca2+  Ca68  1  -0.00320198  0.49987243  -0.00157865  1
  Ca2+  Ca69  1  0.24692774  0.24753708  0.00007849  1
  Ca2+  Ca70  1  0.24857431  0.74801459  0.00069029  1
  Ca2+  Ca71  1  0.74624424  0.75295170  0.00022693  1
  Ca2+  Ca72  1  0.75026228  0.75032256  0.50051398  1
  Ca2+  Ca73  1  0.24925294  0.24791873  0.49913083  1
  Ca2+  Ca74  1  0.75313518  0.49812523  0.24456397  1
  Ca2+  Ca75  1  0.50006652  0.25010571  0.75124678  1
  Ca2+  Ca76  1  0.75126682  0.49827140  0.74821786  1
  Ca2+  Ca77  1  0.50103734  0.24824975  0.25139749  1
  Ca2+  Ca78  1  0.75115410  0.00118787  0.25018760  1
  Ca2+  Ca79  1  0.25279439  0.50473286  0.25197862  1
  Ca2+  Ca80  1  0.00108028  0.75066394  0.74894204  1
  Ca2+  Ca81  1  0.75316315  0.00190277  0.75469296  1
  Ca2+  Ca82  1  -0.00273969  0.24958427  0.25286525  1
  Ca2+  Ca83  1  0.49775487  0.74900550  0.24932819  1
  Ca2+  Ca84  1  0.49847206  0.75199644  0.74690027  1
  Nb5+  Nb85  1  0.00207096  0.00696547  0.50268762  1
  Nb5+  Nb86  1  0.00368362  0.50757294  0.49868458  1
  Nb5+  Nb87  1  -0.00083392  0.00192833  0.00853313  1
  Nb5+  Nb88  1  0.25101353  0.74759283  0.49924723  1
  Nb5+  Nb89  1  0.74869309  0.25045804  0.00483769  1
  Nb5+  Nb90  1  0.74873844  0.25382138  0.50594699  1
  Nb5+  Nb91  1  -0.00045253  0.25093512  0.74985930  1
  Nb5+  Nb92  1  0.00209695  0.74767826  0.25176387  1
  Nb5+  Nb93  1  0.24634854  0.00464062  0.75658686  1
  Nb5+  Nb94  1  0.24688737  -0.00103582  0.25915965  1
  Nb5+  Nb95  1  0.24889874  0.50706675  0.74899156  1
  Nb5+  Nb96  1  0.00187290  -0.00021803  0.26144015  1
  Nb5+  Nb97  1  0.00382622  0.00109544  0.75450062  1
  Nb5+  Nb98  1  -0.00151325  0.50030623  0.24068456  1
  Nb5+  Nb99  1  0.00456468  0.50363294  0.75281035  1
  Nb5+  Nb100  1  0.50350254  -0.00470873  0.25156345  1
  Nb5+  Nb101  1  0.50620153  -0.00182534  0.75042581  1
  Nb5+  Nb102  1  0.50070406  0.50096224  0.24881678  1
  Nb5+  Nb103  1  0.50636715  0.49736104  0.74465840  1
  Nb5+  Nb104  1  0.25149832  0.25425701  0.25582043  1
  Nb5+  Nb105  1  0.25207505  0.25375963  0.74838335  1
  Nb5+  Nb106  1  0.24723287  0.74783353  0.24824033  1
  Nb5+  Nb107  1  0.24505648  0.75573915  0.75312962  1
  Nb5+  Nb108  1  0.75314582  0.24856759  0.25887026  1
  Nb5+  Nb109  1  0.74897509  0.25261571  0.75692373  1
  Nb5+  Nb110  1  0.74313494  0.75642998  0.25135514  1
  Nb5+  Nb111  1  0.75299859  0.74961123  0.74890786  1
  Nb5+  Nb112  1  -0.00391802  0.26103407  0.49729193  1
  Nb5+  Nb113  1  -0.00076297  0.25035608  1.00240292  1
  Nb5+  Nb114  1  -0.00040999  0.75374094  0.50394284  1
  Nb5+  Nb115  1  0.00032009  0.75039867  0.99572254  1
  Nb5+  Nb116  1  0.49187148  0.24444796  0.50529820  1
  Nb5+  Nb117  1  0.49156008  0.24638488  1.00471668  1
  Nb5+  Nb118  1  0.50637576  0.75498432  0.50073300  1
  Nb5+  Nb119  1  0.49827102  0.74907596  0.99810726  1
  Nb5+  Nb120  1  0.24910017  0.00272762  0.00660815  1
  Nb5+  Nb121  1  0.24725342  0.00004431  0.50383667  1
  Nb5+  Nb122  1  0.25200750  0.49412383  0.00740066  1
  Nb5+  Nb123  1  0.25150193  0.50074796  0.49797525  1
  Nb5+  Nb124  1  0.74835251  -0.00298282  0.00011536  1
  Nb5+  Nb125  1  0.74917178  -0.00353496  0.49440070  1
  Nb5+  Nb126  1  0.74964089  0.50452324  -0.00009539  1
  Nb5+  Nb127  1  0.74774188  0.49774120  0.50742977  1
  O2-  O128  1  -0.00568715  0.01865268  0.12287654  1
  O2-  O129  1  -0.00162031  0.02175005  0.61738942  1
  O2-  O130  1  -0.01320424  0.53562634  0.13265591  1
  O2-  O131  1  -0.00509971  0.51633677  0.62324803  1
  O2-  O132  1  0.48804594  0.02542106  0.13641337  1
  O2-  O133  1  0.48720377  0.02829298  0.63572933  1
  O2-  O134  1  0.49306593  0.52664161  0.13278225  1
  O2-  O135  1  0.47613618  0.52682659  0.63380591  1
  O2-  O136  1  0.00935371  -0.02552592  0.37538523  1
  O2-  O137  1  0.01562691  -0.01646428  0.86855528  1
  O2-  O138  1  0.01799365  0.48105965  0.38371092  1
  O2-  O139  1  0.02092234  0.47266243  0.86254563  1
  O2-  O140  1  0.49519065  -0.03100707  0.36796689  1
  O2-  O141  1  0.50576630  -0.02796331  0.86784866  1
  O2-  O142  1  0.50850759  0.47906961  0.37088602  1
  O2-  O143  1  0.50883756  0.47693968  0.86356163  1
  O2-  O144  1  0.22523313  0.26348603  0.13785197  1
  O2-  O145  1  0.22031632  0.25886421  0.63407622  1
  O2-  O146  1  0.24533922  0.77606631  0.13625515  1
  O2-  O147  1  0.25784441  0.76744502  0.61567506  1
  O2-  O148  1  0.74221038  0.26945919  0.11892393  1
  O2-  O149  1  0.74144981  0.27303205  0.62145274  1
  O2-  O150  1  0.76344195  0.77073969  0.13511431  1
  O2-  O151  1  0.75661631  0.78228472  0.63082706  1
  O2-  O152  1  0.26763508  0.21408169  0.36728538  1
  O2-  O153  1  0.26038497  0.21955772  0.86065779  1
  O2-  O154  1  0.23661299  0.74482544  0.37673579  1
  O2-  O155  1  0.22375962  0.74099217  0.86376406  1
  O2-  O156  1  0.76472156  0.23421161  0.37655043  1
  O2-  O157  1  0.76422661  0.22929275  0.87067799  1
  O2-  O158  1  0.74634297  0.72391374  0.36674258  1
  O2-  O159  1  0.74841391  0.72237993  0.86604741  1
  O2-  O160  1  0.01994028  0.23266036  0.11381571  1
  O2-  O161  1  0.01715476  0.24120349  0.62366447  1
  O2-  O162  1  0.00321410  0.74080329  0.13202318  1
  O2-  O163  1  -0.00230183  0.72364746  0.61326715  1
  O2-  O164  1  0.53015501  0.23289310  0.11770085  1
  O2-  O165  1  0.53271684  0.23073967  0.61719199  1
  O2-  O166  1  0.50435106  0.72712708  0.11718313  1
  O2-  O167  1  0.49049275  0.72473287  0.61370697  1
  O2-  O168  1  0.22863752  0.00754632  0.37436393  1
  O2-  O169  1  0.22528937  0.01198629  0.86903345  1
  O2-  O170  1  0.22188430  0.51401325  0.38769305  1
  O2-  O171  1  0.22930086  0.50613349  0.86497793  1
  O2-  O172  1  0.74631418  0.03719383  0.38491793  1
  O2-  O173  1  0.74210308  0.03234027  0.88693093  1
  O2-  O174  1  0.74420083  0.50345307  0.38778622  1
  O2-  O175  1  0.71807810  0.50399079  0.88109264  1
  O2-  O176  1  -0.03338592  0.26714545  0.38660279  1
  O2-  O177  1  -0.02272949  0.25570891  0.86610738  1
  O2-  O178  1  0.00746144  0.76496239  0.37478030  1
  O2-  O179  1  -0.00197599  0.77896053  0.88371774  1
  O2-  O180  1  0.48659813  0.26807484  0.38839254  1
  O2-  O181  1  0.47819003  0.26926431  0.88721140  1
  O2-  O182  1  0.49280460  0.77094065  0.38320734  1
  O2-  O183  1  0.48945232  0.77136015  0.88030485  1
  O2-  O184  1  0.25776999  -0.01422137  0.12234782  1
  O2-  O185  1  0.25706963  -0.01777062  0.62124415  1
  O2-  O186  1  0.27217412  0.47696108  0.11857811  1
  O2-  O187  1  0.26401452  0.49247570  0.62613839  1
  O2-  O188  1  0.78483854  -0.00756921  0.11323392  1
  O2-  O189  1  0.76870719  -0.00727789  0.61279512  1
  O2-  O190  1  0.79078255  0.49162865  0.11147114  1
  O2-  O191  1  0.78934560  0.48428821  0.61503486  1
  O2-  O192  1  0.13194513  0.26359742  0.27765242  1
  O2-  O193  1  0.12131168  0.26025451  0.76819080  1
  O2-  O194  1  0.12137141  0.77615486  0.25432193  1
  O2-  O195  1  0.13403311  0.75934513  0.71828039  1
  O2-  O196  1  0.63697347  0.27576672  0.27037774  1
  O2-  O197  1  0.63795112  0.27946478  0.76780998  1
  O2-  O198  1  0.63181014  0.78344547  0.24965949  1
  O2-  O199  1  0.63352044  0.77865606  0.75020571  1
  O2-  O200  1  0.36523864  0.23064655  0.22817494  1
  O2-  O201  1  0.36324517  0.23433776  0.72322572  1
  O2-  O202  1  0.36030833  0.72855449  0.25499598  1
  O2-  O203  1  0.35812587  0.72803686  0.74687233  1
  O2-  O204  1  0.86680022  0.21455297  0.23803107  1
  O2-  O205  1  0.88420755  0.22716711  0.73093907  1
  O2-  O206  1  0.88526249  0.73376157  0.25770287  1
  O2-  O207  1  0.87042687  0.71844701  0.74614181  1
  O2-  O208  1  0.26935866  0.36642289  0.27884645  1
  O2-  O209  1  0.26317935  0.37046380  0.76189473  1
  O2-  O210  1  0.26182395  0.87802037  0.26766598  1
  O2-  O211  1  0.25999631  0.87495024  0.76085604  1
  O2-  O212  1  0.78566300  0.36267301  0.25506091  1
  O2-  O213  1  0.79061702  0.36247662  0.75797907  1
  O2-  O214  1  0.78084634  0.86740010  0.27369125  1
  O2-  O215  1  0.78274814  0.86804691  0.77129992  1
  O2-  O216  1  0.22990716  0.11458638  0.23491316  1
  O2-  O217  1  0.23398106  0.11820532  0.72920967  1
  O2-  O218  1  0.21507233  0.63783255  0.23564471  1
  O2-  O219  1  0.23038015  0.62170283  0.73501309  1
  O2-  O220  1  0.72065127  0.13665229  0.22871806  1
  O2-  O221  1  0.73642081  0.13972676  0.72386917  1
  O2-  O222  1  0.73687354  0.63585404  0.22783480  1
  O2-  O223  1  0.72723306  0.63398468  0.71936141  1
  O2-  O224  1  0.11531220  0.48086380  0.24091234  1
  O2-  O225  1  0.12997731  0.47760909  0.73038146  1
  O2-  O226  1  0.12543853  0.97887608  0.23656972  1
  O2-  O227  1  0.12722005  0.98717685  0.73074259  1
  O2-  O228  1  0.61972304  0.47440096  0.24029302  1
  O2-  O229  1  0.61713535  0.48149699  0.71918633  1
  O2-  O230  1  0.61620905  0.97253966  0.24312411  1
  O2-  O231  1  0.61907024  0.98195031  0.73539635  1
  O2-  O232  1  0.36283544  0.01633020  0.26121156  1
  O2-  O233  1  0.36295798  0.01600753  0.76332258  1
  O2-  O234  1  0.38406986  0.52892842  0.26664125  1
  O2-  O235  1  0.36494473  0.51240251  0.76532512  1
  O2-  O236  1  0.88940180  0.02007177  0.26105419  1
  O2-  O237  1  0.89059186  0.02465574  0.75670713  1
  O2-  O238  1  0.88983011  0.52032438  0.27891647  1
  O2-  O239  1  0.89105433  0.52048517  0.76339042  1
  O2-  O240  1  0.47342369  0.38340478  0.23245668  1
  O2-  O241  1  0.47500404  0.38297728  0.72709895  1
  O2-  O242  1  0.46984824  0.88268910  0.22642470  1
  O2-  O243  1  0.47106033  0.88623626  0.73039833  1
  O2-  O244  1  0.98126857  0.38632204  0.22175360  1
  O2-  O245  1  0.99102002  0.36904489  0.73056316  1
  O2-  O246  1  0.98623878  0.87671338  0.23667661  1
  O2-  O247  1  0.99007947  0.88930423  0.72349772  1
  O2-  O248  1  0.02985128  0.11205324  0.26877352  1
  O2-  O249  1  0.02576327  0.12516696  0.75617674  1
  O2-  O250  1  0.02386148  0.63137708  0.26526319  1
  O2-  O251  1  0.03396823  0.61388222  0.76624415  1
  O2-  O252  1  0.50992937  0.11261726  0.27927675  1
  O2-  O253  1  0.50935713  0.11540879  0.78013052  1
  O2-  O254  1  0.53046247  0.61801195  0.27113075  1
  O2-  O255  1  0.51470403  0.61558955  0.77007599  1
  O2-  O256  1  0.13256452  0.46909643  0.01232848  1
  O2-  O257  1  0.12435649  0.48494268  0.52058234  1
  O2-  O258  1  0.11693645  0.97621473  0.00747426  1
  O2-  O259  1  0.11823742  0.97348795  0.50337543  1
  O2-  O260  1  0.64089262  0.46361614  0.02328774  1
  O2-  O261  1  0.63788093  0.46911585  0.52198781  1
  O2-  O262  1  0.63603030  0.98717892  0.02436211  1
  O2-  O263  1  0.63540705  0.98126621  0.50872690  1
  O2-  O264  1  0.35846388  0.03194315  -0.01259838  1
  O2-  O265  1  0.35822283  0.02293823  0.48828235  1
  O2-  O266  1  0.36499268  0.52237457  -0.02046890  1
  O2-  O267  1  0.36183919  0.53198834  0.48774634  1
  O2-  O268  1  0.88473648  0.01547065  -0.02096079  1
  O2-  O269  1  0.88491321  0.01198120  0.48791844  1
  O2-  O270  1  0.86476078  0.51119634  -0.03922714  1
  O2-  O271  1  0.88712874  0.51792140  0.48485243  1
  O2-  O272  1  0.49006072  0.36414836  0.02541561  1
  O2-  O273  1  0.48166933  0.36385584  0.52578098  1
  O2-  O274  1  0.46806267  0.86772287  0.02123319  1
  O2-  O275  1  0.46379677  0.86547990  0.51807674  1
  O2-  O276  1  0.97578900  0.36267854  0.01418332  1
  O2-  O277  1  0.98675571  0.37573596  0.51906607  1
  O2-  O278  1  0.97646746  0.88219109  0.01647680  1
  O2-  O279  1  0.98397806  0.87103437  0.51813271  1
  O2-  O280  1  0.01298554  0.11985098  -0.01967059  1
  O2-  O281  1  0.01528434  0.12041710  0.47881084  1
  O2-  O282  1  0.02448163  0.63704636  -0.01841270  1
  O2-  O283  1  0.02366038  0.62269065  0.48387539  1
  O2-  O284  1  0.52033440  0.13302939  -0.02184678  1
  O2-  O285  1  0.52577322  0.13228670  0.47918015  1
  O2-  O286  1  0.52671965  0.63335986  -0.02355974  1
  O2-  O287  1  0.52707684  0.63616999  0.47803637  1
  O2-  O288  1  0.10983394  0.26360503  -0.03018029  1
  O2-  O289  1  0.11107027  0.26410626  0.47743390  1
  O2-  O290  1  0.11378463  0.77945143  0.01101500  1
  O2-  O291  1  0.12280198  0.76832606  0.50097853  1
  O2-  O292  1  0.63517590  0.25867311  -0.02045214  1
  O2-  O293  1  0.63667636  0.27051207  0.48428396  1
  O2-  O294  1  0.61421335  0.78467661  -0.00254090  1
  O2-  O295  1  0.61675505  0.78631423  0.50463971  1
  O2-  O296  1  0.38065513  0.22619730  0.02795737  1
  O2-  O297  1  0.38179428  0.21945661  0.52390009  1
  O2-  O298  1  0.37941680  0.72042521  0.00106973  1
  O2-  O299  1  0.36474954  0.72769241  0.49020419  1
  O2-  O300  1  0.87691653  0.22553287  0.00621576  1
  O2-  O301  1  0.87960714  0.23005759  0.52185090  1
  O2-  O302  1  0.88487428  0.72988748  0.00741951  1
  O2-  O303  1  0.88686579  0.73178790  0.48747803  1
  O2-  O304  1  0.27075098  0.38000626  -0.02686826  1
  O2-  O305  1  0.27118901  0.38617912  0.48895016  1
  O2-  O306  1  0.26240239  0.88849353  -0.02391837  1
  O2-  O307  1  0.25866042  0.87527733  0.48471315  1
  O2-  O308  1  0.77467449  0.36319417  -0.01880333  1
  O2-  O309  1  0.78150704  0.36871171  0.48764164  1
  O2-  O310  1  0.76854011  0.88702797  -0.02644949  1
  O2-  O311  1  0.77144015  0.88665467  0.47127227  1
  O2-  O312  1  0.20955412  0.11313270  0.01085714  1
  O2-  O313  1  0.21440053  0.11047911  0.51353466  1
  O2-  O314  1  0.22053185  0.61141369  0.01293713  1
  O2-  O315  1  0.22375075  0.63181555  0.51514120  1
  O2-  O316  1  0.74225998  0.12911112  0.01992115  1
  O2-  O317  1  0.74194057  0.13384557  0.51856576  1
  O2-  O318  1  0.72676559  0.61580860  0.01742315  1
  O2-  O319  1  0.73274527  0.61264273  0.52045475  1
