# generated using pymatgen
data_Sr64Ca21Nb43O192
_symmetry_space_group_name_H-M   'P 1'
_cell_length_a   16.60631958
_cell_length_b   16.57592125
_cell_length_c   16.74439527
_cell_angle_alpha   90.03325346
_cell_angle_beta   89.97211121
_cell_angle_gamma   90.12398964
_symmetry_Int_Tables_number   1
_chemical_formula_structural   Sr64Ca21Nb43O192
_chemical_formula_sum   'Sr64 Ca21 Nb43 O192'
_cell_volume   4609.13461791
_cell_formula_units_Z   1
loop_
 _symmetry_equiv_pos_site_id
 _symmetry_equiv_pos_as_xyz
  1  'x, y, z'
loop_
 _atom_type_symbol
 _atom_type_oxidation_number
  Sr2+  2.0
  Ca2+  2.0
  Nb5+  5.0
  O2-  -2.0
loop_
 _atom_site_type_symbol
 _atom_site_label
 _atom_site_symmetry_multiplicity
 _atom_site_fract_x
 _atom_site_fract_y
 _atom_site_fract_z
 _atom_site_occupancy
  Sr2+  Sr0  1  0.12541473  0.12755281  0.13557113  1
  Sr2+  Sr1  1  0.11836532  0.13899604  0.62375958  1
  Sr2+  Sr2  1  0.12144936  0.62441416  0.12267043  1
  Sr2+  Sr3  1  0.12507843  0.63468437  0.62033235  1
  Sr2+  Sr4  1  0.62749029  0.14204300  0.12149438  1
  Sr2+  Sr5  1  0.63727411  0.13138948  0.62893762  1
  Sr2+  Sr6  1  0.63510300  0.63055209  0.13432978  1
  Sr2+  Sr7  1  0.62271452  0.62517451  0.61647333  1
  Sr2+  Sr8  1  0.38025247  0.37499279  0.13153541  1
  Sr2+  Sr9  1  0.37692945  0.37865501  0.62901557  1
  Sr2+  Sr10  1  0.37832966  0.88657932  0.12150742  1
  Sr2+  Sr11  1  0.37567454  0.87763435  0.60740901  1
  Sr2+  Sr12  1  0.87392163  0.38024414  0.11796116  1
  Sr2+  Sr13  1  0.87602933  0.35459545  0.62392509  1
  Sr2+  Sr14  1  0.87831355  0.87676967  0.12848821  1
  Sr2+  Sr15  1  0.87359019  0.87670347  0.62874555  1
  Sr2+  Sr16  1  0.13238700  0.37225573  0.36371649  1
  Sr2+  Sr17  1  0.12835973  0.36976996  0.87703441  1
  Sr2+  Sr18  1  0.12910827  0.87341951  0.36272938  1
  Sr2+  Sr19  1  0.13465879  0.86461413  0.87463121  1
  Sr2+  Sr20  1  0.61937031  0.36660536  0.38468519  1
  Sr2+  Sr21  1  0.61520930  0.36282572  0.86793735  1
  Sr2+  Sr22  1  0.61574904  0.86335540  0.37009815  1
  Sr2+  Sr23  1  0.61344482  0.87249576  0.87339182  1
  Sr2+  Sr24  1  0.36971473  0.11917314  0.37618818  1
  Sr2+  Sr25  1  0.38080789  0.11542942  0.87647863  1
  Sr2+  Sr26  1  0.37963864  0.61949135  0.37764088  1
  Sr2+  Sr27  1  0.37156413  0.62706568  0.87516528  1
  Sr2+  Sr28  1  0.89391499  0.11754108  0.38177216  1
  Sr2+  Sr29  1  0.87061062  0.11798637  0.87420646  1
  Sr2+  Sr30  1  0.85052944  0.62129313  0.36976474  1
  Sr2+  Sr31  1  0.88100733  0.61532229  0.87348281  1
  Sr2+  Sr32  1  0.13073704  0.11149134  0.37578794  1
  Sr2+  Sr33  1  0.13298055  0.12151759  0.87185095  1
  Sr2+  Sr34  1  0.13415736  0.61104468  0.37100258  1
  Sr2+  Sr35  1  0.13114159  0.61288733  0.87729288  1
  Sr2+  Sr36  1  0.62395325  0.11833411  0.37772204  1
  Sr2+  Sr37  1  0.62311613  0.11313752  0.87364140  1
  Sr2+  Sr38  1  0.61746751  0.61087013  0.37614777  1
  Sr2+  Sr39  1  0.61436682  0.61453537  0.86739789  1
  Sr2+  Sr40  1  0.37333019  0.35853924  0.37642809  1
  Sr2+  Sr41  1  0.36597739  0.36196458  0.87159644  1
  Sr2+  Sr42  1  0.37010531  0.86541875  0.37161923  1
  Sr2+  Sr43  1  0.37277935  0.87187474  0.87908125  1
  Sr2+  Sr44  1  0.86729608  0.36766758  0.38235596  1
  Sr2+  Sr45  1  0.87450285  0.36988692  0.87751709  1
  Sr2+  Sr46  1  0.87035019  0.86682478  0.36125721  1
  Sr2+  Sr47  1  0.87095107  0.86545603  0.87217069  1
  Sr2+  Sr48  1  0.11546476  0.38666605  0.12449208  1
  Sr2+  Sr49  1  0.11542759  0.37518121  0.63146857  1
  Sr2+  Sr50  1  0.11754791  0.88231262  0.12270728  1
  Sr2+  Sr51  1  0.11238266  0.87492050  0.62675109  1
  Sr2+  Sr52  1  0.63509458  0.37533313  0.11482131  1
  Sr2+  Sr53  1  0.63137061  0.38898889  0.62680707  1
  Sr2+  Sr54  1  0.63466549  0.88672767  0.13073113  1
  Sr2+  Sr55  1  0.64391430  0.88455216  0.61823024  1
  Sr2+  Sr56  1  0.39028755  0.12831626  0.12373711  1
  Sr2+  Sr57  1  0.37200730  0.13474794  0.61486339  1
  Sr2+  Sr58  1  0.38513267  0.63209787  0.12590005  1
  Sr2+  Sr59  1  0.38252693  0.62868933  0.61623089  1
  Sr2+  Sr60  1  0.86666217  0.13432672  0.12871083  1
  Sr2+  Sr61  1  0.88101317  0.12127210  0.62793194  1
  Sr2+  Sr62  1  0.87740259  0.62719382  0.12388490  1
  Sr2+  Sr63  1  0.87533380  0.63465585  0.62917869  1
  Ca2+  Ca64  1  0.00143846  -0.00487372  0.50076782  1
  Ca2+  Ca65  1  0.00336587  0.50225815  0.50044242  1
  Ca2+  Ca66  1  0.50118440  0.50063657  0.00022119  1
  Ca2+  Ca67  1  0.50491690  -0.00291801  0.49907415  1
  Ca2+  Ca68  1  0.00122497  0.00186486  -0.00113631  1
  Ca2+  Ca69  1  0.74820316  0.75084499  -0.00062245  1
  Ca2+  Ca70  1  0.24824037  0.24886522  0.00552560  1
  Ca2+  Ca71  1  0.74795984  0.24698039  0.50498725  1
  Ca2+  Ca72  1  0.24788535  0.24953690  0.49949664  1
  Ca2+  Ca73  1  0.75077398  0.75190196  0.49924838  1
  Ca2+  Ca74  1  0.00268976  0.74614700  0.25089122  1
  Ca2+  Ca75  1  0.49977203  0.24609801  0.74698882  1
  Ca2+  Ca76  1  0.24868607  -0.00074169  0.74887780  1
  Ca2+  Ca77  1  0.50409842  0.25056850  0.25128477  1
  Ca2+  Ca78  1  0.74955895  0.49316378  0.25058892  1
  Ca2+  Ca79  1  -0.00187943  0.25108051  0.24638532  1
  Ca2+  Ca80  1  0.49688159  0.75107469  0.24818906  1
  Ca2+  Ca81  1  0.49867266  0.75157681  0.74651179  1
  Ca2+  Ca82  1  0.24708196  0.50249399  0.74903729  1
  Ca2+  Ca83  1  0.75158938  0.50116282  0.74993390  1
  Ca2+  Ca84  1  0.74874866  0.00632267  0.24719234  1
  Nb5+  Nb85  1  -0.00208670  0.50174557  -0.00212164  1
  Nb5+  Nb86  1  0.50298665  -0.00146531  -0.00006400  1
  Nb5+  Nb87  1  0.49755592  0.49399660  0.49815599  1
  Nb5+  Nb88  1  0.75041055  0.25148918  -0.00364484  1
  Nb5+  Nb89  1  0.25069764  0.74813465  -0.00285629  1
  Nb5+  Nb90  1  0.24705986  0.74846001  0.49134824  1
  Nb5+  Nb91  1  0.25465664  -0.00579653  0.24902079  1
  Nb5+  Nb92  1  -0.00156521  0.24422173  0.75607779  1
  Nb5+  Nb93  1  0.00243586  0.74323311  0.75504622  1
  Nb5+  Nb94  1  0.25276303  0.49481632  0.24709269  1
  Nb5+  Nb95  1  0.75028219  0.00080520  0.75141927  1
  Nb5+  Nb96  1  -0.00307813  0.00161433  0.24537657  1
  Nb5+  Nb97  1  -0.00076212  -0.00711820  0.75702713  1
  Nb5+  Nb98  1  -0.00467923  0.50117332  0.25334481  1
  Nb5+  Nb99  1  -0.00033787  0.49540229  0.74921578  1
  Nb5+  Nb100  1  0.50224022  0.00198316  0.25271309  1
  Nb5+  Nb101  1  0.49812857  -0.00312628  0.74325275  1
  Nb5+  Nb102  1  0.50453018  0.49325903  0.24743637  1
  Nb5+  Nb103  1  0.49428196  0.50142780  0.75280918  1
  Nb5+  Nb104  1  0.25180896  0.24162889  0.24765911  1
  Nb5+  Nb105  1  0.25224885  0.24577578  0.75282618  1
  Nb5+  Nb106  1  0.25141625  0.74444599  0.24011804  1
  Nb5+  Nb107  1  0.25219981  0.74992076  0.74256939  1
  Nb5+  Nb108  1  0.74912599  0.25232010  0.25879107  1
  Nb5+  Nb109  1  0.75065878  0.25236431  0.75064745  1
  Nb5+  Nb110  1  0.74792457  0.75090655  0.24883154  1
  Nb5+  Nb111  1  0.74296429  0.75250033  0.75149584  1
  Nb5+  Nb112  1  0.00465826  0.25471912  0.49298238  1
  Nb5+  Nb113  1  0.00055589  0.24960213  0.99800117  1
  Nb5+  Nb114  1  0.00046925  0.74959798  0.49458665  1
  Nb5+  Nb115  1  -0.00215765  0.74928019  0.99987906  1
  Nb5+  Nb116  1  0.50237883  0.24253053  0.50442571  1
  Nb5+  Nb117  1  0.49591179  0.25185521  0.99324901  1
  Nb5+  Nb118  1  0.50197131  0.75053827  0.50074904  1
  Nb5+  Nb119  1  0.50590270  0.75024051  1.00523452  1
  Nb5+  Nb120  1  0.24828936  0.00124909  0.00085797  1
  Nb5+  Nb121  1  0.24649246  -0.00389790  0.50428696  1
  Nb5+  Nb122  1  0.25543193  0.50085436  0.00357793  1
  Nb5+  Nb123  1  0.24865222  0.49612751  0.50146603  1
  Nb5+  Nb124  1  0.75513695  0.00220735  0.00204923  1
  Nb5+  Nb125  1  0.75557889  0.00020369  0.49002190  1
  Nb5+  Nb126  1  0.74336177  0.50315589  -0.00770052  1
  Nb5+  Nb127  1  0.75887248  0.50336021  0.50454820  1
  O2-  O128  1  0.03130220  0.01613747  0.13076566  1
  O2-  O129  1  0.01468481  0.02009966  0.64237611  1
  O2-  O130  1  0.01517134  0.51650719  0.11529687  1
  O2-  O131  1  0.02940065  0.51488887  0.63948509  1
  O2-  O132  1  0.50948183  -0.02084827  0.11838138  1
  O2-  O133  1  0.51602481  -0.03425621  0.63451882  1
  O2-  O134  1  0.52051878  0.47506079  0.13392558  1
  O2-  O135  1  0.50656829  0.48078268  0.61640257  1
  O2-  O136  1  -0.01947589  -0.01851378  0.36257553  1
  O2-  O137  1  -0.03630489  -0.00909502  0.86847565  1
  O2-  O138  1  -0.01902182  0.47969576  0.36454503  1
  O2-  O139  1  -0.02288944  0.49295843  0.87818100  1
  O2-  O140  1  0.49050848  0.02983066  0.36414066  1
  O2-  O141  1  0.49026568  0.01658350  0.88062394  1
  O2-  O142  1  0.48206157  0.51165840  0.37712917  1
  O2-  O143  1  0.48222790  0.52743768  0.86523203  1
  O2-  O144  1  0.29031890  0.24916248  0.13561481  1
  O2-  O145  1  0.26895290  0.24904213  0.63553447  1
  O2-  O146  1  0.27332497  0.75063004  0.12725427  1
  O2-  O147  1  0.26521114  0.75725996  0.62746054  1
  O2-  O148  1  0.76264472  0.24274141  0.11415978  1
  O2-  O149  1  0.77342189  0.22721619  0.63887342  1
  O2-  O150  1  0.76483768  0.72427258  0.13212101  1
  O2-  O151  1  0.77803764  0.75078582  0.63829547  1
  O2-  O152  1  0.21960105  0.24761257  0.36364253  1
  O2-  O153  1  0.22273515  0.24603413  0.87077384  1
  O2-  O154  1  0.22456358  0.74551462  0.37807094  1
  O2-  O155  1  0.23293246  0.74031660  0.88293361  1
  O2-  O156  1  0.73527805  0.26676040  0.37105712  1
  O2-  O157  1  0.73603154  0.26373240  0.87335595  1
  O2-  O158  1  0.73685688  0.77759653  0.36697187  1
  O2-  O159  1  0.74046440  0.77847197  0.86573316  1
  O2-  O160  1  -0.02732935  0.24030335  0.10946068  1
  O2-  O161  1  -0.01783521  0.23490644  0.63951360  1
  O2-  O162  1  -0.00574964  0.72443897  0.11327645  1
  O2-  O163  1  -0.00556266  0.72791743  0.63767692  1
  O2-  O164  1  0.49049339  0.26142928  0.11076445  1
  O2-  O165  1  0.46546760  0.25940690  0.61705877  1
  O2-  O166  1  0.46473690  0.76512228  0.11474432  1
  O2-  O167  1  0.46437016  0.75670561  0.61338551  1
  O2-  O168  1  0.26988701  0.00034352  0.36855744  1
  O2-  O169  1  0.27203900  0.00723182  0.88731871  1
  O2-  O170  1  0.26773991  0.51320464  0.36364414  1
  O2-  O171  1  0.26426516  0.51662301  0.88843414  1
  O2-  O172  1  0.78125502  -0.00148719  0.37901679  1
  O2-  O173  1  0.76257119  -0.00352166  0.87897138  1
  O2-  O174  1  0.77003831  0.48387216  0.38690461  1
  O2-  O175  1  0.78345828  0.49396822  0.88306928  1
  O2-  O176  1  0.01573325  0.27831009  0.38190467  1
  O2-  O177  1  0.00657161  0.27781854  0.87404994  1
  O2-  O178  1  0.01460804  0.77947945  0.38632230  1
  O2-  O179  1  0.01692895  0.76936536  0.87587098  1
  O2-  O180  1  0.53079388  0.23972671  0.38650216  1
  O2-  O181  1  0.52905395  0.23085479  0.88175301  1
  O2-  O182  1  0.51895801  0.73036343  0.38498323  1
  O2-  O183  1  0.51292074  0.73368820  0.88722497  1
  O2-  O184  1  0.24168631  -0.01283834  0.12707316  1
  O2-  O185  1  0.22901355  -0.02551249  0.61548709  1
  O2-  O186  1  0.22559689  0.49789444  0.12575944  1
  O2-  O187  1  0.22247189  0.49435413  0.61199962  1
  O2-  O188  1  0.72131297  0.02046868  0.11143898  1
  O2-  O189  1  0.73439745  0.01126727  0.63571309  1
  O2-  O190  1  0.73142024  0.50146580  0.11225726  1
  O2-  O191  1  0.72191062  0.51537427  0.61714805  1
  O2-  O192  1  0.13790280  0.26368978  0.21494283  1
  O2-  O193  1  0.11361283  0.26898646  0.73925153  1
  O2-  O194  1  0.13926077  0.77445418  0.23656814  1
  O2-  O195  1  0.11969119  0.77462804  0.74051102  1
  O2-  O196  1  0.63782867  0.28766901  0.23062047  1
  O2-  O197  1  0.63707955  0.26875746  0.73131287  1
  O2-  O198  1  0.63018877  0.77018869  0.22802408  1
  O2-  O199  1  0.63424989  0.78152195  0.73015887  1
  O2-  O200  1  0.36642957  0.23458280  0.28115099  1
  O2-  O201  1  0.36388462  0.22651409  0.77746991  1
  O2-  O202  1  0.36090663  0.73647325  0.28073457  1
  O2-  O203  1  0.36237437  0.72854568  0.76706650  1
  O2-  O204  1  0.86365748  0.21124209  0.26373923  1
  O2-  O205  1  0.87733129  0.23632048  0.77416147  1
  O2-  O206  1  0.86820536  0.73428926  0.27039017  1
  O2-  O207  1  0.88346968  0.73964061  0.77132952  1
  O2-  O208  1  0.26562387  0.37801493  0.25270582  1
  O2-  O209  1  0.25873682  0.36597101  0.75733433  1
  O2-  O210  1  0.27042003  0.87582794  0.25235678  1
  O2-  O211  1  0.25782871  0.86390473  0.77258895  1
  O2-  O212  1  0.79343174  0.36309622  0.24137552  1
  O2-  O213  1  0.77646631  0.36556621  0.74032600  1
  O2-  O214  1  0.76998387  0.86982651  0.22756615  1
  O2-  O215  1  0.77539859  0.88444650  0.74504867  1
  O2-  O216  1  0.23529213  0.12252359  0.24537581  1
  O2-  O217  1  0.21485229  0.13183146  0.74338218  1
  O2-  O218  1  0.23237676  0.62764044  0.24071029  1
  O2-  O219  1  0.21611488  0.63825300  0.74693061  1
  O2-  O220  1  0.71072436  0.13834176  0.25186379  1
  O2-  O221  1  0.73707592  0.12415010  0.76862487  1
  O2-  O222  1  0.72611129  0.63163711  0.27119414  1
  O2-  O223  1  0.72644790  0.63900258  0.76300071  1
  O2-  O224  1  0.13151427  0.48270458  0.26161948  1
  O2-  O225  1  0.11251638  0.48587852  0.78266266  1
  O2-  O226  1  0.13624487  0.98719848  0.26345291  1
  O2-  O227  1  0.11152317  0.98591398  0.78296713  1
  O2-  O228  1  0.61386864  0.47869841  0.27800342  1
  O2-  O229  1  0.61291042  0.47488137  0.76327906  1
  O2-  O230  1  0.61429820  0.97480724  0.26400955  1
  O2-  O231  1  0.63286772  0.98068558  0.76818288  1
  O2-  O232  1  0.37151637  0.02140648  0.23262983  1
  O2-  O233  1  0.38564579  0.02361434  0.73124623  1
  O2-  O234  1  0.36668737  0.51527820  0.22267194  1
  O2-  O235  1  0.38014707  0.52142709  0.72259214  1
  O2-  O236  1  0.88506857  0.01531288  0.22003552  1
  O2-  O237  1  0.87181018  0.02136213  0.73943759  1
  O2-  O238  1  0.88479703  0.52882205  0.23456110  1
  O2-  O239  1  0.88803228  0.53368225  0.73858799  1
  O2-  O240  1  0.46400815  0.38355344  0.26201568  1
  O2-  O241  1  0.47032313  0.38298902  0.76354791  1
  O2-  O242  1  0.46988784  0.88769267  0.26060203  1
  O2-  O243  1  0.48642313  0.88539721  0.78198638  1
  O2-  O244  1  0.99450928  0.38806118  0.21861159  1
  O2-  O245  1  0.97932682  0.37988371  0.73858231  1
  O2-  O246  1  0.99638929  0.88270081  0.22571605  1
  O2-  O247  1  0.98325920  0.87770336  0.73888534  1
  O2-  O248  1  0.02471189  0.11661813  0.26938677  1
  O2-  O249  1  0.01192780  0.13031445  0.77497776  1
  O2-  O250  1  0.03431408  0.61305501  0.25789005  1
  O2-  O251  1  0.01895435  0.63064822  0.77472443  1
  O2-  O252  1  0.51339539  0.11527395  0.21800256  1
  O2-  O253  1  0.53252997  0.11003585  0.73994872  1
  O2-  O254  1  0.50575266  0.61221097  0.23448563  1
  O2-  O255  1  0.52469289  0.61622907  0.72767557  1
  O2-  O256  1  0.12116694  0.48665952  -0.01443327  1
  O2-  O257  1  0.13857234  0.48725679  0.46351931  1
  O2-  O258  1  0.13740748  0.96959842  -0.01420627  1
  O2-  O259  1  0.13540944  0.97587139  0.46994394  1
  O2-  O260  1  0.63386025  0.47405985  -0.03174927  1
  O2-  O261  1  0.61385103  0.48434811  0.48297532  1
  O2-  O262  1  0.62067874  0.98538062  -0.01768758  1
  O2-  O263  1  0.63774408  0.96718035  0.47867936  1
  O2-  O264  1  0.37539394  0.01257388  0.01662349  1
  O2-  O265  1  0.36585622  0.01083760  0.51475969  1
  O2-  O266  1  0.36631657  0.52288033  0.02552958  1
  O2-  O267  1  0.37023377  0.52025667  0.50876528  1
  O2-  O268  1  0.86535557  0.02983535  0.01814771  1
  O2-  O269  1  0.86840796  0.02811459  0.51773146  1
  O2-  O270  1  0.87843486  0.52065789  0.01714578  1
  O2-  O271  1  0.86911965  0.52956704  0.52122105  1
  O2-  O272  1  0.48287488  0.36580177  -0.02559948  1
  O2-  O273  1  0.47574658  0.37845604  0.48567631  1
  O2-  O274  1  0.48004120  0.87904194  -0.01634968  1
  O2-  O275  1  0.47821134  0.86266511  0.47854667  1
  O2-  O276  1  0.98028669  0.38262947  0.00620203  1
  O2-  O277  1  0.98764459  0.36869088  0.52832458  1
  O2-  O278  1  0.98546156  0.86394976  0.01713155  1
  O2-  O279  1  0.99189933  0.86088195  0.53667382  1
  O2-  O280  1  0.01807623  0.13876464  -0.02560354  1
  O2-  O281  1  0.02134307  0.13478787  0.48492955  1
  O2-  O282  1  0.01791091  0.62392356  -0.02137189  1
  O2-  O283  1  0.03829251  0.63815117  0.49238831  1
  O2-  O284  1  0.51204014  0.11937433  0.01459171  1
  O2-  O285  1  0.52368835  0.13046680  0.52362724  1
  O2-  O286  1  0.52283771  0.63627705  0.02586509  1
  O2-  O287  1  0.50642515  0.62057290  0.51292646  1
  O2-  O288  1  0.11139526  0.27733669  0.01517014  1
  O2-  O289  1  0.11636345  0.26401816  0.53337675  1
  O2-  O290  1  0.13023440  0.76481435  0.01593531  1
  O2-  O291  1  0.13409454  0.76788947  0.52366113  1
  O2-  O292  1  0.62981516  0.26513731  0.01028845  1
  O2-  O293  1  0.61332362  0.27959230  0.52771237  1
  O2-  O294  1  0.61430847  0.78370255  0.02121072  1
  O2-  O295  1  0.61341777  0.76243746  0.52908942  1
  O2-  O296  1  0.38370215  0.22831838  -0.02482380  1
  O2-  O297  1  0.38450116  0.22807340  0.47621281  1
  O2-  O298  1  0.36873359  0.73158163  -0.01736066  1
  O2-  O299  1  0.36654827  0.73105147  0.48181814  1
  O2-  O300  1  0.87149495  0.24027191  -0.02384917  1
  O2-  O301  1  0.88589898  0.23718573  0.48815211  1
  O2-  O302  1  0.88552216  0.73025247  -0.02015049  1
  O2-  O303  1  0.88855405  0.72346761  0.48742963  1
  O2-  O304  1  0.26898171  0.38606511  -0.00079585  1
  O2-  O305  1  0.27289013  0.38443670  0.49085395  1
  O2-  O306  1  0.26988861  0.86805929  0.00023902  1
  O2-  O307  1  0.27168017  0.86794753  0.48997987  1
  O2-  O308  1  0.76748439  0.37234042  0.00423019  1
  O2-  O309  1  0.76579673  0.38478460  0.52128474  1
  O2-  O310  1  0.77247235  0.88862531  0.01485491  1
  O2-  O311  1  0.77502946  0.88636638  0.51937711  1
  O2-  O312  1  0.22246207  0.11300664  0.01361644  1
  O2-  O313  1  0.23079747  0.11144140  0.50639053  1
  O2-  O314  1  0.23127395  0.62854506  0.01323807  1
  O2-  O315  1  0.23592059  0.62799547  0.50424603  1
  O2-  O316  1  0.73457804  0.13147299  -0.01718381  1
  O2-  O317  1  0.71692372  0.11343208  0.49735568  1
  O2-  O318  1  0.72071917  0.61660738  -0.01562340  1
  O2-  O319  1  0.72491060  0.61718298  0.48106658  1
