# generated using pymatgen
data_Sr64Ca21Nb43O192
_symmetry_space_group_name_H-M   'P 1'
_cell_length_a   16.53559942
_cell_length_b   16.53942595
_cell_length_c   16.66417672
_cell_angle_alpha   90.07507087
_cell_angle_beta   89.97638765
_cell_angle_gamma   90.03475148
_symmetry_Int_Tables_number   1
_chemical_formula_structural   Sr64Ca21Nb43O192
_chemical_formula_sum   'Sr64 Ca21 Nb43 O192'
_cell_volume   4557.46925816
_cell_formula_units_Z   1
loop_
 _symmetry_equiv_pos_site_id
 _symmetry_equiv_pos_as_xyz
  1  'x, y, z'
loop_
 _atom_type_symbol
 _atom_type_oxidation_number
  Sr2+  2.0
  Ca2+  2.0
  Nb5+  5.0
  O2-  -2.0
loop_
 _atom_site_type_symbol
 _atom_site_label
 _atom_site_symmetry_multiplicity
 _atom_site_fract_x
 _atom_site_fract_y
 _atom_site_fract_z
 _atom_site_occupancy
  Sr2+  Sr0  1  0.12596073  0.14279274  0.12284865  1
  Sr2+  Sr1  1  0.13301482  0.13063739  0.62097607  1
  Sr2+  Sr2  1  0.13953164  0.62916558  0.12888916  1
  Sr2+  Sr3  1  0.12764707  0.63510817  0.63026031  1
  Sr2+  Sr4  1  0.63291363  0.12762947  0.12590691  1
  Sr2+  Sr5  1  0.62786741  0.13789806  0.62505604  1
  Sr2+  Sr6  1  0.62864418  0.64185272  0.12787481  1
  Sr2+  Sr7  1  0.63876095  0.62903720  0.62453128  1
  Sr2+  Sr8  1  0.37576843  0.39032672  0.12845357  1
  Sr2+  Sr9  1  0.38694111  0.38494197  0.62186351  1
  Sr2+  Sr10  1  0.38820087  0.88262987  0.12099727  1
  Sr2+  Sr11  1  0.37967783  0.88491615  0.62671419  1
  Sr2+  Sr12  1  0.88774585  0.37893263  0.12991608  1
  Sr2+  Sr13  1  0.87662500  0.38599544  0.62541649  1
  Sr2+  Sr14  1  0.87704252  0.88884010  0.12386889  1
  Sr2+  Sr15  1  0.88680886  0.87757456  0.62598040  1
  Sr2+  Sr16  1  0.11049694  0.37493497  0.36947170  1
  Sr2+  Sr17  1  0.12403308  0.36097652  0.88192143  1
  Sr2+  Sr18  1  0.11834593  0.86500950  0.37500943  1
  Sr2+  Sr19  1  0.11500313  0.87294611  0.87489878  1
  Sr2+  Sr20  1  0.61366570  0.36367123  0.37552258  1
  Sr2+  Sr21  1  0.60845121  0.37613225  0.87173637  1
  Sr2+  Sr22  1  0.61388930  0.87174930  0.38028988  1
  Sr2+  Sr23  1  0.61627983  0.85838747  0.87653053  1
  Sr2+  Sr24  1  0.37110090  0.11812470  0.36493505  1
  Sr2+  Sr25  1  0.36169384  0.12470218  0.87323518  1
  Sr2+  Sr26  1  0.35908119  0.62076723  0.37622831  1
  Sr2+  Sr27  1  0.37285190  0.61197738  0.87689866  1
  Sr2+  Sr28  1  0.86288095  0.12109224  0.37459772  1
  Sr2+  Sr29  1  0.86823562  0.11197723  0.87643429  1
  Sr2+  Sr30  1  0.86651600  0.62195298  0.37306447  1
  Sr2+  Sr31  1  0.86261163  0.62048224  0.87498744  1
  Sr2+  Sr32  1  0.11713541  0.11291482  0.37626557  1
  Sr2+  Sr33  1  0.12435185  0.11401530  0.87759510  1
  Sr2+  Sr34  1  0.12093028  0.61517128  0.36764621  1
  Sr2+  Sr35  1  0.10938499  0.61675709  0.87619311  1
  Sr2+  Sr36  1  0.62343255  0.11158708  0.37395115  1
  Sr2+  Sr37  1  0.61259160  0.12108192  0.87509747  1
  Sr2+  Sr38  1  0.61186205  0.62133008  0.37001549  1
  Sr2+  Sr39  1  0.62234775  0.61184402  0.87761440  1
  Sr2+  Sr40  1  0.36370869  0.37302087  0.38032192  1
  Sr2+  Sr41  1  0.37106594  0.36097213  0.87304269  1
  Sr2+  Sr42  1  0.37359080  0.85476960  0.37622502  1
  Sr2+  Sr43  1  0.36229718  0.86968600  0.87495706  1
  Sr2+  Sr44  1  0.86861918  0.35976440  0.36965579  1
  Sr2+  Sr45  1  0.86205909  0.36954000  0.87497851  1
  Sr2+  Sr46  1  0.86978085  0.87032662  0.37332776  1
  Sr2+  Sr47  1  0.87278196  0.86030767  0.87419113  1
  Sr2+  Sr48  1  0.13701577  0.38142309  0.12394690  1
  Sr2+  Sr49  1  0.13163726  0.38605464  0.62110552  1
  Sr2+  Sr50  1  0.13296683  0.88438133  0.13045197  1
  Sr2+  Sr51  1  0.13948572  0.87835679  0.63237327  1
  Sr2+  Sr52  1  0.63692328  0.38439911  0.13246506  1
  Sr2+  Sr53  1  0.63721243  0.37781646  0.62302603  1
  Sr2+  Sr54  1  0.63821244  0.87548251  0.12059770  1
  Sr2+  Sr55  1  0.62873830  0.88908261  0.62480515  1
  Sr2+  Sr56  1  0.38730194  0.13684398  0.13010074  1
  Sr2+  Sr57  1  0.38777092  0.12922267  0.62935521  1
  Sr2+  Sr58  1  0.38958239  0.62749871  0.13263552  1
  Sr2+  Sr59  1  0.37823804  0.63683141  0.61826658  1
  Sr2+  Sr60  1  0.88754147  0.12685036  0.12418353  1
  Sr2+  Sr61  1  0.87578294  0.13489756  0.62116688  1
  Sr2+  Sr62  1  0.88173098  0.63450901  0.12662648  1
  Sr2+  Sr63  1  0.88736513  0.62580595  0.62984858  1
  Ca2+  Ca64  1  0.50158714  0.49961641  0.49841434  1
  Ca2+  Ca65  1  0.50247478  0.49800767  0.00398348  1
  Ca2+  Ca66  1  0.49964792  0.00101645  -0.00448660  1
  Ca2+  Ca67  1  -0.00124784  0.50108403  0.49781087  1
  Ca2+  Ca68  1  0.00025714  0.49964033  0.00153889  1
  Ca2+  Ca69  1  0.24827332  0.24898548  0.50201607  1
  Ca2+  Ca70  1  0.24801552  0.75075468  0.00049532  1
  Ca2+  Ca71  1  0.24555003  0.75134870  0.49935217  1
  Ca2+  Ca72  1  0.74875790  0.75121464  0.50359085  1
  Ca2+  Ca73  1  0.74829307  0.25109607  -0.00260094  1
  Ca2+  Ca74  1  0.00114555  0.24757879  0.25149983  1
  Ca2+  Ca75  1  0.50076459  0.25323018  0.25196859  1
  Ca2+  Ca76  1  0.49922413  0.75043545  0.74938308  1
  Ca2+  Ca77  1  0.25016510  0.49805652  0.75208081  1
  Ca2+  Ca78  1  -0.00005277  0.74918453  0.24562545  1
  Ca2+  Ca79  1  -0.00031707  0.24732061  0.74934171  1
  Ca2+  Ca80  1  0.25071891  0.00108774  0.24916407  1
  Ca2+  Ca81  1  0.75041753  0.50134096  0.25206141  1
  Ca2+  Ca82  1  0.75025718  -0.00092349  0.75073051  1
  Ca2+  Ca83  1  0.50108026  0.75239671  0.24898780  1
  Ca2+  Ca84  1  0.74910040  -0.00125849  0.24972926  1
  Nb5+  Nb85  1  0.00522164  -0.00376615  0.50593480  1
  Nb5+  Nb86  1  0.50192159  0.00171264  0.49887998  1
  Nb5+  Nb87  1  0.00205935  -0.00134064  0.00520946  1
  Nb5+  Nb88  1  0.74820481  0.25086845  0.49832594  1
  Nb5+  Nb89  1  0.75183098  0.74858987  -0.00020833  1
  Nb5+  Nb90  1  0.25397239  0.24897415  0.00360070  1
  Nb5+  Nb91  1  0.25026215  0.00114176  0.74996513  1
  Nb5+  Nb92  1  0.00046465  0.74884910  0.75019006  1
  Nb5+  Nb93  1  0.25007136  0.49957436  0.25125590  1
  Nb5+  Nb94  1  0.49974591  0.25089553  0.74972584  1
  Nb5+  Nb95  1  0.74977091  0.49948480  0.75039566  1
  Nb5+  Nb96  1  -0.00173246  0.00023759  0.26032434  1
  Nb5+  Nb97  1  0.00076914  0.00237615  0.75152589  1
  Nb5+  Nb98  1  -0.00361543  0.50193681  0.24625036  1
  Nb5+  Nb99  1  -0.00010193  0.49148963  0.75629817  1
  Nb5+  Nb100  1  0.50300113  -0.00121294  0.24242252  1
  Nb5+  Nb101  1  0.49914883  -0.00072981  0.75368936  1
  Nb5+  Nb102  1  0.50338844  0.49732391  0.25559798  1
  Nb5+  Nb103  1  0.49982860  0.50705804  0.74269502  1
  Nb5+  Nb104  1  0.24620260  0.25082330  0.25914792  1
  Nb5+  Nb105  1  0.24958785  0.25174358  0.74560974  1
  Nb5+  Nb106  1  0.25405451  0.75591943  0.24313808  1
  Nb5+  Nb107  1  0.24983017  0.74275320  0.75743152  1
  Nb5+  Nb108  1  0.75134583  0.24707405  0.24227577  1
  Nb5+  Nb109  1  0.74799085  0.24764888  0.75424041  1
  Nb5+  Nb110  1  0.74919411  0.75335652  0.25746743  1
  Nb5+  Nb111  1  0.75004232  0.75253122  0.74659215  1
  Nb5+  Nb112  1  -0.00143709  0.25289073  0.50268460  1
  Nb5+  Nb113  1  -0.00513930  0.24974179  0.99217000  1
  Nb5+  Nb114  1  0.00259931  0.74593025  0.49697175  1
  Nb5+  Nb115  1  0.00165973  0.75176609  1.00284176  1
  Nb5+  Nb116  1  0.49553402  0.24551571  0.49693585  1
  Nb5+  Nb117  1  0.50263653  0.25593609  1.00707346  1
  Nb5+  Nb118  1  0.50238815  0.74617568  0.50460069  1
  Nb5+  Nb119  1  0.49403348  0.74697661  0.99418226  1
  Nb5+  Nb120  1  0.25189497  0.00403899  0.00567398  1
  Nb5+  Nb121  1  0.25838374  -0.00019245  0.49816780  1
  Nb5+  Nb122  1  0.25117235  0.50307302  -0.00348748  1
  Nb5+  Nb123  1  0.24601510  0.50170980  0.50602412  1
  Nb5+  Nb124  1  0.74613180  -0.00124099  -0.00878023  1
  Nb5+  Nb125  1  0.75751620  0.00008122  0.50706309  1
  Nb5+  Nb126  1  0.75167425  0.49999919  0.00587798  1
  Nb5+  Nb127  1  0.75125734  0.50106921  0.49541006  1
  O2-  O128  1  0.01264539  -0.01942455  0.11881080  1
  O2-  O129  1  0.01628680  -0.02518878  0.62161841  1
  O2-  O130  1  0.01458688  0.46582496  0.13250179  1
  O2-  O131  1  0.01492952  0.48753694  0.63831543  1
  O2-  O132  1  0.52004807  -0.02458852  0.13051915  1
  O2-  O133  1  0.50380181  -0.01305925  0.62750320  1
  O2-  O134  1  0.51013209  0.46492651  0.13883481  1
  O2-  O135  1  0.51845409  0.46853569  0.63299779  1
  O2-  O136  1  -0.01608060  0.01655532  0.37779651  1
  O2-  O137  1  -0.00835884  0.01581143  0.86788978  1
  O2-  O138  1  -0.01005300  0.53270661  0.36376860  1
  O2-  O139  1  -0.01756242  0.52940052  0.86674842  1
  O2-  O140  1  0.48709270  0.02448210  0.38566870  1
  O2-  O141  1  0.48174241  0.03277485  0.86312830  1
  O2-  O142  1  0.48260546  0.53521808  0.36823555  1
  O2-  O143  1  0.49115105  0.51559340  0.86126402  1
  O2-  O144  1  0.26523616  0.22799788  0.11831733  1
  O2-  O145  1  0.26497557  0.21830316  0.63587260  1
  O2-  O146  1  0.26783994  0.71741623  0.13044387  1
  O2-  O147  1  0.25399201  0.73129715  0.63858898  1
  O2-  O148  1  0.76445644  0.21893366  0.13080414  1
  O2-  O149  1  0.75728433  0.23583391  0.62881227  1
  O2-  O150  1  0.76437386  0.73019151  0.11440396  1
  O2-  O151  1  0.76769849  0.71803076  0.63647995  1
  O2-  O152  1  0.23096704  0.28037417  0.36879168  1
  O2-  O153  1  0.24470290  0.26217933  0.87224302  1
  O2-  O154  1  0.23471362  0.77221274  0.36212447  1
  O2-  O155  1  0.23255032  0.78273742  0.86680030  1
  O2-  O156  1  0.73482493  0.26961488  0.38387919  1
  O2-  O157  1  0.72783588  0.28141662  0.86404884  1
  O2-  O158  1  0.73868152  0.78174274  0.36880240  1
  O2-  O159  1  0.74294872  0.76367891  0.87003212  1
  O2-  O160  1  -0.01814348  0.25253227  0.11089959  1
  O2-  O161  1  -0.03605565  0.25628078  0.61687308  1
  O2-  O162  1  -0.03180363  0.76857287  0.11097448  1
  O2-  O163  1  -0.01845352  0.76018121  0.63125831  1
  O2-  O164  1  0.47095120  0.26877345  0.11593903  1
  O2-  O165  1  0.48207554  0.25865569  0.62535483  1
  O2-  O166  1  0.48752349  0.77154936  0.11098316  1
  O2-  O167  1  0.46947267  0.76739990  0.61774705  1
  O2-  O168  1  0.27341235  -0.02039573  0.38658725  1
  O2-  O169  1  0.26369421  -0.00730725  0.87422441  1
  O2-  O170  1  0.26687281  0.48667926  0.36955703  1
  O2-  O171  1  0.28130598  0.48315157  0.88529806  1
  O2-  O172  1  0.76630397  -0.01178531  0.38980996  1
  O2-  O173  1  0.78684591  -0.01753486  0.88084266  1
  O2-  O174  1  0.78432516  0.48545230  0.38612053  1
  O2-  O175  1  0.77120477  0.48967059  0.86906879  1
  O2-  O176  1  0.01733340  0.22492242  0.38919170  1
  O2-  O177  1  0.03343637  0.23124681  0.88185015  1
  O2-  O178  1  0.02297258  0.74067758  0.38321372  1
  O2-  O179  1  0.01537081  0.74525712  0.87294090  1
  O2-  O180  1  0.52649333  0.22679461  0.38757701  1
  O2-  O181  1  0.51725194  0.23681880  0.86686760  1
  O2-  O182  1  0.52561868  0.74829492  0.38616099  1
  O2-  O183  1  0.53080622  0.73157413  0.88086429  1
  O2-  O184  1  0.21700275  0.01991816  0.11440946  1
  O2-  O185  1  0.23135963  0.01553044  0.63201469  1
  O2-  O186  1  0.23188818  0.50522045  0.12662433  1
  O2-  O187  1  0.21992245  0.51628860  0.61889768  1
  O2-  O188  1  0.73383036  0.00803508  0.10959598  1
  O2-  O189  1  0.72421475  0.02256519  0.61856016  1
  O2-  O190  1  0.72219758  0.51905836  0.11550074  1
  O2-  O191  1  0.73027703  0.50866327  0.63015601  1
  O2-  O192  1  0.13502863  0.26624324  0.22128091  1
  O2-  O193  1  0.13632193  0.27388896  0.73279829  1
  O2-  O194  1  0.13477079  0.76447562  0.22393812  1
  O2-  O195  1  0.12002514  0.76784732  0.73761356  1
  O2-  O196  1  0.63548687  0.27685423  0.23756465  1
  O2-  O197  1  0.61957438  0.26658626  0.73027863  1
  O2-  O198  1  0.63553709  0.76915672  0.22375608  1
  O2-  O199  1  0.63678040  0.77364475  0.73249648  1
  O2-  O200  1  0.36395437  0.23313249  0.26274625  1
  O2-  O201  1  0.37959664  0.22868422  0.76350544  1
  O2-  O202  1  0.36735583  0.72752748  0.26939187  1
  O2-  O203  1  0.36390222  0.72676784  0.77250747  1
  O2-  O204  1  0.86619845  0.23286338  0.27530738  1
  O2-  O205  1  0.86178946  0.22937408  0.77081301  1
  O2-  O206  1  0.86525090  0.72173241  0.26151907  1
  O2-  O207  1  0.88054619  0.73336086  0.76757953  1
  O2-  O208  1  0.26526258  0.37562924  0.23300332  1
  O2-  O209  1  0.27971114  0.36326026  0.73193895  1
  O2-  O210  1  0.27379320  0.86778270  0.21772058  1
  O2-  O211  1  0.26686313  0.88149929  0.73596858  1
  O2-  O212  1  0.77508707  0.36596076  0.22966344  1
  O2-  O213  1  0.76613048  0.37778035  0.73293839  1
  O2-  O214  1  0.77472648  0.86598380  0.22557355  1
  O2-  O215  1  0.77862994  0.86397444  0.73096079  1
  O2-  O216  1  0.22967784  0.13520556  0.27775721  1
  O2-  O217  1  0.23285668  0.12247702  0.76942980  1
  O2-  O218  1  0.23257320  0.61770338  0.26345791  1
  O2-  O219  1  0.22192315  0.63253822  0.77743598  1
  O2-  O220  1  0.72787314  0.13370288  0.27235780  1
  O2-  O221  1  0.72280997  0.13528158  0.77004845  1
  O2-  O222  1  0.72449896  0.63519416  0.27087635  1
  O2-  O223  1  0.73504246  0.62139948  0.76691362  1
  O2-  O224  1  0.12961196  0.48214768  0.26426617  1
  O2-  O225  1  0.11443965  0.47656951  0.77679944  1
  O2-  O226  1  0.11563139  0.97301946  0.26969063  1
  O2-  O227  1  0.12766229  0.97994453  0.76362869  1
  O2-  O228  1  0.61707444  0.47957722  0.27667010  1
  O2-  O229  1  0.62999993  0.48329475  0.76572694  1
  O2-  O230  1  0.61527875  0.98229493  0.27861952  1
  O2-  O231  1  0.61267933  0.97798348  0.76618869  1
  O2-  O232  1  0.38542170  0.02910344  0.23594743  1
  O2-  O233  1  0.36863953  0.02099007  0.73551094  1
  O2-  O234  1  0.36952718  0.51300909  0.23313866  1
  O2-  O235  1  0.38515669  0.52276431  0.72528137  1
  O2-  O236  1  0.88416861  0.02494646  0.23347829  1
  O2-  O237  1  0.88829795  0.01823145  0.72716344  1
  O2-  O238  1  0.88336997  0.51837144  0.22432756  1
  O2-  O239  1  0.87155667  0.51661399  0.73326020  1
  O2-  O240  1  0.47756772  0.38406233  0.28762505  1
  O2-  O241  1  0.48273874  0.36904487  0.76304780  1
  O2-  O242  1  0.47277452  0.88737790  0.27137430  1
  O2-  O243  1  0.46942086  0.88743907  0.76651326  1
  O2-  O244  1  0.98561253  0.38357097  0.27726282  1
  O2-  O245  1  0.97048001  0.38136112  0.77039274  1
  O2-  O246  1  0.97301843  0.88386761  0.26134300  1
  O2-  O247  1  0.98664626  0.87561074  0.76088874  1
  O2-  O248  1  0.02714463  0.11241603  0.23271462  1
  O2-  O249  1  0.02867382  0.11233935  0.72919877  1
  O2-  O250  1  0.02481985  0.61525134  0.22008163  1
  O2-  O251  1  0.01727622  0.63073285  0.73784678  1
  O2-  O252  1  0.52474609  0.11832107  0.23085114  1
  O2-  O253  1  0.51532802  0.12714869  0.72998167  1
  O2-  O254  1  0.51663557  0.61470576  0.22521327  1
  O2-  O255  1  0.52712400  0.61698983  0.72382991  1
  O2-  O256  1  0.13703467  0.46934626  -0.01395637  1
  O2-  O257  1  0.13241466  0.47022206  0.48012324  1
  O2-  O258  1  0.12183049  0.98673746  -0.02109551  1
  O2-  O259  1  0.11818325  0.98102788  0.48209221  1
  O2-  O260  1  0.63840705  0.48577610  -0.02799177  1
  O2-  O261  1  0.63833776  0.46589240  0.48707509  1
  O2-  O262  1  0.63525062  0.97600822  -0.03033160  1
  O2-  O263  1  0.61912751  0.98618533  0.48944317  1
  O2-  O264  1  0.36456530  0.02707223  0.02209364  1
  O2-  O265  1  0.37192908  0.02186795  0.51924074  1
  O2-  O266  1  0.36597782  0.51724920  0.02674507  1
  O2-  O267  1  0.36497802  0.52249490  0.51827462  1
  O2-  O268  1  0.88274652  0.01879636  0.01389289  1
  O2-  O269  1  0.87337948  0.01832421  0.52144888  1
  O2-  O270  1  0.86553615  0.53390591  0.01195542  1
  O2-  O271  1  0.86448150  0.51345317  0.53182503  1
  O2-  O272  1  0.48149812  0.36534312  -0.03115646  1
  O2-  O273  1  0.48090645  0.36045973  0.48521603  1
  O2-  O274  1  0.48244415  0.86703574  -0.02881479  1
  O2-  O275  1  0.47658619  0.88671787  0.48945063  1
  O2-  O276  1  0.98211027  0.36359777  -0.02425456  1
  O2-  O277  1  0.97756417  0.36399192  0.48043239  1
  O2-  O278  1  0.98225976  0.88286927  -0.02272289  1
  O2-  O279  1  0.97142380  0.88211252  0.48604146  1
  O2-  O280  1  0.01883857  0.11874113  0.00977645  1
  O2-  O281  1  0.01002975  0.11500910  0.52058122  1
  O2-  O282  1  0.02542219  0.63900396  0.01295974  1
  O2-  O283  1  0.02409118  0.63568920  0.52141298  1
  O2-  O284  1  0.52529050  0.13794809  0.01195056  1
  O2-  O285  1  0.51438526  0.12164993  0.52561798  1
  O2-  O286  1  0.52171150  0.63335110  0.02026906  1
  O2-  O287  1  0.52553643  0.63456310  0.52246068  1
  O2-  O288  1  0.13267995  0.26404290  0.01403629  1
  O2-  O289  1  0.11106079  0.26282130  0.53183180  1
  O2-  O290  1  0.11255310  0.78453424  0.01520626  1
  O2-  O291  1  0.11107698  0.78676091  0.51937011  1
  O2-  O292  1  0.61604614  0.27908085  0.02275723  1
  O2-  O293  1  0.62728215  0.26002414  0.52013768  1
  O2-  O294  1  0.63511551  0.77104112  0.00922453  1
  O2-  O295  1  0.61496538  0.78301236  0.52447371  1
  O2-  O296  1  0.37341073  0.22989705  -0.01803716  1
  O2-  O297  1  0.38323945  0.22066943  0.48114189  1
  O2-  O298  1  0.38201013  0.72729789  -0.02666517  1
  O2-  O299  1  0.38341032  0.73471410  0.47921942  1
  O2-  O300  1  0.88362445  0.22571054  -0.02876709  1
  O2-  O301  1  0.86769478  0.22716915  0.48495601  1
  O2-  O302  1  0.87544961  0.73795571  -0.02428041  1
  O2-  O303  1  0.88438645  0.73437033  0.48467651  1
  O2-  O304  1  0.27165265  0.36642570  0.01253480  1
  O2-  O305  1  0.27295897  0.38291790  0.52029815  1
  O2-  O306  1  0.26999982  0.88909106  0.01562748  1
  O2-  O307  1  0.26002560  0.88734230  0.53087334  1
  O2-  O308  1  0.77928029  0.38697776  0.01857526  1
  O2-  O309  1  0.76959474  0.36695817  0.51941390  1
  O2-  O310  1  0.77170836  0.87124620  0.00954317  1
  O2-  O311  1  0.76448124  0.88672315  0.53024564  1
  O2-  O312  1  0.23362029  0.12754197  -0.02034126  1
  O2-  O313  1  0.22030232  0.11148316  0.48835050  1
  O2-  O314  1  0.22512021  0.61441248  -0.02051813  1
  O2-  O315  1  0.22696156  0.61657356  0.47697091  1
  O2-  O316  1  0.73428946  0.11426854  -0.02714160  1
  O2-  O317  1  0.73489296  0.12720844  0.48737259  1
  O2-  O318  1  0.73509267  0.63116444  -0.02199885  1
  O2-  O319  1  0.72499395  0.61399156  0.48241486  1
