# generated using pymatgen
data_Sr64Ca21Nb43O192
_symmetry_space_group_name_H-M   'P 1'
_cell_length_a   16.55450182
_cell_length_b   16.56566531
_cell_length_c   16.71576634
_cell_angle_alpha   90.03501460
_cell_angle_beta   90.00627657
_cell_angle_gamma   90.00868196
_symmetry_Int_Tables_number   1
_chemical_formula_structural   Sr64Ca21Nb43O192
_chemical_formula_sum   'Sr64 Ca21 Nb43 O192'
_cell_volume   4584.06958619
_cell_formula_units_Z   1
loop_
 _symmetry_equiv_pos_site_id
 _symmetry_equiv_pos_as_xyz
  1  'x, y, z'
loop_
 _atom_type_symbol
 _atom_type_oxidation_number
  Sr2+  2.0
  Ca2+  2.0
  Nb5+  5.0
  O2-  -2.0
loop_
 _atom_site_type_symbol
 _atom_site_label
 _atom_site_symmetry_multiplicity
 _atom_site_fract_x
 _atom_site_fract_y
 _atom_site_fract_z
 _atom_site_occupancy
  Sr2+  Sr0  1  0.12827065  0.11982387  0.12141175  1
  Sr2+  Sr1  1  0.12917373  0.11295979  0.62356666  1
  Sr2+  Sr2  1  0.13148319  0.61083097  0.12684508  1
  Sr2+  Sr3  1  0.13212164  0.62516772  0.62885764  1
  Sr2+  Sr4  1  0.63135118  0.10712339  0.12728420  1
  Sr2+  Sr5  1  0.63605374  0.12958381  0.62340129  1
  Sr2+  Sr6  1  0.62533892  0.63536011  0.11414415  1
  Sr2+  Sr7  1  0.62421039  0.62287979  0.62912694  1
  Sr2+  Sr8  1  0.38359021  0.37364885  0.12448224  1
  Sr2+  Sr9  1  0.38635366  0.35760039  0.62898308  1
  Sr2+  Sr10  1  0.38474977  0.86350013  0.13511238  1
  Sr2+  Sr11  1  0.37661896  0.86837645  0.61707601  1
  Sr2+  Sr12  1  0.88416897  0.38556276  0.12786960  1
  Sr2+  Sr13  1  0.87975288  0.37703219  0.61947277  1
  Sr2+  Sr14  1  0.87770513  0.87165465  0.13442731  1
  Sr2+  Sr15  1  0.88467796  0.86302187  0.62848063  1
  Sr2+  Sr16  1  0.11115559  0.38019439  0.36853620  1
  Sr2+  Sr17  1  0.14343455  0.37147932  0.87674160  1
  Sr2+  Sr18  1  0.11915201  0.87565911  0.38358720  1
  Sr2+  Sr19  1  0.11486112  0.87851045  0.87774431  1
  Sr2+  Sr20  1  0.63449717  0.37342010  0.38210102  1
  Sr2+  Sr21  1  0.64395406  0.38045296  0.87903371  1
  Sr2+  Sr22  1  0.62356867  0.88411645  0.36629241  1
  Sr2+  Sr23  1  0.61552542  0.87867449  0.87260962  1
  Sr2+  Sr24  1  0.36785435  0.13234102  0.37376308  1
  Sr2+  Sr25  1  0.36086697  0.12975503  0.87565017  1
  Sr2+  Sr26  1  0.36234952  0.62261839  0.36996623  1
  Sr2+  Sr27  1  0.36866347  0.62403370  0.87336285  1
  Sr2+  Sr28  1  0.86077633  0.13014844  0.36883914  1
  Sr2+  Sr29  1  0.86627177  0.13188557  0.87802140  1
  Sr2+  Sr30  1  0.86508042  0.62682641  0.37320722  1
  Sr2+  Sr31  1  0.86116837  0.62626044  0.87022149  1
  Sr2+  Sr32  1  0.11415984  0.13280722  0.37619262  1
  Sr2+  Sr33  1  0.11899215  0.13319885  0.88110212  1
  Sr2+  Sr34  1  0.11984188  0.61935243  0.37016734  1
  Sr2+  Sr35  1  0.11399732  0.61377061  0.87119757  1
  Sr2+  Sr36  1  0.62107256  0.13503364  0.37376675  1
  Sr2+  Sr37  1  0.62697379  0.13019685  0.87816915  1
  Sr2+  Sr38  1  0.61374268  0.61359297  0.38412623  1
  Sr2+  Sr39  1  0.61359242  0.62172493  0.87549179  1
  Sr2+  Sr40  1  0.37797542  0.38044277  0.37627535  1
  Sr2+  Sr41  1  0.37437345  0.36804867  0.88103283  1
  Sr2+  Sr42  1  0.36445027  0.87974391  0.37355812  1
  Sr2+  Sr43  1  0.36652828  0.88886530  0.86606992  1
  Sr2+  Sr44  1  0.87014455  0.38004186  0.37488609  1
  Sr2+  Sr45  1  0.87594692  0.37487214  0.86624241  1
  Sr2+  Sr46  1  0.86895156  0.88419567  0.37534976  1
  Sr2+  Sr47  1  0.86756465  0.87410837  0.87856559  1
  Sr2+  Sr48  1  0.13639795  0.37587786  0.13078357  1
  Sr2+  Sr49  1  0.13134627  0.37038790  0.63665994  1
  Sr2+  Sr50  1  0.13050991  0.87047425  0.11812467  1
  Sr2+  Sr51  1  0.13918191  0.87306828  0.62161702  1
  Sr2+  Sr52  1  0.63081575  0.38466567  0.12038834  1
  Sr2+  Sr53  1  0.63340448  0.37345485  0.61516473  1
  Sr2+  Sr54  1  0.62467944  0.86635724  0.13177998  1
  Sr2+  Sr55  1  0.61602603  0.86981990  0.62582308  1
  Sr2+  Sr56  1  0.38564676  0.11722971  0.12285622  1
  Sr2+  Sr57  1  0.39330859  0.10947164  0.62511200  1
  Sr2+  Sr58  1  0.39256536  0.61869798  0.12397043  1
  Sr2+  Sr59  1  0.38089631  0.63084225  0.62338250  1
  Sr2+  Sr60  1  0.88504670  0.11591786  0.12726398  1
  Sr2+  Sr61  1  0.88293653  0.12651536  0.62614265  1
  Sr2+  Sr62  1  0.88326351  0.63831583  0.12682715  1
  Sr2+  Sr63  1  0.85484909  0.62566115  0.62849036  1
  Ca2+  Ca64  1  0.00238064  0.50345306  0.50156681  1
  Ca2+  Ca65  1  0.00190255  0.49819256  -0.00150127  1
  Ca2+  Ca66  1  0.50361690  -0.00288392  0.49710365  1
  Ca2+  Ca67  1  0.50077376  -0.00276507  -0.00029347  1
  Ca2+  Ca68  1  0.49467953  0.49996430  0.50281652  1
  Ca2+  Ca69  1  0.75368164  0.24947883  0.00493750  1
  Ca2+  Ca70  1  0.75059059  0.75112455  -0.00143094  1
  Ca2+  Ca71  1  0.24922655  0.74948955  -0.00025475  1
  Ca2+  Ca72  1  0.74922311  0.75854271  0.50141617  1
  Ca2+  Ca73  1  0.24970659  0.24989708  0.50082991  1
  Ca2+  Ca74  1  -0.00246558  0.25010334  0.24937901  1
  Ca2+  Ca75  1  0.24579063  -0.00046611  0.24979856  1
  Ca2+  Ca76  1  0.24881767  0.00128547  0.74915524  1
  Ca2+  Ca77  1  0.74882323  0.49983926  0.75162173  1
  Ca2+  Ca78  1  0.75112638  0.00049519  0.74662711  1
  Ca2+  Ca79  1  0.50422480  0.25011570  0.75325773  1
  Ca2+  Ca80  1  0.74598419  0.50354507  0.24754208  1
  Ca2+  Ca81  1  0.50129098  0.25013849  0.24643513  1
  Ca2+  Ca82  1  0.25369522  0.50047924  0.75041404  1
  Ca2+  Ca83  1  0.49980932  0.74461847  0.25310364  1
  Ca2+  Ca84  1  0.00082781  0.75031697  0.25413099  1
  Nb5+  Nb85  1  -0.00149521  -0.00135214  0.00402765  1
  Nb5+  Nb86  1  0.50047037  0.49581586  -0.00203126  1
  Nb5+  Nb87  1  -0.00308114  0.00023030  0.50672858  1
  Nb5+  Nb88  1  0.25100152  0.24604528  0.00420079  1
  Nb5+  Nb89  1  0.75359634  0.25028569  0.49864973  1
  Nb5+  Nb90  1  0.24992522  0.74847168  0.49964486  1
  Nb5+  Nb91  1  0.75181935  -0.00026703  0.24835375  1
  Nb5+  Nb92  1  0.25279431  0.49746923  0.25050401  1
  Nb5+  Nb93  1  0.49230923  0.74949007  0.75184523  1
  Nb5+  Nb94  1  0.00145495  0.24501260  0.74847027  1
  Nb5+  Nb95  1  0.00121770  0.74549120  0.74839150  1
  Nb5+  Nb96  1  0.00265853  -0.00201661  0.25763571  1
  Nb5+  Nb97  1  -0.00104702  -0.00245251  0.75615350  1
  Nb5+  Nb98  1  -0.00530352  0.50401435  0.24664805  1
  Nb5+  Nb99  1  0.00017762  0.49246516  0.74994932  1
  Nb5+  Nb100  1  0.49483942  0.00013711  0.25259193  1
  Nb5+  Nb101  1  0.50665683  0.00302037  0.75103900  1
  Nb5+  Nb102  1  0.50213296  0.49575894  0.25111230  1
  Nb5+  Nb103  1  0.49686154  0.49569324  0.75055526  1
  Nb5+  Nb104  1  0.25066024  0.24844951  0.25483588  1
  Nb5+  Nb105  1  0.25240941  0.24385811  0.74518285  1
  Nb5+  Nb106  1  0.24615044  0.74832862  0.24675211  1
  Nb5+  Nb107  1  0.24465171  0.75562325  0.75396245  1
  Nb5+  Nb108  1  0.74669077  0.25132359  0.24231297  1
  Nb5+  Nb109  1  0.75061590  0.25515372  0.75072402  1
  Nb5+  Nb110  1  0.74653867  0.74535115  0.25692404  1
  Nb5+  Nb111  1  0.73969209  0.75566348  0.75111396  1
  Nb5+  Nb112  1  -0.00041134  0.25231484  0.49766609  1
  Nb5+  Nb113  1  -0.00036774  0.25297090  1.00234556  1
  Nb5+  Nb114  1  0.00162747  0.74574133  0.50426185  1
  Nb5+  Nb115  1  0.00508066  0.74819174  1.00050433  1
  Nb5+  Nb116  1  0.49656448  0.24509767  0.50275763  1
  Nb5+  Nb117  1  0.50776700  0.24779150  0.99962305  1
  Nb5+  Nb118  1  0.49930207  0.74939152  0.49437535  1
  Nb5+  Nb119  1  0.49360020  0.75253620  0.99526271  1
  Nb5+  Nb120  1  0.25377901  -0.00331277  0.00267647  1
  Nb5+  Nb121  1  0.25232469  0.00486164  0.49459581  1
  Nb5+  Nb122  1  0.25106327  0.49915898  -0.00161145  1
  Nb5+  Nb123  1  0.24984804  0.49645413  0.50377879  1
  Nb5+  Nb124  1  0.74891933  -0.00614685  -0.00150534  1
  Nb5+  Nb125  1  0.75237012  0.00089954  0.50179268  1
  Nb5+  Nb126  1  0.75764057  0.50394440  0.00591470  1
  Nb5+  Nb127  1  0.74895447  0.50685723  0.49914894  1
  O2-  O128  1  -0.01730207  -0.01473523  0.11781331  1
  O2-  O129  1  -0.02477757  -0.00951817  0.61992432  1
  O2-  O130  1  0.01704154  0.47122972  0.13336455  1
  O2-  O131  1  0.03047929  0.48628314  0.63604687  1
  O2-  O132  1  0.48863770  -0.02754055  0.13501159  1
  O2-  O133  1  0.48200252  -0.02502739  0.63554349  1
  O2-  O134  1  0.50360161  0.47886265  0.11905912  1
  O2-  O135  1  0.51826154  0.48276349  0.63826777  1
  O2-  O136  1  0.01723675  0.01286917  0.37255774  1
  O2-  O137  1  0.01978874  0.01371359  0.86917349  1
  O2-  O138  1  -0.01239996  0.53092973  0.36423067  1
  O2-  O139  1  -0.02020007  0.52493830  0.86498720  1
  O2-  O140  1  0.53259459  0.01214476  0.36387239  1
  O2-  O141  1  0.53351242  0.01250455  0.86791882  1
  O2-  O142  1  0.48558342  0.52038930  0.36338569  1
  O2-  O143  1  0.47717796  0.51639187  0.88221066  1
  O2-  O144  1  0.22257765  0.23928376  0.11783053  1
  O2-  O145  1  0.22015181  0.23381237  0.63453866  1
  O2-  O146  1  0.21804740  0.73612441  0.13591613  1
  O2-  O147  1  0.24134819  0.73410708  0.62405808  1
  O2-  O148  1  0.71385135  0.23604522  0.13477366  1
  O2-  O149  1  0.74183545  0.23872371  0.62188343  1
  O2-  O150  1  0.74439496  0.73831951  0.13583797  1
  O2-  O151  1  0.73179809  0.73329226  0.63330736  1
  O2-  O152  1  0.27957201  0.26561548  0.36509638  1
  O2-  O153  1  0.26164852  0.26323518  0.87621775  1
  O2-  O154  1  0.26855918  0.75973667  0.38342946  1
  O2-  O155  1  0.26042987  0.77743632  0.86541063  1
  O2-  O156  1  0.77276065  0.26260162  0.38145314  1
  O2-  O157  1  0.77132365  0.26565721  0.86603620  1
  O2-  O158  1  0.76372799  0.77775053  0.36935299  1
  O2-  O159  1  0.76059885  0.77216967  0.86515566  1
  O2-  O160  1  0.01506210  0.26902668  0.11366961  1
  O2-  O161  1  0.00845614  0.26754539  0.62604483  1
  O2-  O162  1  -0.00243814  0.77433089  0.11325677  1
  O2-  O163  1  0.01725070  0.77825841  0.63283670  1
  O2-  O164  1  0.51222367  0.28151882  0.11124098  1
  O2-  O165  1  0.51746619  0.27386335  0.61842011  1
  O2-  O166  1  0.50130201  0.76439029  0.11295323  1
  O2-  O167  1  0.49972375  0.77064143  0.63391228  1
  O2-  O168  1  0.23356649  -0.03077815  0.38346266  1
  O2-  O169  1  0.23262846  -0.02296788  0.88693278  1
  O2-  O170  1  0.26985609  0.48814189  0.36788107  1
  O2-  O171  1  0.27050321  0.47913107  0.88569353  1
  O2-  O172  1  0.74754074  -0.01127384  0.37217317  1
  O2-  O173  1  0.74230819  -0.02381949  0.88431846  1
  O2-  O174  1  0.76742699  0.48589119  0.38234448  1
  O2-  O175  1  0.76833262  0.47695951  0.88825060  1
  O2-  O176  1  -0.01483523  0.22176423  0.38629556  1
  O2-  O177  1  -0.01293982  0.23195270  0.86654239  1
  O2-  O178  1  -0.01197566  0.73260891  0.39188125  1
  O2-  O179  1  0.00717865  0.74304693  0.86651010  1
  O2-  O180  1  0.48746763  0.22426516  0.38508629  1
  O2-  O181  1  0.47251414  0.23131747  0.88603614  1
  O2-  O182  1  0.49024936  0.71415208  0.38616648  1
  O2-  O183  1  0.49236485  0.72238429  0.87216147  1
  O2-  O184  1  0.25209223  0.03264204  0.11600924  1
  O2-  O185  1  0.26066320  0.02225412  0.61212435  1
  O2-  O186  1  0.23951443  0.50589640  0.12604738  1
  O2-  O187  1  0.22732711  0.51097343  0.61525859  1
  O2-  O188  1  0.76825798  0.01730553  0.12887973  1
  O2-  O189  1  0.76263697  0.03448359  0.61123541  1
  O2-  O190  1  0.71674959  0.52038205  0.11633376  1
  O2-  O191  1  0.72633217  0.51078479  0.61704166  1
  O2-  O192  1  0.13392783  0.27576024  0.26183595  1
  O2-  O193  1  0.11741226  0.27276076  0.76255593  1
  O2-  O194  1  0.13466199  0.76024871  0.28567698  1
  O2-  O195  1  0.12781503  0.77843819  0.75424968  1
  O2-  O196  1  0.63603752  0.26052148  0.28418381  1
  O2-  O197  1  0.63766149  0.28403404  0.75802579  1
  O2-  O198  1  0.63224023  0.78128225  0.25601140  1
  O2-  O199  1  0.62343229  0.77148340  0.76015871  1
  O2-  O200  1  0.36134581  0.23005532  0.21808125  1
  O2-  O201  1  0.36531603  0.22308982  0.72885190  1
  O2-  O202  1  0.36262064  0.72192196  0.24095726  1
  O2-  O203  1  0.37569417  0.73316472  0.74511405  1
  O2-  O204  1  0.86220164  0.22159119  0.23522631  1
  O2-  O205  1  0.88063337  0.23364776  0.73523775  1
  O2-  O206  1  0.86597176  0.72268658  0.24868061  1
  O2-  O207  1  0.88535081  0.73487848  0.73920709  1
  O2-  O208  1  0.26584062  0.37783957  0.23280362  1
  O2-  O209  1  0.26352853  0.36332947  0.73433936  1
  O2-  O210  1  0.27094245  0.86243252  0.23664045  1
  O2-  O211  1  0.27040397  0.86794498  0.72299513  1
  O2-  O212  1  0.77125947  0.36491241  0.23519762  1
  O2-  O213  1  0.78040127  0.36868781  0.73052841  1
  O2-  O214  1  0.77236837  0.88222004  0.23922664  1
  O2-  O215  1  0.77654834  0.86614965  0.72803898  1
  O2-  O216  1  0.22527995  0.13560501  0.27079155  1
  O2-  O217  1  0.22474561  0.13345362  0.77555778  1
  O2-  O218  1  0.23119142  0.61912851  0.26396584  1
  O2-  O219  1  0.23001993  0.63845718  0.76738618  1
  O2-  O220  1  0.73170373  0.12017106  0.26494258  1
  O2-  O221  1  0.72947619  0.13750192  0.76385712  1
  O2-  O222  1  0.71975460  0.63509121  0.28100137  1
  O2-  O223  1  0.74398049  0.63662975  0.76735914  1
  O2-  O224  1  0.13033648  0.48545746  0.26101076  1
  O2-  O225  1  0.11764806  0.48792104  0.77946925  1
  O2-  O226  1  0.11206648  0.96865335  0.23362621  1
  O2-  O227  1  0.11094317  0.98966730  0.72043910  1
  O2-  O228  1  0.61332024  0.46551866  0.26110094  1
  O2-  O229  1  0.61119334  0.49472687  0.78371573  1
  O2-  O230  1  0.63457386  0.98054718  0.23277213  1
  O2-  O231  1  0.61945715  0.96763274  0.73406939  1
  O2-  O232  1  0.38200084  0.02206383  0.26994126  1
  O2-  O233  1  0.38760722  0.01437037  0.77470363  1
  O2-  O234  1  0.36976763  0.52008436  0.23584029  1
  O2-  O235  1  0.38612007  0.53712467  0.74153634  1
  O2-  O236  1  0.87577268  0.02151696  0.25927381  1
  O2-  O237  1  0.88730256  0.03226669  0.75802883  1
  O2-  O238  1  0.88094860  0.51934070  0.22496600  1
  O2-  O239  1  0.88730241  0.52098627  0.72788313  1
  O2-  O240  1  0.46394002  0.38336930  0.25645067  1
  O2-  O241  1  0.46632905  0.38493867  0.76371582  1
  O2-  O242  1  0.48011165  0.88019329  0.27260533  1
  O2-  O243  1  0.48688765  0.86635904  0.77760834  1
  O2-  O244  1  0.98214092  0.38553536  0.27547469  1
  O2-  O245  1  0.98152485  0.37586160  0.75822109  1
  O2-  O246  1  0.96936186  0.88456732  0.26286696  1
  O2-  O247  1  0.98035065  0.88214049  0.76522183  1
  O2-  O248  1  0.01754821  0.11239126  0.22738863  1
  O2-  O249  1  0.02026749  0.13028617  0.73144047  1
  O2-  O250  1  0.02133399  0.61822568  0.22202635  1
  O2-  O251  1  0.02597243  0.63369662  0.73665451  1
  O2-  O252  1  0.51849454  0.11411691  0.22371366  1
  O2-  O253  1  0.52462699  0.11521436  0.72683168  1
  O2-  O254  1  0.51941526  0.61032584  0.22058459  1
  O2-  O255  1  0.52238113  0.63332776  0.73751674  1
  O2-  O256  1  0.13650497  0.47110160  -0.00618281  1
  O2-  O257  1  0.13763889  0.48880507  0.46826186  1
  O2-  O258  1  0.12060814  0.98351925  0.01304085  1
  O2-  O259  1  0.11751099  0.98829768  0.51389339  1
  O2-  O260  1  0.61605074  0.47928167  -0.01334953  1
  O2-  O261  1  0.63025990  0.48631691  0.48162761  1
  O2-  O262  1  0.63756555  0.97289293  0.02268580  1
  O2-  O263  1  0.64061621  0.97382079  0.50802390  1
  O2-  O264  1  0.36552998  0.02333213  -0.01619820  1
  O2-  O265  1  0.36671189  0.01940192  0.47850037  1
  O2-  O266  1  0.37207282  0.50503977  0.01968800  1
  O2-  O267  1  0.36050081  0.53770256  0.50196999  1
  O2-  O268  1  0.88268672  0.02262939  -0.01663727  1
  O2-  O269  1  0.88315717  0.02456820  0.47732433  1
  O2-  O270  1  0.86873815  0.52140186  0.02985335  1
  O2-  O271  1  0.86657764  0.51348854  0.52178566  1
  O2-  O272  1  0.48077579  0.37516938  -0.01801224  1
  O2-  O273  1  0.48364722  0.36410007  0.48305925  1
  O2-  O274  1  0.47109348  0.86318611  -0.02720149  1
  O2-  O275  1  0.46741147  0.86307302  0.48505963  1
  O2-  O276  1  0.97515274  0.36287047  -0.02157937  1
  O2-  O277  1  0.97705081  0.36576349  0.48303836  1
  O2-  O278  1  0.98381359  0.88346013  -0.02488073  1
  O2-  O279  1  0.98700720  0.88245013  0.48528238  1
  O2-  O280  1  0.02179426  0.11955449  0.00878403  1
  O2-  O281  1  0.01550897  0.12384028  0.52046820  1
  O2-  O282  1  0.03358176  0.63646939  0.01107571  1
  O2-  O283  1  0.02624816  0.63720994  0.52586084  1
  O2-  O284  1  0.51713993  0.13396205  0.02533340  1
  O2-  O285  1  0.52664990  0.13021128  0.52353992  1
  O2-  O286  1  0.51497365  0.61569205  0.01275098  1
  O2-  O287  1  0.51236105  0.63691034  0.53268671  1
  O2-  O288  1  0.12138044  0.25793892  -0.02198619  1
  O2-  O289  1  0.11424006  0.26819609  0.48484133  1
  O2-  O290  1  0.11721911  0.78544108  -0.01039587  1
  O2-  O291  1  0.12570422  0.77540478  0.49747706  1
  O2-  O292  1  0.61767578  0.26199263  -0.03033577  1
  O2-  O293  1  0.63343789  0.26276015  0.48957131  1
  O2-  O294  1  0.61260653  0.76107856  -0.01188383  1
  O2-  O295  1  0.61180509  0.77758124  0.49242381  1
  O2-  O296  1  0.36657185  0.22949393  0.01678407  1
  O2-  O297  1  0.38350601  0.22409367  0.52525363  1
  O2-  O298  1  0.38089095  0.71496115  0.00359516  1
  O2-  O299  1  0.36830892  0.73586795  0.51561766  1
  O2-  O300  1  0.88792607  0.21860999  0.01034540  1
  O2-  O301  1  0.87442914  0.23484904  0.51865939  1
  O2-  O302  1  0.88890591  0.72759985  -0.01202931  1
  O2-  O303  1  0.88828214  0.74052444  0.53059606  1
  O2-  O304  1  0.26312205  0.36574759  0.01286208  1
  O2-  O305  1  0.27916387  0.38519648  0.51537467  1
  O2-  O306  1  0.27060411  0.88577259  0.03257011  1
  O2-  O307  1  0.25978203  0.87400873  0.51755261  1
  O2-  O308  1  0.75988029  0.38405442  0.02879494  1
  O2-  O309  1  0.76320759  0.37085140  0.51227089  1
  O2-  O310  1  0.78795935  0.88440649  0.01833113  1
  O2-  O311  1  0.78887378  0.89253263  0.51499280  1
  O2-  O312  1  0.23081735  0.12862067  -0.01928965  1
  O2-  O313  1  0.22644397  0.11631113  0.47153924  1
  O2-  O314  1  0.22973540  0.61197661  -0.01748683  1
  O2-  O315  1  0.22383943  0.63365138  0.48641906  1
  O2-  O316  1  0.73499040  0.11260867  -0.01412219  1
  O2-  O317  1  0.73944020  0.12853624  0.47812267  1
  O2-  O318  1  0.72968007  0.61535453  -0.02508769  1
  O2-  O319  1  0.73699347  0.62168525  0.48169747  1
