# generated using pymatgen
data_Sr64Ca21Nb43O192
_symmetry_space_group_name_H-M   'P 1'
_cell_length_a   16.60239317
_cell_length_b   16.59697288
_cell_length_c   16.76167782
_cell_angle_alpha   89.98362579
_cell_angle_beta   89.96159198
_cell_angle_gamma   89.99272339
_symmetry_Int_Tables_number   1
_chemical_formula_structural   Sr64Ca21Nb43O192
_chemical_formula_sum   'Sr64 Ca21 Nb43 O192'
_cell_volume   4618.67016516
_cell_formula_units_Z   1
loop_
 _symmetry_equiv_pos_site_id
 _symmetry_equiv_pos_as_xyz
  1  'x, y, z'
loop_
 _atom_type_symbol
 _atom_type_oxidation_number
  Sr2+  2.0
  Ca2+  2.0
  Nb5+  5.0
  O2-  -2.0
loop_
 _atom_site_type_symbol
 _atom_site_label
 _atom_site_symmetry_multiplicity
 _atom_site_fract_x
 _atom_site_fract_y
 _atom_site_fract_z
 _atom_site_occupancy
  Sr2+  Sr0  1  0.11828208  0.10960847  0.12642309  1
  Sr2+  Sr1  1  0.11697550  0.11089857  0.62306291  1
  Sr2+  Sr2  1  0.11991818  0.60690009  0.12521267  1
  Sr2+  Sr3  1  0.11790064  0.62200165  0.62005466  1
  Sr2+  Sr4  1  0.63193887  0.10499662  0.11902027  1
  Sr2+  Sr5  1  0.63172050  0.11772714  0.62581274  1
  Sr2+  Sr6  1  0.63058341  0.62042561  0.12664082  1
  Sr2+  Sr7  1  0.63119263  0.62302778  0.62074787  1
  Sr2+  Sr8  1  0.37252427  0.37272597  0.10038619  1
  Sr2+  Sr9  1  0.37570931  0.36992638  0.63099206  1
  Sr2+  Sr10  1  0.37359990  0.86808339  0.10319137  1
  Sr2+  Sr11  1  0.37349228  0.86885921  0.62684931  1
  Sr2+  Sr12  1  0.87762967  0.37846957  0.12522204  1
  Sr2+  Sr13  1  0.86793366  0.36964876  0.62276790  1
  Sr2+  Sr14  1  0.87362687  0.90456549  0.12032110  1
  Sr2+  Sr15  1  0.87908982  0.89012374  0.62554962  1
  Sr2+  Sr16  1  0.12878739  0.37290449  0.37588560  1
  Sr2+  Sr17  1  0.13326643  0.39186888  0.88099838  1
  Sr2+  Sr18  1  0.13923519  0.87629039  0.37433786  1
  Sr2+  Sr19  1  0.13714303  0.87870774  0.86898871  1
  Sr2+  Sr20  1  0.61405240  0.38229065  0.37795213  1
  Sr2+  Sr21  1  0.61238215  0.37819442  0.86751013  1
  Sr2+  Sr22  1  0.61191285  0.88142540  0.36695485  1
  Sr2+  Sr23  1  0.61296942  0.87862005  0.88256415  1
  Sr2+  Sr24  1  0.37080879  0.12273086  0.37683133  1
  Sr2+  Sr25  1  0.37859341  0.12885472  0.87454540  1
  Sr2+  Sr26  1  0.37130274  0.62767879  0.37050748  1
  Sr2+  Sr27  1  0.37510028  0.63091986  0.88260205  1
  Sr2+  Sr28  1  0.87756870  0.13363692  0.37104170  1
  Sr2+  Sr29  1  0.86409170  0.12529729  0.87936015  1
  Sr2+  Sr30  1  0.87248097  0.63300220  0.36563837  1
  Sr2+  Sr31  1  0.88250347  0.63422151  0.87367455  1
  Sr2+  Sr32  1  0.12746671  0.13074675  0.37016534  1
  Sr2+  Sr33  1  0.13575530  0.13614512  0.88326408  1
  Sr2+  Sr34  1  0.13684126  0.64069461  0.36916737  1
  Sr2+  Sr35  1  0.12489154  0.63931994  0.87085448  1
  Sr2+  Sr36  1  0.62169331  0.12501624  0.37181172  1
  Sr2+  Sr37  1  0.62032897  0.13638467  0.87921271  1
  Sr2+  Sr38  1  0.61488110  0.63828386  0.37007540  1
  Sr2+  Sr39  1  0.62743965  0.64347848  0.88014013  1
  Sr2+  Sr40  1  0.37586524  0.38434972  0.37670305  1
  Sr2+  Sr41  1  0.37585164  0.35607757  0.87012986  1
  Sr2+  Sr42  1  0.37707483  0.88452591  0.37339033  1
  Sr2+  Sr43  1  0.36937329  0.89150781  0.87410392  1
  Sr2+  Sr44  1  0.87739475  0.37670174  0.36376935  1
  Sr2+  Sr45  1  0.87258961  0.38867516  0.86761518  1
  Sr2+  Sr46  1  0.87928203  0.88257666  0.36433425  1
  Sr2+  Sr47  1  0.87658041  0.88540701  0.87483351  1
  Sr2+  Sr48  1  0.11454009  0.37029773  0.11765536  1
  Sr2+  Sr49  1  0.11144899  0.36490036  0.62325712  1
  Sr2+  Sr50  1  0.11225806  0.87330369  0.12885914  1
  Sr2+  Sr51  1  0.11254442  0.86402993  0.62696275  1
  Sr2+  Sr52  1  0.63621828  0.37524306  0.12777330  1
  Sr2+  Sr53  1  0.62701100  0.37117772  0.62512953  1
  Sr2+  Sr54  1  0.63921179  0.86584881  0.11868130  1
  Sr2+  Sr55  1  0.62770187  0.87117921  0.62211690  1
  Sr2+  Sr56  1  0.37493774  0.11354878  0.10708561  1
  Sr2+  Sr57  1  0.37171056  0.11542667  0.63005326  1
  Sr2+  Sr58  1  0.36561016  0.62271826  0.12207938  1
  Sr2+  Sr59  1  0.38033301  0.61961305  0.62125379  1
  Sr2+  Sr60  1  0.87446282  0.12657435  0.13622458  1
  Sr2+  Sr61  1  0.87327271  0.12463280  0.61962227  1
  Sr2+  Sr62  1  0.86651731  0.61875820  0.11713610  1
  Sr2+  Sr63  1  0.87266029  0.62552970  0.62992489  1
  Ca2+  Ca64  1  0.00164698  -0.00301519  0.49795729  1
  Ca2+  Ca65  1  0.00087925  0.50260594  0.49702781  1
  Ca2+  Ca66  1  0.49984172  -0.00129961  -0.00429802  1
  Ca2+  Ca67  1  0.00227365  0.00134768  -0.00457412  1
  Ca2+  Ca68  1  0.50291016  0.50169634  -0.00260817  1
  Ca2+  Ca69  1  0.75606022  0.74893694  0.00044828  1
  Ca2+  Ca70  1  0.75182487  0.25162500  0.00151352  1
  Ca2+  Ca71  1  0.24537659  0.74984483  -0.00163057  1
  Ca2+  Ca72  1  0.75175728  0.74845687  0.49768457  1
  Ca2+  Ca73  1  0.24605214  0.25177859  0.00022901  1
  Ca2+  Ca74  1  0.24850027  0.49646514  0.24948760  1
  Ca2+  Ca75  1  -0.00114397  0.74655111  0.24665073  1
  Ca2+  Ca76  1  0.25172119  0.50345993  0.74940853  1
  Ca2+  Ca77  1  0.50100686  0.74734499  0.75106671  1
  Ca2+  Ca78  1  0.74671659  0.00118897  0.75043595  1
  Ca2+  Ca79  1  0.50124242  0.24662683  0.25035738  1
  Ca2+  Ca80  1  0.49963205  0.75076042  0.24621271  1
  Ca2+  Ca81  1  0.25409089  0.00189476  0.24835431  1
  Ca2+  Ca82  1  0.74782755  0.00102279  0.25338619  1
  Ca2+  Ca83  1  -0.00419588  0.25118721  0.75148305  1
  Ca2+  Ca84  1  0.24666517  0.00343950  0.74783200  1
  Nb5+  Nb85  1  0.50144323  0.50629267  0.50091131  1
  Nb5+  Nb86  1  0.50035689  0.00728651  0.50358628  1
  Nb5+  Nb87  1  -0.00211827  0.49999666  -0.00245827  1
  Nb5+  Nb88  1  0.25032763  0.74587708  0.50416953  1
  Nb5+  Nb89  1  0.24603171  0.24624910  0.50345341  1
  Nb5+  Nb90  1  0.74206284  0.25054709  0.49747214  1
  Nb5+  Nb91  1  -0.00406079  0.75248283  0.75023305  1
  Nb5+  Nb92  1  0.74867208  0.49901338  0.25038787  1
  Nb5+  Nb93  1  0.74665980  0.50226899  0.74275678  1
  Nb5+  Nb94  1  0.50114885  0.24738723  0.74424257  1
  Nb5+  Nb95  1  0.00353018  0.24992743  0.24812256  1
  Nb5+  Nb96  1  0.00056778  -0.00451886  0.25175849  1
  Nb5+  Nb97  1  0.00184628  0.00779936  0.75523585  1
  Nb5+  Nb98  1  0.00196125  0.49726619  0.25279290  1
  Nb5+  Nb99  1  -0.00012394  0.50029084  0.74601333  1
  Nb5+  Nb100  1  0.49851948  -0.00349203  0.24020479  1
  Nb5+  Nb101  1  0.50011177  -0.00296152  0.74890651  1
  Nb5+  Nb102  1  0.49754659  0.49557292  0.24749676  1
  Nb5+  Nb103  1  0.50107947  0.50417479  0.75156990  1
  Nb5+  Nb104  1  0.25346576  0.25229249  0.24444034  1
  Nb5+  Nb105  1  0.24283246  0.25570859  0.74775096  1
  Nb5+  Nb106  1  0.24845517  0.75508900  0.24199936  1
  Nb5+  Nb107  1  0.25402746  0.74652666  0.74721439  1
  Nb5+  Nb108  1  0.74630070  0.25045603  0.25324323  1
  Nb5+  Nb109  1  0.75051173  0.25120314  0.75173034  1
  Nb5+  Nb110  1  0.75694235  0.75417581  0.25029223  1
  Nb5+  Nb111  1  0.75159040  0.75600482  0.74975464  1
  Nb5+  Nb112  1  -0.00651600  0.24951652  0.50088716  1
  Nb5+  Nb113  1  -0.00649744  0.25107238  0.99165546  1
  Nb5+  Nb114  1  -0.00468633  0.74583587  0.49604392  1
  Nb5+  Nb115  1  0.00173684  0.75135631  1.00388519  1
  Nb5+  Nb116  1  0.49268484  0.25147417  0.50117657  1
  Nb5+  Nb117  1  0.50586454  0.25448230  1.00684058  1
  Nb5+  Nb118  1  0.50014824  0.76012826  0.49899459  1
  Nb5+  Nb119  1  0.50167392  0.74817735  1.00174570  1
  Nb5+  Nb120  1  0.24632207  0.00043008  0.00064745  1
  Nb5+  Nb121  1  0.25096819  -0.00713834  0.50387022  1
  Nb5+  Nb122  1  0.25316791  0.50390087  -0.00139851  1
  Nb5+  Nb123  1  0.25035759  0.49345917  0.50406478  1
  Nb5+  Nb124  1  0.74868944  -0.00124664  -0.00475810  1
  Nb5+  Nb125  1  0.75109605  -0.00382255  0.49915498  1
  Nb5+  Nb126  1  0.74557742  0.49432379  -0.01117885  1
  Nb5+  Nb127  1  0.74807791  0.49868060  0.49202204  1
  O2-  O128  1  -0.01802576  0.02398038  0.13450372  1
  O2-  O129  1  -0.02449733  0.01527559  0.63516958  1
  O2-  O130  1  -0.02033253  0.51158145  0.12445380  1
  O2-  O131  1  -0.01398553  0.52305366  0.63478124  1
  O2-  O132  1  0.47043423  -0.01217567  0.13083754  1
  O2-  O133  1  0.47453081  -0.01106941  0.62199311  1
  O2-  O134  1  0.48915408  0.47337721  0.13619185  1
  O2-  O135  1  0.48370366  0.48315450  0.61821351  1
  O2-  O136  1  0.02384566  -0.02231648  0.36645496  1
  O2-  O137  1  0.01381785  -0.03556165  0.86325542  1
  O2-  O138  1  0.00821243  0.46891819  0.36457119  1
  O2-  O139  1  0.00377556  0.48083305  0.87936028  1
  O2-  O140  1  0.52135166  0.01302337  0.38931556  1
  O2-  O141  1  0.52548274  0.01822678  0.85992704  1
  O2-  O142  1  0.52279300  0.51158989  0.38407746  1
  O2-  O143  1  0.53308560  0.51531945  0.86104617  1
  O2-  O144  1  0.23736001  0.28092220  0.13573833  1
  O2-  O145  1  0.24043255  0.28042104  0.61983622  1
  O2-  O146  1  0.23552684  0.78463602  0.13318512  1
  O2-  O147  1  0.23745623  0.77707830  0.62194948  1
  O2-  O148  1  0.72564651  0.23824330  0.14077244  1
  O2-  O149  1  0.73134091  0.24448058  0.61734288  1
  O2-  O150  1  0.73208841  0.72926886  0.13682214  1
  O2-  O151  1  0.74055896  0.72639661  0.63493895  1
  O2-  O152  1  0.26491653  0.23228915  0.38914920  1
  O2-  O153  1  0.26557425  0.23125079  0.85974118  1
  O2-  O154  1  0.26428116  0.73258725  0.38839445  1
  O2-  O155  1  0.25959778  0.72498604  0.86115570  1
  O2-  O156  1  0.77369716  0.26777801  0.38498475  1
  O2-  O157  1  0.77232501  0.26615273  0.86250097  1
  O2-  O158  1  0.78380011  0.75778659  0.36760162  1
  O2-  O159  1  0.77278054  0.74352377  0.86366832  1
  O2-  O160  1  0.02389591  0.23809584  0.13477716  1
  O2-  O161  1  0.02041782  0.23250422  0.61565768  1
  O2-  O162  1  0.03206185  0.73097118  0.11305099  1
  O2-  O163  1  0.01084406  0.72662622  0.63158661  1
  O2-  O164  1  0.52005009  0.27854860  0.11690063  1
  O2-  O165  1  0.51734915  0.26534461  0.62078447  1
  O2-  O166  1  0.51422886  0.78217803  0.11540815  1
  O2-  O167  1  0.51685939  0.76356555  0.61490149  1
  O2-  O168  1  0.23787375  0.02371197  0.39098440  1
  O2-  O169  1  0.22163125  0.01544648  0.88155656  1
  O2-  O170  1  0.23838743  0.52397128  0.39093558  1
  O2-  O171  1  0.22121135  0.52234687  0.88527756  1
  O2-  O172  1  0.71508714  -0.00994734  0.38897212  1
  O2-  O173  1  0.72832314  -0.02387744  0.88102919  1
  O2-  O174  1  0.73936784  0.47377564  0.37865956  1
  O2-  O175  1  0.73802281  0.48101272  0.87357895  1
  O2-  O176  1  -0.01202063  0.26825510  0.37983104  1
  O2-  O177  1  -0.04141598  0.26273906  0.88449826  1
  O2-  O178  1  -0.01846243  0.76710090  0.38466572  1
  O2-  O179  1  -0.02238678  0.75838401  0.86811796  1
  O2-  O180  1  0.48737099  0.22416798  0.39007143  1
  O2-  O181  1  0.49003634  0.23643126  0.86058730  1
  O2-  O182  1  0.48022295  0.72938342  0.38756301  1
  O2-  O183  1  0.49339989  0.71647056  0.88200318  1
  O2-  O184  1  0.28137610  -0.00692919  0.11546388  1
  O2-  O185  1  0.28288486  -0.00783092  0.61558274  1
  O2-  O186  1  0.26288041  0.47491044  0.11527380  1
  O2-  O187  1  0.28918718  0.49648564  0.61376988  1
  O2-  O188  1  0.76746787  0.02253181  0.11786445  1
  O2-  O189  1  0.76153648  0.02863998  0.61356081  1
  O2-  O190  1  0.75706685  0.50946413  0.13485865  1
  O2-  O191  1  0.75893154  0.51120700  0.62557920  1
  O2-  O192  1  0.11799610  0.26829847  0.27289257  1
  O2-  O193  1  0.13199079  0.28233205  0.76426669  1
  O2-  O194  1  0.13258114  0.76494011  0.27689153  1
  O2-  O195  1  0.11570828  0.76374821  0.76096427  1
  O2-  O196  1  0.63715058  0.26716011  0.28331571  1
  O2-  O197  1  0.62503623  0.27328010  0.75517891  1
  O2-  O198  1  0.63991736  0.75976768  0.27572967  1
  O2-  O199  1  0.63723644  0.77420431  0.76608741  1
  O2-  O200  1  0.36510428  0.22674840  0.23451532  1
  O2-  O201  1  0.38407954  0.23848625  0.72785423  1
  O2-  O202  1  0.36410767  0.72671275  0.23699349  1
  O2-  O203  1  0.36583495  0.73081038  0.72481802  1
  O2-  O204  1  0.87872172  0.23839432  0.24606522  1
  O2-  O205  1  0.86135647  0.23626158  0.71871628  1
  O2-  O206  1  0.86723300  0.70805507  0.23559814  1
  O2-  O207  1  0.87733346  0.72276697  0.73787020  1
  O2-  O208  1  0.25710259  0.36239339  0.28824413  1
  O2-  O209  1  0.28096016  0.36830233  0.75559378  1
  O2-  O210  1  0.26408069  0.86686547  0.28111997  1
  O2-  O211  1  0.26002516  0.86525047  0.76581952  1
  O2-  O212  1  0.77042911  0.37218911  0.24249905  1
  O2-  O213  1  0.76341590  0.37807218  0.73570531  1
  O2-  O214  1  0.78066061  0.86553161  0.23566599  1
  O2-  O215  1  0.77859395  0.86606220  0.73430497  1
  O2-  O216  1  0.21808062  0.14056031  0.24576905  1
  O2-  O217  1  0.23236739  0.14209689  0.71826194  1
  O2-  O218  1  0.22701091  0.63448965  0.23468426  1
  O2-  O219  1  0.22104381  0.63546406  0.72335533  1
  O2-  O220  1  0.74695688  0.13697354  0.27841908  1
  O2-  O221  1  0.72562390  0.13831898  0.76304679  1
  O2-  O222  1  0.73348119  0.61089258  0.27474181  1
  O2-  O223  1  0.72308900  0.61563624  0.75971192  1
  O2-  O224  1  0.11280177  0.47696362  0.22759124  1
  O2-  O225  1  0.11220340  0.47612279  0.73801781  1
  O2-  O226  1  0.11763662  0.98963540  0.22802758  1
  O2-  O227  1  0.11327893  0.97953858  0.72244200  1
  O2-  O228  1  0.63206410  0.47338573  0.24393044  1
  O2-  O229  1  0.62872487  0.47693665  0.73130680  1
  O2-  O230  1  0.61739296  0.97088200  0.22955960  1
  O2-  O231  1  0.61324835  0.98632495  0.71597736  1
  O2-  O232  1  0.38803210  0.01916715  0.27779001  1
  O2-  O233  1  0.38550130  0.03103282  0.76151367  1
  O2-  O234  1  0.38538703  0.51537326  0.26861827  1
  O2-  O235  1  0.38865955  0.52158575  0.77085236  1
  O2-  O236  1  0.88405422  0.01608506  0.27629003  1
  O2-  O237  1  0.88230059  0.01777323  0.77286989  1
  O2-  O238  1  0.87141663  0.50552401  0.26540389  1
  O2-  O239  1  0.86461557  0.51818320  0.76345725  1
  O2-  O240  1  0.49398350  0.38220189  0.28375752  1
  O2-  O241  1  0.48874551  0.37625088  0.75472425  1
  O2-  O242  1  0.48842003  0.88373043  0.27924434  1
  O2-  O243  1  0.47782944  0.88481302  0.76238091  1
  O2-  O244  1  0.98139856  0.36995514  0.23490723  1
  O2-  O245  1  0.96627539  0.38733675  0.73974874  1
  O2-  O246  1  0.97986336  0.88243190  0.22969564  1
  O2-  O247  1  0.97880716  0.86525528  0.73157309  1
  O2-  O248  1  0.01124353  0.13163207  0.26992511  1
  O2-  O249  1  0.02686494  0.11819173  0.77489005  1
  O2-  O250  1  0.01588499  0.60991849  0.27078962  1
  O2-  O251  1  0.00888802  0.61860631  0.77325237  1
  O2-  O252  1  0.53300504  0.11214859  0.23973529  1
  O2-  O253  1  0.52145632  0.13291439  0.72888590  1
  O2-  O254  1  0.52869844  0.60980221  0.24222815  1
  O2-  O255  1  0.52060017  0.61256420  0.71826449  1
  O2-  O256  1  0.11597930  0.48159599  0.01642562  1
  O2-  O257  1  0.13872668  0.48306390  0.52918626  1
  O2-  O258  1  0.13224980  0.97739239  0.02772722  1
  O2-  O259  1  0.13771983  0.98699363  0.52669107  1
  O2-  O260  1  0.63532307  0.47100865  0.01332727  1
  O2-  O261  1  0.62035928  0.47740695  0.51552763  1
  O2-  O262  1  0.63193913  0.98160123  0.02285941  1
  O2-  O263  1  0.61783688  0.99128285  0.52664842  1
  O2-  O264  1  0.36618125  0.02458451  -0.02514429  1
  O2-  O265  1  0.37982716  0.01597408  0.48324900  1
  O2-  O266  1  0.36716422  0.52458493  -0.01149578  1
  O2-  O267  1  0.38403831  0.51056001  0.47762837  1
  O2-  O268  1  0.86821912  0.01160150  -0.02442340  1
  O2-  O269  1  0.86347397  0.00779391  0.47367982  1
  O2-  O270  1  0.87531680  0.51580869  -0.01338850  1
  O2-  O271  1  0.86180160  0.51577383  0.48723050  1
  O2-  O272  1  0.47898243  0.36781802  -0.02536005  1
  O2-  O273  1  0.48793336  0.36876685  0.48614794  1
  O2-  O274  1  0.47924839  0.86563425  -0.02996236  1
  O2-  O275  1  0.48479369  0.87699256  0.48917794  1
  O2-  O276  1  0.98235137  0.37850999  0.01636627  1
  O2-  O277  1  0.99165648  0.36709185  0.52236720  1
  O2-  O278  1  0.98092752  0.86294815  0.02061892  1
  O2-  O279  1  0.99066801  0.85991726  0.52833857  1
  O2-  O280  1  0.01832262  0.13783741  -0.01722089  1
  O2-  O281  1  0.01416181  0.13430823  0.48050115  1
  O2-  O282  1  0.01958905  0.61544532  -0.01466487  1
  O2-  O283  1  0.03812046  0.63529386  0.48491832  1
  O2-  O284  1  0.52057861  0.13595794  0.01347617  1
  O2-  O285  1  0.50947909  0.12557207  0.52347896  1
  O2-  O286  1  0.52230533  0.63207449  0.02798579  1
  O2-  O287  1  0.51194184  0.62128909  0.51760435  1
  O2-  O288  1  0.10998381  0.27831918  -0.01915115  1
  O2-  O289  1  0.13086364  0.26655414  0.48768688  1
  O2-  O290  1  0.11245967  0.76110096  -0.03625390  1
  O2-  O291  1  0.13382064  0.77031891  0.49008336  1
  O2-  O292  1  0.61768746  0.26850465  -0.02990393  1
  O2-  O293  1  0.62532591  0.26103532  0.48343532  1
  O2-  O294  1  0.62056774  0.76694285  -0.01947467  1
  O2-  O295  1  0.61486696  0.76673787  0.47912891  1
  O2-  O296  1  0.38497770  0.23523847  0.00872454  1
  O2-  O297  1  0.37678796  0.24174790  0.52165689  1
  O2-  O298  1  0.38161298  0.72975420  0.01702201  1
  O2-  O299  1  0.37349835  0.74409801  0.52290907  1
  O2-  O300  1  0.88627264  0.23853935  0.03888802  1
  O2-  O301  1  0.87580488  0.23932819  0.51593891  1
  O2-  O302  1  0.88995621  0.71513454  0.00620415  1
  O2-  O303  1  0.88615130  0.71351173  0.51108290  1
  O2-  O304  1  0.26555361  0.38544460  -0.02694241  1
  O2-  O305  1  0.26721962  0.37840534  0.48523306  1
  O2-  O306  1  0.26851701  0.88344052  -0.02000664  1
  O2-  O307  1  0.26797790  0.87890647  0.48478614  1
  O2-  O308  1  0.77592786  0.38472596  0.01828603  1
  O2-  O309  1  0.75568187  0.37509649  0.51759889  1
  O2-  O310  1  0.77049053  0.88138033  0.01796627  1
  O2-  O311  1  0.75759705  0.88411505  0.52608160  1
  O2-  O312  1  0.22379009  0.12039517  0.01678842  1
  O2-  O313  1  0.23989855  0.13249431  0.52547884  1
  O2-  O314  1  0.23132095  0.61688344  0.03052649  1
  O2-  O315  1  0.24213810  0.63104401  0.52379689  1
  O2-  O316  1  0.73375483  0.11865596  -0.02254960  1
  O2-  O317  1  0.73828462  0.13320486  0.48527463  1
  O2-  O318  1  0.73174815  0.60984088  -0.00239450  1
  O2-  O319  1  0.71713105  0.60981257  0.48656598  1
