# generated using pymatgen
data_Sr64Ca21Nb43O192
_symmetry_space_group_name_H-M   'P 1'
_cell_length_a   16.56627481
_cell_length_b   16.58444963
_cell_length_c   16.74337232
_cell_angle_alpha   89.97240332
_cell_angle_beta   90.06292936
_cell_angle_gamma   90.05510060
_symmetry_Int_Tables_number   1
_chemical_formula_structural   Sr64Ca21Nb43O192
_chemical_formula_sum   'Sr64 Ca21 Nb43 O192'
_cell_volume   4600.11137590
_cell_formula_units_Z   1
loop_
 _symmetry_equiv_pos_site_id
 _symmetry_equiv_pos_as_xyz
  1  'x, y, z'
loop_
 _atom_type_symbol
 _atom_type_oxidation_number
  Sr2+  2.0
  Ca2+  2.0
  Nb5+  5.0
  O2-  -2.0
loop_
 _atom_site_type_symbol
 _atom_site_label
 _atom_site_symmetry_multiplicity
 _atom_site_fract_x
 _atom_site_fract_y
 _atom_site_fract_z
 _atom_site_occupancy
  Sr2+  Sr0  1  0.12136289  0.11744480  0.12239223  1
  Sr2+  Sr1  1  0.12522390  0.12383763  0.62929808  1
  Sr2+  Sr2  1  0.12048102  0.61315717  0.12813324  1
  Sr2+  Sr3  1  0.12404734  0.62066590  0.61624840  1
  Sr2+  Sr4  1  0.62632532  0.13292312  0.11785305  1
  Sr2+  Sr5  1  0.62159203  0.11558306  0.62966768  1
  Sr2+  Sr6  1  0.61443797  0.60917870  0.11641685  1
  Sr2+  Sr7  1  0.61444881  0.61255833  0.62827876  1
  Sr2+  Sr8  1  0.36631732  0.37362809  0.13170895  1
  Sr2+  Sr9  1  0.36894932  0.37557972  0.63281235  1
  Sr2+  Sr10  1  0.36321705  0.88519722  0.12048038  1
  Sr2+  Sr11  1  0.37181840  0.87835148  0.62212032  1
  Sr2+  Sr12  1  0.87515148  0.36285682  0.12115881  1
  Sr2+  Sr13  1  0.86099703  0.35981349  0.62703025  1
  Sr2+  Sr14  1  0.86300276  0.88496096  0.11880130  1
  Sr2+  Sr15  1  0.86927027  0.86635011  0.62321667  1
  Sr2+  Sr16  1  0.13677446  0.38488592  0.37599231  1
  Sr2+  Sr17  1  0.13153625  0.38117846  0.87018040  1
  Sr2+  Sr18  1  0.13357913  0.87606408  0.37529401  1
  Sr2+  Sr19  1  0.13110294  0.86776993  0.87763727  1
  Sr2+  Sr20  1  0.62585909  0.37482465  0.36891681  1
  Sr2+  Sr21  1  0.64307351  0.37916790  0.87689273  1
  Sr2+  Sr22  1  0.63575005  0.88207811  0.37405137  1
  Sr2+  Sr23  1  0.62179866  0.87191550  0.87013319  1
  Sr2+  Sr24  1  0.38836943  0.13235015  0.37482840  1
  Sr2+  Sr25  1  0.37191365  0.13459676  0.86817453  1
  Sr2+  Sr26  1  0.38219222  0.63207369  0.36815259  1
  Sr2+  Sr27  1  0.39225051  0.63790948  0.87725936  1
  Sr2+  Sr28  1  0.88742539  0.12559441  0.37900046  1
  Sr2+  Sr29  1  0.88909157  0.12549005  0.87082507  1
  Sr2+  Sr30  1  0.88892976  0.63849818  0.37370683  1
  Sr2+  Sr31  1  0.88180368  0.62159629  0.87847097  1
  Sr2+  Sr32  1  0.12664809  0.14076125  0.38102964  1
  Sr2+  Sr33  1  0.13437553  0.14561002  0.86736461  1
  Sr2+  Sr34  1  0.13467827  0.63202743  0.36777006  1
  Sr2+  Sr35  1  0.12677510  0.63218485  0.87823943  1
  Sr2+  Sr36  1  0.63110108  0.13297058  0.36985981  1
  Sr2+  Sr37  1  0.63392328  0.13742086  0.87633249  1
  Sr2+  Sr38  1  0.63362443  0.64164020  0.37195772  1
  Sr2+  Sr39  1  0.63194227  0.61528281  0.87856816  1
  Sr2+  Sr40  1  0.37977300  0.37700593  0.36877524  1
  Sr2+  Sr41  1  0.37458391  0.38201737  0.87254789  1
  Sr2+  Sr42  1  0.37785207  0.88223878  0.37874827  1
  Sr2+  Sr43  1  0.37341783  0.87829259  0.88691230  1
  Sr2+  Sr44  1  0.88144292  0.37888473  0.37241761  1
  Sr2+  Sr45  1  0.88294240  0.38234850  0.87300654  1
  Sr2+  Sr46  1  0.87393850  0.87414653  0.37128634  1
  Sr2+  Sr47  1  0.87946919  0.85988487  0.86616300  1
  Sr2+  Sr48  1  0.11365716  0.36906299  0.12556396  1
  Sr2+  Sr49  1  0.11988578  0.36542256  0.62703738  1
  Sr2+  Sr50  1  0.12819787  0.87073490  0.11237456  1
  Sr2+  Sr51  1  0.11855247  0.87536376  0.62657656  1
  Sr2+  Sr52  1  0.60627085  0.36395781  0.11922630  1
  Sr2+  Sr53  1  0.61590628  0.37395870  0.63244144  1
  Sr2+  Sr54  1  0.61599979  0.88231390  0.11853142  1
  Sr2+  Sr55  1  0.61931989  0.87126084  0.62676151  1
  Sr2+  Sr56  1  0.38784756  0.12523917  0.12625628  1
  Sr2+  Sr57  1  0.38578566  0.12557238  0.62445033  1
  Sr2+  Sr58  1  0.37212203  0.62242046  0.12290022  1
  Sr2+  Sr59  1  0.37671401  0.62530434  0.61599714  1
  Sr2+  Sr60  1  0.86995908  0.12192816  0.12359204  1
  Sr2+  Sr61  1  0.89407006  0.12023351  0.62648401  1
  Sr2+  Sr62  1  0.88025095  0.62028487  0.12300651  1
  Sr2+  Sr63  1  0.86604032  0.62167913  0.62401000  1
  Ca2+  Ca64  1  -0.00164880  0.50378344  0.49918042  1
  Ca2+  Ca65  1  0.50038625  0.50142516  0.49831080  1
  Ca2+  Ca66  1  0.50126365  0.00129480  -0.00102769  1
  Ca2+  Ca67  1  0.49710350  0.49536807  -0.00212845  1
  Ca2+  Ca68  1  -0.00044061  -0.00300605  -0.00192459  1
  Ca2+  Ca69  1  0.25328294  0.25041806  0.49860688  1
  Ca2+  Ca70  1  0.75336083  0.25055441  -0.00124210  1
  Ca2+  Ca71  1  0.74863345  0.24533023  0.50005308  1
  Ca2+  Ca72  1  0.75038133  0.75070429  -0.00001954  1
  Ca2+  Ca73  1  0.25060745  0.25285930  0.00270993  1
  Ca2+  Ca74  1  0.00002148  0.75534844  0.24765175  1
  Ca2+  Ca75  1  0.49974222  0.75213880  0.24727400  1
  Ca2+  Ca76  1  0.00441268  0.74769786  0.74856330  1
  Ca2+  Ca77  1  0.74757787  0.50194383  0.25120442  1
  Ca2+  Ca78  1  -0.00184408  0.25469581  0.75019220  1
  Ca2+  Ca79  1  0.49605451  0.75026837  0.74825629  1
  Ca2+  Ca80  1  0.00037287  0.24791448  0.24992844  1
  Ca2+  Ca81  1  0.25258579  -0.00350792  0.75080619  1
  Ca2+  Ca82  1  0.24703655  0.00140731  0.25016531  1
  Ca2+  Ca83  1  0.24927970  0.50761779  0.75087667  1
  Ca2+  Ca84  1  0.50429289  0.25076864  0.74907909  1
  Nb5+  Nb85  1  0.00341577  0.49805194  0.00079701  1
  Nb5+  Nb86  1  0.50688418  -0.00058902  0.49792950  1
  Nb5+  Nb87  1  0.00606733  -0.00394436  0.49986026  1
  Nb5+  Nb88  1  0.25201943  0.74561390  -0.00384507  1
  Nb5+  Nb89  1  0.25678970  0.75001405  0.49546146  1
  Nb5+  Nb90  1  0.75356182  0.74918582  0.50151844  1
  Nb5+  Nb91  1  0.75496115  0.49414382  0.74830205  1
  Nb5+  Nb92  1  0.24974158  0.50106295  0.25057426  1
  Nb5+  Nb93  1  0.49829218  0.24942293  0.24999844  1
  Nb5+  Nb94  1  0.74743609  0.00348648  0.24606262  1
  Nb5+  Nb95  1  0.75152330  -0.00734443  0.74467870  1
  Nb5+  Nb96  1  0.00006470  -0.00263566  0.24932383  1
  Nb5+  Nb97  1  0.00328594  -0.00692758  0.75479271  1
  Nb5+  Nb98  1  -0.00314459  0.49902357  0.25381188  1
  Nb5+  Nb99  1  0.00117863  0.50411723  0.74344201  1
  Nb5+  Nb100  1  0.49971602  0.00246857  0.24848814  1
  Nb5+  Nb101  1  0.49845561  -0.00146916  0.75331317  1
  Nb5+  Nb102  1  0.50280098  0.50165305  0.25114532  1
  Nb5+  Nb103  1  0.49660390  0.50173877  0.75429227  1
  Nb5+  Nb104  1  0.24435249  0.24809345  0.25123310  1
  Nb5+  Nb105  1  0.25247962  0.25258392  0.74738005  1
  Nb5+  Nb106  1  0.25348746  0.75310239  0.24355774  1
  Nb5+  Nb107  1  0.25140618  0.74903785  0.74077780  1
  Nb5+  Nb108  1  0.75235335  0.25207299  0.25081215  1
  Nb5+  Nb109  1  0.75040266  0.23759420  0.74749448  1
  Nb5+  Nb110  1  0.74533729  0.75153365  0.24197892  1
  Nb5+  Nb111  1  0.74576359  0.74080058  0.74891166  1
  Nb5+  Nb112  1  -0.00375481  0.25761436  0.50122323  1
  Nb5+  Nb113  1  0.00351286  0.24513877  0.99830203  1
  Nb5+  Nb114  1  0.00865688  0.75170469  0.49876765  1
  Nb5+  Nb115  1  -0.00123718  0.74907707  1.00491059  1
  Nb5+  Nb116  1  0.50110114  0.25305612  0.50057050  1
  Nb5+  Nb117  1  0.49491348  0.25001967  0.99029079  1
  Nb5+  Nb118  1  0.50735468  0.75111459  0.49500300  1
  Nb5+  Nb119  1  0.50519611  0.75135261  1.00204605  1
  Nb5+  Nb120  1  0.24583228  0.00616718  0.00071959  1
  Nb5+  Nb121  1  0.25246845  0.00295007  0.50078264  1
  Nb5+  Nb122  1  0.25131954  0.50231770  -0.00181022  1
  Nb5+  Nb123  1  0.25558871  0.49978013  0.50049542  1
  Nb5+  Nb124  1  0.75087513  0.00032463  -0.01515435  1
  Nb5+  Nb125  1  0.75498466  0.00020823  0.49971691  1
  Nb5+  Nb126  1  0.75433657  0.49688660  0.00865150  1
  Nb5+  Nb127  1  0.74858834  0.49762532  0.49668898  1
  O2-  O128  1  -0.00143892  0.02559538  0.13745556  1
  O2-  O129  1  0.00944984  0.01602743  0.62149183  1
  O2-  O130  1  -0.00768261  0.52100603  0.12488339  1
  O2-  O131  1  -0.00729525  0.53621971  0.63410967  1
  O2-  O132  1  0.51823607  0.02549478  0.13708698  1
  O2-  O133  1  0.50212362  0.02018626  0.61467962  1
  O2-  O134  1  0.47855463  0.51421641  0.13554099  1
  O2-  O135  1  0.48683225  0.52617793  0.63508359  1
  O2-  O136  1  -0.01213005  -0.02400532  0.38429480  1
  O2-  O137  1  -0.02047173  -0.02691586  0.86528382  1
  O2-  O138  1  0.01140946  0.46973182  0.36607784  1
  O2-  O139  1  0.01059963  0.47702420  0.88421548  1
  O2-  O140  1  0.49484930  -0.01764789  0.37799645  1
  O2-  O141  1  0.49723226  -0.03009009  0.86428808  1
  O2-  O142  1  0.50562722  0.46614932  0.36440990  1
  O2-  O143  1  0.52412045  0.47076296  0.86619497  1
  O2-  O144  1  0.24267129  0.27792558  0.13750154  1
  O2-  O145  1  0.23714610  0.27151420  0.62971488  1
  O2-  O146  1  0.24419002  0.76095784  0.12751736  1
  O2-  O147  1  0.24972025  0.76142108  0.62247300  1
  O2-  O148  1  0.72189955  0.26487383  0.13658621  1
  O2-  O149  1  0.72636483  0.27132428  0.63474137  1
  O2-  O150  1  0.73998154  0.78696621  0.13404420  1
  O2-  O151  1  0.74279423  0.77172894  0.62066379  1
  O2-  O152  1  0.27313941  0.23699895  0.36479956  1
  O2-  O153  1  0.26437509  0.23847927  0.86737510  1
  O2-  O154  1  0.25715501  0.74003757  0.37854552  1
  O2-  O155  1  0.25338668  0.73592447  0.87969981  1
  O2-  O156  1  0.76175316  0.21625783  0.36354447  1
  O2-  O157  1  0.77624542  0.22827904  0.86310422  1
  O2-  O158  1  0.76031868  0.73792474  0.38326809  1
  O2-  O159  1  0.75018090  0.72669108  0.86295983  1
  O2-  O160  1  0.03193876  0.23401317  0.11664327  1
  O2-  O161  1  0.02500557  0.23188542  0.61476740  1
  O2-  O162  1  0.01579553  0.72113767  0.11794697  1
  O2-  O163  1  0.00951517  0.72772306  0.61349514  1
  O2-  O164  1  0.51277431  0.23026083  0.13332256  1
  O2-  O165  1  0.52328205  0.22772064  0.61170204  1
  O2-  O166  1  0.50898953  0.71811365  0.11621640  1
  O2-  O167  1  0.50180539  0.73458164  0.61066842  1
  O2-  O168  1  0.24089435  -0.00353010  0.38506327  1
  O2-  O169  1  0.26903741  0.00550347  0.88560688  1
  O2-  O170  1  0.23189160  0.51346384  0.37258709  1
  O2-  O171  1  0.22048888  0.51030762  0.88791882  1
  O2-  O172  1  0.75035840  0.01274203  0.38364883  1
  O2-  O173  1  0.75003231  0.01884067  0.86954101  1
  O2-  O174  1  0.71675136  0.51559002  0.38713309  1
  O2-  O175  1  0.74442254  0.51532062  0.86792372  1
  O2-  O176  1  -0.03045017  0.25830108  0.38448769  1
  O2-  O177  1  -0.02762493  0.26415859  0.88443620  1
  O2-  O178  1  -0.01454181  0.77491161  0.38526390  1
  O2-  O179  1  0.00367310  0.77022050  0.88667202  1
  O2-  O180  1  0.47888937  0.26124808  0.37133451  1
  O2-  O181  1  0.47100018  0.26596257  0.88020171  1
  O2-  O182  1  0.47726357  0.77106189  0.38339026  1
  O2-  O183  1  0.48128663  0.77183785  0.88456875  1
  O2-  O184  1  0.23424437  -0.01967381  0.11869878  1
  O2-  O185  1  0.24287352  -0.02549815  0.61440429  1
  O2-  O186  1  0.26434488  0.49739509  0.13029558  1
  O2-  O187  1  0.27609436  0.50193751  0.61542296  1
  O2-  O188  1  0.74246031  -0.01571410  0.13271260  1
  O2-  O189  1  0.74791838  -0.02424020  0.62676502  1
  O2-  O190  1  0.78070852  0.48439372  0.11874294  1
  O2-  O191  1  0.77578408  0.49090250  0.62883651  1
  O2-  O192  1  0.13368747  0.27489667  0.27471036  1
  O2-  O193  1  0.13198782  0.27454928  0.76508012  1
  O2-  O194  1  0.13732313  0.76589526  0.26584187  1
  O2-  O195  1  0.13756162  0.78816298  0.75147032  1
  O2-  O196  1  0.61775890  0.26147458  0.26890816  1
  O2-  O197  1  0.63797465  0.26603029  0.77851688  1
  O2-  O198  1  0.63362872  0.77043985  0.27783937  1
  O2-  O199  1  0.63361817  0.77683873  0.74870957  1
  O2-  O200  1  0.37657088  0.23308889  0.23609554  1
  O2-  O201  1  0.36969408  0.22612660  0.73176083  1
  O2-  O202  1  0.36555227  0.71657438  0.24372963  1
  O2-  O203  1  0.36280128  0.70554921  0.74341492  1
  O2-  O204  1  0.86355986  0.23711826  0.22407783  1
  O2-  O205  1  0.86564919  0.23496528  0.72004252  1
  O2-  O206  1  0.86130941  0.72964863  0.24818719  1
  O2-  O207  1  0.86372771  0.74457996  0.73847586  1
  O2-  O208  1  0.26746860  0.38234986  0.26692285  1
  O2-  O209  1  0.27765839  0.37144623  0.76025508  1
  O2-  O210  1  0.28113169  0.86418627  0.25983536  1
  O2-  O211  1  0.29238940  0.85985577  0.76168526  1
  O2-  O212  1  0.76018519  0.36480358  0.27984189  1
  O2-  O213  1  0.77049058  0.38002893  0.76311338  1
  O2-  O214  1  0.76100648  0.88403401  0.27027714  1
  O2-  O215  1  0.76534103  0.87957142  0.76833981  1
  O2-  O216  1  0.21924668  0.13557354  0.23603684  1
  O2-  O217  1  0.22444316  0.13265300  0.74005371  1
  O2-  O218  1  0.23023038  0.62209627  0.24305649  1
  O2-  O219  1  0.20594490  0.63786339  0.74168498  1
  O2-  O220  1  0.72549347  0.12162776  0.23382116  1
  O2-  O221  1  0.73103423  0.12181046  0.73363563  1
  O2-  O222  1  0.72003411  0.63857664  0.22683374  1
  O2-  O223  1  0.73315671  0.62789627  0.72475678  1
  O2-  O224  1  0.12949975  0.48154481  0.23733448  1
  O2-  O225  1  0.11336961  0.47423862  0.73615124  1
  O2-  O226  1  0.10993575  0.96462568  0.25296667  1
  O2-  O227  1  0.11627937  0.97394318  0.75843256  1
  O2-  O228  1  0.61397892  0.47792316  0.22600413  1
  O2-  O229  1  0.63687216  0.48745987  0.73333367  1
  O2-  O230  1  0.62562059  0.99167980  0.26820945  1
  O2-  O231  1  0.63038912  0.98154744  0.74518873  1
  O2-  O232  1  0.38455979  0.02439636  0.25024498  1
  O2-  O233  1  0.38717193  0.02632619  0.74189065  1
  O2-  O234  1  0.37094569  0.51376640  0.26595124  1
  O2-  O235  1  0.38537120  0.51541065  0.78107845  1
  O2-  O236  1  0.86311162  0.02702768  0.25397173  1
  O2-  O237  1  0.86735829  0.01939082  0.74266403  1
  O2-  O238  1  0.88288748  0.52075186  0.26994356  1
  O2-  O239  1  0.87124467  0.52792896  0.76068302  1
  O2-  O240  1  0.48236731  0.36724929  0.23340459  1
  O2-  O241  1  0.49112569  0.38518108  0.72155522  1
  O2-  O242  1  0.48632515  0.88862015  0.22892990  1
  O2-  O243  1  0.49137061  0.88664900  0.71471449  1
  O2-  O244  1  0.98318011  0.38421131  0.22373789  1
  O2-  O245  1  0.96532400  0.39134792  0.73628121  1
  O2-  O246  1  0.95572774  0.88873873  0.23880278  1
  O2-  O247  1  0.97488215  0.88349368  0.72239167  1
  O2-  O248  1  0.01165865  0.11080151  0.28478911  1
  O2-  O249  1  0.00961715  0.11302863  0.76535110  1
  O2-  O250  1  0.02224162  0.61502746  0.26755143  1
  O2-  O251  1  0.01011324  0.61412947  0.78656043  1
  O2-  O252  1  0.51198768  0.12753254  0.27409772  1
  O2-  O253  1  0.53086674  0.11262432  0.76173065  1
  O2-  O254  1  0.51755321  0.61314763  0.27603120  1
  O2-  O255  1  0.52937816  0.61598347  0.77064129  1
  O2-  O256  1  0.12398773  0.48666072  0.02311358  1
  O2-  O257  1  0.13672813  0.48736082  0.51672487  1
  O2-  O258  1  0.13285321  0.96618895  -0.00958710  1
  O2-  O259  1  0.12038388  0.97357799  0.49721296  1
  O2-  O260  1  0.63752280  0.48039210  0.01822783  1
  O2-  O261  1  0.63647938  0.48820550  0.53413230  1
  O2-  O262  1  0.63736547  0.96683421  -0.00425912  1
  O2-  O263  1  0.62288585  0.97663470  0.50072592  1
  O2-  O264  1  0.36493658  0.00981121  0.02297983  1
  O2-  O265  1  0.37089971  0.01531587  0.50033361  1
  O2-  O266  1  0.36272739  0.53101016  -0.01502778  1
  O2-  O267  1  0.36639204  0.53708318  0.48012247  1
  O2-  O268  1  0.86478471  0.02353243  0.01177508  1
  O2-  O269  1  0.87200238  0.01033806  0.50896174  1
  O2-  O270  1  0.88184952  0.51936594  -0.01011281  1
  O2-  O271  1  0.86030405  0.53857841  0.48779626  1
  O2-  O272  1  0.47508034  0.36189779  0.02760163  1
  O2-  O273  1  0.48032073  0.36453810  0.51895535  1
  O2-  O274  1  0.47751859  0.86463421  0.02997132  1
  O2-  O275  1  0.48014031  0.87952756  0.51344166  1
  O2-  O276  1  0.98529693  0.38191681  0.02194547  1
  O2-  O277  1  0.97682311  0.36909578  0.52301609  1
  O2-  O278  1  0.98647883  0.86187521  0.03288577  1
  O2-  O279  1  0.98444025  0.87510588  0.52427359  1
  O2-  O280  1  0.02106429  0.13247821  -0.02511803  1
  O2-  O281  1  0.01404418  0.11326679  0.48333003  1
  O2-  O282  1  0.01954606  0.61950092  -0.01626457  1
  O2-  O283  1  0.01846614  0.63852701  0.47064976  1
  O2-  O284  1  0.52719452  0.13365984  -0.01664267  1
  O2-  O285  1  0.51789795  0.11523901  0.47681061  1
  O2-  O286  1  0.51929143  0.63230918  -0.02390322  1
  O2-  O287  1  0.52225068  0.63794308  0.47452565  1
  O2-  O288  1  0.11585602  0.28049462  -0.02130038  1
  O2-  O289  1  0.11401499  0.26584998  0.47366206  1
  O2-  O290  1  0.12987726  0.76297110  -0.00391273  1
  O2-  O291  1  0.12562825  0.77412402  0.49450258  1
  O2-  O292  1  0.61466050  0.27437297  -0.01580625  1
  O2-  O293  1  0.61471746  0.26023175  0.46773321  1
  O2-  O294  1  0.61723683  0.77771105  -0.00796113  1
  O2-  O295  1  0.62344358  0.77583057  0.48866453  1
  O2-  O296  1  0.38267132  0.21522169  0.01314582  1
  O2-  O297  1  0.38768347  0.21673783  0.50614524  1
  O2-  O298  1  0.36916673  0.72620089  0.00860738  1
  O2-  O299  1  0.37167645  0.73405669  0.50607589  1
  O2-  O300  1  0.88721799  0.23899472  0.03127479  1
  O2-  O301  1  0.88303654  0.22261921  0.52081919  1
  O2-  O302  1  0.88549073  0.72266062  0.00353907  1
  O2-  O303  1  0.87104788  0.73913757  0.51165748  1
  O2-  O304  1  0.27470979  0.38926959  -0.00579834  1
  O2-  O305  1  0.27680705  0.38780435  0.48358867  1
  O2-  O306  1  0.26822670  0.86359810  -0.00502370  1
  O2-  O307  1  0.26776467  0.86934032  0.48895481  1
  O2-  O308  1  0.77259247  0.38522059  -0.02552792  1
  O2-  O309  1  0.77488969  0.38587339  0.48456252  1
  O2-  O310  1  0.78439511  0.88433287  -0.02004468  1
  O2-  O311  1  0.76164875  0.87559227  0.48707605  1
  O2-  O312  1  0.21657594  0.11719709  0.00704841  1
  O2-  O313  1  0.22145717  0.11325319  0.51073643  1
  O2-  O314  1  0.22843174  0.62733194  0.01914690  1
  O2-  O315  1  0.22673005  0.63476698  0.50716177  1
  O2-  O316  1  0.72597264  0.11448023  0.00981626  1
  O2-  O317  1  0.72770513  0.10898415  0.52255474  1
  O2-  O318  1  0.73497155  0.61453165  0.01334019  1
  O2-  O319  1  0.72492113  0.63685570  0.51814613  1
