# generated using pymatgen
data_Sr64Ca21Nb43O192
_symmetry_space_group_name_H-M   'P 1'
_cell_length_a   16.58916429
_cell_length_b   16.57143080
_cell_length_c   16.73592184
_cell_angle_alpha   90.01906123
_cell_angle_beta   89.97647964
_cell_angle_gamma   90.04527830
_symmetry_Int_Tables_number   1
_chemical_formula_structural   Sr64Ca21Nb43O192
_chemical_formula_sum   'Sr64 Ca21 Nb43 O192'
_cell_volume   4600.80639761
_cell_formula_units_Z   1
loop_
 _symmetry_equiv_pos_site_id
 _symmetry_equiv_pos_as_xyz
  1  'x, y, z'
loop_
 _atom_type_symbol
 _atom_type_oxidation_number
  Sr2+  2.0
  Ca2+  2.0
  Nb5+  5.0
  O2-  -2.0
loop_
 _atom_site_type_symbol
 _atom_site_label
 _atom_site_symmetry_multiplicity
 _atom_site_fract_x
 _atom_site_fract_y
 _atom_site_fract_z
 _atom_site_occupancy
  Sr2+  Sr0  1  0.13081254  0.13922646  0.13374406  1
  Sr2+  Sr1  1  0.12222112  0.10393866  0.62028358  1
  Sr2+  Sr2  1  0.13294791  0.62475664  0.11924366  1
  Sr2+  Sr3  1  0.12855868  0.64411008  0.62929030  1
  Sr2+  Sr4  1  0.63113335  0.10559123  0.12688187  1
  Sr2+  Sr5  1  0.62885359  0.13603940  0.62933195  1
  Sr2+  Sr6  1  0.62260813  0.62746872  0.12696837  1
  Sr2+  Sr7  1  0.62506726  0.62048705  0.62693412  1
  Sr2+  Sr8  1  0.36843764  0.36830149  0.12446404  1
  Sr2+  Sr9  1  0.37785943  0.37556215  0.62325032  1
  Sr2+  Sr10  1  0.37395140  0.87133819  0.12503798  1
  Sr2+  Sr11  1  0.37021740  0.88162252  0.62601442  1
  Sr2+  Sr12  1  0.88615334  0.39172544  0.12339793  1
  Sr2+  Sr13  1  0.87518985  0.38418150  0.61568555  1
  Sr2+  Sr14  1  0.87251439  0.86429756  0.12495843  1
  Sr2+  Sr15  1  0.88114374  0.87240040  0.61532172  1
  Sr2+  Sr16  1  0.11194519  0.36280873  0.36720874  1
  Sr2+  Sr17  1  0.11550889  0.36969372  0.88190436  1
  Sr2+  Sr18  1  0.10677461  0.88506471  0.38283979  1
  Sr2+  Sr19  1  0.12017268  0.89137437  0.87193388  1
  Sr2+  Sr20  1  0.62778540  0.37494514  0.37565605  1
  Sr2+  Sr21  1  0.62105992  0.37449809  0.87613953  1
  Sr2+  Sr22  1  0.62440382  0.87546961  0.37371835  1
  Sr2+  Sr23  1  0.61168571  0.87428447  0.88517978  1
  Sr2+  Sr24  1  0.34686961  0.12624405  0.38079805  1
  Sr2+  Sr25  1  0.37936481  0.13470897  0.86846512  1
  Sr2+  Sr26  1  0.37912661  0.62597078  0.37352035  1
  Sr2+  Sr27  1  0.37929831  0.62163784  0.87048536  1
  Sr2+  Sr28  1  0.89759616  0.12226672  0.37587090  1
  Sr2+  Sr29  1  0.89491747  0.12721985  0.88312352  1
  Sr2+  Sr30  1  0.87249311  0.62234201  0.37838613  1
  Sr2+  Sr31  1  0.87006390  0.62431121  0.87882995  1
  Sr2+  Sr32  1  0.12850277  0.12793071  0.37709196  1
  Sr2+  Sr33  1  0.13030282  0.12769557  0.87185704  1
  Sr2+  Sr34  1  0.12656274  0.63204789  0.35661557  1
  Sr2+  Sr35  1  0.12607917  0.63470046  0.86768634  1
  Sr2+  Sr36  1  0.62549210  0.13435413  0.37181723  1
  Sr2+  Sr37  1  0.61761190  0.12881570  0.86886969  1
  Sr2+  Sr38  1  0.61778401  0.62786632  0.37201372  1
  Sr2+  Sr39  1  0.61976175  0.62528034  0.87859470  1
  Sr2+  Sr40  1  0.38175699  0.36007811  0.37438018  1
  Sr2+  Sr41  1  0.38074706  0.37348758  0.87676111  1
  Sr2+  Sr42  1  0.38343062  0.88295919  0.37541581  1
  Sr2+  Sr43  1  0.37326758  0.90112856  0.87464261  1
  Sr2+  Sr44  1  0.86662878  0.35688748  0.37254462  1
  Sr2+  Sr45  1  0.86960202  0.36697263  0.88315957  1
  Sr2+  Sr46  1  0.86485923  0.88551923  0.37388996  1
  Sr2+  Sr47  1  0.86745319  0.88624350  0.87442688  1
  Sr2+  Sr48  1  0.11851166  0.38024994  0.12631294  1
  Sr2+  Sr49  1  0.13106985  0.38133449  0.63141737  1
  Sr2+  Sr50  1  0.12638162  0.86458981  0.11909712  1
  Sr2+  Sr51  1  0.11715170  0.87294119  0.63429028  1
  Sr2+  Sr52  1  0.63370162  0.38608313  0.12620211  1
  Sr2+  Sr53  1  0.63228669  0.37988505  0.62302608  1
  Sr2+  Sr54  1  0.62716134  0.86851287  0.13017940  1
  Sr2+  Sr55  1  0.64079900  0.86513050  0.62664969  1
  Sr2+  Sr56  1  0.36915978  0.12380876  0.15074847  1
  Sr2+  Sr57  1  0.36429663  0.12574995  0.62011321  1
  Sr2+  Sr58  1  0.36062412  0.62242332  0.13008357  1
  Sr2+  Sr59  1  0.36383238  0.61758849  0.62605103  1
  Sr2+  Sr60  1  0.88029795  0.10708792  0.12838425  1
  Sr2+  Sr61  1  0.88723413  0.13398234  0.62872141  1
  Sr2+  Sr62  1  0.90135277  0.62868949  0.12640051  1
  Sr2+  Sr63  1  0.88314405  0.63015799  0.62375880  1
  Ca2+  Ca64  1  0.49570600  0.00423685  0.00194920  1
  Ca2+  Ca65  1  0.50128489  0.00041305  0.50200518  1
  Ca2+  Ca66  1  0.00397460  -0.00258723  0.00477277  1
  Ca2+  Ca67  1  0.00400726  0.49959856  0.50219473  1
  Ca2+  Ca68  1  -0.00375762  -0.00233770  0.50050138  1
  Ca2+  Ca69  1  0.25417000  0.75358393  -0.00732303  1
  Ca2+  Ca70  1  0.74634822  0.24918606  0.00141565  1
  Ca2+  Ca71  1  0.24815003  0.25548179  0.50409963  1
  Ca2+  Ca72  1  0.25125980  0.24779545  -0.00158318  1
  Ca2+  Ca73  1  0.25495281  0.74766349  0.50009852  1
  Ca2+  Ca74  1  0.74852693  0.50042275  0.74912183  1
  Ca2+  Ca75  1  0.75237626  0.49947087  0.24909403  1
  Ca2+  Ca76  1  -0.00322107  0.75033925  0.75430016  1
  Ca2+  Ca77  1  0.50067236  0.24995615  0.25013155  1
  Ca2+  Ca78  1  0.00087741  0.25509980  0.75130900  1
  Ca2+  Ca79  1  0.25144343  0.49906235  0.25306356  1
  Ca2+  Ca80  1  0.74769271  -0.00001735  0.74646858  1
  Ca2+  Ca81  1  -0.00570610  0.25077772  0.24755481  1
  Ca2+  Ca82  1  -0.00025123  0.75231286  0.25234672  1
  Ca2+  Ca83  1  0.24877993  -0.00611565  0.25159853  1
  Ca2+  Ca84  1  0.50072363  0.75204801  0.74766910  1
  Nb5+  Nb85  1  0.00846358  0.50435676  -0.00237034  1
  Nb5+  Nb86  1  0.49986876  0.49879758  0.49429373  1
  Nb5+  Nb87  1  0.50315472  0.50016399  -0.00156538  1
  Nb5+  Nb88  1  0.74997839  0.74897657  0.50015160  1
  Nb5+  Nb89  1  0.74997610  0.25156984  0.50105673  1
  Nb5+  Nb90  1  0.74924572  0.74865347  0.00623174  1
  Nb5+  Nb91  1  0.74774237  0.00019898  0.25102402  1
  Nb5+  Nb92  1  0.24926117  0.50190461  0.75185342  1
  Nb5+  Nb93  1  0.24889042  0.00922586  0.74989872  1
  Nb5+  Nb94  1  0.50151925  0.25263966  0.74741813  1
  Nb5+  Nb95  1  0.49930844  0.74879295  0.24835968  1
  Nb5+  Nb96  1  0.00560251  -0.00441331  0.24543419  1
  Nb5+  Nb97  1  -0.00654821  0.00355002  0.75416678  1
  Nb5+  Nb98  1  0.00139091  0.50458326  0.25826770  1
  Nb5+  Nb99  1  -0.00300414  0.50088660  0.75181801  1
  Nb5+  Nb100  1  0.49979881  0.00326214  0.25296442  1
  Nb5+  Nb101  1  0.50211517  -0.00059697  0.74192930  1
  Nb5+  Nb102  1  0.49788815  0.49770220  0.24441662  1
  Nb5+  Nb103  1  0.50159172  0.49916222  0.74478845  1
  Nb5+  Nb104  1  0.25016462  0.25342675  0.25250524  1
  Nb5+  Nb105  1  0.25120248  0.25980836  0.75146967  1
  Nb5+  Nb106  1  0.24785671  0.75506237  0.25247365  1
  Nb5+  Nb107  1  0.25554325  0.76184626  0.74982034  1
  Nb5+  Nb108  1  0.75039542  0.24751854  0.23924235  1
  Nb5+  Nb109  1  0.75259005  0.24897429  0.75223345  1
  Nb5+  Nb110  1  0.74943905  0.74776629  0.25437832  1
  Nb5+  Nb111  1  0.74915869  0.75110938  0.76081048  1
  Nb5+  Nb112  1  0.00310594  0.25445726  0.50531182  1
  Nb5+  Nb113  1  0.00000178  0.24753886  1.00581445  1
  Nb5+  Nb114  1  0.00440370  0.74586661  0.49647735  1
  Nb5+  Nb115  1  0.00175854  0.75427185  0.99383547  1
  Nb5+  Nb116  1  0.50339012  0.24615067  0.50086401  1
  Nb5+  Nb117  1  0.50031987  0.24851413  1.00677476  1
  Nb5+  Nb118  1  0.50312399  0.74738583  0.50340506  1
  Nb5+  Nb119  1  0.49615044  0.74728218  1.00052836  1
  Nb5+  Nb120  1  0.25175155  0.00222968  0.00561874  1
  Nb5+  Nb121  1  0.24811853  -0.00590240  0.49814737  1
  Nb5+  Nb122  1  0.25715302  0.50241754  -0.00278473  1
  Nb5+  Nb123  1  0.24845855  0.49804895  0.49606370  1
  Nb5+  Nb124  1  0.74350155  0.00051008  -0.00628695  1
  Nb5+  Nb125  1  0.74753981  0.00880588  0.50094530  1
  Nb5+  Nb126  1  0.75630064  0.50146166  0.00257929  1
  Nb5+  Nb127  1  0.74973829  0.50424055  0.49648180  1
  O2-  O128  1  -0.03279924  -0.02433934  0.13529514  1
  O2-  O129  1  -0.01727747  -0.01774572  0.63679564  1
  O2-  O130  1  0.00669026  0.48757223  0.11830683  1
  O2-  O131  1  0.00691486  0.46820090  0.64140942  1
  O2-  O132  1  0.47515782  -0.00229087  0.13666279  1
  O2-  O133  1  0.46121623  0.00992003  0.63321665  1
  O2-  O134  1  0.50790164  0.50346842  0.12575164  1
  O2-  O135  1  0.50690119  0.49952134  0.62673725  1
  O2-  O136  1  0.01994993  0.02184790  0.36427613  1
  O2-  O137  1  0.02123087  0.02440840  0.87062640  1
  O2-  O138  1  -0.00105094  0.53146858  0.36959969  1
  O2-  O139  1  -0.00240283  0.53120755  0.88258074  1
  O2-  O140  1  0.51850365  -0.02078747  0.36691170  1
  O2-  O141  1  0.52120397  0.00600977  0.86120729  1
  O2-  O142  1  0.49236859  0.49582665  0.37707221  1
  O2-  O143  1  0.49209752  0.50036683  0.87917338  1
  O2-  O144  1  0.27294012  0.24692464  0.13299819  1
  O2-  O145  1  0.27228847  0.26165894  0.63637465  1
  O2-  O146  1  0.23945726  0.76306359  0.13111517  1
  O2-  O147  1  0.22449443  0.76327168  0.63384156  1
  O2-  O148  1  0.75859424  0.21124144  0.13208137  1
  O2-  O149  1  0.75937283  0.22543002  0.61899890  1
  O2-  O150  1  0.73114846  0.74189449  0.12273347  1
  O2-  O151  1  0.73260306  0.73103548  0.61281847  1
  O2-  O152  1  0.22687093  0.25191028  0.37105739  1
  O2-  O153  1  0.24974003  0.22616544  0.86296213  1
  O2-  O154  1  0.27203375  0.73019453  0.36561541  1
  O2-  O155  1  0.27920763  0.73195313  0.86016784  1
  O2-  O156  1  0.72774742  0.25882124  0.38314397  1
  O2-  O157  1  0.73148468  0.27213854  0.86346552  1
  O2-  O158  1  0.76403586  0.76227678  0.36969905  1
  O2-  O159  1  0.76388324  0.76229477  0.87616590  1
  O2-  O160  1  -0.01526287  0.28416205  0.11680884  1
  O2-  O161  1  -0.03243645  0.26894135  0.61827733  1
  O2-  O162  1  0.00416273  0.76798994  0.11399185  1
  O2-  O163  1  -0.00159223  0.77425999  0.61709265  1
  O2-  O164  1  0.47085222  0.24557188  0.11644612  1
  O2-  O165  1  0.48908057  0.25408898  0.62469533  1
  O2-  O166  1  0.52105291  0.74945083  0.12519472  1
  O2-  O167  1  0.53633387  0.74618003  0.61262817  1
  O2-  O168  1  0.22222696  -0.00354532  0.38494846  1
  O2-  O169  1  0.22974261  0.00441148  0.86648525  1
  O2-  O170  1  0.25369894  0.52875491  0.38697755  1
  O2-  O171  1  0.26492620  0.51499469  0.87032687  1
  O2-  O172  1  0.72845657  -0.01462232  0.36911048  1
  O2-  O173  1  0.72848473  -0.02931823  0.88269340  1
  O2-  O174  1  0.76078299  0.47064401  0.38393611  1
  O2-  O175  1  0.75343039  0.48864635  0.88550640  1
  O2-  O176  1  0.01681828  0.23326037  0.38575634  1
  O2-  O177  1  0.01823199  0.23253940  0.88671539  1
  O2-  O178  1  -0.01059687  0.71316846  0.38410505  1
  O2-  O179  1  -0.01842509  0.71761561  0.88571396  1
  O2-  O180  1  0.51917816  0.26615197  0.38730199  1
  O2-  O181  1  0.51965651  0.25567665  0.86609973  1
  O2-  O182  1  0.49416844  0.74536838  0.36940421  1
  O2-  O183  1  0.49650542  0.73125307  0.88570967  1
  O2-  O184  1  0.27747874  0.00067589  0.11743659  1
  O2-  O185  1  0.26525959  -0.00561759  0.63012557  1
  O2-  O186  1  0.24972598  0.49108734  0.11289314  1
  O2-  O187  1  0.25482983  0.47518928  0.63592392  1
  O2-  O188  1  0.76026931  0.01042018  0.12899964  1
  O2-  O189  1  0.77542667  0.01475474  0.61121527  1
  O2-  O190  1  0.72372739  0.51542473  0.11453901  1
  O2-  O191  1  0.72889234  0.50817984  0.61297165  1
  O2-  O192  1  0.13233278  0.27219083  0.23106649  1
  O2-  O193  1  0.13719228  0.27837032  0.74439812  1
  O2-  O194  1  0.13672708  0.78051022  0.27232883  1
  O2-  O195  1  0.13686716  0.76151769  0.77307882  1
  O2-  O196  1  0.63482974  0.27305137  0.24267578  1
  O2-  O197  1  0.61963030  0.26986056  0.72909490  1
  O2-  O198  1  0.62687828  0.76957737  0.25793998  1
  O2-  O199  1  0.63407507  0.78758130  0.76327265  1
  O2-  O200  1  0.36833141  0.22449501  0.27410137  1
  O2-  O201  1  0.38146978  0.23748339  0.75727600  1
  O2-  O202  1  0.38625242  0.72671017  0.23349080  1
  O2-  O203  1  0.36763945  0.73874379  0.71459875  1
  O2-  O204  1  0.85928879  0.22887847  0.27909856  1
  O2-  O205  1  0.86424981  0.22465147  0.76707196  1
  O2-  O206  1  0.86280695  0.73791418  0.22986448  1
  O2-  O207  1  0.86199289  0.71834693  0.74218906  1
  O2-  O208  1  0.28249423  0.36787608  0.25678163  1
  O2-  O209  1  0.27441681  0.37404979  0.76910800  1
  O2-  O210  1  0.29302916  0.86443610  0.25527064  1
  O2-  O211  1  0.27003352  0.87817445  0.75849967  1
  O2-  O212  1  0.77222525  0.36139676  0.22127161  1
  O2-  O213  1  0.76699434  0.36293078  0.72075840  1
  O2-  O214  1  0.76008350  0.87538067  0.23820492  1
  O2-  O215  1  0.77463731  0.86235067  0.72202165  1
  O2-  O216  1  0.22901774  0.13028474  0.25223814  1
  O2-  O217  1  0.23446499  0.12520061  0.73398173  1
  O2-  O218  1  0.23251207  0.63566053  0.23346094  1
  O2-  O219  1  0.23949674  0.61730122  0.73571939  1
  O2-  O220  1  0.72236115  0.11770423  0.25951791  1
  O2-  O221  1  0.71610600  0.13522210  0.75499059  1
  O2-  O222  1  0.72831818  0.63484409  0.26489306  1
  O2-  O223  1  0.71277345  0.63737192  0.75806288  1
  O2-  O224  1  0.11738879  0.47262512  0.25719800  1
  O2-  O225  1  0.13528485  0.47727711  0.76365112  1
  O2-  O226  1  0.11602563  0.97704757  0.22143283  1
  O2-  O227  1  0.13001685  0.98565793  0.73496177  1
  O2-  O228  1  0.61400938  0.47999434  0.26204100  1
  O2-  O229  1  0.61349092  0.47181629  0.75871101  1
  O2-  O230  1  0.62456058  0.97924918  0.23057538  1
  O2-  O231  1  0.61235105  0.99083561  0.70904666  1
  O2-  O232  1  0.38575003  0.02144783  0.27708982  1
  O2-  O233  1  0.36776635  0.02011600  0.76942757  1
  O2-  O234  1  0.38704988  0.53560617  0.25079030  1
  O2-  O235  1  0.37857925  0.51266352  0.74739800  1
  O2-  O236  1  0.86350311  0.01455520  0.26728919  1
  O2-  O237  1  0.88045896  0.01930955  0.77610148  1
  O2-  O238  1  0.88534364  0.52774460  0.23579605  1
  O2-  O239  1  0.88461035  0.52583431  0.74558587  1
  O2-  O240  1  0.46995267  0.38586338  0.24245957  1
  O2-  O241  1  0.47797414  0.37472696  0.75032522  1
  O2-  O242  1  0.48629902  0.86705545  0.24487853  1
  O2-  O243  1  0.47530870  0.88719246  0.75186517  1
  O2-  O244  1  0.97473739  0.38745358  0.26962602  1
  O2-  O245  1  0.98911418  0.38965993  0.79310281  1
  O2-  O246  1  0.98033080  0.88429447  0.28033968  1
  O2-  O247  1  0.99243120  0.88552616  0.77839472  1
  O2-  O248  1  0.00303431  0.11473706  0.22493583  1
  O2-  O249  1  0.01772437  0.11894541  0.72935622  1
  O2-  O250  1  0.03127947  0.61896688  0.22775567  1
  O2-  O251  1  0.03440736  0.61229587  0.74019345  1
  O2-  O252  1  0.52986602  0.11507878  0.25053385  1
  O2-  O253  1  0.51363361  0.13195128  0.74712217  1
  O2-  O254  1  0.52765872  0.62825482  0.24894280  1
  O2-  O255  1  0.51782883  0.61386534  0.75241574  1
  O2-  O256  1  0.12371009  0.48554830  -0.00902436  1
  O2-  O257  1  0.13839588  0.46449635  0.49764419  1
  O2-  O258  1  0.13702307  0.96120714  0.00894636  1
  O2-  O259  1  0.13137591  0.97154690  0.52393959  1
  O2-  O260  1  0.61900591  0.48203585  -0.00963179  1
  O2-  O261  1  0.62406542  0.47967833  0.48935666  1
  O2-  O262  1  0.63124088  0.97653829  0.02649429  1
  O2-  O263  1  0.63828332  0.96833439  0.51276484  1
  O2-  O264  1  0.36338707  0.02924128  -0.03009818  1
  O2-  O265  1  0.36455492  0.02478115  0.48637206  1
  O2-  O266  1  0.37541787  0.52557290  0.00247791  1
  O2-  O267  1  0.38588298  0.52369216  0.50631615  1
  O2-  O268  1  0.86149149  0.01465519  -0.01258956  1
  O2-  O269  1  0.86083764  0.00479023  0.46799403  1
  O2-  O270  1  0.87191429  0.52384736  0.01083440  1
  O2-  O271  1  0.86416796  0.51573055  0.51548377  1
  O2-  O272  1  0.47397564  0.38632468  0.00765973  1
  O2-  O273  1  0.48728301  0.38018778  0.50768820  1
  O2-  O274  1  0.48406012  0.86298173  -0.00709546  1
  O2-  O275  1  0.48220502  0.86037035  0.50061220  1
  O2-  O276  1  0.98060356  0.39002988  -0.01869524  1
  O2-  O277  1  0.97051805  0.36628932  0.47853543  1
  O2-  O278  1  0.97202600  0.86453770  -0.02365884  1
  O2-  O279  1  0.97478796  0.86077621  0.47582156  1
  O2-  O280  1  0.00733198  0.13520128  0.03276983  1
  O2-  O281  1  0.00387340  0.13407369  0.52231968  1
  O2-  O282  1  0.01346902  0.62482639  0.02226852  1
  O2-  O283  1  0.00888703  0.63233629  0.53638183  1
  O2-  O284  1  0.53017950  0.13808770  -0.00215636  1
  O2-  O285  1  0.53224866  0.13474550  0.50117732  1
  O2-  O286  1  0.52426751  0.61992010  0.00669595  1
  O2-  O287  1  0.52990563  0.61734783  0.49651441  1
  O2-  O288  1  0.11546308  0.27976600  0.01182940  1
  O2-  O289  1  0.11382910  0.27617125  0.52398772  1
  O2-  O290  1  0.11538517  0.76821290  -0.02015268  1
  O2-  O291  1  0.11753885  0.76168919  0.48284301  1
  O2-  O292  1  0.61073563  0.29102741  0.01025037  1
  O2-  O293  1  0.62701624  0.26841507  0.52117320  1
  O2-  O294  1  0.62828731  0.76129484  -0.01101293  1
  O2-  O295  1  0.63047875  0.75505925  0.47199262  1
  O2-  O296  1  0.38968390  0.24852960  -0.03166354  1
  O2-  O297  1  0.38788090  0.23013860  0.48985522  1
  O2-  O298  1  0.38702020  0.72157111  0.02070991  1
  O2-  O299  1  0.39344355  0.71535770  0.51080009  1
  O2-  O300  1  0.88217974  0.24604063  -0.02065645  1
  O2-  O301  1  0.86406775  0.23014357  0.48316669  1
  O2-  O302  1  0.86647597  0.72968573  0.01417739  1
  O2-  O303  1  0.86464817  0.72290567  0.50279355  1
  O2-  O304  1  0.26409926  0.38665583  -0.02224931  1
  O2-  O305  1  0.29290681  0.38871010  0.49383781  1
  O2-  O306  1  0.28433504  0.88513771  -0.00940682  1
  O2-  O307  1  0.28475497  0.88088517  0.49785816  1
  O2-  O308  1  0.76931906  0.38677734  0.01942221  1
  O2-  O309  1  0.76274332  0.36832679  0.51525731  1
  O2-  O310  1  0.76538768  0.86737675  0.01223693  1
  O2-  O311  1  0.76580017  0.86392681  0.50885184  1
  O2-  O312  1  0.21043958  0.11432449  0.00445630  1
  O2-  O313  1  0.22681636  0.11649863  0.50712992  1
  O2-  O314  1  0.22539052  0.61658956  -0.00223551  1
  O2-  O315  1  0.24123465  0.60898799  0.53598173  1
  O2-  O316  1  0.72140989  0.11333350  -0.01820888  1
  O2-  O317  1  0.72364366  0.12217817  0.48807696  1
  O2-  O318  1  0.73293494  0.62826535  -0.01638640  1
  O2-  O319  1  0.73437383  0.61920942  0.47289473  1
