# generated using pymatgen
data_Sr64Ca21Nb43O192
_symmetry_space_group_name_H-M   'P 1'
_cell_length_a   16.56954312
_cell_length_b   16.60681553
_cell_length_c   16.73592724
_cell_angle_alpha   89.95699684
_cell_angle_beta   90.00388431
_cell_angle_gamma   90.08073990
_symmetry_Int_Tables_number   1
_chemical_formula_structural   Sr64Ca21Nb43O192
_chemical_formula_sum   'Sr64 Ca21 Nb43 O192'
_cell_volume   4605.17480002
_cell_formula_units_Z   1
loop_
 _symmetry_equiv_pos_site_id
 _symmetry_equiv_pos_as_xyz
  1  'x, y, z'
loop_
 _atom_type_symbol
 _atom_type_oxidation_number
  Sr2+  2.0
  Ca2+  2.0
  Nb5+  5.0
  O2-  -2.0
loop_
 _atom_site_type_symbol
 _atom_site_label
 _atom_site_symmetry_multiplicity
 _atom_site_fract_x
 _atom_site_fract_y
 _atom_site_fract_z
 _atom_site_occupancy
  Sr2+  Sr0  1  0.12573448  0.11399479  0.12757829  1
  Sr2+  Sr1  1  0.11767865  0.14975339  0.62288269  1
  Sr2+  Sr2  1  0.11624228  0.62722747  0.12108379  1
  Sr2+  Sr3  1  0.12432557  0.63685477  0.62364349  1
  Sr2+  Sr4  1  0.62865172  0.11350031  0.12997046  1
  Sr2+  Sr5  1  0.63586132  0.13879291  0.62718586  1
  Sr2+  Sr6  1  0.62832789  0.63305812  0.12551843  1
  Sr2+  Sr7  1  0.62647852  0.62872221  0.62182578  1
  Sr2+  Sr8  1  0.36585671  0.37789096  0.11760978  1
  Sr2+  Sr9  1  0.37557287  0.37959235  0.61555354  1
  Sr2+  Sr10  1  0.36446753  0.89858507  0.13056141  1
  Sr2+  Sr11  1  0.36883284  0.88519434  0.62453469  1
  Sr2+  Sr12  1  0.87882162  0.36474023  0.12594401  1
  Sr2+  Sr13  1  0.87827539  0.36652853  0.62193837  1
  Sr2+  Sr14  1  0.87553486  0.90426291  0.12594359  1
  Sr2+  Sr15  1  0.88128046  0.89245529  0.62503691  1
  Sr2+  Sr16  1  0.13829045  0.36027682  0.37491244  1
  Sr2+  Sr17  1  0.13834559  0.36526780  0.87956299  1
  Sr2+  Sr18  1  0.15111677  0.87016026  0.37622672  1
  Sr2+  Sr19  1  0.10193292  0.87263820  0.87341087  1
  Sr2+  Sr20  1  0.62053772  0.37650419  0.36410158  1
  Sr2+  Sr21  1  0.61493564  0.37373699  0.87575801  1
  Sr2+  Sr22  1  0.62214772  0.86712418  0.37233420  1
  Sr2+  Sr23  1  0.61480286  0.86941719  0.87584321  1
  Sr2+  Sr24  1  0.36700991  0.12251288  0.37659559  1
  Sr2+  Sr25  1  0.36858237  0.12669707  0.87733576  1
  Sr2+  Sr26  1  0.37185724  0.62520204  0.37380031  1
  Sr2+  Sr27  1  0.37087265  0.62353532  0.87254308  1
  Sr2+  Sr28  1  0.87397602  0.11871214  0.36800042  1
  Sr2+  Sr29  1  0.87561427  0.11214273  0.87739564  1
  Sr2+  Sr30  1  0.87104919  0.62417779  0.36967786  1
  Sr2+  Sr31  1  0.87040040  0.62518930  0.87535743  1
  Sr2+  Sr32  1  0.12430191  0.12780305  0.37217647  1
  Sr2+  Sr33  1  0.13866450  0.11414241  0.87666927  1
  Sr2+  Sr34  1  0.12985051  0.62951816  0.35300857  1
  Sr2+  Sr35  1  0.11466017  0.62724824  0.87855120  1
  Sr2+  Sr36  1  0.61287209  0.10380297  0.37177410  1
  Sr2+  Sr37  1  0.61220191  0.11131693  0.87858345  1
  Sr2+  Sr38  1  0.62205390  0.62375336  0.36749425  1
  Sr2+  Sr39  1  0.62395261  0.62233908  0.87530602  1
  Sr2+  Sr40  1  0.37989298  0.35247797  0.37350961  1
  Sr2+  Sr41  1  0.37811061  0.35937556  0.87331891  1
  Sr2+  Sr42  1  0.37759608  0.89980878  0.37951230  1
  Sr2+  Sr43  1  0.37393229  0.89854828  0.86943050  1
  Sr2+  Sr44  1  0.87292954  0.35826864  0.36650260  1
  Sr2+  Sr45  1  0.87312154  0.36112058  0.87994639  1
  Sr2+  Sr46  1  0.87702967  0.88057166  0.37874958  1
  Sr2+  Sr47  1  0.87110259  0.87764903  0.87366108  1
  Sr2+  Sr48  1  0.11997893  0.38153545  0.12763680  1
  Sr2+  Sr49  1  0.12110975  0.38715967  0.62021242  1
  Sr2+  Sr50  1  0.12033615  0.88106898  0.13114190  1
  Sr2+  Sr51  1  0.12161383  0.87690792  0.62357043  1
  Sr2+  Sr52  1  0.63288028  0.38123920  0.12022615  1
  Sr2+  Sr53  1  0.63286772  0.38163329  0.62705736  1
  Sr2+  Sr54  1  0.62853398  0.87656342  0.13275098  1
  Sr2+  Sr55  1  0.63347121  0.87569001  0.61885797  1
  Sr2+  Sr56  1  0.37486232  0.13322285  0.13768655  1
  Sr2+  Sr57  1  0.37285858  0.13411351  0.63017857  1
  Sr2+  Sr58  1  0.35076251  0.62384186  0.12485651  1
  Sr2+  Sr59  1  0.36474193  0.61965361  0.62384049  1
  Sr2+  Sr60  1  0.88235767  0.13595860  0.12373489  1
  Sr2+  Sr61  1  0.88384713  0.13088732  0.61501210  1
  Sr2+  Sr62  1  0.88204889  0.62745417  0.12756030  1
  Sr2+  Sr63  1  0.88211069  0.62261647  0.62324846  1
  Ca2+  Ca64  1  0.50091995  -0.00173631  0.50650858  1
  Ca2+  Ca65  1  0.49628908  -0.00200597  0.00204923  1
  Ca2+  Ca66  1  0.00184171  -0.00059135  -0.00075502  1
  Ca2+  Ca67  1  -0.00532817  0.50080875  0.49739221  1
  Ca2+  Ca68  1  0.00195631  -0.00172059  0.49906328  1
  Ca2+  Ca69  1  0.74865804  0.25313782  0.49601891  1
  Ca2+  Ca70  1  0.25117861  0.25234542  0.50241823  1
  Ca2+  Ca71  1  0.24952707  0.24843958  0.00109001  1
  Ca2+  Ca72  1  0.74912983  0.25216083  -0.00284209  1
  Ca2+  Ca73  1  0.25231216  0.75589326  -0.00362717  1
  Ca2+  Ca74  1  0.25017405  0.49779651  0.25114034  1
  Ca2+  Ca75  1  0.75184091  -0.00018969  0.25255445  1
  Ca2+  Ca76  1  0.74859719  0.00066782  0.74963978  1
  Ca2+  Ca77  1  0.00455408  0.25096363  0.24815046  1
  Ca2+  Ca78  1  -0.00324607  0.75534652  0.25000976  1
  Ca2+  Ca79  1  -0.00038821  0.25447126  0.75185785  1
  Ca2+  Ca80  1  0.50487994  0.24999150  0.24999246  1
  Ca2+  Ca81  1  0.24750401  -0.00217398  0.74704571  1
  Ca2+  Ca82  1  0.24826945  0.49911597  0.75075828  1
  Ca2+  Ca83  1  0.24484425  0.00090378  0.25355798  1
  Ca2+  Ca84  1  0.49490836  0.74815846  0.24774174  1
  Nb5+  Nb85  1  -0.00984549  0.50063668  -0.00097551  1
  Nb5+  Nb86  1  0.49456020  0.50302368  -0.00496060  1
  Nb5+  Nb87  1  0.49905460  0.50136562  0.49444991  1
  Nb5+  Nb88  1  0.75430392  0.74610531  0.50439102  1
  Nb5+  Nb89  1  0.25789049  0.74664249  0.50124497  1
  Nb5+  Nb90  1  0.75235078  0.75103733  0.00389257  1
  Nb5+  Nb91  1  0.49597678  0.74974910  0.75057920  1
  Nb5+  Nb92  1  -0.00845392  0.74715780  0.74869707  1
  Nb5+  Nb93  1  0.75037625  0.50246004  0.24024368  1
  Nb5+  Nb94  1  0.50239843  0.25543815  0.74904534  1
  Nb5+  Nb95  1  0.75202459  0.50203735  0.74412519  1
  Nb5+  Nb96  1  -0.00126661  -0.00026936  0.25348120  1
  Nb5+  Nb97  1  0.00307892  0.00807157  0.74865236  1
  Nb5+  Nb98  1  -0.00015085  0.50144550  0.25482414  1
  Nb5+  Nb99  1  -0.00234261  0.49576550  0.75253443  1
  Nb5+  Nb100  1  0.49932656  -0.00236364  0.24984709  1
  Nb5+  Nb101  1  0.50318148  0.00874166  0.74578792  1
  Nb5+  Nb102  1  0.49929688  0.50164601  0.23925325  1
  Nb5+  Nb103  1  0.50301365  0.50352174  0.74623068  1
  Nb5+  Nb104  1  0.25244714  0.25110503  0.24849295  1
  Nb5+  Nb105  1  0.24709453  0.25305334  0.74485939  1
  Nb5+  Nb106  1  0.25154929  0.75198263  0.24372528  1
  Nb5+  Nb107  1  0.24321234  0.74751733  0.75220231  1
  Nb5+  Nb108  1  0.74599520  0.24659481  0.25108525  1
  Nb5+  Nb109  1  0.75194826  0.24503799  0.75602968  1
  Nb5+  Nb110  1  0.75235783  0.75152108  0.25496186  1
  Nb5+  Nb111  1  0.74813468  0.74874051  0.75186334  1
  Nb5+  Nb112  1  -0.00110881  0.25274030  0.49574176  1
  Nb5+  Nb113  1  0.00784787  0.24605750  0.99543538  1
  Nb5+  Nb114  1  0.00571428  0.74686622  0.49610546  1
  Nb5+  Nb115  1  -0.00266411  0.75092032  0.99974350  1
  Nb5+  Nb116  1  0.50843517  0.24421433  0.50199163  1
  Nb5+  Nb117  1  0.50363826  0.24838456  1.00502952  1
  Nb5+  Nb118  1  0.50192211  0.74612025  0.50098635  1
  Nb5+  Nb119  1  0.49843435  0.74622004  0.99825257  1
  Nb5+  Nb120  1  0.24977560  -0.00197117  0.00192745  1
  Nb5+  Nb121  1  0.24454099  0.00510393  0.50778152  1
  Nb5+  Nb122  1  0.23770763  0.50247276  -0.00352323  1
  Nb5+  Nb123  1  0.24455866  0.49918661  0.49578921  1
  Nb5+  Nb124  1  0.74583482  0.00581248  -0.00185240  1
  Nb5+  Nb125  1  0.74431560  0.00578682  0.49980144  1
  Nb5+  Nb126  1  0.74809215  0.50150199  -0.00619658  1
  Nb5+  Nb127  1  0.74812439  0.50279183  0.49278926  1
  O2-  O128  1  0.01844057  -0.00747762  0.13173282  1
  O2-  O129  1  0.01061150  -0.01966771  0.63480357  1
  O2-  O130  1  0.00307689  0.49676652  0.11698520  1
  O2-  O131  1  -0.00472327  0.49249526  0.63699577  1
  O2-  O132  1  0.51936620  -0.02193903  0.13339613  1
  O2-  O133  1  0.52077746  -0.03098875  0.63833752  1
  O2-  O134  1  0.50709976  0.48472012  0.12297958  1
  O2-  O135  1  0.50861378  0.48397761  0.63187495  1
  O2-  O136  1  -0.02899320  0.00372947  0.36893495  1
  O2-  O137  1  -0.02138782  -0.00319933  0.86479681  1
  O2-  O138  1  -0.01384631  0.52392438  0.36528693  1
  O2-  O139  1  -0.01265959  0.51674589  0.87692604  1
  O2-  O140  1  0.48149240  0.02049802  0.37069818  1
  O2-  O141  1  0.47728720  0.01807482  0.86523389  1
  O2-  O142  1  0.50318986  0.52105005  0.38148178  1
  O2-  O143  1  0.50142861  0.51304074  0.87703937  1
  O2-  O144  1  0.28088671  0.25823694  0.13187714  1
  O2-  O145  1  0.28658417  0.26297860  0.63321803  1
  O2-  O146  1  0.25267792  0.77779677  0.13275964  1
  O2-  O147  1  0.24259816  0.76559571  0.62010239  1
  O2-  O148  1  0.76921553  0.24184942  0.13331588  1
  O2-  O149  1  0.76927770  0.23948080  0.63827361  1
  O2-  O150  1  0.74634141  0.73757427  0.12034625  1
  O2-  O151  1  0.74625222  0.72994100  0.62380085  1
  O2-  O152  1  0.23208098  0.23664597  0.36945716  1
  O2-  O153  1  0.23444627  0.23277781  0.86276967  1
  O2-  O154  1  0.24647094  0.72465159  0.38586844  1
  O2-  O155  1  0.25160791  0.72210495  0.86307185  1
  O2-  O156  1  0.73786227  0.28520954  0.36428542  1
  O2-  O157  1  0.73615110  0.29106993  0.86284363  1
  O2-  O158  1  0.75069097  0.75650017  0.37607616  1
  O2-  O159  1  0.75968855  0.75528836  0.86949148  1
  O2-  O160  1  -0.01702747  0.25469005  0.11265798  1
  O2-  O161  1  -0.02284565  0.25178710  0.61845704  1
  O2-  O162  1  0.00375922  0.75257875  0.11343809  1
  O2-  O163  1  0.00744261  0.75719849  0.63319010  1
  O2-  O164  1  0.47912144  0.26774437  0.11468753  1
  O2-  O165  1  0.47994249  0.26541353  0.63233822  1
  O2-  O166  1  0.51708515  0.75750505  0.10984132  1
  O2-  O167  1  0.50938201  0.75335047  0.63260324  1
  O2-  O168  1  0.26150067  0.01074147  0.38873890  1
  O2-  O169  1  0.26805910  0.01523446  0.88187057  1
  O2-  O170  1  0.25206222  0.53507532  0.38422518  1
  O2-  O171  1  0.24706574  0.53495046  0.88354274  1
  O2-  O172  1  0.77382649  -0.01299684  0.38586276  1
  O2-  O173  1  0.77605907  -0.00895783  0.88445197  1
  O2-  O174  1  0.74784521  0.49384858  0.37661408  1
  O2-  O175  1  0.75871098  0.49456579  0.87702517  1
  O2-  O176  1  0.02854372  0.25418378  0.38157348  1
  O2-  O177  1  0.02555419  0.26721347  0.88114842  1
  O2-  O178  1  -0.00419113  0.72786023  0.38492480  1
  O2-  O179  1  -0.00734726  0.73510373  0.86996058  1
  O2-  O180  1  0.53427179  0.24113903  0.38991565  1
  O2-  O181  1  0.52411041  0.24136161  0.86749025  1
  O2-  O182  1  0.50262341  0.72378561  0.38896009  1
  O2-  O183  1  0.51004951  0.72293246  0.86841786  1
  O2-  O184  1  0.22896658  -0.01893443  0.12013155  1
  O2-  O185  1  0.23992197  -0.03569448  0.61731591  1
  O2-  O186  1  0.24617781  0.47598256  0.11356633  1
  O2-  O187  1  0.25131692  0.47892934  0.61469350  1
  O2-  O188  1  0.72762818  -0.00712873  0.11613327  1
  O2-  O189  1  0.71747766  0.00487137  0.61731143  1
  O2-  O190  1  0.74151482  0.52012101  0.12392956  1
  O2-  O191  1  0.73982046  0.52308287  0.63008581  1
  O2-  O192  1  0.13800096  0.28420372  0.23514421  1
  O2-  O193  1  0.13574031  0.27478731  0.72058825  1
  O2-  O194  1  0.13332703  0.76810508  0.26262677  1
  O2-  O195  1  0.12558426  0.76264584  0.75555549  1
  O2-  O196  1  0.63560104  0.28471713  0.22992642  1
  O2-  O197  1  0.62312695  0.26660239  0.72977011  1
  O2-  O198  1  0.63452246  0.76578660  0.24942431  1
  O2-  O199  1  0.63116321  0.76405869  0.75095452  1
  O2-  O200  1  0.37240527  0.22683126  0.27426596  1
  O2-  O201  1  0.38694247  0.23297412  0.76967746  1
  O2-  O202  1  0.36374044  0.71272249  0.25178798  1
  O2-  O203  1  0.38404927  0.72130607  0.74652430  1
  O2-  O204  1  0.86586802  0.23594591  0.26899330  1
  O2-  O205  1  0.86494290  0.22957169  0.77736937  1
  O2-  O206  1  0.86357278  0.71559463  0.24857696  1
  O2-  O207  1  0.87532217  0.72218290  0.74346396  1
  O2-  O208  1  0.28185643  0.36834517  0.26492972  1
  O2-  O209  1  0.27361799  0.36692059  0.76947112  1
  O2-  O210  1  0.27531697  0.86278626  0.27760465  1
  O2-  O211  1  0.28158993  0.85685518  0.75708622  1
  O2-  O212  1  0.77339712  0.38839381  0.23415465  1
  O2-  O213  1  0.76525068  0.38752141  0.72900831  1
  O2-  O214  1  0.77390816  0.86268262  0.23918906  1
  O2-  O215  1  0.77320401  0.86078077  0.73471013  1
  O2-  O216  1  0.22814465  0.13357021  0.23614524  1
  O2-  O217  1  0.24122635  0.13356741  0.72779657  1
  O2-  O218  1  0.22164185  0.63275640  0.22800656  1
  O2-  O219  1  0.24249571  0.63388516  0.71843638  1
  O2-  O220  1  0.71896710  0.13568140  0.26627612  1
  O2-  O221  1  0.72099129  0.13681542  0.77427367  1
  O2-  O222  1  0.72673919  0.62295275  0.25987626  1
  O2-  O223  1  0.73097055  0.62636630  0.76321062  1
  O2-  O224  1  0.11249543  0.47582676  0.26064225  1
  O2-  O225  1  0.10982424  0.47127452  0.76298997  1
  O2-  O226  1  0.11257903  0.96551749  0.26923291  1
  O2-  O227  1  0.11502357  0.96885813  0.76565914  1
  O2-  O228  1  0.63109151  0.48026634  0.25047404  1
  O2-  O229  1  0.62965319  0.48673150  0.76316260  1
  O2-  O230  1  0.61801448  0.97688287  0.27285697  1
  O2-  O231  1  0.61448200  0.98394207  0.77963790  1
  O2-  O232  1  0.38099926  0.01621680  0.23247716  1
  O2-  O233  1  0.38600569  0.00503213  0.72714102  1
  O2-  O234  1  0.38732825  0.52632479  0.24068001  1
  O2-  O235  1  0.38922203  0.51788495  0.75001636  1
  O2-  O236  1  0.88137833  0.03307498  0.22680857  1
  O2-  O237  1  0.88365344  0.02425634  0.72964880  1
  O2-  O238  1  0.86681596  0.52842520  0.24463246  1
  O2-  O239  1  0.86692145  0.53086710  0.74941447  1
  O2-  O240  1  0.49166284  0.39048589  0.27629541  1
  O2-  O241  1  0.49425564  0.37606946  0.76536899  1
  O2-  O242  1  0.47830665  0.87987887  0.26886487  1
  O2-  O243  1  0.48806853  0.86213951  0.77001708  1
  O2-  O244  1  0.96561201  0.38902476  0.24771039  1
  O2-  O245  1  0.95714375  0.38825590  0.75958803  1
  O2-  O246  1  0.95936688  0.88385555  0.25000606  1
  O2-  O247  1  0.97662594  0.86244826  0.76067850  1
  O2-  O248  1  0.03068433  0.11682019  0.25166643  1
  O2-  O249  1  0.03186073  0.11903914  0.74898606  1
  O2-  O250  1  0.01463297  0.61658069  0.22895557  1
  O2-  O251  1  0.01922647  0.62426466  0.74536981  1
  O2-  O252  1  0.52476933  0.11627884  0.23404197  1
  O2-  O253  1  0.51812198  0.12545375  0.73025669  1
  O2-  O254  1  0.53432958  0.61298365  0.24211483  1
  O2-  O255  1  0.52716719  0.61859946  0.74025558  1
  O2-  O256  1  0.11997379  0.48777452  -0.01063148  1
  O2-  O257  1  0.13063011  0.48182267  0.49427894  1
  O2-  O258  1  0.13463040  0.96460963  -0.01759534  1
  O2-  O259  1  0.13396930  0.96408488  0.49014434  1
  O2-  O260  1  0.63024558  0.48451482  -0.00692630  1
  O2-  O261  1  0.62221462  0.49159049  0.50257465  1
  O2-  O262  1  0.63273401  0.97351955  -0.02129924  1
  O2-  O263  1  0.63220966  0.96713016  0.47821440  1
  O2-  O264  1  0.36638815  0.02865817  0.02907751  1
  O2-  O265  1  0.36520637  0.01139664  0.52108751  1
  O2-  O266  1  0.38138271  0.52257552  0.00559660  1
  O2-  O267  1  0.38221724  0.51661165  0.50820467  1
  O2-  O268  1  0.86485437  0.02232293  0.02202066  1
  O2-  O269  1  0.86079349  0.00981405  0.52715217  1
  O2-  O270  1  0.87342137  0.52665685  0.00484838  1
  O2-  O271  1  0.85813701  0.53345279  0.50291339  1
  O2-  O272  1  0.48478802  0.38602632  -0.01456280  1
  O2-  O273  1  0.48821247  0.38306648  0.49159401  1
  O2-  O274  1  0.48771201  0.85715787  -0.02904084  1
  O2-  O275  1  0.47605259  0.85769139  0.49528925  1
  O2-  O276  1  0.97300626  0.38623912  -0.00608277  1
  O2-  O277  1  0.96506365  0.36908316  0.49428465  1
  O2-  O278  1  0.97065052  0.86256497  -0.01326194  1
  O2-  O279  1  0.96822516  0.85689839  0.50222907  1
  O2-  O280  1  0.03240309  0.13398061  -0.00591617  1
  O2-  O281  1  0.02263321  0.13315907  0.50600318  1
  O2-  O282  1  0.01333434  0.62406067  0.00207238  1
  O2-  O283  1  0.00554801  0.63506705  0.52970821  1
  O2-  O284  1  0.52881169  0.13638785  0.01276361  1
  O2-  O285  1  0.52005022  0.13315828  0.52806233  1
  O2-  O286  1  0.53119172  0.61809124  0.00667566  1
  O2-  O287  1  0.51102361  0.62110938  0.52569591  1
  O2-  O288  1  0.11799129  0.28910626  0.01460754  1
  O2-  O289  1  0.11690217  0.27922393  0.52260697  1
  O2-  O290  1  0.11275897  0.76148008  -0.01638345  1
  O2-  O291  1  0.12268130  0.76199069  0.49979046  1
  O2-  O292  1  0.61522647  0.28716094  0.00527234  1
  O2-  O293  1  0.61775325  0.27196905  0.53540247  1
  O2-  O294  1  0.63439650  0.75806004  -0.01252499  1
  O2-  O295  1  0.62078222  0.76203300  0.50374837  1
  O2-  O296  1  0.38959678  0.24286145  -0.02802960  1
  O2-  O297  1  0.39002526  0.23859720  0.48406597  1
  O2-  O298  1  0.38930396  0.71292834  -0.00109160  1
  O2-  O299  1  0.37471560  0.72289896  0.50933137  1
  O2-  O300  1  0.88715998  0.23332045  -0.02478720  1
  O2-  O301  1  0.88165895  0.22443098  0.47557131  1
  O2-  O302  1  0.87110355  0.72210989  -0.00298953  1
  O2-  O303  1  0.86684892  0.72306576  0.50042344  1
  O2-  O304  1  0.26964477  0.39032112  -0.02687485  1
  O2-  O305  1  0.27214997  0.38810536  0.47320692  1
  O2-  O306  1  0.29207754  0.88451570  -0.00889166  1
  O2-  O307  1  0.27317088  0.86080476  0.48326678  1
  O2-  O308  1  0.77253486  0.39130992  0.01776641  1
  O2-  O309  1  0.76115296  0.39252975  0.52219557  1
  O2-  O310  1  0.77240022  0.86477809  0.00483021  1
  O2-  O311  1  0.76254191  0.86155050  0.51539881  1
  O2-  O312  1  0.21941067  0.11560777  0.00825803  1
  O2-  O313  1  0.22442317  0.11672092  0.52262747  1
  O2-  O314  1  0.23537318  0.61805485  0.02798770  1
  O2-  O315  1  0.23975886  0.62438720  0.52576012  1
  O2-  O316  1  0.72090865  0.11812174  -0.00940264  1
  O2-  O317  1  0.72062604  0.11741151  0.48608847  1
  O2-  O318  1  0.73515723  0.62414961  -0.01184112  1
  O2-  O319  1  0.71929004  0.62815208  0.48923001  1
