# generated using pymatgen
data_Sr64Ca21Nb43O192
_symmetry_space_group_name_H-M   'P 1'
_cell_length_a   16.57732655
_cell_length_b   16.56785648
_cell_length_c   16.70300745
_cell_angle_alpha   90.03944624
_cell_angle_beta   89.98153350
_cell_angle_gamma   90.08196161
_symmetry_Int_Tables_number   1
_chemical_formula_structural   Sr64Ca21Nb43O192
_chemical_formula_sum   'Sr64 Ca21 Nb43 O192'
_cell_volume   4587.48779105
_cell_formula_units_Z   1
loop_
 _symmetry_equiv_pos_site_id
 _symmetry_equiv_pos_as_xyz
  1  'x, y, z'
loop_
 _atom_type_symbol
 _atom_type_oxidation_number
  Sr2+  2.0
  Ca2+  2.0
  Nb5+  5.0
  O2-  -2.0
loop_
 _atom_site_type_symbol
 _atom_site_label
 _atom_site_symmetry_multiplicity
 _atom_site_fract_x
 _atom_site_fract_y
 _atom_site_fract_z
 _atom_site_occupancy
  Sr2+  Sr0  1  0.12614257  0.13731957  0.12935065  1
  Sr2+  Sr1  1  0.13249878  0.13765005  0.61992130  1
  Sr2+  Sr2  1  0.13872850  0.63191747  0.12540889  1
  Sr2+  Sr3  1  0.13006688  0.62499656  0.62205028  1
  Sr2+  Sr4  1  0.63700659  0.13089172  0.12657587  1
  Sr2+  Sr5  1  0.63161257  0.14199630  0.62961468  1
  Sr2+  Sr6  1  0.62245895  0.62878776  0.12121561  1
  Sr2+  Sr7  1  0.62787525  0.63427341  0.61991779  1
  Sr2+  Sr8  1  0.37595165  0.37991777  0.12124252  1
  Sr2+  Sr9  1  0.38261573  0.38796526  0.62273985  1
  Sr2+  Sr10  1  0.38652086  0.88385473  0.12227958  1
  Sr2+  Sr11  1  0.38395332  0.89799080  0.62493154  1
  Sr2+  Sr12  1  0.88859245  0.37990779  0.12915736  1
  Sr2+  Sr13  1  0.87853124  0.38926621  0.63302338  1
  Sr2+  Sr14  1  0.87858667  0.88691510  0.12586533  1
  Sr2+  Sr15  1  0.87991964  0.87881855  0.61277645  1
  Sr2+  Sr16  1  0.10837318  0.36317452  0.37459247  1
  Sr2+  Sr17  1  0.10853041  0.37108175  0.87019609  1
  Sr2+  Sr18  1  0.13570163  0.87549371  0.37754778  1
  Sr2+  Sr19  1  0.12373448  0.87287369  0.87651389  1
  Sr2+  Sr20  1  0.63465136  0.37297756  0.37943209  1
  Sr2+  Sr21  1  0.62244534  0.37057523  0.87769485  1
  Sr2+  Sr22  1  0.62024276  0.86880035  0.36519478  1
  Sr2+  Sr23  1  0.63206829  0.86518260  0.86810872  1
  Sr2+  Sr24  1  0.36139080  0.11282954  0.38252865  1
  Sr2+  Sr25  1  0.36354802  0.12161956  0.86845038  1
  Sr2+  Sr26  1  0.36170021  0.61903552  0.36887068  1
  Sr2+  Sr27  1  0.36396801  0.62193057  0.87596985  1
  Sr2+  Sr28  1  0.87020113  0.12363853  0.37075253  1
  Sr2+  Sr29  1  0.87426786  0.11407389  0.87318673  1
  Sr2+  Sr30  1  0.87484171  0.62261183  0.38106063  1
  Sr2+  Sr31  1  0.87460865  0.61906447  0.87157633  1
  Sr2+  Sr32  1  0.11713298  0.11739734  0.38434608  1
  Sr2+  Sr33  1  0.11874329  0.10834909  0.86760967  1
  Sr2+  Sr34  1  0.11728813  0.60997715  0.37553390  1
  Sr2+  Sr35  1  0.11647040  0.61445425  0.87219520  1
  Sr2+  Sr36  1  0.62639616  0.12051652  0.37321346  1
  Sr2+  Sr37  1  0.62340418  0.13755194  0.87080384  1
  Sr2+  Sr38  1  0.62193128  0.61134373  0.37232762  1
  Sr2+  Sr39  1  0.62631903  0.61363078  0.87704737  1
  Sr2+  Sr40  1  0.37155554  0.36471168  0.38311965  1
  Sr2+  Sr41  1  0.36920987  0.36187564  0.86996335  1
  Sr2+  Sr42  1  0.37860430  0.87627343  0.37027036  1
  Sr2+  Sr43  1  0.37443268  0.87418130  0.86632107  1
  Sr2+  Sr44  1  0.87263848  0.37999122  0.36979006  1
  Sr2+  Sr45  1  0.86468795  0.36967065  0.87225574  1
  Sr2+  Sr46  1  0.86474824  0.87524598  0.37324690  1
  Sr2+  Sr47  1  0.87472917  0.86873851  0.87999961  1
  Sr2+  Sr48  1  0.13734016  0.37073148  0.13185269  1
  Sr2+  Sr49  1  0.14100876  0.38406601  0.62172748  1
  Sr2+  Sr50  1  0.13635764  0.88608910  0.12390261  1
  Sr2+  Sr51  1  0.13955209  0.88431204  0.62037811  1
  Sr2+  Sr52  1  0.62290546  0.38551072  0.11734712  1
  Sr2+  Sr53  1  0.63102983  0.38426046  0.63255334  1
  Sr2+  Sr54  1  0.63527740  0.87932295  0.12560276  1
  Sr2+  Sr55  1  0.62481835  0.87579870  0.62330512  1
  Sr2+  Sr56  1  0.37740264  0.13257483  0.12313766  1
  Sr2+  Sr57  1  0.37582485  0.13303018  0.62405314  1
  Sr2+  Sr58  1  0.37291258  0.62884900  0.12421376  1
  Sr2+  Sr59  1  0.37421118  0.62705917  0.62191567  1
  Sr2+  Sr60  1  0.88456232  0.12767128  0.12321211  1
  Sr2+  Sr61  1  0.88575987  0.12739037  0.61899238  1
  Sr2+  Sr62  1  0.88909737  0.63791635  0.12789437  1
  Sr2+  Sr63  1  0.89726658  0.63424463  0.62577859  1
  Ca2+  Ca64  1  -0.00093633  -0.00244944  0.49643545  1
  Ca2+  Ca65  1  0.00059416  0.50015100  0.00226309  1
  Ca2+  Ca66  1  0.50430731  -0.00204408  -0.00452834  1
  Ca2+  Ca67  1  -0.00148186  0.49625484  0.50002718  1
  Ca2+  Ca68  1  0.50462919  0.00067570  0.50008004  1
  Ca2+  Ca69  1  0.24536361  0.24822826  -0.00345867  1
  Ca2+  Ca70  1  0.25011272  0.25282585  0.49907089  1
  Ca2+  Ca71  1  0.75186424  0.25010265  0.50182730  1
  Ca2+  Ca72  1  0.75185895  0.24992632  0.00122963  1
  Ca2+  Ca73  1  0.25587608  0.75082137  0.49906849  1
  Ca2+  Ca74  1  0.50234624  0.25308154  0.25012297  1
  Ca2+  Ca75  1  0.25010929  -0.00008596  0.75020484  1
  Ca2+  Ca76  1  0.74883134  0.50456153  0.74845906  1
  Ca2+  Ca77  1  -0.00014767  0.75387678  0.25242422  1
  Ca2+  Ca78  1  0.74984642  0.50318352  0.24601242  1
  Ca2+  Ca79  1  0.00226837  0.75369751  0.74969819  1
  Ca2+  Ca80  1  0.25102018  0.00263425  0.24806966  1
  Ca2+  Ca81  1  0.25071088  0.49682440  0.25152133  1
  Ca2+  Ca82  1  0.74928959  0.00040130  0.75203581  1
  Ca2+  Ca83  1  -0.00026715  0.24883550  0.74968787  1
  Ca2+  Ca84  1  0.25339909  0.50022538  0.75284084  1
  Nb5+  Nb85  1  0.00189710  -0.00137698  0.00125478  1
  Nb5+  Nb86  1  0.49466021  0.50087445  -0.00890147  1
  Nb5+  Nb87  1  0.50086251  0.50185111  0.49273407  1
  Nb5+  Nb88  1  0.25719792  0.75179927  -0.00016457  1
  Nb5+  Nb89  1  0.74884881  0.74952227  0.49403987  1
  Nb5+  Nb90  1  0.75514676  0.74620028  -0.00184506  1
  Nb5+  Nb91  1  -0.00284395  0.24724695  0.24994861  1
  Nb5+  Nb92  1  0.49824505  0.25903197  0.74774780  1
  Nb5+  Nb93  1  0.50022990  0.74881478  0.24360338  1
  Nb5+  Nb94  1  0.49932298  0.75332349  0.74443538  1
  Nb5+  Nb95  1  0.74954315  0.00169568  0.25036198  1
  Nb5+  Nb96  1  0.00049600  -0.00254060  0.25118208  1
  Nb5+  Nb97  1  0.00018279  -0.00470217  0.74112554  1
  Nb5+  Nb98  1  0.00258129  0.50459423  0.24485406  1
  Nb5+  Nb99  1  0.00168110  0.49906837  0.74928947  1
  Nb5+  Nb100  1  0.50210757  0.00619957  0.24597650  1
  Nb5+  Nb101  1  0.50285936  0.01136907  0.75165311  1
  Nb5+  Nb102  1  0.49616465  0.49798554  0.24480461  1
  Nb5+  Nb103  1  0.50444432  0.50938468  0.74368521  1
  Nb5+  Nb104  1  0.25627886  0.24619975  0.25415175  1
  Nb5+  Nb105  1  0.24443549  0.25470332  0.74911177  1
  Nb5+  Nb106  1  0.24795293  0.75675914  0.25035801  1
  Nb5+  Nb107  1  0.24938161  0.75062366  0.74757529  1
  Nb5+  Nb108  1  0.74970231  0.25471811  0.24541645  1
  Nb5+  Nb109  1  0.75592645  0.24763942  0.75153468  1
  Nb5+  Nb110  1  0.74818125  0.74706844  0.24598000  1
  Nb5+  Nb111  1  0.75316195  0.74654810  0.74310966  1
  Nb5+  Nb112  1  -0.00647041  0.25140674  0.50572677  1
  Nb5+  Nb113  1  -0.00146801  0.24921052  0.99729415  1
  Nb5+  Nb114  1  0.00715893  0.75216149  0.49832964  1
  Nb5+  Nb115  1  0.01033687  0.75058496  1.00525334  1
  Nb5+  Nb116  1  0.50826052  0.24886062  0.49726905  1
  Nb5+  Nb117  1  0.49922340  0.24701512  1.00018392  1
  Nb5+  Nb118  1  0.50068833  0.74641694  0.49233445  1
  Nb5+  Nb119  1  0.50480765  0.75025859  0.99407821  1
  Nb5+  Nb120  1  0.25356881  0.00273925  0.00124450  1
  Nb5+  Nb121  1  0.25079331  0.00014949  0.50166431  1
  Nb5+  Nb122  1  0.24787686  0.49591613  -0.00131224  1
  Nb5+  Nb123  1  0.24806324  0.49939680  0.49554599  1
  Nb5+  Nb124  1  0.74874840  -0.00094526  -0.00197100  1
  Nb5+  Nb125  1  0.74270131  0.00169263  0.50483204  1
  Nb5+  Nb126  1  0.75559087  0.50184027  0.00670686  1
  Nb5+  Nb127  1  0.75265600  0.50249984  0.50314229  1
  O2-  O128  1  0.00828218  -0.02161070  0.12416664  1
  O2-  O129  1  0.01076158  -0.03264235  0.63071382  1
  O2-  O130  1  0.02107609  0.46594738  0.13375045  1
  O2-  O131  1  0.01504393  0.46913573  0.63272198  1
  O2-  O132  1  0.52089402  -0.02281750  0.13263811  1
  O2-  O133  1  0.52509213  -0.01211905  0.63687288  1
  O2-  O134  1  0.51215832  0.49540397  0.12764704  1
  O2-  O135  1  0.52220260  0.49909682  0.62851340  1
  O2-  O136  1  -0.01793789  0.02291605  0.36225521  1
  O2-  O137  1  -0.01445735  0.01590059  0.88591359  1
  O2-  O138  1  -0.02626255  0.51130446  0.36185023  1
  O2-  O139  1  -0.01320031  0.52570225  0.86859437  1
  O2-  O140  1  0.48422507  0.00257851  0.36303255  1
  O2-  O141  1  0.46539397  0.00589476  0.86505593  1
  O2-  O142  1  0.48349921  0.51440150  0.37883528  1
  O2-  O143  1  0.48184919  0.51513714  0.87709913  1
  O2-  O144  1  0.25908585  0.21944260  0.13457349  1
  O2-  O145  1  0.26262117  0.22542002  0.63408982  1
  O2-  O146  1  0.25878511  0.72957255  0.12222320  1
  O2-  O147  1  0.25580147  0.72131603  0.63656763  1
  O2-  O148  1  0.76472118  0.22092904  0.13340250  1
  O2-  O149  1  0.76904399  0.22609063  0.63561904  1
  O2-  O150  1  0.75510772  0.73976017  0.12768181  1
  O2-  O151  1  0.75550970  0.74502339  0.62604530  1
  O2-  O152  1  0.23693151  0.28491228  0.36452629  1
  O2-  O153  1  0.23403912  0.28545211  0.86553087  1
  O2-  O154  1  0.25552140  0.78073441  0.36357904  1
  O2-  O155  1  0.24849971  0.77526615  0.88433899  1
  O2-  O156  1  0.72831873  0.24807147  0.36236618  1
  O2-  O157  1  0.72648964  0.26549698  0.86831729  1
  O2-  O158  1  0.73575380  0.76269422  0.37658187  1
  O2-  O159  1  0.73922779  0.75317267  0.88285925  1
  O2-  O160  1  -0.02482333  0.25467911  0.12807923  1
  O2-  O161  1  -0.03405102  0.26625477  0.61652712  1
  O2-  O162  1  -0.02637584  0.76787800  0.11624207  1
  O2-  O163  1  -0.02133201  0.76593105  0.61447466  1
  O2-  O164  1  0.47149669  0.25815263  0.11292377  1
  O2-  O165  1  0.47785207  0.25399010  0.62978498  1
  O2-  O166  1  0.49086589  0.75140790  0.12551383  1
  O2-  O167  1  0.49043476  0.74526224  0.62808581  1
  O2-  O168  1  0.27270984  -0.02191749  0.38216546  1
  O2-  O169  1  0.26014383  -0.03062168  0.88820036  1
  O2-  O170  1  0.28717999  0.48659069  0.38465589  1
  O2-  O171  1  0.28742748  0.49184725  0.88852244  1
  O2-  O172  1  0.76869572  -0.00461958  0.36855449  1
  O2-  O173  1  0.77992376  -0.01236467  0.88811126  1
  O2-  O174  1  0.76367443  0.50297381  0.38349880  1
  O2-  O175  1  0.76218100  0.50444543  0.88838509  1
  O2-  O176  1  0.01313004  0.22701579  0.36537397  1
  O2-  O177  1  0.02835102  0.23074191  0.88701901  1
  O2-  O178  1  0.00392909  0.71963708  0.38382073  1
  O2-  O179  1  0.00772205  0.73591469  0.88897190  1
  O2-  O180  1  0.53440218  0.25794541  0.38496067  1
  O2-  O181  1  0.52017100  0.25455765  0.87036798  1
  O2-  O182  1  0.51989397  0.74336136  0.37635539  1
  O2-  O183  1  0.51722826  0.74296802  0.87718897  1
  O2-  O184  1  0.21797934  0.01444061  0.11383535  1
  O2-  O185  1  0.22210158  0.01639382  0.61789303  1
  O2-  O186  1  0.24111932  0.52535074  0.11388651  1
  O2-  O187  1  0.23940471  0.52280354  0.61463078  1
  O2-  O188  1  0.73293364  0.00088831  0.12685509  1
  O2-  O189  1  0.72214110  -0.00600181  0.61742597  1
  O2-  O190  1  0.71127414  0.50860689  0.11556090  1
  O2-  O191  1  0.71514935  0.51192505  0.61449086  1
  O2-  O192  1  0.11458401  0.26071172  0.23343403  1
  O2-  O193  1  0.13272414  0.27520158  0.72661925  1
  O2-  O194  1  0.13478016  0.77916970  0.23827483  1
  O2-  O195  1  0.13821030  0.78077914  0.74444689  1
  O2-  O196  1  0.63530120  0.27303435  0.22053976  1
  O2-  O197  1  0.61764163  0.26655092  0.73086271  1
  O2-  O198  1  0.62245182  0.77306246  0.23772695  1
  O2-  O199  1  0.61917616  0.77072050  0.73906451  1
  O2-  O200  1  0.36860992  0.22375093  0.27213601  1
  O2-  O201  1  0.38369659  0.23310493  0.76998579  1
  O2-  O202  1  0.38366969  0.73147739  0.25843308  1
  O2-  O203  1  0.38523462  0.72596562  0.76599673  1
  O2-  O204  1  0.87324775  0.22732100  0.26320030  1
  O2-  O205  1  0.86634025  0.23393594  0.78192856  1
  O2-  O206  1  0.86078104  0.72722892  0.26396941  1
  O2-  O207  1  0.86417565  0.72243022  0.76059253  1
  O2-  O208  1  0.26324986  0.36299024  0.21900413  1
  O2-  O209  1  0.28327103  0.36656482  0.72989963  1
  O2-  O210  1  0.27898232  0.86778179  0.22121675  1
  O2-  O211  1  0.28817581  0.86185876  0.73796543  1
  O2-  O212  1  0.77750840  0.36645304  0.24160324  1
  O2-  O213  1  0.76258464  0.36708854  0.73342715  1
  O2-  O214  1  0.76158134  0.87276485  0.24309320  1
  O2-  O215  1  0.75886648  0.86247475  0.75857794  1
  O2-  O216  1  0.22274672  0.13409484  0.27818944  1
  O2-  O217  1  0.23969923  0.13716034  0.77865873  1
  O2-  O218  1  0.23251446  0.63899243  0.26658610  1
  O2-  O219  1  0.23911133  0.63839299  0.78474107  1
  O2-  O220  1  0.72770186  0.11706290  0.25714032  1
  O2-  O221  1  0.72086420  0.13327356  0.76273154  1
  O2-  O222  1  0.71708777  0.63673200  0.25771968  1
  O2-  O223  1  0.71533905  0.63717640  0.76034027  1
  O2-  O224  1  0.11596084  0.48005300  0.27717207  1
  O2-  O225  1  0.12015475  0.48025795  0.76887146  1
  O2-  O226  1  0.11313744  0.97647186  0.26305841  1
  O2-  O227  1  0.11494741  0.97785086  0.77338463  1
  O2-  O228  1  0.61030802  0.48074228  0.27296920  1
  O2-  O229  1  0.61335798  0.48050858  0.77677104  1
  O2-  O230  1  0.62906823  0.97873099  0.26406651  1
  O2-  O231  1  0.61290201  0.98452826  0.78482872  1
  O2-  O232  1  0.38781502  0.02208550  0.22597812  1
  O2-  O233  1  0.38491079  0.01807907  0.72323829  1
  O2-  O234  1  0.38545859  0.53669159  0.24023206  1
  O2-  O235  1  0.38895824  0.52139549  0.73296378  1
  O2-  O236  1  0.86631189  0.01504448  0.22953729  1
  O2-  O237  1  0.88428683  0.02898721  0.73572996  1
  O2-  O238  1  0.88412793  0.51387264  0.21916749  1
  O2-  O239  1  0.88268474  0.52160650  0.72874699  1
  O2-  O240  1  0.46449653  0.38744005  0.25493181  1
  O2-  O241  1  0.48338991  0.37737879  0.75209500  1
  O2-  O242  1  0.48602121  0.86777704  0.25947565  1
  O2-  O243  1  0.48238720  0.86813140  0.75373226  1
  O2-  O244  1  0.97895984  0.36385164  0.26323584  1
  O2-  O245  1  0.97610728  0.38292130  0.77695573  1
  O2-  O246  1  0.96528226  0.88623156  0.26126578  1
  O2-  O247  1  0.97101681  0.88461480  0.77393074  1
  O2-  O248  1  0.00601299  0.11969797  0.22610938  1
  O2-  O249  1  0.02770943  0.11409196  0.73334721  1
  O2-  O250  1  0.02305472  0.61710578  0.22593935  1
  O2-  O251  1  0.02575818  0.61807204  0.72878296  1
  O2-  O252  1  0.53301304  0.11734239  0.23956677  1
  O2-  O253  1  0.52061847  0.12815211  0.74635406  1
  O2-  O254  1  0.52528943  0.63072536  0.24548927  1
  O2-  O255  1  0.52566276  0.62546856  0.74796117  1
  O2-  O256  1  0.13583971  0.48895928  -0.02820975  1
  O2-  O257  1  0.13524754  0.47932677  0.47658985  1
  O2-  O258  1  0.11828636  0.97839611  -0.01303589  1
  O2-  O259  1  0.13247660  0.97937375  0.47779884  1
  O2-  O260  1  0.61421403  0.48711516  -0.01664526  1
  O2-  O261  1  0.62081961  0.48544091  0.47893520  1
  O2-  O262  1  0.63890034  0.96304418  -0.01410438  1
  O2-  O263  1  0.63492071  0.96726968  0.47185119  1
  O2-  O264  1  0.36608686  0.01280063  0.02718497  1
  O2-  O265  1  0.36993572  0.02236075  0.51971741  1
  O2-  O266  1  0.38046870  0.52152823  0.02043481  1
  O2-  O267  1  0.38699091  0.51959545  0.52160653  1
  O2-  O268  1  0.87399859  0.00598430  0.02283083  1
  O2-  O269  1  0.86104267  0.01142805  0.51640407  1
  O2-  O270  1  0.86447023  0.53133397  0.02528924  1
  O2-  O271  1  0.86348170  0.52812220  0.52362582  1
  O2-  O272  1  0.47613269  0.38427859  -0.00752603  1
  O2-  O273  1  0.48495180  0.38355653  0.49830269  1
  O2-  O274  1  0.47558438  0.86138576  -0.00795469  1
  O2-  O275  1  0.47961831  0.86021751  0.49842997  1
  O2-  O276  1  0.97394044  0.36243411  -0.01602534  1
  O2-  O277  1  0.97912320  0.36355652  0.46860547  1
  O2-  O278  1  0.98351648  0.87406827  -0.01262014  1
  O2-  O279  1  0.96907453  0.86248086  0.47619159  1
  O2-  O280  1  0.01549282  0.11471551  0.02120330  1
  O2-  O281  1  0.01963408  0.13283120  0.51731545  1
  O2-  O282  1  0.02060091  0.63598638  0.02679590  1
  O2-  O283  1  0.01827103  0.63220020  0.52145754  1
  O2-  O284  1  0.52650541  0.13480060  0.00622957  1
  O2-  O285  1  0.52963384  0.13594487  0.50654201  1
  O2-  O286  1  0.51297859  0.62669213  0.00779817  1
  O2-  O287  1  0.52729611  0.62278804  0.50711178  1
  O2-  O288  1  0.11186761  0.25969177  0.03161363  1
  O2-  O289  1  0.11294565  0.27237264  0.51514596  1
  O2-  O290  1  0.12570554  0.77131110  0.01566044  1
  O2-  O291  1  0.11865865  0.77877378  0.50601145  1
  O2-  O292  1  0.61276136  0.28227650  0.01114397  1
  O2-  O293  1  0.61772394  0.27802651  0.53320868  1
  O2-  O294  1  0.62067179  0.76530208  0.01308218  1
  O2-  O295  1  0.62450537  0.76459817  0.51729966  1
  O2-  O296  1  0.38462056  0.23626119  -0.03002968  1
  O2-  O297  1  0.39069397  0.23750847  0.48002410  1
  O2-  O298  1  0.37476489  0.73034486  -0.00700733  1
  O2-  O299  1  0.38986127  0.71561652  0.48922902  1
  O2-  O300  1  0.88481596  0.21461580  -0.01388302  1
  O2-  O301  1  0.88143183  0.22141814  0.47714662  1
  O2-  O302  1  0.86869120  0.72619634  -0.00986353  1
  O2-  O303  1  0.86296240  0.72572168  0.49262539  1
  O2-  O304  1  0.26273354  0.38451156  0.02362752  1
  O2-  O305  1  0.27405629  0.38613003  0.52297403  1
  O2-  O306  1  0.26363639  0.86958384  0.02596146  1
  O2-  O307  1  0.26940109  0.88269079  0.52834225  1
  O2-  O308  1  0.77289829  0.38696196  0.01429999  1
  O2-  O309  1  0.76931805  0.38720095  0.50703023  1
  O2-  O310  1  0.76766619  0.86398557  0.01533448  1
  O2-  O311  1  0.76771116  0.86764800  0.50538542  1
  O2-  O312  1  0.23698339  0.11273691  -0.02943256  1
  O2-  O313  1  0.23563698  0.11812451  0.47745355  1
  O2-  O314  1  0.23189188  0.63463054  -0.01679600  1
  O2-  O315  1  0.23430315  0.61816636  0.47395408  1
  O2-  O316  1  0.72411791  0.11113766  -0.00798594  1
  O2-  O317  1  0.71984164  0.11373319  0.49381611  1
  O2-  O318  1  0.72232918  0.63059336  -0.00005968  1
  O2-  O319  1  0.72343236  0.63117010  0.49014056  1
