# generated using pymatgen
data_Sr64Ca21Nb43O192
_symmetry_space_group_name_H-M   'P 1'
_cell_length_a   16.54481774
_cell_length_b   16.57920148
_cell_length_c   16.69878532
_cell_angle_alpha   90.05288751
_cell_angle_beta   90.04929906
_cell_angle_gamma   90.10051679
_symmetry_Int_Tables_number   1
_chemical_formula_structural   Sr64Ca21Nb43O192
_chemical_formula_sum   'Sr64 Ca21 Nb43 O192'
_cell_volume   4580.46388447
_cell_formula_units_Z   1
loop_
 _symmetry_equiv_pos_site_id
 _symmetry_equiv_pos_as_xyz
  1  'x, y, z'
loop_
 _atom_type_symbol
 _atom_type_oxidation_number
  Sr2+  2.0
  Ca2+  2.0
  Nb5+  5.0
  O2-  -2.0
loop_
 _atom_site_type_symbol
 _atom_site_label
 _atom_site_symmetry_multiplicity
 _atom_site_fract_x
 _atom_site_fract_y
 _atom_site_fract_z
 _atom_site_occupancy
  Sr2+  Sr0  1  0.13221528  0.11539740  0.12578739  1
  Sr2+  Sr1  1  0.12895243  0.11155889  0.61431437  1
  Sr2+  Sr2  1  0.12775580  0.62537442  0.12000537  1
  Sr2+  Sr3  1  0.12506912  0.63044771  0.63619936  1
  Sr2+  Sr4  1  0.63574914  0.11058583  0.12463433  1
  Sr2+  Sr5  1  0.63055073  0.10923595  0.62887623  1
  Sr2+  Sr6  1  0.62476108  0.62519994  0.12107427  1
  Sr2+  Sr7  1  0.62722021  0.62931002  0.62120604  1
  Sr2+  Sr8  1  0.37728418  0.37003401  0.12568459  1
  Sr2+  Sr9  1  0.38520975  0.36518223  0.62478973  1
  Sr2+  Sr10  1  0.38713405  0.85931792  0.12690293  1
  Sr2+  Sr11  1  0.37700524  0.86501278  0.62773312  1
  Sr2+  Sr12  1  0.88080664  0.36939507  0.12477113  1
  Sr2+  Sr13  1  0.88391022  0.35603730  0.62666246  1
  Sr2+  Sr14  1  0.88917131  0.86692487  0.13101024  1
  Sr2+  Sr15  1  0.88313852  0.86592036  0.61700156  1
  Sr2+  Sr16  1  0.10403271  0.37995391  0.37139025  1
  Sr2+  Sr17  1  0.11781080  0.38053892  0.87418616  1
  Sr2+  Sr18  1  0.11537179  0.88393210  0.37018669  1
  Sr2+  Sr19  1  0.12462453  0.87673832  0.86477895  1
  Sr2+  Sr20  1  0.61039864  0.38306446  0.37522676  1
  Sr2+  Sr21  1  0.63006134  0.37726982  0.87564464  1
  Sr2+  Sr22  1  0.61525407  0.87656743  0.37800945  1
  Sr2+  Sr23  1  0.61259206  0.88586898  0.87500540  1
  Sr2+  Sr24  1  0.37558175  0.12992484  0.36953520  1
  Sr2+  Sr25  1  0.37132177  0.12928848  0.86541911  1
  Sr2+  Sr26  1  0.36553003  0.62775924  0.37512209  1
  Sr2+  Sr27  1  0.36595250  0.62286834  0.88118860  1
  Sr2+  Sr28  1  0.87029620  0.13254057  0.38851755  1
  Sr2+  Sr29  1  0.85634745  0.13363260  0.87225285  1
  Sr2+  Sr30  1  0.85896325  0.62800306  0.37282782  1
  Sr2+  Sr31  1  0.87001025  0.62720205  0.86929073  1
  Sr2+  Sr32  1  0.11519450  0.14156727  0.37382139  1
  Sr2+  Sr33  1  0.12801557  0.12706362  0.87637431  1
  Sr2+  Sr34  1  0.12164533  0.63234755  0.36640289  1
  Sr2+  Sr35  1  0.11066304  0.63128010  0.87203919  1
  Sr2+  Sr36  1  0.60937353  0.13674094  0.37152835  1
  Sr2+  Sr37  1  0.61973292  0.13736554  0.87402252  1
  Sr2+  Sr38  1  0.61775389  0.63383992  0.37599729  1
  Sr2+  Sr39  1  0.61584354  0.63620857  0.87651447  1
  Sr2+  Sr40  1  0.37179618  0.37489438  0.38242258  1
  Sr2+  Sr41  1  0.37222877  0.36753992  0.87637440  1
  Sr2+  Sr42  1  0.37239220  0.88687743  0.37264988  1
  Sr2+  Sr43  1  0.36662409  0.88709519  0.86841903  1
  Sr2+  Sr44  1  0.87507635  0.37929899  0.37679728  1
  Sr2+  Sr45  1  0.87390059  0.37154631  0.87249226  1
  Sr2+  Sr46  1  0.86585109  0.88463421  0.37992748  1
  Sr2+  Sr47  1  0.87393496  0.89263223  0.87288651  1
  Sr2+  Sr48  1  0.12648966  0.37482547  0.12582355  1
  Sr2+  Sr49  1  0.12624122  0.36925426  0.60407998  1
  Sr2+  Sr50  1  0.12848949  0.87265890  0.12821918  1
  Sr2+  Sr51  1  0.12739045  0.86960334  0.62652437  1
  Sr2+  Sr52  1  0.63448547  0.37189700  0.12969133  1
  Sr2+  Sr53  1  0.62951291  0.37755329  0.61844540  1
  Sr2+  Sr54  1  0.63658813  0.86610706  0.11851977  1
  Sr2+  Sr55  1  0.64147966  0.86662748  0.62362712  1
  Sr2+  Sr56  1  0.38891764  0.11611197  0.12479268  1
  Sr2+  Sr57  1  0.38898974  0.11750562  0.62228646  1
  Sr2+  Sr58  1  0.36744384  0.61876453  0.12194129  1
  Sr2+  Sr59  1  0.38935825  0.61646498  0.62993821  1
  Sr2+  Sr60  1  0.88812495  0.11747463  0.12019116  1
  Sr2+  Sr61  1  0.88988652  0.11649926  0.62491456  1
  Sr2+  Sr62  1  0.86157686  0.62168514  0.12592690  1
  Sr2+  Sr63  1  0.87535135  0.62703493  0.62647743  1
  Ca2+  Ca64  1  0.00272755  -0.00461046  0.49921543  1
  Ca2+  Ca65  1  -0.00036447  0.50520595  0.50150906  1
  Ca2+  Ca66  1  0.49810072  0.00331244  -0.00059770  1
  Ca2+  Ca67  1  0.00248720  -0.00082917  -0.00006146  1
  Ca2+  Ca68  1  0.49939309  -0.00180638  0.50031601  1
  Ca2+  Ca69  1  0.25115662  0.75223723  0.49728762  1
  Ca2+  Ca70  1  0.25052058  0.24857807  0.49862765  1
  Ca2+  Ca71  1  0.75319820  0.74983753  -0.00333692  1
  Ca2+  Ca72  1  0.24887107  0.75248820  -0.00164388  1
  Ca2+  Ca73  1  0.74718270  0.25178637  0.49950370  1
  Ca2+  Ca74  1  0.50153417  0.74906070  0.74995168  1
  Ca2+  Ca75  1  0.49919505  0.25208457  0.74917420  1
  Ca2+  Ca76  1  0.49964652  0.25213436  0.24496714  1
  Ca2+  Ca77  1  0.25084236  0.50019032  0.75079511  1
  Ca2+  Ca78  1  0.75272271  -0.00127905  0.74891108  1
  Ca2+  Ca79  1  0.74891099  0.49966248  0.74963181  1
  Ca2+  Ca80  1  0.00247864  0.24706084  0.75279557  1
  Ca2+  Ca81  1  0.00072587  0.74679746  0.25096623  1
  Ca2+  Ca82  1  -0.00476661  0.24934501  0.24609262  1
  Ca2+  Ca83  1  0.50063440  0.74632227  0.24932232  1
  Ca2+  Ca84  1  0.75088036  0.00146480  0.25240404  1
  Nb5+  Nb85  1  0.49831293  0.50162845  0.50378589  1
  Nb5+  Nb86  1  0.49821516  0.49722050  0.00636915  1
  Nb5+  Nb87  1  -0.00775212  0.50155137  0.00062941  1
  Nb5+  Nb88  1  0.75341409  0.24734141  0.00433436  1
  Nb5+  Nb89  1  0.25418677  0.24660805  0.00465615  1
  Nb5+  Nb90  1  0.75107444  0.74949204  0.49893369  1
  Nb5+  Nb91  1  0.25135706  0.00252374  0.74041453  1
  Nb5+  Nb92  1  -0.00177782  0.75196488  0.75010393  1
  Nb5+  Nb93  1  0.24473507  0.50053059  0.25128482  1
  Nb5+  Nb94  1  0.74161068  0.49755272  0.25200808  1
  Nb5+  Nb95  1  0.25101254  0.00667135  0.24546218  1
  Nb5+  Nb96  1  -0.00445724  0.00356937  0.25544882  1
  Nb5+  Nb97  1  0.00327587  0.00295359  0.75243979  1
  Nb5+  Nb98  1  -0.00824572  0.50441478  0.24904797  1
  Nb5+  Nb99  1  0.00077204  0.49817683  0.74853497  1
  Nb5+  Nb100  1  0.50618179  -0.00544076  0.24591339  1
  Nb5+  Nb101  1  0.50319975  -0.00220615  0.74704635  1
  Nb5+  Nb102  1  0.49256426  0.50281687  0.25429929  1
  Nb5+  Nb103  1  0.50048294  0.49948738  0.76056498  1
  Nb5+  Nb104  1  0.25109093  0.25590211  0.25013703  1
  Nb5+  Nb105  1  0.24354913  0.24966020  0.74430467  1
  Nb5+  Nb106  1  0.25358126  0.75961898  0.24850161  1
  Nb5+  Nb107  1  0.25284851  0.74676590  0.74946872  1
  Nb5+  Nb108  1  0.74887200  0.24785457  0.25223865  1
  Nb5+  Nb109  1  0.74424968  0.24817786  0.74382006  1
  Nb5+  Nb110  1  0.75185679  0.75303589  0.24923879  1
  Nb5+  Nb111  1  0.75192802  0.75522261  0.75716236  1
  Nb5+  Nb112  1  -0.00222549  0.25055484  0.50121790  1
  Nb5+  Nb113  1  0.00795686  0.25011649  0.99980198  1
  Nb5+  Nb114  1  0.00103749  0.74427163  0.49293064  1
  Nb5+  Nb115  1  -0.00296112  0.75208375  0.99738617  1
  Nb5+  Nb116  1  0.50386916  0.24746807  0.50342729  1
  Nb5+  Nb117  1  0.50710444  0.25186690  1.00270481  1
  Nb5+  Nb118  1  0.49564010  0.75001167  0.49969188  1
  Nb5+  Nb119  1  0.49757663  0.75394497  0.99370266  1
  Nb5+  Nb120  1  0.25319016  -0.00216909  -0.00177422  1
  Nb5+  Nb121  1  0.25031247  0.00021350  0.48866611  1
  Nb5+  Nb122  1  0.24438007  0.49456350  -0.00080136  1
  Nb5+  Nb123  1  0.24816540  0.50414765  0.50162798  1
  Nb5+  Nb124  1  0.75450048  -0.00674409  0.00386310  1
  Nb5+  Nb125  1  0.74614843  0.00681935  0.49605682  1
  Nb5+  Nb126  1  0.74487644  0.49620183  0.00103203  1
  Nb5+  Nb127  1  0.75195810  0.50353039  0.50336758  1
  O2-  O128  1  -0.01698844  -0.01720479  0.13670755  1
  O2-  O129  1  -0.01133370  -0.02475227  0.63803704  1
  O2-  O130  1  0.00147614  0.48224015  0.12321158  1
  O2-  O131  1  0.01934579  0.48092100  0.63734232  1
  O2-  O132  1  0.46902094  -0.01644204  0.13308921  1
  O2-  O133  1  0.46792692  -0.01729742  0.63400660  1
  O2-  O134  1  0.49729139  0.48128995  0.12291500  1
  O2-  O135  1  0.49119732  0.48468955  0.61801077  1
  O2-  O136  1  0.03427555  0.01356055  0.36699896  1
  O2-  O137  1  0.03597800  0.00388069  0.86712376  1
  O2-  O138  1  0.00694390  0.51728357  0.36336720  1
  O2-  O139  1  -0.01418948  0.52071564  0.88482755  1
  O2-  O140  1  0.51828811  0.01568005  0.36407566  1
  O2-  O141  1  0.51379450  0.02514647  0.86456280  1
  O2-  O142  1  0.50309951  0.51940264  0.37016950  1
  O2-  O143  1  0.51028445  0.51448467  0.87652879  1
  O2-  O144  1  0.21905413  0.24409583  0.12317472  1
  O2-  O145  1  0.21245504  0.23829807  0.63521393  1
  O2-  O146  1  0.21960710  0.74411885  0.13308384  1
  O2-  O147  1  0.22050863  0.74837962  0.63414749  1
  O2-  O148  1  0.71778942  0.24059396  0.11910381  1
  O2-  O149  1  0.71404094  0.23812583  0.63399062  1
  O2-  O150  1  0.73116852  0.73170290  0.13520186  1
  O2-  O151  1  0.73890664  0.72975939  0.61802734  1
  O2-  O152  1  0.27926749  0.25442818  0.36234835  1
  O2-  O153  1  0.27083334  0.25368105  0.88793483  1
  O2-  O154  1  0.28698600  0.75952203  0.36213481  1
  O2-  O155  1  0.26858335  0.77280551  0.86399250  1
  O2-  O156  1  0.77940025  0.26410770  0.36227334  1
  O2-  O157  1  0.76470987  0.26904750  0.88791954  1
  O2-  O158  1  0.77383451  0.75929094  0.37729832  1
  O2-  O159  1  0.78297762  0.77288978  0.86554521  1
  O2-  O160  1  0.00730091  0.28311022  0.11219094  1
  O2-  O161  1  0.01515059  0.27306722  0.61953652  1
  O2-  O162  1  0.01646532  0.76450422  0.11278045  1
  O2-  O163  1  0.00993671  0.77146075  0.63269979  1
  O2-  O164  1  0.50632591  0.29162327  0.11245084  1
  O2-  O165  1  0.51540186  0.28427437  0.61621274  1
  O2-  O166  1  0.52450894  0.76404511  0.11067551  1
  O2-  O167  1  0.52898512  0.76260590  0.61344338  1
  O2-  O168  1  0.23882213  -0.01972833  0.37331378  1
  O2-  O169  1  0.23609698  -0.01171019  0.88245719  1
  O2-  O170  1  0.25984432  0.48014065  0.36488247  1
  O2-  O171  1  0.26060008  0.47528436  0.88803406  1
  O2-  O172  1  0.73443450  -0.03366811  0.38390928  1
  O2-  O173  1  0.73785850  -0.02797324  0.88626754  1
  O2-  O174  1  0.74965499  0.47953227  0.36991652  1
  O2-  O175  1  0.75697474  0.47432536  0.88872723  1
  O2-  O176  1  -0.02206543  0.23655841  0.38199632  1
  O2-  O177  1  -0.02933836  0.23834342  0.88945455  1
  O2-  O178  1  -0.01415418  0.71098964  0.38477473  1
  O2-  O179  1  -0.01558309  0.72688757  0.87127895  1
  O2-  O180  1  0.48336624  0.23535440  0.38342211  1
  O2-  O181  1  0.47465965  0.23819334  0.88983416  1
  O2-  O182  1  0.48961291  0.71776078  0.38541751  1
  O2-  O183  1  0.48403962  0.71427822  0.88188939  1
  O2-  O184  1  0.26576880  0.02073008  0.13111894  1
  O2-  O185  1  0.26447895  0.02184541  0.62865007  1
  O2-  O186  1  0.25163921  0.50535386  0.12685381  1
  O2-  O187  1  0.24730720  0.53164146  0.61343523  1
  O2-  O188  1  0.76708951  0.03029224  0.11779359  1
  O2-  O189  1  0.76606687  0.02821591  0.61386167  1
  O2-  O190  1  0.74381836  0.51702608  0.12862392  1
  O2-  O191  1  0.74405143  0.52971526  0.61443412  1
  O2-  O192  1  0.13415328  0.26746801  0.26861736  1
  O2-  O193  1  0.13525785  0.25611965  0.79188789  1
  O2-  O194  1  0.13781140  0.76207164  0.27966413  1
  O2-  O195  1  0.12044963  0.76267422  0.76626129  1
  O2-  O196  1  0.63576124  0.28551546  0.26092401  1
  O2-  O197  1  0.63151590  0.26476396  0.78245370  1
  O2-  O198  1  0.63723718  0.76153552  0.27715471  1
  O2-  O199  1  0.63777396  0.77410024  0.76983781  1
  O2-  O200  1  0.36241308  0.23203947  0.21701758  1
  O2-  O201  1  0.35875466  0.22275923  0.73751179  1
  O2-  O202  1  0.36556641  0.72960012  0.21812145  1
  O2-  O203  1  0.36558713  0.73671298  0.72218576  1
  O2-  O204  1  0.85938070  0.23620405  0.21205023  1
  O2-  O205  1  0.86404370  0.22531986  0.73335946  1
  O2-  O206  1  0.86654023  0.71973240  0.23889627  1
  O2-  O207  1  0.87943371  0.73395648  0.73291975  1
  O2-  O208  1  0.26850567  0.37348275  0.23449341  1
  O2-  O209  1  0.26388458  0.36363443  0.73792750  1
  O2-  O210  1  0.26918695  0.87589687  0.23308429  1
  O2-  O211  1  0.26475775  0.88115920  0.73786769  1
  O2-  O212  1  0.77175444  0.38358605  0.23058236  1
  O2-  O213  1  0.77373238  0.36396792  0.73890879  1
  O2-  O214  1  0.77529586  0.86477210  0.23319983  1
  O2-  O215  1  0.77165307  0.86533616  0.71724149  1
  O2-  O216  1  0.23116759  0.12233600  0.26223791  1
  O2-  O217  1  0.23036053  0.11787476  0.76755141  1
  O2-  O218  1  0.23559423  0.61710814  0.25914184  1
  O2-  O219  1  0.23280071  0.63591836  0.77216404  1
  O2-  O220  1  0.71901525  0.13689370  0.26417975  1
  O2-  O221  1  0.73225725  0.13231358  0.77710704  1
  O2-  O222  1  0.73477137  0.61633305  0.26777456  1
  O2-  O223  1  0.73792762  0.63695309  0.77077011  1
  O2-  O224  1  0.13061119  0.47705369  0.24748732  1
  O2-  O225  1  0.11541419  0.50184939  0.78099627  1
  O2-  O226  1  0.13509890  0.97757675  0.23563337  1
  O2-  O227  1  0.13216679  0.97793201  0.73469609  1
  O2-  O228  1  0.62559868  0.47939483  0.24900387  1
  O2-  O229  1  0.61389138  0.46440451  0.74507277  1
  O2-  O230  1  0.61762219  0.97241527  0.22411774  1
  O2-  O231  1  0.61629808  0.97855942  0.72855011  1
  O2-  O232  1  0.36744874  0.01418692  0.27145436  1
  O2-  O233  1  0.36659375  0.01327826  0.76961922  1
  O2-  O234  1  0.37625603  0.52098621  0.24620990  1
  O2-  O235  1  0.38421846  0.53427105  0.75666399  1
  O2-  O236  1  0.88459044  0.02669105  0.27850016  1
  O2-  O237  1  0.88966449  0.01659829  0.77506062  1
  O2-  O238  1  0.87552951  0.52218026  0.24709561  1
  O2-  O239  1  0.88572384  0.52497746  0.74695411  1
  O2-  O240  1  0.47955020  0.38683207  0.26805611  1
  O2-  O241  1  0.46245663  0.38647438  0.75978671  1
  O2-  O242  1  0.47782766  0.88011836  0.26830854  1
  O2-  O243  1  0.48023894  0.88299641  0.77500511  1
  O2-  O244  1  0.98282152  0.38625193  0.26379756  1
  O2-  O245  1  0.98702283  0.38511614  0.77406657  1
  O2-  O246  1  0.98480537  0.88232950  0.27121379  1
  O2-  O247  1  0.98901514  0.86955644  0.77428769  1
  O2-  O248  1  0.02448574  0.11678207  0.22953887  1
  O2-  O249  1  0.02569535  0.11362821  0.72993825  1
  O2-  O250  1  0.03033841  0.61329840  0.22859370  1
  O2-  O251  1  0.01611740  0.63008878  0.73875085  1
  O2-  O252  1  0.51519949  0.11558828  0.22927476  1
  O2-  O253  1  0.51027056  0.11699478  0.72382511  1
  O2-  O254  1  0.52411074  0.61230106  0.22784079  1
  O2-  O255  1  0.52818740  0.61235906  0.72976068  1
  O2-  O256  1  0.12655477  0.47915366  0.00086893  1
  O2-  O257  1  0.13624956  0.47683880  0.49004786  1
  O2-  O258  1  0.13833569  0.98796416  0.02835070  1
  O2-  O259  1  0.13813160  0.97296321  0.52065524  1
  O2-  O260  1  0.62578928  0.47773590  0.00638107  1
  O2-  O261  1  0.62241901  0.48713759  0.49637295  1
  O2-  O262  1  0.63432373  0.98611930  0.02022437  1
  O2-  O263  1  0.63360905  0.97737657  0.52409913  1
  O2-  O264  1  0.36302657  0.03924128  -0.01120566  1
  O2-  O265  1  0.36531677  0.03515618  0.48491491  1
  O2-  O266  1  0.37840388  0.50982466  0.00404558  1
  O2-  O267  1  0.38040914  0.52413007  0.49179936  1
  O2-  O268  1  0.86750782  0.02642686  -0.02083228  1
  O2-  O269  1  0.86629923  0.01084368  0.48097116  1
  O2-  O270  1  0.87377385  0.50936533  0.01446236  1
  O2-  O271  1  0.86442771  0.52656102  0.49010476  1
  O2-  O272  1  0.48716199  0.38159251  -0.02481328  1
  O2-  O273  1  0.48440420  0.38584068  0.47857739  1
  O2-  O274  1  0.47742996  0.86616031  -0.02591552  1
  O2-  O275  1  0.48585968  0.86281816  0.47455662  1
  O2-  O276  1  0.98842486  0.38210937  -0.02070733  1
  O2-  O277  1  0.97396011  0.37081971  0.48845991  1
  O2-  O278  1  0.96906616  0.86324281  -0.01465408  1
  O2-  O279  1  0.97299929  0.85922784  0.48554626  1
  O2-  O280  1  0.01781580  0.13736599  0.02242845  1
  O2-  O281  1  0.01734069  0.13213792  0.51605683  1
  O2-  O282  1  0.02492797  0.61557739  0.01260192  1
  O2-  O283  1  0.01305376  0.63604365  0.53901726  1
  O2-  O284  1  0.51691558  0.14026320  0.02898181  1
  O2-  O285  1  0.52649595  0.13551947  0.52095529  1
  O2-  O286  1  0.52077566  0.61317847  0.01209124  1
  O2-  O287  1  0.52028217  0.62028936  0.51530861  1
  O2-  O288  1  0.12204542  0.26893486  -0.01876296  1
  O2-  O289  1  0.11549835  0.27473461  0.47792049  1
  O2-  O290  1  0.11327243  0.76095699  -0.02930230  1
  O2-  O291  1  0.11455725  0.76626841  0.47815719  1
  O2-  O292  1  0.62095271  0.26778377  -0.01823288  1
  O2-  O293  1  0.61627434  0.27871995  0.47764562  1
  O2-  O294  1  0.61816805  0.76379542  -0.02840412  1
  O2-  O295  1  0.63154519  0.76067634  0.48064341  1
  O2-  O296  1  0.36841594  0.23975706  0.02612468  1
  O2-  O297  1  0.38505609  0.24046270  0.52437907  1
  O2-  O298  1  0.38424726  0.72575188  0.01983397  1
  O2-  O299  1  0.38566204  0.72983248  0.52770136  1
  O2-  O300  1  0.86825152  0.23837355  0.02280935  1
  O2-  O301  1  0.87915511  0.22917756  0.52577250  1
  O2-  O302  1  0.88589117  0.71110851  0.00933726  1
  O2-  O303  1  0.87074698  0.72732675  0.51271248  1
  O2-  O304  1  0.26080515  0.37125533  0.02023066  1
  O2-  O305  1  0.27804983  0.38892782  0.51387308  1
  O2-  O306  1  0.28087175  0.88819057  0.01796057  1
  O2-  O307  1  0.28417622  0.88764851  0.51231321  1
  O2-  O308  1  0.75925193  0.37400564  0.02583839  1
  O2-  O309  1  0.76662251  0.38904410  0.52176234  1
  O2-  O310  1  0.77465999  0.88244614  0.03190776  1
  O2-  O311  1  0.76628128  0.86546074  0.51656434  1
  O2-  O312  1  0.22464049  0.13160981  -0.00312517  1
  O2-  O313  1  0.21738765  0.11574901  0.48461067  1
  O2-  O314  1  0.23826621  0.61102966  -0.00821044  1
  O2-  O315  1  0.23856093  0.61572347  0.46261990  1
  O2-  O316  1  0.73050480  0.13298192  -0.01715326  1
  O2-  O317  1  0.72659020  0.11708025  0.46755791  1
  O2-  O318  1  0.73190441  0.61100972  -0.01447778  1
  O2-  O319  1  0.73114536  0.62530741  0.47449617  1
