# generated using pymatgen
data_Sr64Ca21Nb43O192
_symmetry_space_group_name_H-M   'P 1'
_cell_length_a   16.58317441
_cell_length_b   16.55353622
_cell_length_c   16.71332401
_cell_angle_alpha   89.97868308
_cell_angle_beta   90.05868297
_cell_angle_gamma   90.05666445
_symmetry_Int_Tables_number   1
_chemical_formula_structural   Sr64Ca21Nb43O192
_chemical_formula_sum   'Sr64 Ca21 Nb43 O192'
_cell_volume   4587.97258778
_cell_formula_units_Z   1
loop_
 _symmetry_equiv_pos_site_id
 _symmetry_equiv_pos_as_xyz
  1  'x, y, z'
loop_
 _atom_type_symbol
 _atom_type_oxidation_number
  Sr2+  2.0
  Ca2+  2.0
  Nb5+  5.0
  O2-  -2.0
loop_
 _atom_site_type_symbol
 _atom_site_label
 _atom_site_symmetry_multiplicity
 _atom_site_fract_x
 _atom_site_fract_y
 _atom_site_fract_z
 _atom_site_occupancy
  Sr2+  Sr0  1  0.13448543  0.11089682  0.13063939  1
  Sr2+  Sr1  1  0.13486723  0.10985672  0.62866659  1
  Sr2+  Sr2  1  0.13288280  0.61436980  0.12696285  1
  Sr2+  Sr3  1  0.13253127  0.61868504  0.62410058  1
  Sr2+  Sr4  1  0.62430528  0.12113372  0.13341916  1
  Sr2+  Sr5  1  0.62598031  0.11941462  0.62971792  1
  Sr2+  Sr6  1  0.62301349  0.62155502  0.14228185  1
  Sr2+  Sr7  1  0.62447505  0.61931045  0.62534093  1
  Sr2+  Sr8  1  0.37463381  0.35583032  0.12623125  1
  Sr2+  Sr9  1  0.38124667  0.36628530  0.62489012  1
  Sr2+  Sr10  1  0.37450983  0.89339921  0.12187115  1
  Sr2+  Sr11  1  0.36887636  0.88779606  0.62678410  1
  Sr2+  Sr12  1  0.87966432  0.36305827  0.11875516  1
  Sr2+  Sr13  1  0.87748590  0.36696389  0.62360115  1
  Sr2+  Sr14  1  0.87198218  0.86817462  0.13586701  1
  Sr2+  Sr15  1  0.88181034  0.86722210  0.62417526  1
  Sr2+  Sr16  1  0.10841753  0.38465472  0.36925058  1
  Sr2+  Sr17  1  0.11456696  0.37625439  0.87125456  1
  Sr2+  Sr18  1  0.11102090  0.87730155  0.37981102  1
  Sr2+  Sr19  1  0.11879408  0.87293833  0.87710593  1
  Sr2+  Sr20  1  0.61634986  0.37707142  0.36756405  1
  Sr2+  Sr21  1  0.63022274  0.38112254  0.87212057  1
  Sr2+  Sr22  1  0.63272806  0.88057439  0.37231536  1
  Sr2+  Sr23  1  0.62569648  0.88050722  0.87237559  1
  Sr2+  Sr24  1  0.38647430  0.13354284  0.37260501  1
  Sr2+  Sr25  1  0.37990807  0.13557874  0.87815815  1
  Sr2+  Sr26  1  0.38661428  0.63176253  0.37607695  1
  Sr2+  Sr27  1  0.38171797  0.63751724  0.88078644  1
  Sr2+  Sr28  1  0.87483126  0.12889321  0.36152618  1
  Sr2+  Sr29  1  0.87917061  0.12858569  0.86963148  1
  Sr2+  Sr30  1  0.86882357  0.63488406  0.37442767  1
  Sr2+  Sr31  1  0.86594529  0.63013333  0.87873570  1
  Sr2+  Sr32  1  0.11574717  0.13630295  0.36532341  1
  Sr2+  Sr33  1  0.11969795  0.13696709  0.87351861  1
  Sr2+  Sr34  1  0.12624521  0.62385363  0.37149056  1
  Sr2+  Sr35  1  0.12233519  0.62943320  0.88078495  1
  Sr2+  Sr36  1  0.63728095  0.14508424  0.37300911  1
  Sr2+  Sr37  1  0.63176572  0.13136687  0.87529812  1
  Sr2+  Sr38  1  0.61905304  0.64221727  0.37896184  1
  Sr2+  Sr39  1  0.62398538  0.62257191  0.87546352  1
  Sr2+  Sr40  1  0.38382928  0.38746970  0.37413599  1
  Sr2+  Sr41  1  0.36638369  0.37599938  0.87743768  1
  Sr2+  Sr42  1  0.37087484  0.88367017  0.38527554  1
  Sr2+  Sr43  1  0.37911308  0.88591033  0.88879254  1
  Sr2+  Sr44  1  0.86952487  0.37829048  0.37384725  1
  Sr2+  Sr45  1  0.86904733  0.37795479  0.87779249  1
  Sr2+  Sr46  1  0.86617250  0.88593977  0.37330130  1
  Sr2+  Sr47  1  0.86970249  0.87925703  0.87329889  1
  Sr2+  Sr48  1  0.14115078  0.37460988  0.12910730  1
  Sr2+  Sr49  1  0.13719437  0.36901793  0.62408355  1
  Sr2+  Sr50  1  0.13767155  0.86906294  0.12987243  1
  Sr2+  Sr51  1  0.13712552  0.86439519  0.62467055  1
  Sr2+  Sr52  1  0.61080938  0.36175928  0.12982052  1
  Sr2+  Sr53  1  0.62273926  0.36577751  0.62055824  1
  Sr2+  Sr54  1  0.61897302  0.86658909  0.13326066  1
  Sr2+  Sr55  1  0.61188639  0.87650785  0.62883515  1
  Sr2+  Sr56  1  0.37777550  0.12137551  0.11677872  1
  Sr2+  Sr57  1  0.38241612  0.11976519  0.61718555  1
  Sr2+  Sr58  1  0.37272682  0.62786996  0.12657039  1
  Sr2+  Sr59  1  0.38191685  0.62445939  0.62094691  1
  Sr2+  Sr60  1  0.88364708  0.11044299  0.12357551  1
  Sr2+  Sr61  1  0.87808371  0.12442727  0.62042381  1
  Sr2+  Sr62  1  0.88536802  0.62321820  0.12478442  1
  Sr2+  Sr63  1  0.87834844  0.62477162  0.62623505  1
  Ca2+  Ca64  1  -0.00204141  -0.00294463  -0.00016081  1
  Ca2+  Ca65  1  -0.00216359  0.00475433  0.50084338  1
  Ca2+  Ca66  1  0.49783766  0.49870978  -0.00143567  1
  Ca2+  Ca67  1  0.50725091  0.00003084  0.00028123  1
  Ca2+  Ca68  1  0.50494089  0.00021141  0.49370966  1
  Ca2+  Ca69  1  0.75109392  0.24565184  0.00232859  1
  Ca2+  Ca70  1  0.75025706  0.25096087  0.50230891  1
  Ca2+  Ca71  1  0.24900944  0.25343136  0.49857464  1
  Ca2+  Ca72  1  0.75093235  0.75180726  0.00156476  1
  Ca2+  Ca73  1  0.75007705  0.75486935  0.50414785  1
  Ca2+  Ca74  1  0.50337853  0.24886790  0.74962868  1
  Ca2+  Ca75  1  0.00258723  0.75049655  0.25099696  1
  Ca2+  Ca76  1  0.00063304  0.25232061  0.24429437  1
  Ca2+  Ca77  1  0.24907645  -0.00155226  0.75241832  1
  Ca2+  Ca78  1  0.24809925  0.50253722  0.75216044  1
  Ca2+  Ca79  1  0.25087143  0.49909818  0.25280425  1
  Ca2+  Ca80  1  0.25072693  -0.00236845  0.25433770  1
  Ca2+  Ca81  1  0.49494388  0.75393343  0.24839610  1
  Ca2+  Ca82  1  0.74991834  0.49955615  0.25115321  1
  Ca2+  Ca83  1  0.49757564  0.75079784  0.74989728  1
  Ca2+  Ca84  1  0.49823412  0.24489583  0.24968352  1
  Nb5+  Nb85  1  0.00227617  0.50316239  0.49933926  1
  Nb5+  Nb86  1  0.50731975  0.49988077  0.50187278  1
  Nb5+  Nb87  1  0.00155585  0.50071289  -0.00771513  1
  Nb5+  Nb88  1  0.25072847  0.74626416  0.50524814  1
  Nb5+  Nb89  1  0.24661703  0.25192691  -0.00148619  1
  Nb5+  Nb90  1  0.25007703  0.75114685  0.00548269  1
  Nb5+  Nb91  1  0.75340016  0.00377235  0.74605192  1
  Nb5+  Nb92  1  0.00255656  0.24772936  0.74657543  1
  Nb5+  Nb93  1  0.00264588  0.74270718  0.74916727  1
  Nb5+  Nb94  1  0.75147922  0.50541453  0.75091608  1
  Nb5+  Nb95  1  0.75009404  0.00115799  0.24450135  1
  Nb5+  Nb96  1  0.00301120  -0.00293677  0.24810633  1
  Nb5+  Nb97  1  0.00066612  -0.00862182  0.74853387  1
  Nb5+  Nb98  1  -0.00565231  0.49945478  0.23800607  1
  Nb5+  Nb99  1  -0.00372607  0.49478175  0.74441255  1
  Nb5+  Nb100  1  0.49725529  -0.00041993  0.25267836  1
  Nb5+  Nb101  1  0.49695306  0.00277760  0.75138530  1
  Nb5+  Nb102  1  0.49725146  0.50163901  0.24407714  1
  Nb5+  Nb103  1  0.49840483  0.50001601  0.75230494  1
  Nb5+  Nb104  1  0.25250061  0.24990647  0.25841668  1
  Nb5+  Nb105  1  0.25345335  0.24433545  0.74607247  1
  Nb5+  Nb106  1  0.25136355  0.74997103  0.26114782  1
  Nb5+  Nb107  1  0.25252307  0.74464699  0.75628895  1
  Nb5+  Nb108  1  0.75441552  0.25591259  0.24477851  1
  Nb5+  Nb109  1  0.75321017  0.25674615  0.75245984  1
  Nb5+  Nb110  1  0.74739157  0.74709429  0.25310750  1
  Nb5+  Nb111  1  0.74932514  0.75709909  0.74973288  1
  Nb5+  Nb112  1  0.00175571  0.25020846  0.50063163  1
  Nb5+  Nb113  1  0.00462992  0.24764809  1.00303440  1
  Nb5+  Nb114  1  -0.00116886  0.74822215  0.49999140  1
  Nb5+  Nb115  1  0.00058870  0.75086420  1.00177440  1
  Nb5+  Nb116  1  0.50214624  0.24798165  0.49696542  1
  Nb5+  Nb117  1  0.50486037  0.25192404  0.99221833  1
  Nb5+  Nb118  1  0.49828394  0.75659129  0.50132566  1
  Nb5+  Nb119  1  0.50503930  0.75001937  0.99590203  1
  Nb5+  Nb120  1  0.24540993  0.00601589  -0.00412515  1
  Nb5+  Nb121  1  0.24493344  0.00658502  0.49465060  1
  Nb5+  Nb122  1  0.24982798  0.50357038  -0.00455087  1
  Nb5+  Nb123  1  0.25691595  0.50070773  0.50200355  1
  Nb5+  Nb124  1  0.75047672  -0.00288302  -0.00363588  1
  Nb5+  Nb125  1  0.75042372  0.00390533  0.49550079  1
  Nb5+  Nb126  1  0.74839728  0.50104963  0.00676401  1
  Nb5+  Nb127  1  0.75457151  0.50023764  0.50009540  1
  O2-  O128  1  -0.03008524  -0.01960114  0.13404227  1
  O2-  O129  1  -0.03595871  -0.00440206  0.63721409  1
  O2-  O130  1  -0.02516499  0.48483469  0.12388253  1
  O2-  O131  1  -0.02905672  0.48954598  0.63156420  1
  O2-  O132  1  0.49640618  0.03115912  0.13379415  1
  O2-  O133  1  0.49913488  0.02423350  0.63049181  1
  O2-  O134  1  0.48125877  0.52344266  0.13234545  1
  O2-  O135  1  0.48498159  0.51591596  0.62114690  1
  O2-  O136  1  0.01398167  0.02560426  0.36576520  1
  O2-  O137  1  0.01556438  0.02301465  0.86119985  1
  O2-  O138  1  0.01549032  0.51856113  0.38692941  1
  O2-  O139  1  0.01749911  0.51529776  0.87634420  1
  O2-  O140  1  0.50734428  -0.04347625  0.36331972  1
  O2-  O141  1  0.51289901  -0.02773185  0.86445276  1
  O2-  O142  1  0.51367470  0.48573775  0.38399076  1
  O2-  O143  1  0.52671691  0.48417780  0.86298651  1
  O2-  O144  1  0.22200391  0.23782661  0.11192094  1
  O2-  O145  1  0.22380561  0.23631341  0.63434810  1
  O2-  O146  1  0.23167884  0.73822309  0.11883116  1
  O2-  O147  1  0.23827394  0.73306114  0.62203771  1
  O2-  O148  1  0.71809413  0.24903817  0.13216758  1
  O2-  O149  1  0.73797030  0.23418483  0.64009689  1
  O2-  O150  1  0.72257761  0.74551754  0.13505185  1
  O2-  O151  1  0.74416287  0.72514149  0.63783851  1
  O2-  O152  1  0.28510565  0.26196234  0.36666405  1
  O2-  O153  1  0.26447804  0.25492180  0.87538052  1
  O2-  O154  1  0.26088271  0.75506312  0.37783893  1
  O2-  O155  1  0.25955045  0.75623943  0.87317428  1
  O2-  O156  1  0.77589039  0.24954457  0.36540504  1
  O2-  O157  1  0.78003373  0.24731873  0.86798743  1
  O2-  O158  1  0.77321330  0.76258581  0.37023141  1
  O2-  O159  1  0.77712352  0.75818675  0.86356218  1
  O2-  O160  1  0.01987295  0.28595673  0.11023155  1
  O2-  O161  1  0.01230060  0.28168785  0.63437505  1
  O2-  O162  1  0.01430350  0.77618033  0.11182009  1
  O2-  O163  1  0.01460779  0.76725890  0.62751827  1
  O2-  O164  1  0.51488219  0.23193952  0.11073310  1
  O2-  O165  1  0.52858170  0.23821195  0.61480506  1
  O2-  O166  1  0.51355597  0.72331969  0.11126353  1
  O2-  O167  1  0.50806304  0.72724240  0.61484412  1
  O2-  O168  1  0.23133751  -0.03409511  0.38535882  1
  O2-  O169  1  0.23011614  -0.02681476  0.88396959  1
  O2-  O170  1  0.22379391  0.48385574  0.39049849  1
  O2-  O171  1  0.21091184  0.48823898  0.88550446  1
  O2-  O172  1  0.74067047  -0.00553156  0.37764436  1
  O2-  O173  1  0.73897129  -0.01341957  0.87688712  1
  O2-  O174  1  0.74043554  0.47194991  0.38987385  1
  O2-  O175  1  0.74399342  0.48128729  0.86958761  1
  O2-  O176  1  -0.01292813  0.23318286  0.38718725  1
  O2-  O177  1  -0.00956445  0.23900458  0.87194661  1
  O2-  O178  1  0.00003971  0.71655673  0.38849804  1
  O2-  O179  1  -0.00550605  0.72512091  0.86651826  1
  O2-  O180  1  0.47669388  0.27261011  0.38271025  1
  O2-  O181  1  0.46696522  0.26918632  0.87940643  1
  O2-  O182  1  0.47643926  0.75442044  0.38547062  1
  O2-  O183  1  0.46833643  0.76631671  0.88055226  1
  O2-  O184  1  0.26842014  0.01048805  0.11454074  1
  O2-  O185  1  0.27258947  0.01170707  0.61362378  1
  O2-  O186  1  0.26255155  0.51146767  0.11251202  1
  O2-  O187  1  0.25874101  0.53007759  0.61734563  1
  O2-  O188  1  0.76485963  0.00527928  0.12904081  1
  O2-  O189  1  0.76666925  0.01461806  0.63198329  1
  O2-  O190  1  0.76635168  0.52808725  0.11647478  1
  O2-  O191  1  0.77027750  0.51903068  0.63446329  1
  O2-  O192  1  0.13362855  0.27028329  0.27413163  1
  O2-  O193  1  0.11856153  0.26915518  0.76629404  1
  O2-  O194  1  0.13566189  0.78289392  0.26157702  1
  O2-  O195  1  0.11808803  0.77280941  0.75974126  1
  O2-  O196  1  0.63529889  0.26618699  0.27035970  1
  O2-  O197  1  0.64012671  0.26543407  0.77606417  1
  O2-  O198  1  0.63098848  0.77258629  0.27205598  1
  O2-  O199  1  0.63623280  0.77160029  0.76266553  1
  O2-  O200  1  0.36339702  0.22456064  0.22033781  1
  O2-  O201  1  0.36592718  0.22171622  0.73166708  1
  O2-  O202  1  0.36357323  0.71343512  0.24355646  1
  O2-  O203  1  0.36192904  0.71353621  0.74184251  1
  O2-  O204  1  0.86693040  0.22458712  0.21950889  1
  O2-  O205  1  0.88141102  0.23908410  0.73514794  1
  O2-  O206  1  0.86548884  0.73539235  0.22829295  1
  O2-  O207  1  0.88379530  0.74297174  0.73282270  1
  O2-  O208  1  0.26357633  0.36383249  0.22421897  1
  O2-  O209  1  0.26659758  0.36412296  0.74310368  1
  O2-  O210  1  0.28199054  0.86140076  0.23471162  1
  O2-  O211  1  0.25955179  0.85978560  0.72981654  1
  O2-  O212  1  0.78268318  0.36810686  0.23839566  1
  O2-  O213  1  0.77368328  0.37399637  0.74298231  1
  O2-  O214  1  0.76693738  0.87946563  0.24761177  1
  O2-  O215  1  0.77177103  0.87341562  0.73536014  1
  O2-  O216  1  0.22257685  0.13311508  0.25860898  1
  O2-  O217  1  0.21984486  0.13170975  0.76641094  1
  O2-  O218  1  0.21729405  0.63414672  0.25367213  1
  O2-  O219  1  0.20848674  0.63571275  0.75864870  1
  O2-  O220  1  0.73462766  0.12008357  0.25516920  1
  O2-  O221  1  0.74313319  0.11988589  0.76361925  1
  O2-  O222  1  0.72722689  0.63318584  0.27094563  1
  O2-  O223  1  0.74111674  0.62190304  0.76963376  1
  O2-  O224  1  0.11205476  0.47961108  0.23945500  1
  O2-  O225  1  0.10996839  0.48278320  0.72981511  1
  O2-  O226  1  0.11612926  0.97954490  0.22803406  1
  O2-  O227  1  0.11247387  0.98425498  0.72208343  1
  O2-  O228  1  0.61540035  0.47389975  0.23429978  1
  O2-  O229  1  0.63857711  0.48214065  0.73172428  1
  O2-  O230  1  0.63259002  0.98178361  0.23986727  1
  O2-  O231  1  0.63777207  0.97913199  0.73984205  1
  O2-  O232  1  0.38417840  0.02060715  0.26630800  1
  O2-  O233  1  0.38415020  0.02228291  0.76451103  1
  O2-  O234  1  0.38409019  0.51493249  0.27970661  1
  O2-  O235  1  0.38606972  0.51659747  0.77157000  1
  O2-  O236  1  0.86950437  0.01388677  0.26626862  1
  O2-  O237  1  0.87150003  0.00637717  0.77508269  1
  O2-  O238  1  0.88460952  0.52692795  0.27331992  1
  O2-  O239  1  0.87790034  0.51735239  0.77134416  1
  O2-  O240  1  0.47854410  0.38138095  0.23560773  1
  O2-  O241  1  0.49769603  0.38522898  0.72330034  1
  O2-  O242  1  0.49153771  0.88558810  0.21211113  1
  O2-  O243  1  0.49001060  0.88530096  0.72019908  1
  O2-  O244  1  0.97819655  0.38604073  0.27416519  1
  O2-  O245  1  0.98127249  0.38049772  0.77002173  1
  O2-  O246  1  0.98148306  0.88337563  0.27952131  1
  O2-  O247  1  0.98613923  0.87616888  0.76662650  1
  O2-  O248  1  0.01340738  0.11698048  0.22525774  1
  O2-  O249  1  0.01287046  0.13247174  0.73163570  1
  O2-  O250  1  0.01768539  0.61661643  0.22524961  1
  O2-  O251  1  0.01168459  0.62566600  0.73138391  1
  O2-  O252  1  0.52628689  0.11258106  0.28123797  1
  O2-  O253  1  0.53335862  0.11498815  0.76640065  1
  O2-  O254  1  0.52621977  0.61560575  0.26698740  1
  O2-  O255  1  0.53326809  0.61367494  0.75201579  1
  O2-  O256  1  0.11716297  0.48763971  0.02612412  1
  O2-  O257  1  0.11492027  0.48830782  0.52515369  1
  O2-  O258  1  0.13281189  0.97852511  0.02312857  1
  O2-  O259  1  0.13234101  0.97767371  0.52574382  1
  O2-  O260  1  0.63608157  0.47674365  0.01611642  1
  O2-  O261  1  0.62140572  0.48733263  0.52326364  1
  O2-  O262  1  0.63906822  0.95682283  0.01313118  1
  O2-  O263  1  0.63760092  0.96637850  0.51458816  1
  O2-  O264  1  0.36481290  0.01088066  -0.02020480  1
  O2-  O265  1  0.36472214  0.01845421  0.47550804  1
  O2-  O266  1  0.36053004  0.50704513  -0.03447976  1
  O2-  O267  1  0.37138011  0.51576428  0.48363938  1
  O2-  O268  1  0.86478946  0.03806040  -0.01304821  1
  O2-  O269  1  0.86460810  0.04286438  0.48708091  1
  O2-  O270  1  0.88542231  0.52276559  -0.01150981  1
  O2-  O271  1  0.87084097  0.52412878  0.49037539  1
  O2-  O272  1  0.47484183  0.36565742  0.01668144  1
  O2-  O273  1  0.48085628  0.38384101  0.51422856  1
  O2-  O274  1  0.47321481  0.86295937  0.01585117  1
  O2-  O275  1  0.46856767  0.86614231  0.51901215  1
  O2-  O276  1  0.98877051  0.38258077  -0.02343264  1
  O2-  O277  1  0.97384998  0.38770316  0.49076124  1
  O2-  O278  1  0.99077408  0.86092837  -0.03584417  1
  O2-  O279  1  0.98598596  0.86307877  0.48239139  1
  O2-  O280  1  0.02782437  0.13633516  0.01777278  1
  O2-  O281  1  0.02539197  0.14186711  0.52992969  1
  O2-  O282  1  0.02269492  0.62430736  0.01188240  1
  O2-  O283  1  0.01050496  0.62083273  0.53082159  1
  O2-  O284  1  0.50585153  0.13469203  -0.03157485  1
  O2-  O285  1  0.51362082  0.13545005  0.47200688  1
  O2-  O286  1  0.50480962  0.63159305  -0.03145413  1
  O2-  O287  1  0.50933986  0.62037747  0.48732920  1
  O2-  O288  1  0.12585799  0.26539706  -0.02865966  1
  O2-  O289  1  0.11261313  0.29024659  0.49053955  1
  O2-  O290  1  0.12816954  0.75726255  -0.02022089  1
  O2-  O291  1  0.12700242  0.76131548  0.49472680  1
  O2-  O292  1  0.61652639  0.27208203  -0.02743056  1
  O2-  O293  1  0.61651294  0.28036349  0.48029661  1
  O2-  O294  1  0.61642916  0.76588075  -0.02744118  1
  O2-  O295  1  0.61293841  0.77228302  0.48699547  1
  O2-  O296  1  0.36243332  0.23157966  0.01242111  1
  O2-  O297  1  0.38468937  0.24089648  0.52755808  1
  O2-  O298  1  0.36336599  0.72374022  0.00934591  1
  O2-  O299  1  0.36789151  0.72347440  0.50870689  1
  O2-  O300  1  0.88975610  0.23553958  0.01535542  1
  O2-  O301  1  0.88656727  0.24739751  0.52773851  1
  O2-  O302  1  0.88859593  0.72398470  0.00977735  1
  O2-  O303  1  0.88598979  0.72997447  0.51830109  1
  O2-  O304  1  0.25807347  0.37173174  0.00714126  1
  O2-  O305  1  0.26329752  0.38818491  0.52993754  1
  O2-  O306  1  0.26508695  0.86678450  0.01067750  1
  O2-  O307  1  0.26753040  0.86324876  0.51436928  1
  O2-  O308  1  0.78369183  0.38719651  0.00508877  1
  O2-  O309  1  0.75860127  0.38796456  0.53486791  1
  O2-  O310  1  0.79429260  0.88499045  0.00803568  1
  O2-  O311  1  0.78821096  0.89009749  0.51147405  1
  O2-  O312  1  0.22853627  0.12299680  -0.01667217  1
  O2-  O313  1  0.21942054  0.11800536  0.47880423  1
  O2-  O314  1  0.23166609  0.62216492  -0.01147714  1
  O2-  O315  1  0.22800073  0.62536563  0.48513252  1
  O2-  O316  1  0.71114753  0.11076103  0.00357277  1
  O2-  O317  1  0.71301798  0.11682315  0.50353536  1
  O2-  O318  1  0.74038065  0.61355879  -0.02900423  1
  O2-  O319  1  0.72262518  0.61412179  0.49297588  1
