# generated using pymatgen
data_Sr64Ca21Nb43O192
_symmetry_space_group_name_H-M   'P 1'
_cell_length_a   16.55591872
_cell_length_b   16.55865411
_cell_length_c   16.70478443
_cell_angle_alpha   89.97580212
_cell_angle_beta   90.01423065
_cell_angle_gamma   90.08234476
_symmetry_Int_Tables_number   1
_chemical_formula_structural   Sr64Ca21Nb43O192
_chemical_formula_sum   'Sr64 Ca21 Nb43 O192'
_cell_volume   4579.50666113
_cell_formula_units_Z   1
loop_
 _symmetry_equiv_pos_site_id
 _symmetry_equiv_pos_as_xyz
  1  'x, y, z'
loop_
 _atom_type_symbol
 _atom_type_oxidation_number
  Sr2+  2.0
  Ca2+  2.0
  Nb5+  5.0
  O2-  -2.0
loop_
 _atom_site_type_symbol
 _atom_site_label
 _atom_site_symmetry_multiplicity
 _atom_site_fract_x
 _atom_site_fract_y
 _atom_site_fract_z
 _atom_site_occupancy
  Sr2+  Sr0  1  0.11377906  0.11256752  0.13003105  1
  Sr2+  Sr1  1  0.11891300  0.10882975  0.62509448  1
  Sr2+  Sr2  1  0.12282590  0.61497865  0.12093979  1
  Sr2+  Sr3  1  0.11365111  0.62925014  0.62760825  1
  Sr2+  Sr4  1  0.63568915  0.10394555  0.12217096  1
  Sr2+  Sr5  1  0.63514293  0.11551833  0.62250517  1
  Sr2+  Sr6  1  0.62299630  0.62603883  0.12555701  1
  Sr2+  Sr7  1  0.62843723  0.62559441  0.62513581  1
  Sr2+  Sr8  1  0.37376204  0.38178621  0.12170470  1
  Sr2+  Sr9  1  0.37177311  0.36764180  0.62144099  1
  Sr2+  Sr10  1  0.37630859  0.87158878  0.13090860  1
  Sr2+  Sr11  1  0.37390430  0.87627380  0.63035234  1
  Sr2+  Sr12  1  0.88252723  0.37122450  0.12786820  1
  Sr2+  Sr13  1  0.87820598  0.37660399  0.62213245  1
  Sr2+  Sr14  1  0.87178527  0.89712572  0.12182302  1
  Sr2+  Sr15  1  0.88239746  0.88440394  0.62589043  1
  Sr2+  Sr16  1  0.12591722  0.37087862  0.37025638  1
  Sr2+  Sr17  1  0.12217755  0.37570553  0.87720452  1
  Sr2+  Sr18  1  0.13000913  0.88000128  0.38027363  1
  Sr2+  Sr19  1  0.13653953  0.88083148  0.87672865  1
  Sr2+  Sr20  1  0.62736564  0.37721235  0.37653871  1
  Sr2+  Sr21  1  0.62940607  0.36984366  0.87332099  1
  Sr2+  Sr22  1  0.62925727  0.87061535  0.36581223  1
  Sr2+  Sr23  1  0.62308420  0.87038275  0.87767868  1
  Sr2+  Sr24  1  0.35880932  0.12862146  0.38014547  1
  Sr2+  Sr25  1  0.37286506  0.12557381  0.86844886  1
  Sr2+  Sr26  1  0.37974096  0.62389530  0.37187591  1
  Sr2+  Sr27  1  0.37480507  0.62844647  0.87301568  1
  Sr2+  Sr28  1  0.86010694  0.13241883  0.37265123  1
  Sr2+  Sr29  1  0.86206714  0.13573664  0.88518630  1
  Sr2+  Sr30  1  0.88261941  0.63012628  0.37807059  1
  Sr2+  Sr31  1  0.89728420  0.62258238  0.87418096  1
  Sr2+  Sr32  1  0.11862116  0.12875505  0.36991281  1
  Sr2+  Sr33  1  0.12618161  0.11816801  0.87386618  1
  Sr2+  Sr34  1  0.12878099  0.63002709  0.37956268  1
  Sr2+  Sr35  1  0.12987995  0.63869324  0.88106320  1
  Sr2+  Sr36  1  0.62524549  0.10789603  0.38000060  1
  Sr2+  Sr37  1  0.62057672  0.11274577  0.87530489  1
  Sr2+  Sr38  1  0.61482862  0.63086055  0.37348626  1
  Sr2+  Sr39  1  0.61778213  0.62149087  0.87148560  1
  Sr2+  Sr40  1  0.37754635  0.38140191  0.37880903  1
  Sr2+  Sr41  1  0.38739135  0.36047780  0.87323915  1
  Sr2+  Sr42  1  0.38721348  0.89092489  0.36819977  1
  Sr2+  Sr43  1  0.37747948  0.88557629  0.87448664  1
  Sr2+  Sr44  1  0.87387999  0.37332180  0.36888370  1
  Sr2+  Sr45  1  0.88123943  0.37653669  0.87606994  1
  Sr2+  Sr46  1  0.87838262  0.87922081  0.37815798  1
  Sr2+  Sr47  1  0.85967584  0.88661844  0.87387823  1
  Sr2+  Sr48  1  0.12041043  0.37389159  0.12839654  1
  Sr2+  Sr49  1  0.12936450  0.37452712  0.62793327  1
  Sr2+  Sr50  1  0.12593949  0.86575951  0.12169073  1
  Sr2+  Sr51  1  0.11468978  0.86909458  0.62614265  1
  Sr2+  Sr52  1  0.63787775  0.38804701  0.12193688  1
  Sr2+  Sr53  1  0.63458621  0.37740875  0.62175915  1
  Sr2+  Sr54  1  0.64463922  0.86396531  0.12438824  1
  Sr2+  Sr55  1  0.64492056  0.86556131  0.62347516  1
  Sr2+  Sr56  1  0.36669461  0.11932627  0.14281327  1
  Sr2+  Sr57  1  0.36440270  0.12088946  0.62348648  1
  Sr2+  Sr58  1  0.36412177  0.62781948  0.12594045  1
  Sr2+  Sr59  1  0.36851943  0.62214302  0.62579679  1
  Sr2+  Sr60  1  0.87541552  0.12921822  0.13091288  1
  Sr2+  Sr61  1  0.87479007  0.12677884  0.61505427  1
  Sr2+  Sr62  1  0.86681829  0.61606079  0.12538813  1
  Sr2+  Sr63  1  0.88469988  0.62681274  0.62868409  1
  Ca2+  Ca64  1  0.00075925  0.00262399  0.49711637  1
  Ca2+  Ca65  1  0.49738969  -0.00118501  0.00328072  1
  Ca2+  Ca66  1  0.00064449  -0.00052365  -0.00348233  1
  Ca2+  Ca67  1  0.00238831  0.50033904  0.49954882  1
  Ca2+  Ca68  1  0.50032015  -0.00036235  0.50245777  1
  Ca2+  Ca69  1  0.25246064  0.75019305  0.50093778  1
  Ca2+  Ca70  1  0.75266139  0.74639204  0.49751046  1
  Ca2+  Ca71  1  0.74484933  0.25295172  0.00322620  1
  Ca2+  Ca72  1  0.25001157  0.25153147  -0.00172107  1
  Ca2+  Ca73  1  0.75170591  0.74388714  -0.00268665  1
  Ca2+  Ca74  1  0.75161980  -0.00162513  0.25147498  1
  Ca2+  Ca75  1  0.25032798  0.49877212  0.75307587  1
  Ca2+  Ca76  1  0.24878802  0.50049578  0.25168874  1
  Ca2+  Ca77  1  0.49816122  0.25252816  0.25047707  1
  Ca2+  Ca78  1  0.24714401  -0.00220484  0.25179646  1
  Ca2+  Ca79  1  0.74925038  0.50088911  0.25364042  1
  Ca2+  Ca80  1  0.00132511  0.75275244  0.75447963  1
  Ca2+  Ca81  1  0.74885905  0.00275531  0.74874367  1
  Ca2+  Ca82  1  0.00292588  0.74929045  0.24637719  1
  Ca2+  Ca83  1  -0.00109607  0.24838927  0.75006025  1
  Ca2+  Ca84  1  0.75013014  0.50126270  0.75311366  1
  Nb5+  Nb85  1  0.50036243  0.49884784  -0.00518837  1
  Nb5+  Nb86  1  0.50127589  0.50042634  0.49856396  1
  Nb5+  Nb87  1  0.00596432  0.49717846  0.00027665  1
  Nb5+  Nb88  1  0.24185924  0.25048515  0.50144168  1
  Nb5+  Nb89  1  0.74344614  0.25223699  0.49929760  1
  Nb5+  Nb90  1  0.25237633  0.75195284  0.00066241  1
  Nb5+  Nb91  1  0.25063943  -0.00058729  0.74754027  1
  Nb5+  Nb92  1  -0.00039548  0.24892024  0.25063066  1
  Nb5+  Nb93  1  0.50150672  0.74813617  0.74462208  1
  Nb5+  Nb94  1  0.50577343  0.24305989  0.74625865  1
  Nb5+  Nb95  1  0.49904181  0.74958053  0.24527880  1
  Nb5+  Nb96  1  -0.00167810  -0.00561029  0.24943499  1
  Nb5+  Nb97  1  -0.00611129  0.00486642  0.75542743  1
  Nb5+  Nb98  1  0.00178237  0.50291367  0.25398054  1
  Nb5+  Nb99  1  0.00199369  0.49820160  0.74940412  1
  Nb5+  Nb100  1  0.50349031  0.00601082  0.24826042  1
  Nb5+  Nb101  1  0.50074711  -0.00712245  0.74464506  1
  Nb5+  Nb102  1  0.49598492  0.49931980  0.24274200  1
  Nb5+  Nb103  1  0.49817467  0.49453818  0.74479493  1
  Nb5+  Nb104  1  0.25070268  0.25279290  0.24664951  1
  Nb5+  Nb105  1  0.24883004  0.25080339  0.75149183  1
  Nb5+  Nb106  1  0.24997270  0.74930488  0.25617958  1
  Nb5+  Nb107  1  0.25016220  0.75208487  0.74778976  1
  Nb5+  Nb108  1  0.74111407  0.25183530  0.24739975  1
  Nb5+  Nb109  1  0.75283750  0.24904844  0.74848639  1
  Nb5+  Nb110  1  0.75900922  0.74382291  0.24934399  1
  Nb5+  Nb111  1  0.75526725  0.74709614  0.75082162  1
  Nb5+  Nb112  1  -0.00611553  0.25119983  0.50036511  1
  Nb5+  Nb113  1  0.00320034  0.24760429  0.99970884  1
  Nb5+  Nb114  1  -0.00052057  0.74975298  0.49770190  1
  Nb5+  Nb115  1  -0.00484376  0.75082500  1.00450207  1
  Nb5+  Nb116  1  0.49655001  0.25023047  0.49992038  1
  Nb5+  Nb117  1  0.49847250  0.24637831  1.00631216  1
  Nb5+  Nb118  1  0.49463669  0.75376903  0.49694182  1
  Nb5+  Nb119  1  0.49700829  0.74982670  0.99725553  1
  Nb5+  Nb120  1  0.25376021  0.00258930  0.00551449  1
  Nb5+  Nb121  1  0.25131659  -0.00335020  0.49837594  1
  Nb5+  Nb122  1  0.25541825  0.49935048  -0.00461407  1
  Nb5+  Nb123  1  0.24773458  0.49981432  0.50536704  1
  Nb5+  Nb124  1  0.74829132  -0.00060211  -0.00331076  1
  Nb5+  Nb125  1  0.75290237  -0.00507051  0.50098291  1
  Nb5+  Nb126  1  0.75743500  0.49966924  -0.00243844  1
  Nb5+  Nb127  1  0.75040392  0.50364165  0.50035820  1
  O2-  O128  1  -0.02193580  0.01829013  0.13185707  1
  O2-  O129  1  -0.01940658  0.01591002  0.63494269  1
  O2-  O130  1  0.00400634  0.50277780  0.12034092  1
  O2-  O131  1  0.00658553  0.51246968  0.63424952  1
  O2-  O132  1  0.46621887  0.00368927  0.13584449  1
  O2-  O133  1  0.46782321  0.00662899  0.63399515  1
  O2-  O134  1  0.50438801  0.50251151  0.12466209  1
  O2-  O135  1  0.51471288  0.50206862  0.62977934  1
  O2-  O136  1  0.03287591  -0.00592042  0.36331296  1
  O2-  O137  1  0.03503458  -0.01005551  0.86517901  1
  O2-  O138  1  -0.01399636  0.49608222  0.36663546  1
  O2-  O139  1  -0.00461734  0.48604935  0.88151207  1
  O2-  O140  1  0.52169957  -0.01695516  0.36580127  1
  O2-  O141  1  0.51689176  -0.00073858  0.86286103  1
  O2-  O142  1  0.48998167  0.50146362  0.38012047  1
  O2-  O143  1  0.48256229  0.50172860  0.87955999  1
  O2-  O144  1  0.25844685  0.28051565  0.13471603  1
  O2-  O145  1  0.25373048  0.26488615  0.62457293  1
  O2-  O146  1  0.25313949  0.77177557  0.11794612  1
  O2-  O147  1  0.25147236  0.78058773  0.63485608  1
  O2-  O148  1  0.74084301  0.22157952  0.13688325  1
  O2-  O149  1  0.74688960  0.22889620  0.61744954  1
  O2-  O150  1  0.73489887  0.72425361  0.13292926  1
  O2-  O151  1  0.73238507  0.73668089  0.63285637  1
  O2-  O152  1  0.24108559  0.22888870  0.38462512  1
  O2-  O153  1  0.24659627  0.21921462  0.86259616  1
  O2-  O154  1  0.25631596  0.71831855  0.36654103  1
  O2-  O155  1  0.26254897  0.73723372  0.87411292  1
  O2-  O156  1  0.75412960  0.27090614  0.38048141  1
  O2-  O157  1  0.75678457  0.27016642  0.86353801  1
  O2-  O158  1  0.76081604  0.77746698  0.36418086  1
  O2-  O159  1  0.74540296  0.77588794  0.86478983  1
  O2-  O160  1  0.00623209  0.24948702  0.12922441  1
  O2-  O161  1  -0.00171216  0.25455050  0.61482724  1
  O2-  O162  1  0.03507986  0.73588381  0.11424820  1
  O2-  O163  1  0.00973965  0.73933951  0.61992902  1
  O2-  O164  1  0.46851112  0.24959954  0.11595510  1
  O2-  O165  1  0.50078991  0.25711298  0.62531868  1
  O2-  O166  1  0.49912623  0.74303180  0.12464351  1
  O2-  O167  1  0.50281280  0.75136731  0.62568801  1
  O2-  O168  1  0.22697128  0.02214998  0.38697565  1
  O2-  O169  1  0.23198784  0.01212104  0.86601374  1
  O2-  O170  1  0.26564715  0.51764674  0.38949507  1
  O2-  O171  1  0.24588676  0.53811249  0.88475806  1
  O2-  O172  1  0.72529222  -0.01415388  0.38489224  1
  O2-  O173  1  0.72133430  -0.01944660  0.88018427  1
  O2-  O174  1  0.75452213  0.46828668  0.38786517  1
  O2-  O175  1  0.75432934  0.46102592  0.88684215  1
  O2-  O176  1  0.00284138  0.25362466  0.37158231  1
  O2-  O177  1  -0.00992846  0.25977645  0.88538707  1
  O2-  O178  1  -0.01696064  0.75287944  0.37973709  1
  O2-  O179  1  -0.00020407  0.74923091  0.88860140  1
  O2-  O180  1  0.49760086  0.27093719  0.38689861  1
  O2-  O181  1  0.51109476  0.25465522  0.86469046  1
  O2-  O182  1  0.49132242  0.74667710  0.37485063  1
  O2-  O183  1  0.49462161  0.74501694  0.87545010  1
  O2-  O184  1  0.27931082  -0.01334322  0.11582232  1
  O2-  O185  1  0.27458985  -0.01086299  0.62694240  1
  O2-  O186  1  0.24522199  0.47948584  0.11242111  1
  O2-  O187  1  0.25500009  0.46760675  0.61941455  1
  O2-  O188  1  0.77135689  0.02176386  0.11540097  1
  O2-  O189  1  0.77090155  0.02441384  0.61648432  1
  O2-  O190  1  0.73432183  0.52436194  0.11500512  1
  O2-  O191  1  0.72466342  0.50818992  0.61674881  1
  O2-  O192  1  0.12332973  0.26910449  0.25308226  1
  O2-  O193  1  0.13625918  0.27459903  0.74817634  1
  O2-  O194  1  0.13839523  0.78125355  0.26199914  1
  O2-  O195  1  0.13802924  0.77516268  0.76333536  1
  O2-  O196  1  0.63133729  0.28540678  0.25064450  1
  O2-  O197  1  0.61974039  0.27913354  0.74151267  1
  O2-  O198  1  0.61650124  0.76613833  0.25489845  1
  O2-  O199  1  0.61340255  0.78036652  0.75388217  1
  O2-  O200  1  0.36277335  0.22318337  0.26121969  1
  O2-  O201  1  0.38343437  0.23120264  0.74733216  1
  O2-  O202  1  0.37902263  0.72598205  0.24447529  1
  O2-  O203  1  0.37891327  0.73847592  0.74637089  1
  O2-  O204  1  0.88002844  0.23123909  0.24951781  1
  O2-  O205  1  0.86351355  0.21593673  0.74292242  1
  O2-  O206  1  0.86965492  0.71280582  0.24199849  1
  O2-  O207  1  0.86684284  0.71889437  0.75201078  1
  O2-  O208  1  0.26151025  0.36441973  0.28466032  1
  O2-  O209  1  0.28096356  0.36126817  0.76695442  1
  O2-  O210  1  0.28394706  0.86382839  0.26175002  1
  O2-  O211  1  0.27345211  0.88061742  0.76552682  1
  O2-  O212  1  0.77838031  0.36392379  0.23633469  1
  O2-  O213  1  0.76235662  0.36353447  0.71884378  1
  O2-  O214  1  0.76431318  0.86268056  0.22306584  1
  O2-  O215  1  0.77130914  0.86726213  0.72881127  1
  O2-  O216  1  0.22556298  0.13555681  0.23212229  1
  O2-  O217  1  0.24292390  0.12270606  0.72736104  1
  O2-  O218  1  0.23271696  0.63748061  0.21926383  1
  O2-  O219  1  0.23718061  0.63853727  0.72707576  1
  O2-  O220  1  0.73447201  0.13711570  0.27996776  1
  O2-  O221  1  0.71035781  0.13778802  0.75832539  1
  O2-  O222  1  0.72416149  0.63322357  0.27699822  1
  O2-  O223  1  0.71389748  0.63622335  0.76251995  1
  O2-  O224  1  0.11580863  0.46761377  0.24915607  1
  O2-  O225  1  0.11712827  0.46358052  0.75540226  1
  O2-  O226  1  0.11604289  0.98139092  0.21773291  1
  O2-  O227  1  0.13651491  0.98212463  0.72550461  1
  O2-  O228  1  0.61128487  0.47812841  0.25832802  1
  O2-  O229  1  0.61006506  0.49021823  0.77720974  1
  O2-  O230  1  0.61594911  0.97573143  0.22259674  1
  O2-  O231  1  0.61277331  0.98195105  0.71953356  1
  O2-  O232  1  0.38439060  0.02233982  0.27703237  1
  O2-  O233  1  0.37429319  0.01627135  0.76688871  1
  O2-  O234  1  0.38210894  0.53258169  0.24603978  1
  O2-  O235  1  0.38652464  0.53084398  0.74841550  1
  O2-  O236  1  0.88482674  0.02128344  0.27566878  1
  O2-  O237  1  0.88356939  0.02239881  0.78411756  1
  O2-  O238  1  0.88494147  0.51681594  0.23607626  1
  O2-  O239  1  0.88390929  0.53051097  0.75473035  1
  O2-  O240  1  0.46243328  0.38791079  0.24633932  1
  O2-  O241  1  0.47723138  0.37996079  0.74697215  1
  O2-  O242  1  0.47885793  0.86647352  0.24660492  1
  O2-  O243  1  0.47613991  0.87589391  0.74984495  1
  O2-  O244  1  0.98123570  0.37040748  0.24656795  1
  O2-  O245  1  0.96529054  0.38333596  0.74829029  1
  O2-  O246  1  0.97044587  0.88229096  0.24136213  1
  O2-  O247  1  0.98475932  0.88660009  0.73866926  1
  O2-  O248  1  0.02052393  0.13066083  0.25228610  1
  O2-  O249  1  0.03627764  0.11741556  0.75512164  1
  O2-  O250  1  0.03488597  0.61422146  0.25673211  1
  O2-  O251  1  0.03132313  0.61421913  0.76990540  1
  O2-  O252  1  0.53231473  0.11826004  0.25004121  1
  O2-  O253  1  0.52066056  0.12778071  0.74614474  1
  O2-  O254  1  0.52029425  0.62601897  0.25176402  1
  O2-  O255  1  0.51879322  0.63204333  0.74747199  1
  O2-  O256  1  0.12371490  0.48233406  -0.00279105  1
  O2-  O257  1  0.13750006  0.46768622  0.49291753  1
  O2-  O258  1  0.13976297  0.96973685  0.00956366  1
  O2-  O259  1  0.13702339  0.98433955  0.52960281  1
  O2-  O260  1  0.61511773  0.48027209  -0.00767134  1
  O2-  O261  1  0.61753954  0.47345058  0.49341065  1
  O2-  O262  1  0.63138187  0.98179281  0.02651513  1
  O2-  O263  1  0.63451081  0.99180229  0.52675194  1
  O2-  O264  1  0.36463797  0.01208682  -0.03367151  1
  O2-  O265  1  0.36543760  0.02957909  0.48942028  1
  O2-  O266  1  0.37160633  0.52197553  0.00876808  1
  O2-  O267  1  0.38169413  0.51356960  0.51520197  1
  O2-  O268  1  0.86688171  0.01170780  -0.03093056  1
  O2-  O269  1  0.86628501  0.02411452  0.47635304  1
  O2-  O270  1  0.87470996  0.51896544  0.00081796  1
  O2-  O271  1  0.86382942  0.52006653  0.51497083  1
  O2-  O272  1  0.46943207  0.38458891  0.00369249  1
  O2-  O273  1  0.48077017  0.37922612  0.51119171  1
  O2-  O274  1  0.47076429  0.86195106  0.00052423  1
  O2-  O275  1  0.46331515  0.86374107  0.50216092  1
  O2-  O276  1  0.97744992  0.37962482  0.00803220  1
  O2-  O277  1  0.97651652  0.36723012  0.49145415  1
  O2-  O278  1  0.97932713  0.86384852  0.01641219  1
  O2-  O279  1  0.97199183  0.86752844  0.50582210  1
  O2-  O280  1  0.03222357  0.13540125  -0.00320377  1
  O2-  O281  1  0.02753335  0.13803667  0.49278675  1
  O2-  O282  1  0.02040133  0.61617599  -0.00967988  1
  O2-  O283  1  0.03529972  0.63163012  0.49073692  1
  O2-  O284  1  0.52892878  0.13578077  0.00154209  1
  O2-  O285  1  0.52560340  0.13892034  0.49828506  1
  O2-  O286  1  0.51309872  0.62116212  -0.00014827  1
  O2-  O287  1  0.52418160  0.61840636  0.50361051  1
  O2-  O288  1  0.11640970  0.28593430  0.00200910  1
  O2-  O289  1  0.12766952  0.27606425  0.50175328  1
  O2-  O290  1  0.13534218  0.76552746  -0.01423520  1
  O2-  O291  1  0.11882213  0.77846296  0.48901108  1
  O2-  O292  1  0.60802091  0.29009991  0.00439443  1
  O2-  O293  1  0.62638428  0.27484287  0.50116865  1
  O2-  O294  1  0.61201747  0.76500453  -0.00148571  1
  O2-  O295  1  0.61179929  0.77023676  0.49097324  1
  O2-  O296  1  0.38609091  0.24078282  -0.03052782  1
  O2-  O297  1  0.37860190  0.23213942  0.50462454  1
  O2-  O298  1  0.37418663  0.72274092  0.00237627  1
  O2-  O299  1  0.38519254  0.70983823  0.50523350  1
  O2-  O300  1  0.88463475  0.23239715  0.01478233  1
  O2-  O301  1  0.87543459  0.23105445  0.49710439  1
  O2-  O302  1  0.88624897  0.71603916  0.01319008  1
  O2-  O303  1  0.88373081  0.71203066  0.50671057  1
  O2-  O304  1  0.26647351  0.38887606  -0.03599642  1
  O2-  O305  1  0.27645023  0.36561857  0.48815827  1
  O2-  O306  1  0.27227908  0.86932199  -0.01735482  1
  O2-  O307  1  0.27191705  0.88548737  0.47449188  1
  O2-  O308  1  0.76199875  0.38481814  0.03580380  1
  O2-  O309  1  0.76535380  0.36934807  0.52206565  1
  O2-  O310  1  0.76951456  0.88038597  0.01339029  1
  O2-  O311  1  0.77231797  0.88257396  0.51840299  1
  O2-  O312  1  0.23273748  0.11586326  0.01915086  1
  O2-  O313  1  0.23597619  0.13274131  0.52304757  1
  O2-  O314  1  0.23423543  0.63047637  0.01899733  1
  O2-  O315  1  0.23081660  0.61185497  0.53057830  1
  O2-  O316  1  0.73052377  0.11883552  -0.02235479  1
  O2-  O317  1  0.73245738  0.13356648  0.48260764  1
  O2-  O318  1  0.72873477  0.61029636  -0.03002333  1
  O2-  O319  1  0.72110414  0.61270202  0.47891246  1
