# generated using pymatgen
data_Sr64Ca21Nb43O192
_symmetry_space_group_name_H-M   'P 1'
_cell_length_a   16.58861033
_cell_length_b   16.59103177
_cell_length_c   16.72781660
_cell_angle_alpha   90.03139109
_cell_angle_beta   89.93798383
_cell_angle_gamma   89.99314308
_symmetry_Int_Tables_number   1
_chemical_formula_structural   Sr64Ca21Nb43O192
_chemical_formula_sum   'Sr64 Ca21 Nb43 O192'
_cell_volume   4603.86241327
_cell_formula_units_Z   1
loop_
 _symmetry_equiv_pos_site_id
 _symmetry_equiv_pos_as_xyz
  1  'x, y, z'
loop_
 _atom_type_symbol
 _atom_type_oxidation_number
  Sr2+  2.0
  Ca2+  2.0
  Nb5+  5.0
  O2-  -2.0
loop_
 _atom_site_type_symbol
 _atom_site_label
 _atom_site_symmetry_multiplicity
 _atom_site_fract_x
 _atom_site_fract_y
 _atom_site_fract_z
 _atom_site_occupancy
  Sr2+  Sr0  1  0.12388045  0.13347917  0.12236177  1
  Sr2+  Sr1  1  0.13006280  0.12502729  0.63193812  1
  Sr2+  Sr2  1  0.13201166  0.63365342  0.12100035  1
  Sr2+  Sr3  1  0.12896652  0.63637297  0.61797246  1
  Sr2+  Sr4  1  0.63531221  0.13814243  0.12527915  1
  Sr2+  Sr5  1  0.63445666  0.13981879  0.62788813  1
  Sr2+  Sr6  1  0.63117497  0.62967450  0.13609899  1
  Sr2+  Sr7  1  0.62935997  0.62964393  0.63201406  1
  Sr2+  Sr8  1  0.37919165  0.37889145  0.12330648  1
  Sr2+  Sr9  1  0.38107780  0.37552842  0.62695478  1
  Sr2+  Sr10  1  0.38337182  0.88964825  0.12677871  1
  Sr2+  Sr11  1  0.37873357  0.88250206  0.62649777  1
  Sr2+  Sr12  1  0.87919500  0.38137825  0.11722170  1
  Sr2+  Sr13  1  0.87472442  0.38757780  0.62191654  1
  Sr2+  Sr14  1  0.88423177  0.88964355  0.12880381  1
  Sr2+  Sr15  1  0.88215677  0.88495628  0.62557737  1
  Sr2+  Sr16  1  0.11139862  0.36857793  0.37304543  1
  Sr2+  Sr17  1  0.11243970  0.36880491  0.86989758  1
  Sr2+  Sr18  1  0.11929640  0.86465827  0.37334463  1
  Sr2+  Sr19  1  0.11453733  0.87147453  0.88038141  1
  Sr2+  Sr20  1  0.61650162  0.36746107  0.37749437  1
  Sr2+  Sr21  1  0.61665320  0.36391758  0.87781440  1
  Sr2+  Sr22  1  0.61112662  0.87113514  0.37519977  1
  Sr2+  Sr23  1  0.60666763  0.86497954  0.88057853  1
  Sr2+  Sr24  1  0.37118995  0.11619424  0.36665494  1
  Sr2+  Sr25  1  0.36281188  0.11346417  0.87505647  1
  Sr2+  Sr26  1  0.36547316  0.62201239  0.37478043  1
  Sr2+  Sr27  1  0.36778946  0.62531100  0.87088330  1
  Sr2+  Sr28  1  0.86727173  0.12298476  0.38216290  1
  Sr2+  Sr29  1  0.87341608  0.11832468  0.88017753  1
  Sr2+  Sr30  1  0.85899603  0.60930298  0.37141019  1
  Sr2+  Sr31  1  0.86272281  0.62115513  0.87882347  1
  Sr2+  Sr32  1  0.11216017  0.12405803  0.37143415  1
  Sr2+  Sr33  1  0.11427119  0.11281568  0.87372018  1
  Sr2+  Sr34  1  0.12042046  0.61602933  0.37532955  1
  Sr2+  Sr35  1  0.11968685  0.61489936  0.87040970  1
  Sr2+  Sr36  1  0.62220915  0.10879509  0.37797600  1
  Sr2+  Sr37  1  0.62234461  0.11567846  0.88193727  1
  Sr2+  Sr38  1  0.61416723  0.61665832  0.37514544  1
  Sr2+  Sr39  1  0.61870297  0.61735380  0.88347756  1
  Sr2+  Sr40  1  0.36493589  0.36132375  0.37330845  1
  Sr2+  Sr41  1  0.36864360  0.35740989  0.87360549  1
  Sr2+  Sr42  1  0.36862467  0.87195202  0.37188790  1
  Sr2+  Sr43  1  0.36806794  0.86960476  0.87732135  1
  Sr2+  Sr44  1  0.87390861  0.36469543  0.37645356  1
  Sr2+  Sr45  1  0.87045940  0.36298883  0.87478190  1
  Sr2+  Sr46  1  0.86278889  0.87499218  0.36650712  1
  Sr2+  Sr47  1  0.87071119  0.86766486  0.88210593  1
  Sr2+  Sr48  1  0.14533506  0.38106588  0.12064457  1
  Sr2+  Sr49  1  0.12871680  0.38103983  0.62997675  1
  Sr2+  Sr50  1  0.12375536  0.88325785  0.12914676  1
  Sr2+  Sr51  1  0.13507092  0.87801517  0.62131033  1
  Sr2+  Sr52  1  0.62638264  0.37819536  0.11164027  1
  Sr2+  Sr53  1  0.62695577  0.38099809  0.62325258  1
  Sr2+  Sr54  1  0.64014546  0.87838805  0.13238037  1
  Sr2+  Sr55  1  0.63826456  0.87992447  0.62780754  1
  Sr2+  Sr56  1  0.38987677  0.13785937  0.12721001  1
  Sr2+  Sr57  1  0.38346012  0.12886824  0.62969436  1
  Sr2+  Sr58  1  0.38441353  0.62555899  0.12877932  1
  Sr2+  Sr59  1  0.37983359  0.63134086  0.62528951  1
  Sr2+  Sr60  1  0.88024238  0.12910925  0.12616527  1
  Sr2+  Sr61  1  0.87846451  0.13544876  0.62732980  1
  Sr2+  Sr62  1  0.87908970  0.63629864  0.12116823  1
  Sr2+  Sr63  1  0.88000929  0.63577761  0.62135015  1
  Ca2+  Ca64  1  0.49894377  -0.00351077  0.50190220  1
  Ca2+  Ca65  1  0.49957683  0.50090886  -0.00180194  1
  Ca2+  Ca66  1  0.00056654  0.49914176  0.00008447  1
  Ca2+  Ca67  1  0.00065063  -0.00114032  0.50251379  1
  Ca2+  Ca68  1  0.49901589  -0.00141555  0.00074510  1
  Ca2+  Ca69  1  0.24956078  0.25059614  0.50145916  1
  Ca2+  Ca70  1  0.74753508  0.74915328  0.49751263  1
  Ca2+  Ca71  1  0.74769455  0.75302936  0.00007303  1
  Ca2+  Ca72  1  0.25053783  0.75009361  0.00132664  1
  Ca2+  Ca73  1  0.24901197  0.24835808  -0.00151319  1
  Ca2+  Ca74  1  0.50535974  0.25402417  0.24963844  1
  Ca2+  Ca75  1  0.00069885  0.74858267  0.25134296  1
  Ca2+  Ca76  1  0.24884367  -0.00059392  0.24910956  1
  Ca2+  Ca77  1  0.00229491  0.74943568  0.75186639  1
  Ca2+  Ca78  1  0.75010678  0.49850993  0.75304994  1
  Ca2+  Ca79  1  -0.00265810  0.25224176  0.24720029  1
  Ca2+  Ca80  1  -0.00213739  0.24819319  0.74848897  1
  Ca2+  Ca81  1  0.50181989  0.24913197  0.74962442  1
  Ca2+  Ca82  1  0.75021099  0.00509510  0.24878602  1
  Ca2+  Ca83  1  0.74822686  0.49422444  0.24774058  1
  Ca2+  Ca84  1  0.74804719  0.00071006  0.75068454  1
  Nb5+  Nb85  1  -0.00683912  0.50264144  0.50064166  1
  Nb5+  Nb86  1  0.49066331  0.50020407  0.50025625  1
  Nb5+  Nb87  1  0.00045467  0.00019876  0.00062473  1
  Nb5+  Nb88  1  0.75308536  0.24849674  0.00468290  1
  Nb5+  Nb89  1  0.25273630  0.75269177  0.50082909  1
  Nb5+  Nb90  1  0.75025823  0.25140421  0.50423659  1
  Nb5+  Nb91  1  0.24946461  -0.00838302  0.75024810  1
  Nb5+  Nb92  1  0.49926229  0.74889346  0.75362687  1
  Nb5+  Nb93  1  0.24995401  0.50172808  0.24762266  1
  Nb5+  Nb94  1  0.25144029  0.49715126  0.74322534  1
  Nb5+  Nb95  1  0.49843681  0.74922616  0.25735876  1
  Nb5+  Nb96  1  0.00010178  0.00306860  0.25694688  1
  Nb5+  Nb97  1  -0.00354657  -0.00270472  0.74857191  1
  Nb5+  Nb98  1  0.00020463  0.50159349  0.24582760  1
  Nb5+  Nb99  1  -0.00485784  0.50620396  0.74919223  1
  Nb5+  Nb100  1  0.50369607  0.00428228  0.24546950  1
  Nb5+  Nb101  1  0.50260557  -0.00131117  0.74781973  1
  Nb5+  Nb102  1  0.49735663  0.49711607  0.25222222  1
  Nb5+  Nb103  1  0.49753084  0.50117499  0.75288485  1
  Nb5+  Nb104  1  0.24793354  0.24572728  0.25248244  1
  Nb5+  Nb105  1  0.24894147  0.24036675  0.75098497  1
  Nb5+  Nb106  1  0.25287898  0.74834218  0.24660659  1
  Nb5+  Nb107  1  0.24863900  0.74732183  0.74984393  1
  Nb5+  Nb108  1  0.75017691  0.25410709  0.25852457  1
  Nb5+  Nb109  1  0.74854530  0.25098762  0.75858882  1
  Nb5+  Nb110  1  0.75436098  0.74705779  0.25257288  1
  Nb5+  Nb111  1  0.75333445  0.74784771  0.75059794  1
  Nb5+  Nb112  1  0.00398346  0.25067318  0.50593404  1
  Nb5+  Nb113  1  0.00217814  0.25237428  1.00038616  1
  Nb5+  Nb114  1  -0.00893412  0.74998182  0.49397901  1
  Nb5+  Nb115  1  0.00252532  0.74671751  1.00227895  1
  Nb5+  Nb116  1  0.50093573  0.24210593  0.49802035  1
  Nb5+  Nb117  1  0.49764730  0.24628791  0.99499928  1
  Nb5+  Nb118  1  0.49685799  0.75048336  0.50638470  1
  Nb5+  Nb119  1  0.49735748  0.74991951  1.01379750  1
  Nb5+  Nb120  1  0.24934796  0.00390410  0.00595748  1
  Nb5+  Nb121  1  0.24749624  0.00532964  0.49829298  1
  Nb5+  Nb122  1  0.25351925  0.49886261  -0.01364783  1
  Nb5+  Nb123  1  0.24662650  0.49898982  0.49642564  1
  Nb5+  Nb124  1  0.74940743  -0.00280424  -0.00235569  1
  Nb5+  Nb125  1  0.75236511  -0.00342905  0.50241861  1
  Nb5+  Nb126  1  0.75047717  0.50240582  -0.00136798  1
  Nb5+  Nb127  1  0.73837295  0.49869275  0.49636228  1
  O2-  O128  1  0.01600199  -0.01398619  0.11799384  1
  O2-  O129  1  0.01798628  -0.02886191  0.63709174  1
  O2-  O130  1  0.02316400  0.47328001  0.13752837  1
  O2-  O131  1  0.01746651  0.48254139  0.61876183  1
  O2-  O132  1  0.51487998  -0.03476695  0.13358504  1
  O2-  O133  1  0.50676660  -0.03885441  0.63526414  1
  O2-  O134  1  0.50650035  0.48185366  0.13828100  1
  O2-  O135  1  0.50946999  0.48678169  0.61955118  1
  O2-  O136  1  -0.01097754  0.02835329  0.36933100  1
  O2-  O137  1  -0.00827634  0.01919728  0.87763124  1
  O2-  O138  1  -0.00880165  0.52358298  0.38351149  1
  O2-  O139  1  -0.01346044  0.52915699  0.86283253  1
  O2-  O140  1  0.48113895  0.01263434  0.36372801  1
  O2-  O141  1  0.47455915  0.01058039  0.86214174  1
  O2-  O142  1  0.48290721  0.52376188  0.38332995  1
  O2-  O143  1  0.48423837  0.53126922  0.86243132  1
  O2-  O144  1  0.27205992  0.23883417  0.13569802  1
  O2-  O145  1  0.27786101  0.23833285  0.63559931  1
  O2-  O146  1  0.26477109  0.71803335  0.13703357  1
  O2-  O147  1  0.26876356  0.73612904  0.62256579  1
  O2-  O148  1  0.76226550  0.23125595  0.11855429  1
  O2-  O149  1  0.76127558  0.23442710  0.61852777  1
  O2-  O150  1  0.75281118  0.72138302  0.13479258  1
  O2-  O151  1  0.75347637  0.71873205  0.63211892  1
  O2-  O152  1  0.23575590  0.27946573  0.36778466  1
  O2-  O153  1  0.23342340  0.27852633  0.86219209  1
  O2-  O154  1  0.24501521  0.76337634  0.38152284  1
  O2-  O155  1  0.24122013  0.77160473  0.86197949  1
  O2-  O156  1  0.73981172  0.27418294  0.37429086  1
  O2-  O157  1  0.73876255  0.26939897  0.87335268  1
  O2-  O158  1  0.73103699  0.78163189  0.36444880  1
  O2-  O159  1  0.73027809  0.78045844  0.86216344  1
  O2-  O160  1  -0.03398482  0.25552417  0.11318455  1
  O2-  O161  1  -0.03374411  0.26992696  0.61549327  1
  O2-  O162  1  -0.02844986  0.76606941  0.11742559  1
  O2-  O163  1  -0.01861187  0.76024997  0.61247750  1
  O2-  O164  1  0.48753414  0.27104281  0.11299611  1
  O2-  O165  1  0.48824160  0.27041126  0.61229243  1
  O2-  O166  1  0.47525275  0.75964443  0.12804321  1
  O2-  O167  1  0.47506262  0.75839171  0.62032186  1
  O2-  O168  1  0.27424224  -0.00831267  0.38640259  1
  O2-  O169  1  0.26812163  -0.01479382  0.86689025  1
  O2-  O170  1  0.27287445  0.49031612  0.38453435  1
  O2-  O171  1  0.27760519  0.49013999  0.87213532  1
  O2-  O172  1  0.77780236  -0.00047721  0.38414437  1
  O2-  O173  1  0.78334416  -0.00508191  0.88346611  1
  O2-  O174  1  0.77369637  0.47811568  0.38538937  1
  O2-  O175  1  0.78734216  0.48512348  0.88514019  1
  O2-  O176  1  0.01223947  0.23923502  0.38753257  1
  O2-  O177  1  0.01715829  0.23254772  0.88405642  1
  O2-  O178  1  0.03518319  0.73723065  0.38652952  1
  O2-  O179  1  0.03491947  0.73891382  0.88625837  1
  O2-  O180  1  0.53174549  0.24173611  0.38438872  1
  O2-  O181  1  0.53047500  0.23268870  0.88085108  1
  O2-  O182  1  0.51288545  0.73322052  0.37348748  1
  O2-  O183  1  0.51474836  0.73091918  0.86584560  1
  O2-  O184  1  0.21825630  0.01400604  0.11545464  1
  O2-  O185  1  0.22680477  0.00635216  0.62957390  1
  O2-  O186  1  0.23058253  0.51657473  0.13557210  1
  O2-  O187  1  0.23046635  0.51670384  0.62934361  1
  O2-  O188  1  0.73604623  0.02508711  0.11145770  1
  O2-  O189  1  0.72152492  0.02023841  0.61459794  1
  O2-  O190  1  0.71512894  0.50309704  0.11472689  1
  O2-  O191  1  0.72938624  0.50741341  0.61365389  1
  O2-  O192  1  0.13530795  0.27853963  0.23053969  1
  O2-  O193  1  0.13528603  0.26247420  0.72314670  1
  O2-  O194  1  0.13941521  0.77007853  0.23924067  1
  O2-  O195  1  0.13797184  0.76413826  0.72279898  1
  O2-  O196  1  0.63818911  0.29003757  0.23122034  1
  O2-  O197  1  0.63518370  0.28081005  0.73019863  1
  O2-  O198  1  0.61329305  0.76405129  0.23350689  1
  O2-  O199  1  0.61170858  0.76612709  0.72664090  1
  O2-  O200  1  0.36837707  0.23309710  0.27192352  1
  O2-  O201  1  0.36712584  0.23127063  0.77482558  1
  O2-  O202  1  0.37735214  0.72736073  0.26767620  1
  O2-  O203  1  0.37377153  0.73184957  0.75773941  1
  O2-  O204  1  0.86381259  0.21692776  0.26481371  1
  O2-  O205  1  0.86283571  0.21558532  0.76221718  1
  O2-  O206  1  0.86592090  0.72474308  0.27138042  1
  O2-  O207  1  0.86581842  0.72474920  0.76588095  1
  O2-  O208  1  0.27546406  0.38707396  0.23760651  1
  O2-  O209  1  0.26731921  0.38294532  0.73190361  1
  O2-  O210  1  0.28079975  0.86156070  0.23836988  1
  O2-  O211  1  0.26795991  0.87489137  0.73132394  1
  O2-  O212  1  0.79056526  0.36415376  0.23328014  1
  O2-  O213  1  0.78313414  0.36402889  0.73658159  1
  O2-  O214  1  0.76679296  0.86463831  0.22409275  1
  O2-  O215  1  0.76385836  0.86355753  0.71803247  1
  O2-  O216  1  0.22505198  0.13438118  0.27157556  1
  O2-  O217  1  0.23248421  0.12290381  0.76300391  1
  O2-  O218  1  0.23909694  0.62449654  0.27747721  1
  O2-  O219  1  0.23822605  0.62871678  0.76528208  1
  O2-  O220  1  0.71374236  0.13997995  0.26180046  1
  O2-  O221  1  0.71279452  0.13606500  0.76131053  1
  O2-  O222  1  0.72300344  0.63206485  0.27400585  1
  O2-  O223  1  0.71845064  0.63382549  0.77263995  1
  O2-  O224  1  0.13750031  0.48400928  0.27882352  1
  O2-  O225  1  0.13678602  0.48743181  0.77158370  1
  O2-  O226  1  0.11648113  0.97000448  0.26431338  1
  O2-  O227  1  0.13164225  0.97881902  0.76751657  1
  O2-  O228  1  0.60979260  0.48883056  0.27897544  1
  O2-  O229  1  0.61076892  0.48170588  0.76067346  1
  O2-  O230  1  0.61656669  0.97407622  0.26861665  1
  O2-  O231  1  0.61227867  0.97300708  0.77081038  1
  O2-  O232  1  0.38348166  0.01896448  0.22575276  1
  O2-  O233  1  0.36742528  0.01441484  0.72986218  1
  O2-  O234  1  0.37241228  0.52621168  0.24552943  1
  O2-  O235  1  0.36927730  0.52299540  0.73121429  1
  O2-  O236  1  0.88611777  0.01822118  0.22673708  1
  O2-  O237  1  0.88483139  0.01763041  0.72863914  1
  O2-  O238  1  0.88862609  0.52942871  0.23553127  1
  O2-  O239  1  0.88548570  0.52161395  0.72087458  1
  O2-  O240  1  0.47127212  0.38746758  0.27422186  1
  O2-  O241  1  0.46756372  0.38912801  0.76075644  1
  O2-  O242  1  0.47786658  0.86507651  0.26707206  1
  O2-  O243  1  0.47423190  0.86446619  0.76590914  1
  O2-  O244  1  0.98971435  0.38917032  0.28126851  1
  O2-  O245  1  0.99675434  0.38810235  0.76558106  1
  O2-  O246  1  0.97562683  0.88394705  0.26616799  1
  O2-  O247  1  0.98448910  0.88309353  0.78001395  1
  O2-  O248  1  0.03040762  0.11708093  0.23326942  1
  O2-  O249  1  0.02820220  0.11184506  0.73921612  1
  O2-  O250  1  0.03886695  0.61343327  0.24108500  1
  O2-  O251  1  0.03305887  0.61532498  0.72762855  1
  O2-  O252  1  0.52333815  0.11689336  0.22756918  1
  O2-  O253  1  0.51290287  0.11097013  0.72053005  1
  O2-  O254  1  0.51087643  0.62594556  0.23720682  1
  O2-  O255  1  0.50600237  0.62675864  0.72432508  1
  O2-  O256  1  0.13643320  0.47171072  -0.01876518  1
  O2-  O257  1  0.13070889  0.48712380  0.48506716  1
  O2-  O258  1  0.12291584  0.98464586  -0.01957249  1
  O2-  O259  1  0.13701896  0.96184923  0.48991980  1
  O2-  O260  1  0.63578360  0.47831403  -0.03066109  1
  O2-  O261  1  0.62201938  0.48299294  0.48134048  1
  O2-  O262  1  0.63667598  0.98419877  -0.02710498  1
  O2-  O263  1  0.63485733  0.98328359  0.47437920  1
  O2-  O264  1  0.36312779  0.02832847  0.02118768  1
  O2-  O265  1  0.36182197  0.01902215  0.52800609  1
  O2-  O266  1  0.36429256  0.52264752  0.02169784  1
  O2-  O267  1  0.37580869  0.51832148  0.51917903  1
  O2-  O268  1  0.88286028  0.01980554  0.01484602  1
  O2-  O269  1  0.86683725  0.02768151  0.52447342  1
  O2-  O270  1  0.86602007  0.51243599  0.03492211  1
  O2-  O271  1  0.87831977  0.51618399  0.51841216  1
  O2-  O272  1  0.48860572  0.36603074  -0.02665041  1
  O2-  O273  1  0.48152349  0.38308301  0.48276126  1
  O2-  O274  1  0.47373754  0.86255142  -0.02061295  1
  O2-  O275  1  0.47458254  0.86057525  0.47868565  1
  O2-  O276  1  0.98117833  0.36523592  -0.02156407  1
  O2-  O277  1  0.98538047  0.38379169  0.48297213  1
  O2-  O278  1  0.98564004  0.88194092  -0.01605857  1
  O2-  O279  1  0.97330859  0.86378533  0.47881234  1
  O2-  O280  1  0.01716706  0.12274751  0.01258868  1
  O2-  O281  1  0.01864651  0.13689113  0.52509262  1
  O2-  O282  1  0.01532977  0.63308457  0.02411216  1
  O2-  O283  1  0.01901616  0.62090158  0.51699630  1
  O2-  O284  1  0.52444103  0.13252614  0.02127811  1
  O2-  O285  1  0.52558412  0.13217124  0.51858671  1
  O2-  O286  1  0.53202171  0.63557967  0.01777193  1
  O2-  O287  1  0.51569995  0.62322350  0.51395840  1
  O2-  O288  1  0.11443433  0.26444935  0.02733901  1
  O2-  O289  1  0.11453266  0.27960013  0.52131170  1
  O2-  O290  1  0.11715712  0.77416262  0.02850218  1
  O2-  O291  1  0.13530270  0.76177587  0.51841012  1
  O2-  O292  1  0.63375723  0.26577997  0.01024412  1
  O2-  O293  1  0.63012606  0.27459947  0.51335393  1
  O2-  O294  1  0.61271376  0.78240597  0.01334217  1
  O2-  O295  1  0.61101159  0.76722274  0.51571055  1
  O2-  O296  1  0.38480107  0.22694133  -0.02302206  1
  O2-  O297  1  0.38720196  0.22736170  0.47682477  1
  O2-  O298  1  0.38578124  0.71929434  -0.01538963  1
  O2-  O299  1  0.37398981  0.72355881  0.48794928  1
  O2-  O300  1  0.87055848  0.23356652  -0.02199993  1
  O2-  O301  1  0.86919299  0.24240101  0.48171430  1
  O2-  O302  1  0.88553881  0.73892620  -0.02837384  1
  O2-  O303  1  0.88323005  0.71728225  0.47572798  1
  O2-  O304  1  0.27179525  0.38471271  0.01935301  1
  O2-  O305  1  0.26871372  0.38901674  0.52452619  1
  O2-  O306  1  0.27221404  0.88708450  0.00954350  1
  O2-  O307  1  0.27530095  0.86721728  0.51348767  1
  O2-  O308  1  0.76929052  0.36788244  0.01213423  1
  O2-  O309  1  0.76380379  0.37506018  0.51586995  1
  O2-  O310  1  0.77432405  0.88700410  0.02032993  1
  O2-  O311  1  0.77300051  0.88399712  0.51969233  1
  O2-  O312  1  0.23022770  0.11533455  -0.03138141  1
  O2-  O313  1  0.21524556  0.11573323  0.49105336  1
  O2-  O314  1  0.22251215  0.61391427  -0.01651716  1
  O2-  O315  1  0.23880446  0.62273380  0.49292718  1
  O2-  O316  1  0.73802539  0.13002334  -0.02116201  1
  O2-  O317  1  0.73188124  0.13682325  0.48141089  1
  O2-  O318  1  0.73879502  0.61664267  -0.02115972  1
  O2-  O319  1  0.73336866  0.61262083  0.47553868  1
