# generated using pymatgen
data_Sr64Ca21Nb43O192
_symmetry_space_group_name_H-M   'P 1'
_cell_length_a   16.55608348
_cell_length_b   16.55374786
_cell_length_c   16.73485820
_cell_angle_alpha   90.00676211
_cell_angle_beta   89.93901054
_cell_angle_gamma   90.02100030
_symmetry_Int_Tables_number   1
_chemical_formula_structural   Sr64Ca21Nb43O192
_chemical_formula_sum   'Sr64 Ca21 Nb43 O192'
_cell_volume   4586.43984802
_cell_formula_units_Z   1
loop_
 _symmetry_equiv_pos_site_id
 _symmetry_equiv_pos_as_xyz
  1  'x, y, z'
loop_
 _atom_type_symbol
 _atom_type_oxidation_number
  Sr2+  2.0
  Ca2+  2.0
  Nb5+  5.0
  O2-  -2.0
loop_
 _atom_site_type_symbol
 _atom_site_label
 _atom_site_symmetry_multiplicity
 _atom_site_fract_x
 _atom_site_fract_y
 _atom_site_fract_z
 _atom_site_occupancy
  Sr2+  Sr0  1  0.13148050  0.13519769  0.12086750  1
  Sr2+  Sr1  1  0.12161906  0.13544385  0.62960353  1
  Sr2+  Sr2  1  0.12287263  0.62877009  0.11707451  1
  Sr2+  Sr3  1  0.12694780  0.63161449  0.63213730  1
  Sr2+  Sr4  1  0.62817622  0.14301937  0.12223826  1
  Sr2+  Sr5  1  0.63425453  0.14005232  0.62810473  1
  Sr2+  Sr6  1  0.62878164  0.61852853  0.12517699  1
  Sr2+  Sr7  1  0.62832559  0.60996502  0.62725692  1
  Sr2+  Sr8  1  0.38277453  0.38923329  0.12954205  1
  Sr2+  Sr9  1  0.37798831  0.38614137  0.61597500  1
  Sr2+  Sr10  1  0.38020813  0.89265534  0.13000638  1
  Sr2+  Sr11  1  0.38348422  0.88285496  0.61988633  1
  Sr2+  Sr12  1  0.87334356  0.36798781  0.12143868  1
  Sr2+  Sr13  1  0.86576268  0.37865076  0.62842613  1
  Sr2+  Sr14  1  0.86927509  0.87819735  0.13094193  1
  Sr2+  Sr15  1  0.87561401  0.88326417  0.62370518  1
  Sr2+  Sr16  1  0.12566685  0.37277951  0.36982137  1
  Sr2+  Sr17  1  0.11959928  0.37796860  0.88182479  1
  Sr2+  Sr18  1  0.12113978  0.87323466  0.37262811  1
  Sr2+  Sr19  1  0.11694715  0.86709221  0.87840963  1
  Sr2+  Sr20  1  0.60984349  0.36535351  0.37205493  1
  Sr2+  Sr21  1  0.61146047  0.36017547  0.86812086  1
  Sr2+  Sr22  1  0.63656547  0.86358743  0.37089983  1
  Sr2+  Sr23  1  0.61384471  0.87176095  0.87821417  1
  Sr2+  Sr24  1  0.36760687  0.12344376  0.37917759  1
  Sr2+  Sr25  1  0.38462027  0.11659966  0.87516884  1
  Sr2+  Sr26  1  0.36842241  0.61873405  0.37745042  1
  Sr2+  Sr27  1  0.37163221  0.62269718  0.86888977  1
  Sr2+  Sr28  1  0.89105863  0.11384122  0.37397491  1
  Sr2+  Sr29  1  0.87221196  0.11619346  0.88107692  1
  Sr2+  Sr30  1  0.87657758  0.62041657  0.38032422  1
  Sr2+  Sr31  1  0.88984872  0.61593347  0.87356238  1
  Sr2+  Sr32  1  0.12366811  0.13928586  0.37668429  1
  Sr2+  Sr33  1  0.12719273  0.13756923  0.87709006  1
  Sr2+  Sr34  1  0.12470904  0.62589016  0.37731153  1
  Sr2+  Sr35  1  0.12182495  0.61010150  0.87462674  1
  Sr2+  Sr36  1  0.62897561  0.12653045  0.37384481  1
  Sr2+  Sr37  1  0.62293306  0.11904778  0.87556487  1
  Sr2+  Sr38  1  0.63331121  0.61235425  0.37601400  1
  Sr2+  Sr39  1  0.61942350  0.61852036  0.87232536  1
  Sr2+  Sr40  1  0.36747560  0.36554050  0.37632944  1
  Sr2+  Sr41  1  0.36189340  0.35883568  0.87192958  1
  Sr2+  Sr42  1  0.36846388  0.86830661  0.37319465  1
  Sr2+  Sr43  1  0.37923070  0.86790293  0.87544073  1
  Sr2+  Sr44  1  0.87819818  0.35526074  0.36727913  1
  Sr2+  Sr45  1  0.87980767  0.37314782  0.88408954  1
  Sr2+  Sr46  1  0.87904125  0.86728883  0.37349104  1
  Sr2+  Sr47  1  0.87169147  0.86625911  0.87848167  1
  Sr2+  Sr48  1  0.12389131  0.38733589  0.12607680  1
  Sr2+  Sr49  1  0.12620431  0.37871251  0.61814852  1
  Sr2+  Sr50  1  0.13852876  0.88399457  0.12583513  1
  Sr2+  Sr51  1  0.12786721  0.88479197  0.62548923  1
  Sr2+  Sr52  1  0.63502317  0.37980356  0.12329231  1
  Sr2+  Sr53  1  0.62371249  0.38492094  0.62717072  1
  Sr2+  Sr54  1  0.62613353  0.87737072  0.12644650  1
  Sr2+  Sr55  1  0.64191003  0.88116275  0.62491103  1
  Sr2+  Sr56  1  0.38639761  0.12595934  0.11945950  1
  Sr2+  Sr57  1  0.38185772  0.13804036  0.62473794  1
  Sr2+  Sr58  1  0.38593485  0.62746424  0.12956498  1
  Sr2+  Sr59  1  0.39078560  0.63290438  0.62447897  1
  Sr2+  Sr60  1  0.86545905  0.13579717  0.13036120  1
  Sr2+  Sr61  1  0.86948539  0.12474298  0.63048405  1
  Sr2+  Sr62  1  0.86029355  0.62650594  0.11755998  1
  Sr2+  Sr63  1  0.87423927  0.63364824  0.62656999  1
  Ca2+  Ca64  1  -0.00208578  0.49940060  0.50071013  1
  Ca2+  Ca65  1  0.50008693  0.50198924  0.49624257  1
  Ca2+  Ca66  1  0.50396723  0.00039120  0.50111135  1
  Ca2+  Ca67  1  0.00024544  -0.00235550  0.00235377  1
  Ca2+  Ca68  1  0.50021864  0.50010674  -0.00254845  1
  Ca2+  Ca69  1  0.25109773  0.75205109  -0.00063804  1
  Ca2+  Ca70  1  0.74759775  0.25120010  -0.00480650  1
  Ca2+  Ca71  1  0.74558894  0.74970330  -0.00523541  1
  Ca2+  Ca72  1  0.25107660  0.25215324  0.00553216  1
  Ca2+  Ca73  1  0.75187895  0.25179920  0.49872783  1
  Ca2+  Ca74  1  -0.00167863  0.24843772  0.75130131  1
  Ca2+  Ca75  1  0.75202987  0.00251038  0.25365156  1
  Ca2+  Ca76  1  0.49795225  0.24777909  0.74760036  1
  Ca2+  Ca77  1  0.49638183  0.24946816  0.24865831  1
  Ca2+  Ca78  1  0.75434189  0.49925035  0.25055095  1
  Ca2+  Ca79  1  0.24786064  0.00101640  0.74751637  1
  Ca2+  Ca80  1  0.25011334  0.49887928  0.74766676  1
  Ca2+  Ca81  1  -0.00116913  0.24762639  0.24786010  1
  Ca2+  Ca82  1  0.75317077  0.50183282  0.75423353  1
  Ca2+  Ca83  1  -0.00047652  0.74423401  0.24953948  1
  Ca2+  Ca84  1  0.50007108  0.75009667  0.25203242  1
  Nb5+  Nb85  1  0.50376096  -0.00176715  0.00200859  1
  Nb5+  Nb86  1  -0.00094863  0.50070377  0.00306963  1
  Nb5+  Nb87  1  0.00165130  -0.00145376  0.50034676  1
  Nb5+  Nb88  1  0.25467897  0.75214916  0.50146511  1
  Nb5+  Nb89  1  0.75521614  0.74799178  0.50121968  1
  Nb5+  Nb90  1  0.24904680  0.25212149  0.50089529  1
  Nb5+  Nb91  1  0.24870899  0.50729944  0.25008068  1
  Nb5+  Nb92  1  0.00452563  0.75243123  0.74980868  1
  Nb5+  Nb93  1  0.24894347  0.00704612  0.25221639  1
  Nb5+  Nb94  1  0.51020445  0.75306188  0.74593752  1
  Nb5+  Nb95  1  0.75133107  -0.00155267  0.75201376  1
  Nb5+  Nb96  1  0.00344779  -0.00134853  0.24252412  1
  Nb5+  Nb97  1  0.00073960  -0.00277426  0.75469165  1
  Nb5+  Nb98  1  -0.00361795  0.50238206  0.25042704  1
  Nb5+  Nb99  1  0.00032121  0.49545109  0.74588738  1
  Nb5+  Nb100  1  0.50332246  0.00219016  0.25870895  1
  Nb5+  Nb101  1  0.50225768  -0.00125858  0.74496088  1
  Nb5+  Nb102  1  0.50518568  0.49965009  0.25165227  1
  Nb5+  Nb103  1  0.49528117  0.49627127  0.75436302  1
  Nb5+  Nb104  1  0.25335063  0.25455997  0.24684341  1
  Nb5+  Nb105  1  0.24615605  0.25078186  0.75112142  1
  Nb5+  Nb106  1  0.25261553  0.75339867  0.24712974  1
  Nb5+  Nb107  1  0.25663502  0.75472770  0.74974915  1
  Nb5+  Nb108  1  0.74604651  0.25190331  0.25247228  1
  Nb5+  Nb109  1  0.75353101  0.25462967  0.75273379  1
  Nb5+  Nb110  1  0.75095603  0.74888452  0.24620655  1
  Nb5+  Nb111  1  0.75373229  0.75079989  0.75045181  1
  Nb5+  Nb112  1  -0.00405470  0.25040132  0.50382994  1
  Nb5+  Nb113  1  0.00180234  0.24432576  1.00027572  1
  Nb5+  Nb114  1  0.00732214  0.75088561  0.50396836  1
  Nb5+  Nb115  1  -0.00698644  0.74923155  1.00540954  1
  Nb5+  Nb116  1  0.50463863  0.25189821  0.50375667  1
  Nb5+  Nb117  1  0.49358808  0.25569403  0.99769722  1
  Nb5+  Nb118  1  0.51192521  0.75363930  0.49927640  1
  Nb5+  Nb119  1  0.49693796  0.75062669  1.00475025  1
  Nb5+  Nb120  1  0.25028393  -0.00283145  -0.00717328  1
  Nb5+  Nb121  1  0.24828282  0.00446782  0.50134619  1
  Nb5+  Nb122  1  0.25382306  0.50261490  -0.00031784  1
  Nb5+  Nb123  1  0.24447934  0.50549526  0.49940573  1
  Nb5+  Nb124  1  0.75140208  0.00074837  0.00764658  1
  Nb5+  Nb125  1  0.75070918  0.00106703  0.49726697  1
  Nb5+  Nb126  1  0.74484112  0.49728925  -0.00690930  1
  Nb5+  Nb127  1  0.75645675  0.49419126  0.49762192  1
  O2-  O128  1  0.03844894  0.00594735  0.13427609  1
  O2-  O129  1  0.01588435  0.00020005  0.62314366  1
  O2-  O130  1  0.02283671  0.51190815  0.11884747  1
  O2-  O131  1  0.02968337  0.50640562  0.63528113  1
  O2-  O132  1  0.51126663  -0.02310416  0.11781548  1
  O2-  O133  1  0.51975214  -0.03045563  0.63479135  1
  O2-  O134  1  0.51423839  0.47387225  0.13186629  1
  O2-  O135  1  0.50975201  0.48506906  0.63502935  1
  O2-  O136  1  -0.01551362  -0.01854628  0.38308876  1
  O2-  O137  1  -0.02659674  -0.01464265  0.86632182  1
  O2-  O138  1  -0.02278690  0.48573655  0.36371590  1
  O2-  O139  1  -0.01252005  0.49506343  0.87821370  1
  O2-  O140  1  0.48615070  0.03010518  0.36779043  1
  O2-  O141  1  0.49568482  0.00916150  0.87252639  1
  O2-  O142  1  0.48997058  0.53540730  0.36436448  1
  O2-  O143  1  0.49046459  0.53695830  0.86564661  1
  O2-  O144  1  0.26970593  0.22235180  0.13930413  1
  O2-  O145  1  0.26143480  0.23182863  0.61600171  1
  O2-  O146  1  0.26891185  0.72861081  0.13767416  1
  O2-  O147  1  0.25740318  0.72625836  0.61772305  1
  O2-  O148  1  0.76538726  0.24604905  0.13139826  1
  O2-  O149  1  0.77697501  0.24711178  0.63306304  1
  O2-  O150  1  0.76836927  0.75339373  0.13187852  1
  O2-  O151  1  0.76350332  0.75325874  0.62386964  1
  O2-  O152  1  0.22969472  0.26131369  0.37988818  1
  O2-  O153  1  0.22895276  0.26864631  0.86549611  1
  O2-  O154  1  0.22791624  0.76053873  0.38506868  1
  O2-  O155  1  0.24132300  0.78346413  0.86018329  1
  O2-  O156  1  0.71842293  0.25780344  0.36866928  1
  O2-  O157  1  0.71535118  0.24625140  0.86324876  1
  O2-  O158  1  0.73607036  0.74754676  0.38498182  1
  O2-  O159  1  0.73008965  0.76882157  0.86012040  1
  O2-  O160  1  -0.02905674  0.23978821  0.11562133  1
  O2-  O161  1  -0.01154519  0.21683522  0.61594502  1
  O2-  O162  1  -0.02207544  0.72592869  0.11584543  1
  O2-  O163  1  -0.01718219  0.74312339  0.62771080  1
  O2-  O164  1  0.46447688  0.25887091  0.11362295  1
  O2-  O165  1  0.46706149  0.26911383  0.61681523  1
  O2-  O166  1  0.46867466  0.76809549  0.11443420  1
  O2-  O167  1  0.48201175  0.76987885  0.62898876  1
  O2-  O168  1  0.26399953  -0.01524974  0.37746161  1
  O2-  O169  1  0.27877175  -0.01255761  0.88248613  1
  O2-  O170  1  0.27078471  0.48886162  0.37069594  1
  O2-  O171  1  0.26858583  0.48503603  0.88631757  1
  O2-  O172  1  0.78452565  0.00109467  0.38690369  1
  O2-  O173  1  0.76963866  -0.00453440  0.86718007  1
  O2-  O174  1  0.76499693  0.52357623  0.38411121  1
  O2-  O175  1  0.78570827  0.50664457  0.88396483  1
  O2-  O176  1  0.02052846  0.26386121  0.38682015  1
  O2-  O177  1  0.02875436  0.26182435  0.88361300  1
  O2-  O178  1  0.01202114  0.75949777  0.38865256  1
  O2-  O179  1  0.00801009  0.76126880  0.86738380  1
  O2-  O180  1  0.51844130  0.22851477  0.38730345  1
  O2-  O181  1  0.52039630  0.23033469  0.88223023  1
  O2-  O182  1  0.52537359  0.73461910  0.38786646  1
  O2-  O183  1  0.52082439  0.74038091  0.86444806  1
  O2-  O184  1  0.23362870  0.01353195  0.13628047  1
  O2-  O185  1  0.21944236  0.01081692  0.61189171  1
  O2-  O186  1  0.22872982  0.51677826  0.13304308  1
  O2-  O187  1  0.21960698  0.50542353  0.61180306  1
  O2-  O188  1  0.72623158  -0.00365137  0.11858080  1
  O2-  O189  1  0.74372046  -0.00236503  0.62238303  1
  O2-  O190  1  0.73551652  0.50350482  0.11383682  1
  O2-  O191  1  0.73714811  0.49049419  0.61751711  1
  O2-  O192  1  0.13542370  0.25728875  0.23747232  1
  O2-  O193  1  0.13245986  0.27500796  0.72067375  1
  O2-  O194  1  0.13625606  0.76861506  0.24011412  1
  O2-  O195  1  0.11887498  0.77098057  0.73293587  1
  O2-  O196  1  0.62929062  0.28022732  0.22992084  1
  O2-  O197  1  0.63502749  0.26730824  0.72068439  1
  O2-  O198  1  0.63333865  0.78227636  0.24187627  1
  O2-  O199  1  0.62358187  0.77422496  0.72879814  1
  O2-  O200  1  0.36320105  0.23408619  0.28367550  1
  O2-  O201  1  0.36228054  0.21614268  0.76222415  1
  O2-  O202  1  0.36368788  0.73679497  0.28564609  1
  O2-  O203  1  0.37285508  0.73742205  0.75884309  1
  O2-  O204  1  0.86421753  0.22214434  0.27531906  1
  O2-  O205  1  0.86435425  0.21626403  0.77329873  1
  O2-  O206  1  0.86476149  0.72385834  0.27304267  1
  O2-  O207  1  0.87001043  0.73297336  0.76167112  1
  O2-  O208  1  0.26704355  0.37171957  0.23782284  1
  O2-  O209  1  0.28119032  0.36439709  0.73046347  1
  O2-  O210  1  0.26851511  0.87258757  0.24091775  1
  O2-  O211  1  0.26178492  0.86533620  0.71046584  1
  O2-  O212  1  0.78509352  0.36754677  0.24963087  1
  O2-  O213  1  0.78020862  0.36676865  0.75743541  1
  O2-  O214  1  0.77551555  0.86721950  0.26211343  1
  O2-  O215  1  0.76808567  0.87582488  0.73601582  1
  O2-  O216  1  0.23405620  0.12050905  0.27307894  1
  O2-  O217  1  0.21483254  0.13317173  0.75457974  1
  O2-  O218  1  0.23617976  0.62325852  0.27065749  1
  O2-  O219  1  0.22584598  0.64041723  0.76008443  1
  O2-  O220  1  0.71773569  0.13333138  0.24968894  1
  O2-  O221  1  0.73169090  0.11465696  0.74573236  1
  O2-  O222  1  0.71650192  0.63541249  0.24912941  1
  O2-  O223  1  0.72372786  0.63882063  0.74688979  1
  O2-  O224  1  0.13382578  0.47587170  0.26375592  1
  O2-  O225  1  0.11593338  0.48797655  0.77697628  1
  O2-  O226  1  0.13177406  0.97626150  0.26750800  1
  O2-  O227  1  0.11194799  0.96409205  0.76326466  1
  O2-  O228  1  0.61785426  0.48017294  0.26913627  1
  O2-  O229  1  0.61577311  0.48807462  0.76454630  1
  O2-  O230  1  0.61531343  0.97923346  0.27239082  1
  O2-  O231  1  0.63320539  0.97467231  0.76249432  1
  O2-  O232  1  0.36743529  0.01748817  0.23890262  1
  O2-  O233  1  0.38768655  0.01476640  0.73056160  1
  O2-  O234  1  0.36713591  0.51432452  0.23072866  1
  O2-  O235  1  0.38224570  0.53156637  0.73530519  1
  O2-  O236  1  0.88910301  0.01742661  0.22297925  1
  O2-  O237  1  0.87443950  0.01102900  0.73104772  1
  O2-  O238  1  0.88821954  0.53380254  0.22961983  1
  O2-  O239  1  0.88846700  0.53284965  0.73549888  1
  O2-  O240  1  0.47219068  0.38660228  0.27290648  1
  O2-  O241  1  0.47728154  0.38430110  0.77753975  1
  O2-  O242  1  0.46992398  0.88846380  0.26029194  1
  O2-  O243  1  0.48548048  0.87289943  0.76846348  1
  O2-  O244  1  0.99222700  0.38604949  0.22659524  1
  O2-  O245  1  0.97151984  0.38370718  0.74199695  1
  O2-  O246  1  0.98345964  0.88137532  0.24636516  1
  O2-  O247  1  0.97341521  0.86910346  0.74047965  1
  O2-  O248  1  0.01891232  0.11078286  0.27593421  1
  O2-  O249  1  0.02175667  0.11017134  0.76046223  1
  O2-  O250  1  0.04056119  0.61216491  0.25607619  1
  O2-  O251  1  0.01832151  0.63336064  0.75666037  1
  O2-  O252  1  0.51080085  0.11244233  0.21684835  1
  O2-  O253  1  0.52900683  0.11117218  0.73623779  1
  O2-  O254  1  0.50837699  0.61655192  0.21817718  1
  O2-  O255  1  0.51703220  0.63661939  0.72935284  1
  O2-  O256  1  0.12368657  0.48356076  -0.01106127  1
  O2-  O257  1  0.13221021  0.48679708  0.46596687  1
  O2-  O258  1  0.13626873  0.97249756  -0.01931992  1
  O2-  O259  1  0.12260713  0.97574837  0.48489108  1
  O2-  O260  1  0.63462928  0.46909265  -0.02951995  1
  O2-  O261  1  0.63698686  0.48040052  0.48410601  1
  O2-  O262  1  0.62239358  0.98018443  -0.01601559  1
  O2-  O263  1  0.63927897  0.97336228  0.47929909  1
  O2-  O264  1  0.37990828  0.01517629  0.01369324  1
  O2-  O265  1  0.36241645  0.01338352  0.51996771  1
  O2-  O266  1  0.36534625  0.52754770  0.02136893  1
  O2-  O267  1  0.36175965  0.51588138  0.51379921  1
  O2-  O268  1  0.86476274  0.02805992  0.02049736  1
  O2-  O269  1  0.88189256  0.01300116  0.52047236  1
  O2-  O270  1  0.88365139  0.52263419  0.01639025  1
  O2-  O271  1  0.86715035  0.53719636  0.51702901  1
  O2-  O272  1  0.47298607  0.36713456  -0.02555001  1
  O2-  O273  1  0.47747202  0.36704135  0.47818482  1
  O2-  O274  1  0.48129662  0.87936247  -0.01946804  1
  O2-  O275  1  0.47139661  0.86416116  0.48716431  1
  O2-  O276  1  0.98403728  0.38170856  0.00585501  1
  O2-  O277  1  0.98666425  0.36306570  0.52815832  1
  O2-  O278  1  0.96781214  0.86373083  0.01048031  1
  O2-  O279  1  0.98437872  0.87248050  0.51355345  1
  O2-  O280  1  0.02581119  0.13103182  -0.00829566  1
  O2-  O281  1  0.01897164  0.11461731  0.48617121  1
  O2-  O282  1  0.01934834  0.62342288  -0.01544417  1
  O2-  O283  1  0.02155995  0.63543852  0.50094226  1
  O2-  O284  1  0.51619650  0.11622684  0.01184002  1
  O2-  O285  1  0.51063189  0.13411673  0.53073420  1
  O2-  O286  1  0.51947648  0.63747465  0.01653217  1
  O2-  O287  1  0.51115220  0.63965049  0.52962365  1
  O2-  O288  1  0.11618578  0.27031820  0.03060198  1
  O2-  O289  1  0.12659874  0.25354053  0.51732963  1
  O2-  O290  1  0.11123021  0.77082120  0.00965311  1
  O2-  O291  1  0.12338802  0.76759609  0.52188744  1
  O2-  O292  1  0.61013242  0.26654748  0.02445596  1
  O2-  O293  1  0.61636787  0.27360582  0.52516003  1
  O2-  O294  1  0.61125394  0.78212355  0.00962929  1
  O2-  O295  1  0.62581676  0.77703438  0.51564140  1
  O2-  O296  1  0.37984747  0.22196913  -0.02551625  1
  O2-  O297  1  0.36524648  0.23399921  0.48257313  1
  O2-  O298  1  0.38491741  0.73888898  -0.03553855  1
  O2-  O299  1  0.36835326  0.73259396  0.48690216  1
  O2-  O300  1  0.88517527  0.23743705  -0.02886130  1
  O2-  O301  1  0.88621176  0.22616872  0.47606834  1
  O2-  O302  1  0.88089801  0.72501374  -0.02732240  1
  O2-  O303  1  0.87339070  0.73291422  0.49153082  1
  O2-  O304  1  0.26433942  0.38746958  0.02915627  1
  O2-  O305  1  0.25727162  0.37210656  0.50877656  1
  O2-  O306  1  0.26721736  0.88589496  0.03284725  1
  O2-  O307  1  0.26381560  0.87078348  0.51171127  1
  O2-  O308  1  0.78051735  0.38372125  0.00209395  1
  O2-  O309  1  0.79230755  0.38476026  0.49112525  1
  O2-  O310  1  0.77315925  0.88550471  -0.00331179  1
  O2-  O311  1  0.77055167  0.87138087  0.50271437  1
  O2-  O312  1  0.22778514  0.11293829  -0.00302125  1
  O2-  O313  1  0.23486706  0.12089617  0.48179480  1
  O2-  O314  1  0.22255563  0.61795351  -0.01026900  1
  O2-  O315  1  0.23275417  0.62444741  0.48507616  1
  O2-  O316  1  0.72556068  0.11450435  -0.01268001  1
  O2-  O317  1  0.72782990  0.11503974  0.50158695  1
  O2-  O318  1  0.71958695  0.61681830  -0.00399119  1
  O2-  O319  1  0.72417129  0.63439368  0.50993422  1
