# generated using pymatgen
data_Sr64Ca21Nb43O192
_symmetry_space_group_name_H-M   'P 1'
_cell_length_a   16.55136875
_cell_length_b   16.57050254
_cell_length_c   16.70921990
_cell_angle_alpha   89.97925739
_cell_angle_beta   89.96364667
_cell_angle_gamma   89.94675604
_symmetry_Int_Tables_number   1
_chemical_formula_structural   Sr64Ca21Nb43O192
_chemical_formula_sum   'Sr64 Ca21 Nb43 O192'
_cell_volume   4582.74260647
_cell_formula_units_Z   1
loop_
 _symmetry_equiv_pos_site_id
 _symmetry_equiv_pos_as_xyz
  1  'x, y, z'
loop_
 _atom_type_symbol
 _atom_type_oxidation_number
  Sr2+  2.0
  Ca2+  2.0
  Nb5+  5.0
  O2-  -2.0
loop_
 _atom_site_type_symbol
 _atom_site_label
 _atom_site_symmetry_multiplicity
 _atom_site_fract_x
 _atom_site_fract_y
 _atom_site_fract_z
 _atom_site_occupancy
  Sr2+  Sr0  1  0.11349139  0.13637816  0.12335256  1
  Sr2+  Sr1  1  0.11672402  0.13269234  0.63076925  1
  Sr2+  Sr2  1  0.11974276  0.61512378  0.12626551  1
  Sr2+  Sr3  1  0.12571512  0.60375741  0.62538697  1
  Sr2+  Sr4  1  0.61991735  0.13359602  0.12349584  1
  Sr2+  Sr5  1  0.62055672  0.13750168  0.62189501  1
  Sr2+  Sr6  1  0.61774184  0.61247341  0.12513500  1
  Sr2+  Sr7  1  0.61440793  0.61197757  0.62073315  1
  Sr2+  Sr8  1  0.36930194  0.37744571  0.12591874  1
  Sr2+  Sr9  1  0.37024868  0.37901050  0.63306136  1
  Sr2+  Sr10  1  0.37089160  0.87744060  0.12055129  1
  Sr2+  Sr11  1  0.36212571  0.88406071  0.61678284  1
  Sr2+  Sr12  1  0.86406790  0.37599686  0.12079650  1
  Sr2+  Sr13  1  0.86658114  0.36947926  0.62313301  1
  Sr2+  Sr14  1  0.87036467  0.87855629  0.12488757  1
  Sr2+  Sr15  1  0.86667016  0.87299264  0.63118835  1
  Sr2+  Sr16  1  0.13373669  0.37885525  0.36891042  1
  Sr2+  Sr17  1  0.12863711  0.37384366  0.86586277  1
  Sr2+  Sr18  1  0.13646291  0.87304268  0.37573333  1
  Sr2+  Sr19  1  0.11190575  0.87353091  0.87808133  1
  Sr2+  Sr20  1  0.63287945  0.37225236  0.38589581  1
  Sr2+  Sr21  1  0.63300144  0.37900032  0.87843054  1
  Sr2+  Sr22  1  0.63970080  0.87354581  0.37119425  1
  Sr2+  Sr23  1  0.62105397  0.87547367  0.87116615  1
  Sr2+  Sr24  1  0.37097921  0.12482852  0.37511594  1
  Sr2+  Sr25  1  0.37474144  0.12474644  0.87207239  1
  Sr2+  Sr26  1  0.39120521  0.63432296  0.37338429  1
  Sr2+  Sr27  1  0.37189969  0.62572671  0.87371936  1
  Sr2+  Sr28  1  0.88293238  0.12897069  0.38496606  1
  Sr2+  Sr29  1  0.88437094  0.12143839  0.87426030  1
  Sr2+  Sr30  1  0.89284180  0.62940777  0.37332358  1
  Sr2+  Sr31  1  0.88634905  0.63512037  0.86787404  1
  Sr2+  Sr32  1  0.13441180  0.12179874  0.37004261  1
  Sr2+  Sr33  1  0.12569277  0.12003035  0.87306664  1
  Sr2+  Sr34  1  0.13238807  0.62671844  0.36678900  1
  Sr2+  Sr35  1  0.13302654  0.63537834  0.86904822  1
  Sr2+  Sr36  1  0.63582875  0.11807025  0.37894076  1
  Sr2+  Sr37  1  0.62476316  0.12164769  0.87531136  1
  Sr2+  Sr38  1  0.63321818  0.63072869  0.37111323  1
  Sr2+  Sr39  1  0.63278820  0.63796034  0.88471349  1
  Sr2+  Sr40  1  0.38206140  0.37757660  0.37234492  1
  Sr2+  Sr41  1  0.38462690  0.38034482  0.87326398  1
  Sr2+  Sr42  1  0.37820858  0.87538120  0.38342714  1
  Sr2+  Sr43  1  0.37592967  0.88188700  0.87626737  1
  Sr2+  Sr44  1  0.88282849  0.39029662  0.38745275  1
  Sr2+  Sr45  1  0.88571450  0.38820901  0.87266168  1
  Sr2+  Sr46  1  0.87780531  0.87091971  0.37161609  1
  Sr2+  Sr47  1  0.87574151  0.86916860  0.86272213  1
  Sr2+  Sr48  1  0.12848938  0.36928158  0.13076110  1
  Sr2+  Sr49  1  0.10007941  0.37562703  0.62648709  1
  Sr2+  Sr50  1  0.11534259  0.87577392  0.12441425  1
  Sr2+  Sr51  1  0.12135945  0.87184240  0.60955175  1
  Sr2+  Sr52  1  0.62577027  0.37311550  0.12210957  1
  Sr2+  Sr53  1  0.61562997  0.36636691  0.62491104  1
  Sr2+  Sr54  1  0.61827840  0.87548683  0.12856671  1
  Sr2+  Sr55  1  0.62012896  0.87318505  0.63936236  1
  Sr2+  Sr56  1  0.36190397  0.13779850  0.12580752  1
  Sr2+  Sr57  1  0.36043588  0.13382960  0.62795554  1
  Sr2+  Sr58  1  0.37040990  0.61998889  0.12453729  1
  Sr2+  Sr59  1  0.36636358  0.62279707  0.61227438  1
  Sr2+  Sr60  1  0.86535413  0.13114381  0.12237442  1
  Sr2+  Sr61  1  0.87178681  0.13078787  0.62547304  1
  Sr2+  Sr62  1  0.86464718  0.61843184  0.13097934  1
  Sr2+  Sr63  1  0.86760325  0.61526200  0.62926956  1
  Ca2+  Ca64  1  0.49813254  0.49839201  0.49933103  1
  Ca2+  Ca65  1  0.50244373  0.00125048  0.49928766  1
  Ca2+  Ca66  1  0.00243792  0.50330159  -0.00078496  1
  Ca2+  Ca67  1  -0.00216527  0.00081752  0.49701813  1
  Ca2+  Ca68  1  0.00169273  0.50283947  0.49849559  1
  Ca2+  Ca69  1  0.24935101  0.25224355  0.50218606  1
  Ca2+  Ca70  1  0.24884508  0.24855931  -0.00223477  1
  Ca2+  Ca71  1  0.75100883  0.75275298  0.50237097  1
  Ca2+  Ca72  1  0.75224535  0.24940555  -0.00465780  1
  Ca2+  Ca73  1  0.75133019  0.75298341  0.00069235  1
  Ca2+  Ca74  1  0.00551705  0.74918775  0.74643164  1
  Ca2+  Ca75  1  -0.00574884  0.25080092  0.75165327  1
  Ca2+  Ca76  1  0.49325338  0.74673568  0.75137952  1
  Ca2+  Ca77  1  0.25341795  0.50288536  0.25185577  1
  Ca2+  Ca78  1  0.74941336  0.49866174  0.25216601  1
  Ca2+  Ca79  1  0.50200971  0.24807420  0.25234472  1
  Ca2+  Ca80  1  0.25083512  -0.00063581  0.24718333  1
  Ca2+  Ca81  1  0.74660389  0.49860842  0.75102890  1
  Ca2+  Ca82  1  -0.00623269  0.25004119  0.25041438  1
  Ca2+  Ca83  1  0.25122569  0.50131391  0.75274233  1
  Ca2+  Ca84  1  0.24918493  -0.00518932  0.75046378  1
  Nb5+  Nb85  1  -0.00735055  0.00017199  0.00158447  1
  Nb5+  Nb86  1  0.49999806  0.50467222  -0.00101091  1
  Nb5+  Nb87  1  0.49783752  0.00505240  0.00251068  1
  Nb5+  Nb88  1  0.25097507  0.74674782  0.49124770  1
  Nb5+  Nb89  1  0.74875348  0.24924033  0.50024329  1
  Nb5+  Nb90  1  0.25094153  0.75170382  -0.00248626  1
  Nb5+  Nb91  1  0.75237783  0.00208512  0.25172259  1
  Nb5+  Nb92  1  0.00770894  0.75396276  0.25126706  1
  Nb5+  Nb93  1  0.49691617  0.24855774  0.75149222  1
  Nb5+  Nb94  1  0.50616923  0.75253994  0.24805016  1
  Nb5+  Nb95  1  0.74917327  0.00420934  0.75865562  1
  Nb5+  Nb96  1  0.00051206  -0.00048318  0.25021436  1
  Nb5+  Nb97  1  0.00170675  -0.00007831  0.74725647  1
  Nb5+  Nb98  1  -0.00230103  0.49412161  0.24295311  1
  Nb5+  Nb99  1  -0.00118029  0.50146230  0.75266159  1
  Nb5+  Nb100  1  0.50214009  0.00093973  0.24868002  1
  Nb5+  Nb101  1  0.50004495  0.00338544  0.74499704  1
  Nb5+  Nb102  1  0.49970659  0.49417071  0.25064607  1
  Nb5+  Nb103  1  0.50333786  0.50449079  0.75322629  1
  Nb5+  Nb104  1  0.25072003  0.24891166  0.25246462  1
  Nb5+  Nb105  1  0.24464461  0.24950391  0.75093535  1
  Nb5+  Nb106  1  0.25634643  0.75394601  0.24274908  1
  Nb5+  Nb107  1  0.25160170  0.75114066  0.73696531  1
  Nb5+  Nb108  1  0.75519146  0.25453064  0.25219180  1
  Nb5+  Nb109  1  0.74828125  0.24757986  0.75319930  1
  Nb5+  Nb110  1  0.75560908  0.75073218  0.24550973  1
  Nb5+  Nb111  1  0.74580527  0.74445098  0.74474506  1
  Nb5+  Nb112  1  0.00350266  0.25400642  0.49649466  1
  Nb5+  Nb113  1  -0.00391681  0.25733191  1.00209846  1
  Nb5+  Nb114  1  0.00113497  0.74423869  0.50557651  1
  Nb5+  Nb115  1  0.00004329  0.74830157  1.00446422  1
  Nb5+  Nb116  1  0.49509137  0.24834964  0.49741434  1
  Nb5+  Nb117  1  0.49769334  0.25616143  1.00120485  1
  Nb5+  Nb118  1  0.50481636  0.75295703  0.50389673  1
  Nb5+  Nb119  1  0.49728466  0.75499082  1.00130791  1
  Nb5+  Nb120  1  0.24243059  -0.00280592  0.00404685  1
  Nb5+  Nb121  1  0.24471889  0.00615187  0.50357842  1
  Nb5+  Nb122  1  0.24932598  0.49629163  0.00010438  1
  Nb5+  Nb123  1  0.25381405  0.49466747  0.49872652  1
  Nb5+  Nb124  1  0.74346550  -0.00398035  0.00520338  1
  Nb5+  Nb125  1  0.75063695  -0.00125481  0.50934376  1
  Nb5+  Nb126  1  0.75424465  0.50548776  -0.00463667  1
  Nb5+  Nb127  1  0.74520988  0.50628390  0.50083586  1
  O2-  O128  1  0.01371653  0.00919292  0.12197098  1
  O2-  O129  1  0.01158452  0.02040594  0.63539878  1
  O2-  O130  1  -0.01524785  0.53578359  0.13106328  1
  O2-  O131  1  -0.01174003  0.52933353  0.63480115  1
  O2-  O132  1  0.53061413  0.00722489  0.11760301  1
  O2-  O133  1  0.53006666  0.01270968  0.63527437  1
  O2-  O134  1  0.48301285  0.51464926  0.11815370  1
  O2-  O135  1  0.48532311  0.52264409  0.63930248  1
  O2-  O136  1  -0.03028702  -0.01416441  0.36042340  1
  O2-  O137  1  -0.01828317  -0.02223053  0.88450920  1
  O2-  O138  1  0.01436356  0.47691679  0.36066921  1
  O2-  O139  1  0.01453388  0.46876731  0.86915051  1
  O2-  O140  1  0.48471689  -0.01715869  0.36024077  1
  O2-  O141  1  0.49199480  -0.01421502  0.88388645  1
  O2-  O142  1  0.51543064  0.47656795  0.36346002  1
  O2-  O143  1  0.51466521  0.47571264  0.88363452  1
  O2-  O144  1  0.26333790  0.27191166  0.13299636  1
  O2-  O145  1  0.27351732  0.26566708  0.63651450  1
  O2-  O146  1  0.24476237  0.77750530  0.13079509  1
  O2-  O147  1  0.24793695  0.76853923  0.62156309  1
  O2-  O148  1  0.75709953  0.26474396  0.13502490  1
  O2-  O149  1  0.74749999  0.25973359  0.62411200  1
  O2-  O150  1  0.74411299  0.78469861  0.13385539  1
  O2-  O151  1  0.74124462  0.78605843  0.63334772  1
  O2-  O152  1  0.24547736  0.22321878  0.36969141  1
  O2-  O153  1  0.24137277  0.21666957  0.86605181  1
  O2-  O154  1  0.25782888  0.72779630  0.37565782  1
  O2-  O155  1  0.26030677  0.73392878  0.88465660  1
  O2-  O156  1  0.74176063  0.23033670  0.38019199  1
  O2-  O157  1  0.73284160  0.22272954  0.86348857  1
  O2-  O158  1  0.74917152  0.74061284  0.36397288  1
  O2-  O159  1  0.76233586  0.73219374  0.86342112  1
  O2-  O160  1  -0.01402274  0.22128563  0.11651759  1
  O2-  O161  1  -0.00403245  0.22608270  0.61443630  1
  O2-  O162  1  0.02167408  0.74236250  0.12816517  1
  O2-  O163  1  0.02753611  0.72353070  0.61422446  1
  O2-  O164  1  0.49667395  0.23120111  0.11499606  1
  O2-  O165  1  0.49465444  0.22632461  0.63337449  1
  O2-  O166  1  0.51216690  0.73397610  0.12415610  1
  O2-  O167  1  0.51110455  0.72841242  0.61539280  1
  O2-  O168  1  0.25943188  0.02150733  0.38418375  1
  O2-  O169  1  0.27153999  0.00903287  0.88974559  1
  O2-  O170  1  0.22226917  0.51076478  0.38517179  1
  O2-  O171  1  0.23984524  0.53367283  0.88970662  1
  O2-  O172  1  0.76664275  0.02158424  0.36373873  1
  O2-  O173  1  0.75812196  0.02568592  0.87308453  1
  O2-  O174  1  0.71622890  0.50260899  0.38381316  1
  O2-  O175  1  0.71521083  0.51473986  0.88418607  1
  O2-  O176  1  -0.02038770  0.27441610  0.38311377  1
  O2-  O177  1  0.01473355  0.26665815  0.88526642  1
  O2-  O178  1  -0.00645018  0.77346454  0.36798192  1
  O2-  O179  1  -0.00760615  0.77117225  0.88926351  1
  O2-  O180  1  0.50041039  0.27822339  0.38656630  1
  O2-  O181  1  0.50711286  0.26274961  0.87429138  1
  O2-  O182  1  0.48988813  0.76982130  0.36386329  1
  O2-  O183  1  0.47175830  0.75940479  0.88859072  1
  O2-  O184  1  0.24398664  -0.03732282  0.11588472  1
  O2-  O185  1  0.23459634  -0.03169464  0.61708123  1
  O2-  O186  1  0.27876156  0.49565930  0.11532040  1
  O2-  O187  1  0.27877197  0.49950089  0.61804702  1
  O2-  O188  1  0.73965237  -0.02625444  0.11887392  1
  O2-  O189  1  0.73600348  -0.01854219  0.62328361  1
  O2-  O190  1  0.76479660  0.48579866  0.11444524  1
  O2-  O191  1  0.77471036  0.48763933  0.61523772  1
  O2-  O192  1  0.13092729  0.27519743  0.25004546  1
  O2-  O193  1  0.13062537  0.26804299  0.73715889  1
  O2-  O194  1  0.12507173  0.77168146  0.25846242  1
  O2-  O195  1  0.13931477  0.78378646  0.76256670  1
  O2-  O196  1  0.63715891  0.27321027  0.25307456  1
  O2-  O197  1  0.62121862  0.25623116  0.74066702  1
  O2-  O198  1  0.62299588  0.77160022  0.25372063  1
  O2-  O199  1  0.63034668  0.77309136  0.76291147  1
  O2-  O200  1  0.36950041  0.21922951  0.25733461  1
  O2-  O201  1  0.38075557  0.22632592  0.76116488  1
  O2-  O202  1  0.37593927  0.73770801  0.23720233  1
  O2-  O203  1  0.36359279  0.70643062  0.74089746  1
  O2-  O204  1  0.86101259  0.20429006  0.25721745  1
  O2-  O205  1  0.86064703  0.21872164  0.75048993  1
  O2-  O206  1  0.87464367  0.73738049  0.24101528  1
  O2-  O207  1  0.86689835  0.73876206  0.73444488  1
  O2-  O208  1  0.27339662  0.36780657  0.27334178  1
  O2-  O209  1  0.26789849  0.36338401  0.77977382  1
  O2-  O210  1  0.26576724  0.86445175  0.28201889  1
  O2-  O211  1  0.29220773  0.86076766  0.75997179  1
  O2-  O212  1  0.78708243  0.36312427  0.27051810  1
  O2-  O213  1  0.76622862  0.36042061  0.76784237  1
  O2-  O214  1  0.76703437  0.87847831  0.26882944  1
  O2-  O215  1  0.76105677  0.88584207  0.76567601  1
  O2-  O216  1  0.22480557  0.13174025  0.22589519  1
  O2-  O217  1  0.23381640  0.12951013  0.72628234  1
  O2-  O218  1  0.22951598  0.64039317  0.23641228  1
  O2-  O219  1  0.21561044  0.63678955  0.74014031  1
  O2-  O220  1  0.72510876  0.11463496  0.22839261  1
  O2-  O221  1  0.72863783  0.11770529  0.72550224  1
  O2-  O222  1  0.73203634  0.63843528  0.22719935  1
  O2-  O223  1  0.72686843  0.63389702  0.71867216  1
  O2-  O224  1  0.11703152  0.49358720  0.22707315  1
  O2-  O225  1  0.11695962  0.47748212  0.73573380  1
  O2-  O226  1  0.11190449  0.96983142  0.25895955  1
  O2-  O227  1  0.11343442  0.98486376  0.77419210  1
  O2-  O228  1  0.61384084  0.49159309  0.22045224  1
  O2-  O229  1  0.61298545  0.46263144  0.74120802  1
  O2-  O230  1  0.63133800  0.97307590  0.25465789  1
  O2-  O231  1  0.62713726  0.98882987  0.77076929  1
  O2-  O232  1  0.39078644  0.01633575  0.22099790  1
  O2-  O233  1  0.38675962  0.02328769  0.73681315  1
  O2-  O234  1  0.38849551  0.53381563  0.25990208  1
  O2-  O235  1  0.38834076  0.50392586  0.78020093  1
  O2-  O236  1  0.86938209  0.00789918  0.22027950  1
  O2-  O237  1  0.86825765  0.01662477  0.74213388  1
  O2-  O238  1  0.88318450  0.52621964  0.26513752  1
  O2-  O239  1  0.87912925  0.51973957  0.77442732  1
  O2-  O240  1  0.47466201  0.38385651  0.22988999  1
  O2-  O241  1  0.48012078  0.36461010  0.73922772  1
  O2-  O242  1  0.49019758  0.87276233  0.22307093  1
  O2-  O243  1  0.48952380  0.88640079  0.74193385  1
  O2-  O244  1  0.98158522  0.38439337  0.21408455  1
  O2-  O245  1  0.97218525  0.38331830  0.72809857  1
  O2-  O246  1  0.97851419  0.87149887  0.22884180  1
  O2-  O247  1  0.97430674  0.88506792  0.73850611  1
  O2-  O248  1  0.02124105  0.11217618  0.26174638  1
  O2-  O249  1  0.00577591  0.11406411  0.77998500  1
  O2-  O250  1  0.01468070  0.63763851  0.26647049  1
  O2-  O251  1  0.01534616  0.61817894  0.78179438  1
  O2-  O252  1  0.53258715  0.11159995  0.25975828  1
  O2-  O253  1  0.51635975  0.12303599  0.77438419  1
  O2-  O254  1  0.52163136  0.63424450  0.26218332  1
  O2-  O255  1  0.53076572  0.61305772  0.77633718  1
  O2-  O256  1  0.13687841  0.48475360  0.02466743  1
  O2-  O257  1  0.13701104  0.48372218  0.52687706  1
  O2-  O258  1  0.12783584  0.97952425  -0.01233573  1
  O2-  O259  1  0.13072558  0.97350274  0.48433711  1
  O2-  O260  1  0.61572170  0.48123607  0.01913765  1
  O2-  O261  1  0.63053415  0.47634523  0.52602496  1
  O2-  O262  1  0.62909886  0.97799349  -0.01486288  1
  O2-  O263  1  0.63967765  0.98850052  0.46977355  1
  O2-  O264  1  0.38408647  0.01207502  0.02120002  1
  O2-  O265  1  0.36448838  0.01452156  0.51834318  1
  O2-  O266  1  0.38035087  0.51500610  -0.01694290  1
  O2-  O267  1  0.36692196  0.53174579  0.47723173  1
  O2-  O268  1  0.87735469  0.01592788  0.01494138  1
  O2-  O269  1  0.86331452  0.03256077  0.50995123  1
  O2-  O270  1  0.86585768  0.52926944  -0.02409234  1
  O2-  O271  1  0.86205628  0.51911118  0.47373033  1
  O2-  O272  1  0.47715384  0.37194451  0.01360927  1
  O2-  O273  1  0.48182949  0.36230101  0.53238404  1
  O2-  O274  1  0.48801064  0.87361130  0.01769241  1
  O2-  O275  1  0.47100412  0.86621908  0.51199306  1
  O2-  O276  1  0.97038226  0.36806646  0.01811609  1
  O2-  O277  1  0.97201592  0.36922285  0.52197354  1
  O2-  O278  1  0.99377722  0.87638469  0.02247667  1
  O2-  O279  1  0.98455001  0.86241805  0.51981725  1
  O2-  O280  1  0.02193862  0.11148514  -0.01670888  1
  O2-  O281  1  0.01976674  0.13682319  0.47150019  1
  O2-  O282  1  0.03366783  0.63952922  -0.01276853  1
  O2-  O283  1  0.02077181  0.63549228  0.46268260  1
  O2-  O284  1  0.52128919  0.11842757  -0.01289140  1
  O2-  O285  1  0.53034702  0.13521674  0.48639460  1
  O2-  O286  1  0.51313592  0.62330126  -0.01233842  1
  O2-  O287  1  0.51851216  0.63825031  0.47043514  1
  O2-  O288  1  0.11487227  0.26106036  0.02116942  1
  O2-  O289  1  0.11566102  0.28309416  0.49752663  1
  O2-  O290  1  0.13437730  0.77614681  -0.00227678  1
  O2-  O291  1  0.13072983  0.76869483  0.48688549  1
  O2-  O292  1  0.61586681  0.26654055  0.00332357  1
  O2-  O293  1  0.62605870  0.26827637  0.50734694  1
  O2-  O294  1  0.61278232  0.76577634  -0.01616238  1
  O2-  O295  1  0.61554085  0.78260208  0.49042772  1
  O2-  O296  1  0.38532107  0.22172956  -0.01173478  1
  O2-  O297  1  0.38393320  0.21618827  0.49630469  1
  O2-  O298  1  0.37454190  0.73945929  0.02457740  1
  O2-  O299  1  0.37321624  0.73220108  0.50005348  1
  O2-  O300  1  0.88403730  0.21821563  -0.01428591  1
  O2-  O301  1  0.86552015  0.22889781  0.50440456  1
  O2-  O302  1  0.88802420  0.72946247  0.02090767  1
  O2-  O303  1  0.88623804  0.72296806  0.51067810  1
  O2-  O304  1  0.26757259  0.38503235  -0.02346503  1
  O2-  O305  1  0.28269021  0.38383168  0.48551138  1
  O2-  O306  1  0.27688756  0.87093791  -0.01272099  1
  O2-  O307  1  0.26746391  0.86746758  0.48365048  1
  O2-  O308  1  0.76689074  0.38531386  -0.02093876  1
  O2-  O309  1  0.76380441  0.36719151  0.48533203  1
  O2-  O310  1  0.77711958  0.88758819  -0.02622837  1
  O2-  O311  1  0.77848164  0.88903738  0.48265601  1
  O2-  O312  1  0.23640192  0.10976565  0.02803951  1
  O2-  O313  1  0.22135677  0.11687874  0.52620539  1
  O2-  O314  1  0.24047132  0.63662966  0.02628973  1
  O2-  O315  1  0.23260124  0.63303433  0.51816895  1
  O2-  O316  1  0.73386200  0.11214362  0.01990284  1
  O2-  O317  1  0.72683049  0.12664878  0.51350853  1
  O2-  O318  1  0.72305527  0.61948051  0.01901669  1
  O2-  O319  1  0.72086562  0.61916449  0.51393515  1
