# generated using pymatgen
data_Sr64Ca21Nb43O192
_symmetry_space_group_name_H-M   'P 1'
_cell_length_a   16.55429041
_cell_length_b   16.54017555
_cell_length_c   16.70169188
_cell_angle_alpha   89.98918828
_cell_angle_beta   89.99775469
_cell_angle_gamma   89.95303482
_symmetry_Int_Tables_number   1
_chemical_formula_structural   Sr64Ca21Nb43O192
_chemical_formula_sum   'Sr64 Ca21 Nb43 O192'
_cell_volume   4573.10315323
_cell_formula_units_Z   1
loop_
 _symmetry_equiv_pos_site_id
 _symmetry_equiv_pos_as_xyz
  1  'x, y, z'
loop_
 _atom_type_symbol
 _atom_type_oxidation_number
  Sr2+  2.0
  Ca2+  2.0
  Nb5+  5.0
  O2-  -2.0
loop_
 _atom_site_type_symbol
 _atom_site_label
 _atom_site_symmetry_multiplicity
 _atom_site_fract_x
 _atom_site_fract_y
 _atom_site_fract_z
 _atom_site_occupancy
  Sr2+  Sr0  1  0.12343054  0.12879094  0.12853864  1
  Sr2+  Sr1  1  0.12335219  0.13921110  0.62347943  1
  Sr2+  Sr2  1  0.12665634  0.63969553  0.12962732  1
  Sr2+  Sr3  1  0.12184482  0.63066847  0.61953950  1
  Sr2+  Sr4  1  0.62555995  0.13227105  0.12381737  1
  Sr2+  Sr5  1  0.61699331  0.12836579  0.62553626  1
  Sr2+  Sr6  1  0.60890482  0.62263508  0.12483566  1
  Sr2+  Sr7  1  0.61932645  0.63606825  0.62626205  1
  Sr2+  Sr8  1  0.38551553  0.39059960  0.12272341  1
  Sr2+  Sr9  1  0.37291180  0.37082292  0.62291358  1
  Sr2+  Sr10  1  0.37973565  0.88215091  0.12742555  1
  Sr2+  Sr11  1  0.38291687  0.89185538  0.62907505  1
  Sr2+  Sr12  1  0.86520528  0.38326910  0.12596586  1
  Sr2+  Sr13  1  0.87706719  0.38752109  0.62187323  1
  Sr2+  Sr14  1  0.87073617  0.88844064  0.12430814  1
  Sr2+  Sr15  1  0.86134364  0.88166921  0.62251918  1
  Sr2+  Sr16  1  0.12790316  0.37594604  0.37979372  1
  Sr2+  Sr17  1  0.11728771  0.37003840  0.86924463  1
  Sr2+  Sr18  1  0.13083468  0.86899194  0.37437650  1
  Sr2+  Sr19  1  0.13075599  0.87194483  0.88248366  1
  Sr2+  Sr20  1  0.63192977  0.36500785  0.37419127  1
  Sr2+  Sr21  1  0.64442542  0.37168516  0.88100170  1
  Sr2+  Sr22  1  0.64067515  0.86730605  0.37535007  1
  Sr2+  Sr23  1  0.63610271  0.86115947  0.87206150  1
  Sr2+  Sr24  1  0.37513944  0.11783300  0.38561689  1
  Sr2+  Sr25  1  0.36419371  0.11315553  0.86398914  1
  Sr2+  Sr26  1  0.37069206  0.63176414  0.36491346  1
  Sr2+  Sr27  1  0.37070620  0.62073034  0.87555731  1
  Sr2+  Sr28  1  0.88821710  0.11664286  0.37691703  1
  Sr2+  Sr29  1  0.88478884  0.12369400  0.87276681  1
  Sr2+  Sr30  1  0.88355529  0.61973837  0.37281782  1
  Sr2+  Sr31  1  0.88049685  0.61270935  0.87716130  1
  Sr2+  Sr32  1  0.13354502  0.12221831  0.37361927  1
  Sr2+  Sr33  1  0.11683356  0.11322705  0.87455714  1
  Sr2+  Sr34  1  0.11917919  0.62849022  0.37681469  1
  Sr2+  Sr35  1  0.13567480  0.61180180  0.87438425  1
  Sr2+  Sr36  1  0.62443317  0.11532115  0.38289984  1
  Sr2+  Sr37  1  0.63395555  0.12476978  0.87406987  1
  Sr2+  Sr38  1  0.62819276  0.61813417  0.37616933  1
  Sr2+  Sr39  1  0.62525674  0.61769975  0.86941281  1
  Sr2+  Sr40  1  0.38090592  0.36015826  0.37491755  1
  Sr2+  Sr41  1  0.36953421  0.37759898  0.87400906  1
  Sr2+  Sr42  1  0.37970965  0.88029165  0.37142893  1
  Sr2+  Sr43  1  0.37368601  0.86710566  0.87210006  1
  Sr2+  Sr44  1  0.88582624  0.37438009  0.36717248  1
  Sr2+  Sr45  1  0.88150700  0.35833295  0.87779045  1
  Sr2+  Sr46  1  0.87791525  0.85653782  0.37231596  1
  Sr2+  Sr47  1  0.88247820  0.87289656  0.87567595  1
  Sr2+  Sr48  1  0.12501324  0.38259868  0.13382711  1
  Sr2+  Sr49  1  0.12514948  0.38120101  0.62383647  1
  Sr2+  Sr50  1  0.12045478  0.87916943  0.12255071  1
  Sr2+  Sr51  1  0.12218877  0.87623413  0.62208640  1
  Sr2+  Sr52  1  0.61195191  0.37613967  0.12717004  1
  Sr2+  Sr53  1  0.61502163  0.38673624  0.62335374  1
  Sr2+  Sr54  1  0.63642256  0.88281177  0.12351857  1
  Sr2+  Sr55  1  0.62200839  0.87134479  0.63525235  1
  Sr2+  Sr56  1  0.39454973  0.12802683  0.12745991  1
  Sr2+  Sr57  1  0.37814166  0.13463393  0.61954491  1
  Sr2+  Sr58  1  0.37358249  0.63260249  0.11765426  1
  Sr2+  Sr59  1  0.38058341  0.62958346  0.63154858  1
  Sr2+  Sr60  1  0.86499989  0.12854208  0.12665238  1
  Sr2+  Sr61  1  0.86718213  0.13420976  0.62368469  1
  Sr2+  Sr62  1  0.86903490  0.63751695  0.13119060  1
  Sr2+  Sr63  1  0.86240454  0.63074100  0.61812643  1
  Ca2+  Ca64  1  0.00055509  0.00041970  0.49834727  1
  Ca2+  Ca65  1  0.49956033  -0.00302301  -0.00441720  1
  Ca2+  Ca66  1  0.00058281  0.49817749  -0.00157253  1
  Ca2+  Ca67  1  0.49332024  0.50574002  0.50162273  1
  Ca2+  Ca68  1  0.50115410  -0.00535962  0.49937883  1
  Ca2+  Ca69  1  0.25737485  0.74843788  0.50308992  1
  Ca2+  Ca70  1  0.75006129  0.75019454  0.00166391  1
  Ca2+  Ca71  1  0.74619016  0.74954178  0.50007637  1
  Ca2+  Ca72  1  0.75268331  0.25277105  0.49929555  1
  Ca2+  Ca73  1  0.25209320  0.25083038  -0.00196446  1
  Ca2+  Ca74  1  0.50005266  0.24997023  0.24912030  1
  Ca2+  Ca75  1  0.74679567  0.49902954  0.25031072  1
  Ca2+  Ca76  1  -0.00030200  0.24893503  0.24948905  1
  Ca2+  Ca77  1  0.75105140  0.49751973  0.74893182  1
  Ca2+  Ca78  1  0.00030309  0.74968774  0.75116632  1
  Ca2+  Ca79  1  0.74947297  0.00051439  0.75361505  1
  Ca2+  Ca80  1  0.24635199  -0.00174455  0.74971222  1
  Ca2+  Ca81  1  0.25239695  0.50093772  0.25182881  1
  Ca2+  Ca82  1  0.50139506  0.25398572  0.75429191  1
  Ca2+  Ca83  1  0.50344269  0.75168881  0.24578253  1
  Ca2+  Ca84  1  -0.00007476  0.75170696  0.24810485  1
  Nb5+  Nb85  1  -0.00196748  -0.00083048  0.00285801  1
  Nb5+  Nb86  1  0.50008259  0.50120991  -0.00509836  1
  Nb5+  Nb87  1  0.00151506  0.50016108  0.50084269  1
  Nb5+  Nb88  1  0.24997370  0.74972217  0.00052060  1
  Nb5+  Nb89  1  0.24751424  0.25056168  0.49846747  1
  Nb5+  Nb90  1  0.75284554  0.25124144  0.00178732  1
  Nb5+  Nb91  1  0.75856700  0.00468548  0.25385130  1
  Nb5+  Nb92  1  0.49749056  0.75054720  0.75138079  1
  Nb5+  Nb93  1  0.24946056  0.50039779  0.74703346  1
  Nb5+  Nb94  1  0.00038847  0.24864372  0.74780334  1
  Nb5+  Nb95  1  0.25527823  0.00070384  0.24681046  1
  Nb5+  Nb96  1  0.00680633  -0.00403681  0.25308198  1
  Nb5+  Nb97  1  -0.00043728  -0.00208376  0.74189657  1
  Nb5+  Nb98  1  0.00453451  0.50266918  0.24108050  1
  Nb5+  Nb99  1  0.00017638  0.50278776  0.74847496  1
  Nb5+  Nb100  1  0.51081861  -0.00290963  0.24903809  1
  Nb5+  Nb101  1  0.50125103  0.00470619  0.75409432  1
  Nb5+  Nb102  1  0.49424864  0.50116987  0.25958462  1
  Nb5+  Nb103  1  0.49943052  0.49839357  0.75280486  1
  Nb5+  Nb104  1  0.25633713  0.24979117  0.24000442  1
  Nb5+  Nb105  1  0.24853946  0.24830737  0.75293085  1
  Nb5+  Nb106  1  0.25086426  0.75208869  0.25279832  1
  Nb5+  Nb107  1  0.24980169  0.75102228  0.74739103  1
  Nb5+  Nb108  1  0.74996513  0.24801265  0.25459025  1
  Nb5+  Nb109  1  0.74874264  0.25536104  0.74385380  1
  Nb5+  Nb110  1  0.74565947  0.74506816  0.24694732  1
  Nb5+  Nb111  1  0.75592520  0.74369965  0.75536075  1
  Nb5+  Nb112  1  0.00136413  0.25029737  0.49638423  1
  Nb5+  Nb113  1  0.00009543  0.24793507  1.00725186  1
  Nb5+  Nb114  1  -0.00124338  0.75399569  0.50593040  1
  Nb5+  Nb115  1  -0.00144273  0.74239190  0.99351888  1
  Nb5+  Nb116  1  0.50668125  0.25453893  0.50278229  1
  Nb5+  Nb117  1  0.49859138  0.24764853  0.99101328  1
  Nb5+  Nb118  1  0.49849903  0.74902458  0.49368424  1
  Nb5+  Nb119  1  0.50097106  0.75426090  0.99832836  1
  Nb5+  Nb120  1  0.24965658  0.00311530  0.00352145  1
  Nb5+  Nb121  1  0.24475373  -0.00093778  0.50792632  1
  Nb5+  Nb122  1  0.24807560  0.49780777  0.00164467  1
  Nb5+  Nb123  1  0.25193048  0.50061354  0.49866405  1
  Nb5+  Nb124  1  0.75128983  0.00188861  -0.00311930  1
  Nb5+  Nb125  1  0.74765984  0.00082017  0.50491345  1
  Nb5+  Nb126  1  0.75083409  0.50722023  0.00583251  1
  Nb5+  Nb127  1  0.74321367  0.49622904  0.49744094  1
  O2-  O128  1  0.01744580  0.01815813  0.12376890  1
  O2-  O129  1  0.02981404  0.01183011  0.63301794  1
  O2-  O130  1  0.03062776  0.51486343  0.12997557  1
  O2-  O131  1  0.02666404  0.50300267  0.62628658  1
  O2-  O132  1  0.52003739  -0.01583398  0.13014857  1
  O2-  O133  1  0.52369327  -0.00995191  0.63623588  1
  O2-  O134  1  0.51435259  0.49984791  0.11317760  1
  O2-  O135  1  0.51812624  0.50958090  0.63812105  1
  O2-  O136  1  -0.02390988  -0.02316030  0.36326095  1
  O2-  O137  1  -0.02182559  -0.00588415  0.88397145  1
  O2-  O138  1  -0.01241872  0.48761582  0.38402419  1
  O2-  O139  1  -0.02400008  0.48184563  0.86195643  1
  O2-  O140  1  0.47676978  0.00931855  0.36251387  1
  O2-  O141  1  0.45984483  -0.00395611  0.86543443  1
  O2-  O142  1  0.46353316  0.50756361  0.36911855  1
  O2-  O143  1  0.47269900  0.50480351  0.87460241  1
  O2-  O144  1  0.27916053  0.22611593  0.13082283  1
  O2-  O145  1  0.26024337  0.23871563  0.62686203  1
  O2-  O146  1  0.25605168  0.73357365  0.11891924  1
  O2-  O147  1  0.26113472  0.72438840  0.63697608  1
  O2-  O148  1  0.77910526  0.25835796  0.11923708  1
  O2-  O149  1  0.78402176  0.26706953  0.63536450  1
  O2-  O150  1  0.77455493  0.77402462  0.13423725  1
  O2-  O151  1  0.75943519  0.76921606  0.63751167  1
  O2-  O152  1  0.22863624  0.25930184  0.38164564  1
  O2-  O153  1  0.23285972  0.27658445  0.86429952  1
  O2-  O154  1  0.25318396  0.77581092  0.36677463  1
  O2-  O155  1  0.24053254  0.75767914  0.87754593  1
  O2-  O156  1  0.71967102  0.23399083  0.36477045  1
  O2-  O157  1  0.73858600  0.23410716  0.88133895  1
  O2-  O158  1  0.72362010  0.73835245  0.36502852  1
  O2-  O159  1  0.72455919  0.73135132  0.86956615  1
  O2-  O160  1  -0.01600597  0.22238785  0.11655669  1
  O2-  O161  1  -0.01157576  0.23507642  0.62768921  1
  O2-  O162  1  -0.00492938  0.72632286  0.11100783  1
  O2-  O163  1  -0.01219062  0.71884365  0.61850724  1
  O2-  O164  1  0.48193078  0.26255883  0.10795060  1
  O2-  O165  1  0.47827893  0.24905215  0.61968852  1
  O2-  O166  1  0.48885774  0.73159376  0.11107781  1
  O2-  O167  1  0.48981553  0.74277899  0.63372086  1
  O2-  O168  1  0.27097410  -0.00587466  0.36469917  1
  O2-  O169  1  0.26569044  -0.01666660  0.88916790  1
  O2-  O170  1  0.27740031  0.47926470  0.38889274  1
  O2-  O171  1  0.26933327  0.49583530  0.87177320  1
  O2-  O172  1  0.76442796  0.03072296  0.36720889  1
  O2-  O173  1  0.77027061  0.02813654  0.88694436  1
  O2-  O174  1  0.76129863  0.53257968  0.38397745  1
  O2-  O175  1  0.76026467  0.51807153  0.88806248  1
  O2-  O176  1  0.01476604  0.27658293  0.38469046  1
  O2-  O177  1  0.01415235  0.25644081  0.87122813  1
  O2-  O178  1  0.02029243  0.76278781  0.38659520  1
  O2-  O179  1  0.00976746  0.78684797  0.88436276  1
  O2-  O180  1  0.51959833  0.25541460  0.38372239  1
  O2-  O181  1  0.54383427  0.25953279  0.88403156  1
  O2-  O182  1  0.50125102  0.75289532  0.38024973  1
  O2-  O183  1  0.50763970  0.75229013  0.87545330  1
  O2-  O184  1  0.21857158  0.00214173  0.12555830  1
  O2-  O185  1  0.21325622  0.01133155  0.61716582  1
  O2-  O186  1  0.22455385  0.51066280  0.11410423  1
  O2-  O187  1  0.22163471  0.51020805  0.63256818  1
  O2-  O188  1  0.74247455  -0.01033459  0.12650028  1
  O2-  O189  1  0.73262586  -0.02495580  0.61706023  1
  O2-  O190  1  0.72977406  0.46697795  0.11460592  1
  O2-  O191  1  0.74210957  0.46441307  0.61463566  1
  O2-  O192  1  0.13746942  0.26015934  0.22940664  1
  O2-  O193  1  0.12358252  0.26648086  0.73156375  1
  O2-  O194  1  0.13542887  0.77140065  0.23101706  1
  O2-  O195  1  0.13577737  0.77462956  0.73984544  1
  O2-  O196  1  0.63635006  0.26059834  0.21840552  1
  O2-  O197  1  0.63676208  0.27745617  0.72493679  1
  O2-  O198  1  0.63459252  0.78504839  0.23206253  1
  O2-  O199  1  0.61612584  0.76515254  0.74439136  1
  O2-  O200  1  0.36345175  0.22510270  0.28261340  1
  O2-  O201  1  0.36351344  0.23263895  0.76442082  1
  O2-  O202  1  0.36672804  0.73228656  0.24413493  1
  O2-  O203  1  0.37542009  0.72967410  0.76748587  1
  O2-  O204  1  0.86488013  0.21860059  0.26747883  1
  O2-  O205  1  0.88267710  0.23535889  0.76618393  1
  O2-  O206  1  0.86448599  0.73507697  0.27161244  1
  O2-  O207  1  0.86734230  0.71762839  0.76966050  1
  O2-  O208  1  0.27257394  0.36399089  0.23253852  1
  O2-  O209  1  0.26424231  0.37979077  0.73586800  1
  O2-  O210  1  0.26645781  0.87891749  0.23361640  1
  O2-  O211  1  0.27800393  0.86415438  0.74057899  1
  O2-  O212  1  0.77348477  0.36246811  0.26340552  1
  O2-  O213  1  0.76975068  0.36541523  0.78223076  1
  O2-  O214  1  0.76646121  0.88723297  0.26861023  1
  O2-  O215  1  0.76629753  0.86429957  0.77562676  1
  O2-  O216  1  0.22754723  0.11747573  0.25332922  1
  O2-  O217  1  0.22744010  0.13458475  0.76787285  1
  O2-  O218  1  0.23081409  0.63650352  0.27093229  1
  O2-  O219  1  0.23574510  0.62291239  0.76463405  1
  O2-  O220  1  0.73239171  0.12147601  0.22840740  1
  O2-  O221  1  0.73005423  0.13745264  0.73871635  1
  O2-  O222  1  0.72686727  0.63417566  0.22207625  1
  O2-  O223  1  0.72410193  0.63051124  0.73256987  1
  O2-  O224  1  0.11807036  0.47365995  0.27094673  1
  O2-  O225  1  0.12902616  0.48177857  0.77071015  1
  O2-  O226  1  0.12327194  0.97698638  0.26512643  1
  O2-  O227  1  0.11086345  0.98271401  0.78185422  1
  O2-  O228  1  0.61122074  0.46924395  0.26710257  1
  O2-  O229  1  0.61166188  0.48078525  0.77590330  1
  O2-  O230  1  0.62633853  0.98710992  0.26883453  1
  O2-  O231  1  0.61384686  0.97764084  0.78271722  1
  O2-  O232  1  0.36663987  0.01533902  0.22208816  1
  O2-  O233  1  0.38152184  0.02284262  0.72232652  1
  O2-  O234  1  0.38397976  0.52667232  0.21936399  1
  O2-  O235  1  0.36760502  0.51961353  0.73582879  1
  O2-  O236  1  0.87399121  0.01817023  0.23368555  1
  O2-  O237  1  0.88569189  0.03121559  0.73662660  1
  O2-  O238  1  0.88543273  0.52467988  0.23677388  1
  O2-  O239  1  0.88799650  0.51690052  0.72155446  1
  O2-  O240  1  0.47063065  0.38353442  0.24658968  1
  O2-  O241  1  0.46721993  0.38709789  0.74919432  1
  O2-  O242  1  0.47107036  0.88533934  0.25158953  1
  O2-  O243  1  0.47741804  0.86855246  0.75049272  1
  O2-  O244  1  0.97806283  0.38401567  0.23148609  1
  O2-  O245  1  0.99230909  0.37068832  0.73753104  1
  O2-  O246  1  0.98391363  0.88457257  0.22057070  1
  O2-  O247  1  0.97081279  0.88556425  0.73204856  1
  O2-  O248  1  0.01887718  0.11298269  0.26936540  1
  O2-  O249  1  0.02104247  0.12958579  0.75840139  1
  O2-  O250  1  0.02249478  0.61753108  0.26717544  1
  O2-  O251  1  0.02726759  0.61341771  0.76519209  1
  O2-  O252  1  0.50864422  0.11507372  0.23012629  1
  O2-  O253  1  0.52495168  0.11838200  0.75704006  1
  O2-  O254  1  0.53106352  0.61535110  0.25348237  1
  O2-  O255  1  0.50922026  0.62571200  0.75961561  1
  O2-  O256  1  0.13650442  0.48102703  -0.02844671  1
  O2-  O257  1  0.12690468  0.47767375  0.49090685  1
  O2-  O258  1  0.11982316  0.98228123  -0.01165132  1
  O2-  O259  1  0.13550201  0.98855083  0.46283778  1
  O2-  O260  1  0.61888707  0.48734338  -0.02175659  1
  O2-  O261  1  0.63064291  0.47437463  0.48155993  1
  O2-  O262  1  0.63736675  0.98435992  -0.01652997  1
  O2-  O263  1  0.63478819  0.98675001  0.46727636  1
  O2-  O264  1  0.36110459  0.01558223  0.03109291  1
  O2-  O265  1  0.36043543  0.02494069  0.51400170  1
  O2-  O266  1  0.37596645  0.52108605  0.01173402  1
  O2-  O267  1  0.35870695  0.50776719  0.54158005  1
  O2-  O268  1  0.87972356  0.01775084  0.02243860  1
  O2-  O269  1  0.86556909  0.02768221  0.51465713  1
  O2-  O270  1  0.86519425  0.52262632  0.02454814  1
  O2-  O271  1  0.88599392  0.51384394  0.52060473  1
  O2-  O272  1  0.48281933  0.38165391  -0.00877843  1
  O2-  O273  1  0.47054203  0.36885614  0.50093251  1
  O2-  O274  1  0.46353047  0.86354964  -0.00107072  1
  O2-  O275  1  0.45592391  0.86235527  0.50330158  1
  O2-  O276  1  0.97519417  0.36283255  0.01217742  1
  O2-  O277  1  0.99147867  0.37494767  0.51928715  1
  O2-  O278  1  0.98574600  0.88070730  0.02027260  1
  O2-  O279  1  0.98146789  0.86673698  0.52789654  1
  O2-  O280  1  0.01513212  0.12313854  -0.01481837  1
  O2-  O281  1  0.02664878  0.13635807  0.48466621  1
  O2-  O282  1  0.01919086  0.63215805  -0.03403540  1
  O2-  O283  1  0.02290131  0.61604569  0.49145112  1
  O2-  O284  1  0.52220555  0.13404593  0.00237035  1
  O2-  O285  1  0.51246370  0.13419021  0.50268567  1
  O2-  O286  1  0.51578177  0.62412935  -0.01243420  1
  O2-  O287  1  0.54108217  0.63517376  0.49948591  1
  O2-  O288  1  0.11530779  0.26741075  0.01981524  1
  O2-  O289  1  0.12569708  0.26509920  0.52225906  1
  O2-  O290  1  0.12791697  0.76170946  0.00927659  1
  O2-  O291  1  0.11963098  0.76236232  0.52097890  1
  O2-  O292  1  0.63606305  0.26686365  0.02061104  1
  O2-  O293  1  0.61829186  0.27672004  0.52337716  1
  O2-  O294  1  0.61337394  0.78086964  0.00835774  1
  O2-  O295  1  0.61154264  0.78751911  0.51369625  1
  O2-  O296  1  0.38853738  0.23342175  -0.04068875  1
  O2-  O297  1  0.36534103  0.23579659  0.48627791  1
  O2-  O298  1  0.36853081  0.73029293  -0.01388376  1
  O2-  O299  1  0.38685130  0.70204798  0.49747198  1
  O2-  O300  1  0.87664100  0.23070970  -0.01967768  1
  O2-  O301  1  0.88749853  0.22977087  0.48671723  1
  O2-  O302  1  0.88370008  0.72770025  -0.01847146  1
  O2-  O303  1  0.88425077  0.72745206  0.48139320  1
  O2-  O304  1  0.27832624  0.38560280  0.01038467  1
  O2-  O305  1  0.25639921  0.37008313  0.51700511  1
  O2-  O306  1  0.25962084  0.86963544  0.01332684  1
  O2-  O307  1  0.26240274  0.88527405  0.52043861  1
  O2-  O308  1  0.76983927  0.36998693  -0.01616718  1
  O2-  O309  1  0.77897230  0.38528976  0.46830984  1
  O2-  O310  1  0.77649340  0.88764281  -0.01310102  1
  O2-  O311  1  0.77492328  0.88702549  0.47519526  1
  O2-  O312  1  0.22680216  0.11499890  -0.01336424  1
  O2-  O313  1  0.22991918  0.13013521  0.49407236  1
  O2-  O314  1  0.23703530  0.62490789  -0.01096418  1
  O2-  O315  1  0.22852554  0.61243391  0.48372923  1
  O2-  O316  1  0.73973163  0.12712152  0.01941611  1
  O2-  O317  1  0.72394510  0.11924763  0.52003188  1
  O2-  O318  1  0.72387406  0.61683645  0.02735673  1
  O2-  O319  1  0.73712962  0.61255827  0.52976688  1
