# generated using pymatgen
data_Sr64Ca21Nb43O192
_symmetry_space_group_name_H-M   'P 1'
_cell_length_a   16.60143804
_cell_length_b   16.57793798
_cell_length_c   16.74212037
_cell_angle_alpha   90.00841515
_cell_angle_beta   89.91036288
_cell_angle_gamma   90.00389329
_symmetry_Int_Tables_number   1
_chemical_formula_structural   Sr64Ca21Nb43O192
_chemical_formula_sum   'Sr64 Ca21 Nb43 O192'
_cell_volume   4607.72065941
_cell_formula_units_Z   1
loop_
 _symmetry_equiv_pos_site_id
 _symmetry_equiv_pos_as_xyz
  1  'x, y, z'
loop_
 _atom_type_symbol
 _atom_type_oxidation_number
  Sr2+  2.0
  Ca2+  2.0
  Nb5+  5.0
  O2-  -2.0
loop_
 _atom_site_type_symbol
 _atom_site_label
 _atom_site_symmetry_multiplicity
 _atom_site_fract_x
 _atom_site_fract_y
 _atom_site_fract_z
 _atom_site_occupancy
  Sr2+  Sr0  1  0.12990769  0.13327943  0.12495389  1
  Sr2+  Sr1  1  0.13192890  0.11594153  0.61671050  1
  Sr2+  Sr2  1  0.13684358  0.61437322  0.12739444  1
  Sr2+  Sr3  1  0.13022882  0.61297382  0.62828612  1
  Sr2+  Sr4  1  0.62977378  0.11173575  0.12961798  1
  Sr2+  Sr5  1  0.63244450  0.12736570  0.63267764  1
  Sr2+  Sr6  1  0.63590188  0.62358529  0.12411607  1
  Sr2+  Sr7  1  0.63321363  0.62004229  0.62279154  1
  Sr2+  Sr8  1  0.37172241  0.37245863  0.11984117  1
  Sr2+  Sr9  1  0.38220168  0.37443267  0.62188242  1
  Sr2+  Sr10  1  0.38593008  0.87732078  0.12079015  1
  Sr2+  Sr11  1  0.38415098  0.87435146  0.63547172  1
  Sr2+  Sr12  1  0.88719269  0.37517947  0.12824458  1
  Sr2+  Sr13  1  0.86786569  0.36907277  0.63218562  1
  Sr2+  Sr14  1  0.87944812  0.88186290  0.12615016  1
  Sr2+  Sr15  1  0.87995593  0.87366702  0.60999972  1
  Sr2+  Sr16  1  0.11607007  0.37763057  0.37127619  1
  Sr2+  Sr17  1  0.11069876  0.37886687  0.87355506  1
  Sr2+  Sr18  1  0.13413399  0.87219235  0.37478998  1
  Sr2+  Sr19  1  0.12421353  0.88429769  0.87048527  1
  Sr2+  Sr20  1  0.61554854  0.38116039  0.37260877  1
  Sr2+  Sr21  1  0.63264285  0.37656740  0.85701047  1
  Sr2+  Sr22  1  0.61958454  0.86872669  0.37124605  1
  Sr2+  Sr23  1  0.60728867  0.86645871  0.87827875  1
  Sr2+  Sr24  1  0.37532995  0.12464429  0.38000119  1
  Sr2+  Sr25  1  0.36708195  0.12635496  0.87150057  1
  Sr2+  Sr26  1  0.35750514  0.62845753  0.37725063  1
  Sr2+  Sr27  1  0.37465084  0.63440872  0.86886099  1
  Sr2+  Sr28  1  0.86937594  0.12476828  0.37632528  1
  Sr2+  Sr29  1  0.87365707  0.12426399  0.87204391  1
  Sr2+  Sr30  1  0.87006989  0.63270960  0.37421069  1
  Sr2+  Sr31  1  0.86904815  0.63115179  0.87848965  1
  Sr2+  Sr32  1  0.11623433  0.13281387  0.38198777  1
  Sr2+  Sr33  1  0.12230342  0.12078322  0.87131903  1
  Sr2+  Sr34  1  0.12504939  0.63968253  0.37773138  1
  Sr2+  Sr35  1  0.11180381  0.63699865  0.86817193  1
  Sr2+  Sr36  1  0.62203709  0.12478643  0.36421504  1
  Sr2+  Sr37  1  0.62068626  0.12788847  0.86466069  1
  Sr2+  Sr38  1  0.61705500  0.62042134  0.38158425  1
  Sr2+  Sr39  1  0.62595683  0.62820266  0.88652466  1
  Sr2+  Sr40  1  0.36971028  0.39027939  0.38374014  1
  Sr2+  Sr41  1  0.36548004  0.38032922  0.87037770  1
  Sr2+  Sr42  1  0.36724071  0.86354164  0.37124906  1
  Sr2+  Sr43  1  0.36732783  0.88589287  0.87575007  1
  Sr2+  Sr44  1  0.86437619  0.38412008  0.36909752  1
  Sr2+  Sr45  1  0.86786136  0.39548200  0.87545253  1
  Sr2+  Sr46  1  0.86488332  0.87210437  0.37679085  1
  Sr2+  Sr47  1  0.87289818  0.87511317  0.87410986  1
  Sr2+  Sr48  1  0.13437001  0.36754399  0.12199137  1
  Sr2+  Sr49  1  0.13732811  0.36745845  0.62461249  1
  Sr2+  Sr50  1  0.13512939  0.87649701  0.12813780  1
  Sr2+  Sr51  1  0.13342364  0.87165830  0.62501369  1
  Sr2+  Sr52  1  0.63337159  0.36395128  0.12812134  1
  Sr2+  Sr53  1  0.62666893  0.36874546  0.61957657  1
  Sr2+  Sr54  1  0.62937591  0.87440720  0.12100927  1
  Sr2+  Sr55  1  0.63053054  0.87016060  0.61729507  1
  Sr2+  Sr56  1  0.38969396  0.13276457  0.12159264  1
  Sr2+  Sr57  1  0.38011179  0.12312913  0.62651877  1
  Sr2+  Sr58  1  0.37104933  0.62093799  0.12973742  1
  Sr2+  Sr59  1  0.38996802  0.61731659  0.62302915  1
  Sr2+  Sr60  1  0.88531368  0.12269208  0.12414868  1
  Sr2+  Sr61  1  0.88837381  0.12304531  0.61641422  1
  Sr2+  Sr62  1  0.89048705  0.63299902  0.12148831  1
  Sr2+  Sr63  1  0.88395501  0.62570088  0.62004743  1
  Ca2+  Ca64  1  -0.00214237  0.49912020  0.49828450  1
  Ca2+  Ca65  1  0.50199116  0.00051723  0.50035761  1
  Ca2+  Ca66  1  0.00142218  -0.00288871  0.49597555  1
  Ca2+  Ca67  1  0.50100396  0.49850484  0.00179560  1
  Ca2+  Ca68  1  0.50254501  0.00357918  -0.00137465  1
  Ca2+  Ca69  1  0.74715853  0.25049847  0.49634398  1
  Ca2+  Ca70  1  0.25035203  0.74981552  -0.00416140  1
  Ca2+  Ca71  1  0.25185252  0.74930577  0.50812538  1
  Ca2+  Ca72  1  0.74817256  0.25020539  0.00107528  1
  Ca2+  Ca73  1  0.25063453  0.24895625  0.49878215  1
  Ca2+  Ca74  1  0.50126812  0.74797118  0.24779218  1
  Ca2+  Ca75  1  0.74932977  0.50757083  0.74996450  1
  Ca2+  Ca76  1  0.74770810  0.50058228  0.24774750  1
  Ca2+  Ca77  1  0.25036812  0.00128443  0.24825717  1
  Ca2+  Ca78  1  0.50499295  0.75091059  0.74732049  1
  Ca2+  Ca79  1  0.25036426  0.49661672  0.75103614  1
  Ca2+  Ca80  1  0.24674954  0.49502287  0.25293269  1
  Ca2+  Ca81  1  -0.00041169  0.75473518  0.25041416  1
  Ca2+  Ca82  1  0.75255237  -0.00565643  0.74990765  1
  Ca2+  Ca83  1  -0.00184746  0.75234293  0.74920694  1
  Ca2+  Ca84  1  0.00250427  0.25126965  0.74986004  1
  Nb5+  Nb85  1  0.50066325  0.49871675  0.50136287  1
  Nb5+  Nb86  1  0.00179672  0.00596659  0.00167642  1
  Nb5+  Nb87  1  0.00401874  0.50926734  0.00192036  1
  Nb5+  Nb88  1  0.25167480  0.24717535  -0.00110501  1
  Nb5+  Nb89  1  0.75221928  0.75249183  0.00428091  1
  Nb5+  Nb90  1  0.74810266  0.74805412  0.50325456  1
  Nb5+  Nb91  1  0.49864158  0.25089518  0.74425444  1
  Nb5+  Nb92  1  0.50257793  0.25366721  0.24675161  1
  Nb5+  Nb93  1  0.00275503  0.24851869  0.24930261  1
  Nb5+  Nb94  1  0.75254452  -0.00194018  0.25028676  1
  Nb5+  Nb95  1  0.25141887  0.00154950  0.74806111  1
  Nb5+  Nb96  1  0.00060743  0.00011925  0.25217698  1
  Nb5+  Nb97  1  -0.00128607  0.00195436  0.74490989  1
  Nb5+  Nb98  1  0.00342233  0.50668070  0.25157235  1
  Nb5+  Nb99  1  -0.00361496  0.49740686  0.74460918  1
  Nb5+  Nb100  1  0.49547861  0.00092058  0.25254496  1
  Nb5+  Nb101  1  0.50345174  -0.00109268  0.75622635  1
  Nb5+  Nb102  1  0.49691945  0.50084682  0.24719300  1
  Nb5+  Nb103  1  0.50612503  0.50207072  0.75368180  1
  Nb5+  Nb104  1  0.25851038  0.24727912  0.25318454  1
  Nb5+  Nb105  1  0.24975651  0.24854183  0.74855599  1
  Nb5+  Nb106  1  0.24983345  0.74893723  0.24558583  1
  Nb5+  Nb107  1  0.24960645  0.74385913  0.75182653  1
  Nb5+  Nb108  1  0.75628893  0.24869455  0.24436372  1
  Nb5+  Nb109  1  0.75602872  0.24582544  0.74992146  1
  Nb5+  Nb110  1  0.74585876  0.74705266  0.25288243  1
  Nb5+  Nb111  1  0.75154477  0.75257065  0.75504832  1
  Nb5+  Nb112  1  -0.00286831  0.25623620  0.50246888  1
  Nb5+  Nb113  1  -0.00123421  0.25272994  0.99844498  1
  Nb5+  Nb114  1  0.00430921  0.75142452  0.49897021  1
  Nb5+  Nb115  1  0.00125358  0.76367122  0.99763117  1
  Nb5+  Nb116  1  0.50251493  0.24604215  0.49312318  1
  Nb5+  Nb117  1  0.50207957  0.25515509  0.98994886  1
  Nb5+  Nb118  1  0.49645347  0.75171742  0.49829578  1
  Nb5+  Nb119  1  0.49482862  0.74540239  1.00164514  1
  Nb5+  Nb120  1  0.25160392  0.00297354  0.00357087  1
  Nb5+  Nb121  1  0.25457572  -0.00398297  0.49524921  1
  Nb5+  Nb122  1  0.24898258  0.50485608  -0.00671324  1
  Nb5+  Nb123  1  0.24368332  0.49853521  0.50527474  1
  Nb5+  Nb124  1  0.75049153  -0.00022200  -0.00338426  1
  Nb5+  Nb125  1  0.74312140  0.00214179  0.50030018  1
  Nb5+  Nb126  1  0.75100885  0.49830908  0.00987441  1
  Nb5+  Nb127  1  0.75300886  0.49918551  0.49877177  1
  O2-  O128  1  0.00507632  -0.01923158  0.12218825  1
  O2-  O129  1  0.00218540  -0.02369559  0.63419654  1
  O2-  O130  1  -0.01982165  0.48868538  0.12084311  1
  O2-  O131  1  -0.03598553  0.48491088  0.63515818  1
  O2-  O132  1  0.51460251  -0.01422914  0.13566316  1
  O2-  O133  1  0.50599562  -0.01809857  0.63868406  1
  O2-  O134  1  0.46614230  0.48798864  0.13715052  1
  O2-  O135  1  0.48464305  0.48389700  0.62287198  1
  O2-  O136  1  -0.00681651  0.03183114  0.36265709  1
  O2-  O137  1  -0.00700014  0.02598551  0.88448255  1
  O2-  O138  1  0.03081090  0.51679552  0.36347143  1
  O2-  O139  1  0.02573496  0.51137320  0.88635766  1
  O2-  O140  1  0.50086797  0.03463313  0.36530413  1
  O2-  O141  1  0.48823317  0.03660957  0.86892715  1
  O2-  O142  1  0.51982072  0.50297516  0.38213095  1
  O2-  O143  1  0.53273987  0.50678119  0.86691604  1
  O2-  O144  1  0.25318808  0.22462633  0.11970159  1
  O2-  O145  1  0.24557770  0.22238767  0.63646950  1
  O2-  O146  1  0.23949012  0.72583800  0.12913409  1
  O2-  O147  1  0.21427177  0.74074188  0.63834955  1
  O2-  O148  1  0.71999911  0.23200636  0.13347209  1
  O2-  O149  1  0.73299113  0.24571781  0.63276154  1
  O2-  O150  1  0.74310590  0.74380068  0.12184841  1
  O2-  O151  1  0.74000458  0.74152007  0.61888778  1
  O2-  O152  1  0.26115997  0.27277173  0.36374876  1
  O2-  O153  1  0.25534890  0.25898450  0.87930857  1
  O2-  O154  1  0.25602913  0.76579063  0.36808714  1
  O2-  O155  1  0.28554939  0.76508319  0.86491136  1
  O2-  O156  1  0.75525751  0.26180073  0.36000455  1
  O2-  O157  1  0.74925138  0.25825411  0.86763063  1
  O2-  O158  1  0.75411155  0.76259768  0.36991680  1
  O2-  O159  1  0.76027785  0.76292384  0.87408389  1
  O2-  O160  1  0.00295593  0.26295983  0.12418273  1
  O2-  O161  1  -0.00045497  0.28764259  0.61318310  1
  O2-  O162  1  -0.00437337  0.77020909  0.11375784  1
  O2-  O163  1  -0.00124895  0.77981443  0.61589740  1
  O2-  O164  1  0.49621374  0.27455892  0.13267164  1
  O2-  O165  1  0.50074608  0.26853947  0.62925784  1
  O2-  O166  1  0.50649080  0.77976106  0.11460127  1
  O2-  O167  1  0.51846409  0.76582790  0.61276515  1
  O2-  O168  1  0.25984151  -0.02943560  0.38289291  1
  O2-  O169  1  0.25151042  -0.00942033  0.87814024  1
  O2-  O170  1  0.23780235  0.46956910  0.38852840  1
  O2-  O171  1  0.23225290  0.46256620  0.88551617  1
  O2-  O172  1  0.76453880  -0.00895739  0.36902675  1
  O2-  O173  1  0.77936361  -0.00674556  0.88581111  1
  O2-  O174  1  0.72565454  0.48760044  0.38340448  1
  O2-  O175  1  0.73528304  0.49132908  0.89222475  1
  O2-  O176  1  -0.00825087  0.22124471  0.36157229  1
  O2-  O177  1  0.00692064  0.22506469  0.88704121  1
  O2-  O178  1  -0.00883797  0.72111003  0.38274499  1
  O2-  O179  1  -0.01496061  0.72799919  0.88668740  1
  O2-  O180  1  0.49539174  0.22886172  0.37665632  1
  O2-  O181  1  0.49784995  0.23102326  0.87709733  1
  O2-  O182  1  0.50868199  0.72860167  0.38307901  1
  O2-  O183  1  0.50658665  0.72550458  0.88263803  1
  O2-  O184  1  0.22365266  0.01531677  0.11469540  1
  O2-  O185  1  0.24842910  0.02224225  0.63374622  1
  O2-  O186  1  0.26237615  0.51194793  0.11239769  1
  O2-  O187  1  0.27020828  0.52725684  0.61860695  1
  O2-  O188  1  0.74371035  0.00267472  0.12632090  1
  O2-  O189  1  0.72668961  0.00314909  0.61474131  1
  O2-  O190  1  0.77686219  0.53705697  0.11793739  1
  O2-  O191  1  0.76091229  0.52939990  0.61349410  1
  O2-  O192  1  0.11845145  0.26364694  0.25132060  1
  O2-  O193  1  0.13766499  0.27347625  0.75607753  1
  O2-  O194  1  0.13235048  0.78242589  0.25374941  1
  O2-  O195  1  0.13547820  0.76996219  0.78008007  1
  O2-  O196  1  0.61746701  0.26823406  0.26075856  1
  O2-  O197  1  0.61617358  0.26236764  0.75731263  1
  O2-  O198  1  0.63519844  0.78672752  0.24395110  1
  O2-  O199  1  0.63920733  0.79497621  0.74942929  1
  O2-  O200  1  0.37424328  0.22526296  0.24721939  1
  O2-  O201  1  0.37942216  0.22525282  0.75310050  1
  O2-  O202  1  0.36790599  0.71976372  0.24638397  1
  O2-  O203  1  0.36640587  0.73832173  0.71805279  1
  O2-  O204  1  0.87159627  0.22921658  0.23389053  1
  O2-  O205  1  0.86892885  0.22217773  0.73905975  1
  O2-  O206  1  0.86182869  0.72915875  0.24060322  1
  O2-  O207  1  0.86292816  0.71104855  0.74167060  1
  O2-  O208  1  0.25736375  0.35909866  0.21812344  1
  O2-  O209  1  0.28106428  0.35970689  0.73550216  1
  O2-  O210  1  0.27944082  0.86610592  0.22513491  1
  O2-  O211  1  0.26639085  0.88415709  0.73845365  1
  O2-  O212  1  0.76658644  0.36409701  0.22440737  1
  O2-  O213  1  0.76880414  0.36743794  0.74581465  1
  O2-  O214  1  0.77239365  0.88077815  0.24057567  1
  O2-  O215  1  0.79447859  0.86387496  0.73512665  1
  O2-  O216  1  0.22069816  0.13613505  0.26604010  1
  O2-  O217  1  0.23978923  0.12469734  0.77430839  1
  O2-  O218  1  0.22147765  0.63002483  0.26528545  1
  O2-  O219  1  0.23681162  0.63130423  0.77509931  1
  O2-  O220  1  0.73388684  0.12346763  0.25934258  1
  O2-  O221  1  0.72456742  0.13072236  0.75889631  1
  O2-  O222  1  0.71587515  0.63620908  0.26150786  1
  O2-  O223  1  0.70899609  0.63992521  0.76063756  1
  O2-  O224  1  0.11160947  0.46664176  0.22916575  1
  O2-  O225  1  0.11484541  0.47248344  0.72888673  1
  O2-  O226  1  0.11303741  0.97620055  0.25589775  1
  O2-  O227  1  0.13127668  0.98766763  0.75660576  1
  O2-  O228  1  0.60945638  0.46325146  0.23813371  1
  O2-  O229  1  0.61688381  0.46611780  0.73039172  1
  O2-  O230  1  0.63100444  0.99117794  0.25856438  1
  O2-  O231  1  0.61661357  0.98913553  0.77623323  1
  O2-  O232  1  0.38449089  0.02997646  0.23921938  1
  O2-  O233  1  0.37153474  0.01862634  0.74938838  1
  O2-  O234  1  0.38344393  0.51225625  0.28197675  1
  O2-  O235  1  0.38868421  0.50921566  0.77302948  1
  O2-  O236  1  0.87024873  0.02518014  0.23833070  1
  O2-  O237  1  0.88719838  0.03175051  0.74539210  1
  O2-  O238  1  0.88574764  0.50603809  0.27316414  1
  O2-  O239  1  0.88407548  0.51834606  0.78189037  1
  O2-  O240  1  0.47458530  0.36584844  0.27448429  1
  O2-  O241  1  0.48087501  0.36655425  0.76726244  1
  O2-  O242  1  0.48085858  0.88829164  0.27488157  1
  O2-  O243  1  0.47798432  0.88665416  0.77621911  1
  O2-  O244  1  0.97675757  0.36325997  0.26143816  1
  O2-  O245  1  0.98215576  0.38308372  0.78184490  1
  O2-  O246  1  0.96522830  0.89051458  0.26305959  1
  O2-  O247  1  0.99341345  0.89077464  0.78423787  1
  O2-  O248  1  0.00955544  0.12507483  0.22087883  1
  O2-  O249  1  0.03309259  0.11646048  0.73427240  1
  O2-  O250  1  0.01649076  0.61664551  0.22318155  1
  O2-  O251  1  0.02572908  0.61352126  0.73988523  1
  O2-  O252  1  0.51894199  0.13410813  0.23150057  1
  O2-  O253  1  0.51523538  0.12841337  0.72965322  1
  O2-  O254  1  0.52624944  0.61159456  0.23656197  1
  O2-  O255  1  0.51804253  0.61330760  0.72723794  1
  O2-  O256  1  0.11957328  0.47932327  0.02131865  1
  O2-  O257  1  0.13105651  0.48365238  0.52925459  1
  O2-  O258  1  0.11790189  0.98211511  -0.00929964  1
  O2-  O259  1  0.13612057  0.97318971  0.50671789  1
  O2-  O260  1  0.63849481  0.48987280  0.03725074  1
  O2-  O261  1  0.62282659  0.48333987  0.51761810  1
  O2-  O262  1  0.63860208  0.96962667  -0.00937568  1
  O2-  O263  1  0.63312288  0.96405595  0.48137831  1
  O2-  O264  1  0.36462408  0.02557861  0.01228705  1
  O2-  O265  1  0.36836022  0.03166619  0.50618782  1
  O2-  O266  1  0.36286564  0.52148891  -0.02446536  1
  O2-  O267  1  0.38223573  0.51542659  0.48653090  1
  O2-  O268  1  0.87899933  0.01349328  0.01680865  1
  O2-  O269  1  0.86220430  0.01486026  0.50933959  1
  O2-  O270  1  0.88423576  0.51344618  -0.01773100  1
  O2-  O271  1  0.86413639  0.52286450  0.47373806  1
  O2-  O272  1  0.45851391  0.36427453  -0.00837000  1
  O2-  O273  1  0.48002943  0.37589132  0.49055660  1
  O2-  O274  1  0.48015071  0.86546013  -0.02441814  1
  O2-  O275  1  0.47384598  0.86398880  0.48095836  1
  O2-  O276  1  0.98717625  0.36888609  -0.01327475  1
  O2-  O277  1  0.97877612  0.36513134  0.45874996  1
  O2-  O278  1  0.97946811  0.87837197  -0.01796775  1
  O2-  O279  1  0.97133224  0.86494597  0.47567177  1
  O2-  O280  1  0.01675295  0.12076084  0.02331597  1
  O2-  O281  1  0.01859954  0.13576108  0.52031060  1
  O2-  O282  1  0.01748616  0.62391751  0.01954617  1
  O2-  O283  1  0.01320743  0.63477143  0.52940893  1
  O2-  O284  1  0.51791151  0.14393893  0.02792973  1
  O2-  O285  1  0.52955899  0.13758046  0.52131450  1
  O2-  O286  1  0.53173175  0.63359839  0.02146390  1
  O2-  O287  1  0.52082492  0.61718061  0.51650341  1
  O2-  O288  1  0.12579106  0.25860894  0.00532938  1
  O2-  O289  1  0.11446840  0.26830277  0.48059633  1
  O2-  O290  1  0.11511457  0.77551464  -0.01265346  1
  O2-  O291  1  0.11695367  0.77137972  0.48584210  1
  O2-  O292  1  0.61143506  0.28990665  -0.00882368  1
  O2-  O293  1  0.61419670  0.28332793  0.49151557  1
  O2-  O294  1  0.63481535  0.77021047  -0.00645822  1
  O2-  O295  1  0.62938143  0.76838019  0.49013324  1
  O2-  O296  1  0.36938860  0.22473655  -0.00084079  1
  O2-  O297  1  0.38605516  0.23051532  0.50772300  1
  O2-  O298  1  0.38416887  0.71605703  0.00996427  1
  O2-  O299  1  0.38610979  0.71878403  0.50762272  1
  O2-  O300  1  0.88560439  0.22656923  0.00651698  1
  O2-  O301  1  0.88163281  0.22416885  0.49982230  1
  O2-  O302  1  0.87316330  0.73552825  0.00564364  1
  O2-  O303  1  0.86640428  0.72814525  0.50200242  1
  O2-  O304  1  0.26083228  0.36414951  0.01739874  1
  O2-  O305  1  0.26935860  0.38222548  0.52897147  1
  O2-  O306  1  0.26886842  0.88690535  0.01461322  1
  O2-  O307  1  0.27836997  0.88457609  0.53137620  1
  O2-  O308  1  0.77587422  0.38635900  0.02577888  1
  O2-  O309  1  0.77263849  0.38654340  0.51690347  1
  O2-  O310  1  0.77584747  0.87225654  0.01072642  1
  O2-  O311  1  0.76908132  0.86868871  0.50407554  1
  O2-  O312  1  0.22625846  0.12484860  -0.01736395  1
  O2-  O313  1  0.22516099  0.11338197  0.48200628  1
  O2-  O314  1  0.21658297  0.61327171  -0.02287521  1
  O2-  O315  1  0.23479705  0.61468381  0.47724806  1
  O2-  O316  1  0.72728266  0.11292234  -0.00722007  1
  O2-  O317  1  0.72089685  0.11405603  0.48180333  1
  O2-  O318  1  0.74065924  0.63317597  -0.01348332  1
  O2-  O319  1  0.72776214  0.63087525  0.48243486  1
