# generated using pymatgen
data_Sr64Ca21Nb43O192
_symmetry_space_group_name_H-M   'P 1'
_cell_length_a   16.54189605
_cell_length_b   16.53533383
_cell_length_c   16.71415706
_cell_angle_alpha   89.99109801
_cell_angle_beta   89.97119866
_cell_angle_gamma   90.04478706
_symmetry_Int_Tables_number   1
_chemical_formula_structural   Sr64Ca21Nb43O192
_chemical_formula_sum   'Sr64 Ca21 Nb43 O192'
_cell_volume   4571.75070543
_cell_formula_units_Z   1
loop_
 _symmetry_equiv_pos_site_id
 _symmetry_equiv_pos_as_xyz
  1  'x, y, z'
loop_
 _atom_type_symbol
 _atom_type_oxidation_number
  Sr2+  2.0
  Ca2+  2.0
  Nb5+  5.0
  O2-  -2.0
loop_
 _atom_site_type_symbol
 _atom_site_label
 _atom_site_symmetry_multiplicity
 _atom_site_fract_x
 _atom_site_fract_y
 _atom_site_fract_z
 _atom_site_occupancy
  Sr2+  Sr0  1  0.12857593  0.12882755  0.12933899  1
  Sr2+  Sr1  1  0.13189503  0.13168380  0.62458506  1
  Sr2+  Sr2  1  0.12696085  0.63359034  0.12271569  1
  Sr2+  Sr3  1  0.12985404  0.63916797  0.62763809  1
  Sr2+  Sr4  1  0.62707438  0.12717045  0.12363694  1
  Sr2+  Sr5  1  0.62038407  0.13265396  0.62650385  1
  Sr2+  Sr6  1  0.61881809  0.64875842  0.12732625  1
  Sr2+  Sr7  1  0.63645016  0.62165805  0.62592081  1
  Sr2+  Sr8  1  0.37647962  0.38823666  0.12172522  1
  Sr2+  Sr9  1  0.37850124  0.39478642  0.63121105  1
  Sr2+  Sr10  1  0.38076220  0.86660362  0.13029213  1
  Sr2+  Sr11  1  0.37259931  0.87750010  0.62400579  1
  Sr2+  Sr12  1  0.87707283  0.37973577  0.12446125  1
  Sr2+  Sr13  1  0.87114400  0.39597049  0.62686110  1
  Sr2+  Sr14  1  0.86872932  0.88499323  0.11791035  1
  Sr2+  Sr15  1  0.87489276  0.88462296  0.62549877  1
  Sr2+  Sr16  1  0.13135194  0.37447295  0.37608584  1
  Sr2+  Sr17  1  0.14622309  0.37456434  0.87462471  1
  Sr2+  Sr18  1  0.12426807  0.87502557  0.36854655  1
  Sr2+  Sr19  1  0.10738296  0.87494990  0.87529294  1
  Sr2+  Sr20  1  0.63273630  0.36654343  0.37579638  1
  Sr2+  Sr21  1  0.64826378  0.37884868  0.87275960  1
  Sr2+  Sr22  1  0.62128022  0.86533686  0.38387841  1
  Sr2+  Sr23  1  0.62991985  0.86364591  0.87805567  1
  Sr2+  Sr24  1  0.37731133  0.12751964  0.37780908  1
  Sr2+  Sr25  1  0.37534172  0.12910829  0.87754663  1
  Sr2+  Sr26  1  0.38191713  0.61938596  0.36874589  1
  Sr2+  Sr27  1  0.37098199  0.61063372  0.86898369  1
  Sr2+  Sr28  1  0.87374010  0.12725922  0.37471457  1
  Sr2+  Sr29  1  0.86981213  0.12537265  0.87363777  1
  Sr2+  Sr30  1  0.86269051  0.61604626  0.37778142  1
  Sr2+  Sr31  1  0.86815411  0.61929063  0.87237651  1
  Sr2+  Sr32  1  0.11898588  0.13279566  0.37446971  1
  Sr2+  Sr33  1  0.12709252  0.12968010  0.87338853  1
  Sr2+  Sr34  1  0.12690997  0.61925283  0.37489832  1
  Sr2+  Sr35  1  0.11235770  0.62929189  0.87551458  1
  Sr2+  Sr36  1  0.61734859  0.13046272  0.38262889  1
  Sr2+  Sr37  1  0.62759158  0.13438438  0.86911306  1
  Sr2+  Sr38  1  0.62743646  0.62798378  0.36763690  1
  Sr2+  Sr39  1  0.62097980  0.62860548  0.87528723  1
  Sr2+  Sr40  1  0.37394150  0.37979193  0.36942168  1
  Sr2+  Sr41  1  0.38105286  0.37542868  0.88078525  1
  Sr2+  Sr42  1  0.37146373  0.86083728  0.37807474  1
  Sr2+  Sr43  1  0.37052032  0.86844047  0.87329828  1
  Sr2+  Sr44  1  0.87624683  0.38548436  0.37393975  1
  Sr2+  Sr45  1  0.87479989  0.38125650  0.87667874  1
  Sr2+  Sr46  1  0.87172880  0.89295742  0.37652780  1
  Sr2+  Sr47  1  0.87112750  0.86307821  0.87159389  1
  Sr2+  Sr48  1  0.12708614  0.37443779  0.12419362  1
  Sr2+  Sr49  1  0.12319065  0.38370588  0.62209188  1
  Sr2+  Sr50  1  0.13495947  0.88516998  0.12608024  1
  Sr2+  Sr51  1  0.13083318  0.87933194  0.63314745  1
  Sr2+  Sr52  1  0.62852741  0.37677162  0.11921099  1
  Sr2+  Sr53  1  0.61759725  0.37185951  0.62911293  1
  Sr2+  Sr54  1  0.61518079  0.88126919  0.11306227  1
  Sr2+  Sr55  1  0.61339675  0.88362818  0.62770006  1
  Sr2+  Sr56  1  0.40203606  0.12366712  0.12551012  1
  Sr2+  Sr57  1  0.39503397  0.12666240  0.62926579  1
  Sr2+  Sr58  1  0.38480614  0.62768277  0.12692254  1
  Sr2+  Sr59  1  0.38634272  0.63499890  0.62099776  1
  Sr2+  Sr60  1  0.88523190  0.12681351  0.13012612  1
  Sr2+  Sr61  1  0.85193074  0.12178339  0.62312336  1
  Sr2+  Sr62  1  0.87362457  0.63277613  0.12713311  1
  Sr2+  Sr63  1  0.88460135  0.62876161  0.62087530  1
  Ca2+  Ca64  1  0.00065470  0.49890670  0.00143663  1
  Ca2+  Ca65  1  0.50057499  0.49883739  0.49768548  1
  Ca2+  Ca66  1  0.50302296  0.50024881  -0.00042122  1
  Ca2+  Ca67  1  -0.00173475  0.00228051  0.00009422  1
  Ca2+  Ca68  1  0.49891360  0.00041943  -0.00547041  1
  Ca2+  Ca69  1  0.75333212  0.25103754  0.50030948  1
  Ca2+  Ca70  1  0.24917680  0.74834741  0.49973188  1
  Ca2+  Ca71  1  0.25356287  0.25122001  0.49857734  1
  Ca2+  Ca72  1  0.75288826  0.74982586  0.50091465  1
  Ca2+  Ca73  1  0.24764823  0.75367819  -0.00109624  1
  Ca2+  Ca74  1  0.50202747  0.75464879  0.25247629  1
  Ca2+  Ca75  1  0.50031549  0.25388039  0.24758128  1
  Ca2+  Ca76  1  0.74986560  0.50015561  0.75053873  1
  Ca2+  Ca77  1  0.49948862  0.74932296  0.74884039  1
  Ca2+  Ca78  1  -0.00239165  0.24905140  0.74986521  1
  Ca2+  Ca79  1  0.74829133  -0.00175888  0.24838736  1
  Ca2+  Ca80  1  0.49578724  0.25419328  0.75473063  1
  Ca2+  Ca81  1  -0.00290378  0.75331421  0.25275170  1
  Ca2+  Ca82  1  0.74931719  0.49910582  0.24606735  1
  Ca2+  Ca83  1  0.25118075  0.50330728  0.74849364  1
  Ca2+  Ca84  1  0.74812379  -0.00526565  0.75299941  1
  Nb5+  Nb85  1  0.00277447  0.50763609  0.50085040  1
  Nb5+  Nb86  1  0.00166573  0.00792870  0.50295574  1
  Nb5+  Nb87  1  0.49040418  0.00139235  0.49911754  1
  Nb5+  Nb88  1  0.75229973  0.75469576  0.00077171  1
  Nb5+  Nb89  1  0.25718471  0.24802027  0.00458540  1
  Nb5+  Nb90  1  0.75791274  0.25156431  0.00002855  1
  Nb5+  Nb91  1  0.25023833  0.00074207  0.75555286  1
  Nb5+  Nb92  1  0.24820854  0.49860543  0.24813881  1
  Nb5+  Nb93  1  -0.00180034  0.75039732  0.74798743  1
  Nb5+  Nb94  1  0.25529816  0.00132650  0.25510855  1
  Nb5+  Nb95  1  -0.00042964  0.25382999  0.25282265  1
  Nb5+  Nb96  1  0.00251895  0.00136820  0.25081856  1
  Nb5+  Nb97  1  0.00125463  0.00524463  0.74812986  1
  Nb5+  Nb98  1  0.00341338  0.50517466  0.24878985  1
  Nb5+  Nb99  1  -0.00096700  0.49871531  0.75257695  1
  Nb5+  Nb100  1  0.50624424  -0.00179490  0.25370970  1
  Nb5+  Nb101  1  0.49701902  -0.00453162  0.75620434  1
  Nb5+  Nb102  1  0.50552097  0.49576284  0.24998031  1
  Nb5+  Nb103  1  0.50151462  0.50001897  0.74870974  1
  Nb5+  Nb104  1  0.25237646  0.24578056  0.24761520  1
  Nb5+  Nb105  1  0.24921032  0.25306093  0.74781520  1
  Nb5+  Nb106  1  0.24707500  0.74318581  0.24831291  1
  Nb5+  Nb107  1  0.24983763  0.74864903  0.75599270  1
  Nb5+  Nb108  1  0.74861368  0.25014453  0.24979822  1
  Nb5+  Nb109  1  0.74982658  0.24779306  0.74747909  1
  Nb5+  Nb110  1  0.75208612  0.75257751  0.25218467  1
  Nb5+  Nb111  1  0.74879705  0.74786244  0.74600053  1
  Nb5+  Nb112  1  0.00075989  0.25692774  0.50266142  1
  Nb5+  Nb113  1  0.00509740  0.24896077  0.99859749  1
  Nb5+  Nb114  1  0.00301183  0.75909238  0.49643129  1
  Nb5+  Nb115  1  -0.00246506  0.75418468  1.00622970  1
  Nb5+  Nb116  1  0.49412692  0.25575378  0.50011079  1
  Nb5+  Nb117  1  0.51118514  0.25226236  0.99776363  1
  Nb5+  Nb118  1  0.50549228  0.74555409  0.50156739  1
  Nb5+  Nb119  1  0.49212411  0.74628157  0.99436016  1
  Nb5+  Nb120  1  0.25285782  0.00272643  0.00724825  1
  Nb5+  Nb121  1  0.24344959  -0.00012729  0.50335882  1
  Nb5+  Nb122  1  0.24471835  0.50441791  -0.00051709  1
  Nb5+  Nb123  1  0.25252531  0.50275639  0.50074664  1
  Nb5+  Nb124  1  0.74755168  0.00659085  -0.00058215  1
  Nb5+  Nb125  1  0.73776350  -0.00372685  0.49981626  1
  Nb5+  Nb126  1  0.74938712  0.50751476  0.00317625  1
  Nb5+  Nb127  1  0.74402588  0.49384770  0.49751318  1
  O2-  O128  1  0.01377890  -0.02154310  0.13846164  1
  O2-  O129  1  0.02067136  -0.01805509  0.61797885  1
  O2-  O130  1  0.01242305  0.48037394  0.13738256  1
  O2-  O131  1  0.00603520  0.48574507  0.61880226  1
  O2-  O132  1  0.50894337  -0.00066745  0.13541271  1
  O2-  O133  1  0.50411151  -0.00485254  0.61937088  1
  O2-  O134  1  0.50290331  0.50219533  0.13372868  1
  O2-  O135  1  0.50773996  0.48079578  0.62947154  1
  O2-  O136  1  -0.00154714  0.02181413  0.38235586  1
  O2-  O137  1  -0.00987668  0.01850483  0.86194051  1
  O2-  O138  1  -0.00525888  0.50914044  0.37856711  1
  O2-  O139  1  -0.00822641  0.52120977  0.86542760  1
  O2-  O140  1  0.48381872  0.01255040  0.37841914  1
  O2-  O141  1  0.46263628  -0.00045293  0.86430409  1
  O2-  O142  1  0.47561753  0.49926105  0.36626831  1
  O2-  O143  1  0.48242304  0.50972613  0.86661496  1
  O2-  O144  1  0.22421784  0.25180381  0.12443148  1
  O2-  O145  1  0.22640741  0.25779121  0.63471765  1
  O2-  O146  1  0.28060956  0.74478022  0.13269376  1
  O2-  O147  1  0.27064176  0.74032627  0.63811162  1
  O2-  O148  1  0.73520745  0.25703504  0.11630702  1
  O2-  O149  1  0.73498106  0.25547338  0.63402140  1
  O2-  O150  1  0.77353893  0.74692347  0.11684515  1
  O2-  O151  1  0.76850343  0.72602335  0.63473213  1
  O2-  O152  1  0.26898035  0.25208522  0.36049847  1
  O2-  O153  1  0.26229784  0.24905115  0.88617000  1
  O2-  O154  1  0.22153241  0.75835740  0.36359541  1
  O2-  O155  1  0.22299846  0.78066305  0.86679078  1
  O2-  O156  1  0.75269505  0.23561778  0.36462683  1
  O2-  O157  1  0.75789869  0.23660623  0.88166616  1
  O2-  O158  1  0.72804916  0.75390576  0.36497786  1
  O2-  O159  1  0.73843403  0.75264334  0.87925092  1
  O2-  O160  1  0.00646633  0.26776545  0.13333418  1
  O2-  O161  1  0.02378117  0.26333996  0.61493655  1
  O2-  O162  1  -0.03312522  0.76239255  0.11650007  1
  O2-  O163  1  -0.02707078  0.75976501  0.62977505  1
  O2-  O164  1  0.51714651  0.23789029  0.11486923  1
  O2-  O165  1  0.51074694  0.24888889  0.61865020  1
  O2-  O166  1  0.48355130  0.74717396  0.11629431  1
  O2-  O167  1  0.47411644  0.76250356  0.61495532  1
  O2-  O168  1  0.26426839  0.00005968  0.37119370  1
  O2-  O169  1  0.26537379  0.00000469  0.87013038  1
  O2-  O170  1  0.25694463  0.51158946  0.36740868  1
  O2-  O171  1  0.26357317  0.49136939  0.88569779  1
  O2-  O172  1  0.76637507  0.01060287  0.38495000  1
  O2-  O173  1  0.78083894  0.00078219  0.88551921  1
  O2-  O174  1  0.76447086  0.49228238  0.37944641  1
  O2-  O175  1  0.76755300  0.49388041  0.88608023  1
  O2-  O176  1  -0.01081043  0.23492975  0.37144717  1
  O2-  O177  1  -0.01000108  0.22360411  0.88799867  1
  O2-  O178  1  0.03467009  0.74310942  0.38772464  1
  O2-  O179  1  0.01626312  0.74366490  0.86898141  1
  O2-  O180  1  0.49295109  0.23962606  0.38149751  1
  O2-  O181  1  0.47128845  0.24886319  0.88723793  1
  O2-  O182  1  0.53061906  0.74825026  0.38388526  1
  O2-  O183  1  0.52857083  0.75254458  0.88187699  1
  O2-  O184  1  0.23684295  0.00932026  0.12457110  1
  O2-  O185  1  0.23222400  0.00376772  0.61894653  1
  O2-  O186  1  0.22727493  0.50287251  0.12955591  1
  O2-  O187  1  0.24234964  0.48224188  0.61386039  1
  O2-  O188  1  0.72240811  -0.01337096  0.11469584  1
  O2-  O189  1  0.73463555  -0.01496776  0.61797362  1
  O2-  O190  1  0.74682478  0.47450296  0.11529324  1
  O2-  O191  1  0.74608222  0.50228546  0.61575260  1
  O2-  O192  1  0.12376474  0.26468360  0.26182811  1
  O2-  O193  1  0.13447561  0.25719842  0.78129122  1
  O2-  O194  1  0.13434300  0.77119588  0.21727208  1
  O2-  O195  1  0.11977301  0.76559263  0.72970845  1
  O2-  O196  1  0.63628778  0.27915646  0.25173399  1
  O2-  O197  1  0.63230250  0.26736657  0.77248552  1
  O2-  O198  1  0.63814499  0.77875112  0.21970034  1
  O2-  O199  1  0.63719765  0.77755894  0.73533005  1
  O2-  O200  1  0.36316794  0.23336267  0.22267638  1
  O2-  O201  1  0.35885503  0.21328261  0.74647570  1
  O2-  O202  1  0.36317540  0.73863880  0.27613385  1
  O2-  O203  1  0.36264643  0.73622427  0.78278952  1
  O2-  O204  1  0.88269194  0.22727655  0.24263641  1
  O2-  O205  1  0.86476840  0.21150101  0.74724137  1
  O2-  O206  1  0.86560358  0.71155799  0.26172995  1
  O2-  O207  1  0.88142540  0.72850722  0.76961098  1
  O2-  O208  1  0.26119308  0.37855028  0.24597093  1
  O2-  O209  1  0.27243044  0.36508638  0.75993277  1
  O2-  O210  1  0.26468232  0.88474634  0.24183029  1
  O2-  O211  1  0.26263727  0.88043678  0.73570226  1
  O2-  O212  1  0.78813536  0.36161518  0.24812224  1
  O2-  O213  1  0.77880898  0.36309398  0.76035741  1
  O2-  O214  1  0.79299739  0.86513464  0.24749709  1
  O2-  O215  1  0.78407669  0.86135402  0.74968518  1
  O2-  O216  1  0.22811630  0.12891595  0.25184329  1
  O2-  O217  1  0.22201743  0.11703331  0.75162194  1
  O2-  O218  1  0.22443810  0.62665119  0.24800223  1
  O2-  O219  1  0.22124152  0.63629109  0.76880978  1
  O2-  O220  1  0.73869419  0.13405822  0.22711633  1
  O2-  O221  1  0.72103669  0.12768080  0.74690642  1
  O2-  O222  1  0.71883584  0.63297186  0.24312967  1
  O2-  O223  1  0.73103185  0.63279827  0.76953682  1
  O2-  O224  1  0.12620703  0.48066886  0.26688299  1
  O2-  O225  1  0.11580068  0.47496076  0.75005421  1
  O2-  O226  1  0.13144355  0.99320552  0.26251341  1
  O2-  O227  1  0.12647430  0.97536154  0.75830298  1
  O2-  O228  1  0.61560331  0.46525840  0.26152694  1
  O2-  O229  1  0.61646246  0.46563269  0.75673713  1
  O2-  O230  1  0.61500115  0.96871482  0.27234122  1
  O2-  O231  1  0.60965529  0.97033086  0.76819560  1
  O2-  O232  1  0.36840751  0.03081128  0.24161456  1
  O2-  O233  1  0.36372359  0.01732205  0.72786652  1
  O2-  O234  1  0.36236666  0.52347023  0.23557543  1
  O2-  O235  1  0.38210354  0.53740508  0.73031716  1
  O2-  O236  1  0.88876946  0.02295471  0.24759582  1
  O2-  O237  1  0.88851404  0.01114982  0.72054161  1
  O2-  O238  1  0.88812587  0.51957241  0.24559483  1
  O2-  O239  1  0.88498720  0.52540572  0.73025722  1
  O2-  O240  1  0.46107232  0.38406676  0.24598581  1
  O2-  O241  1  0.45944517  0.38453544  0.75414579  1
  O2-  O242  1  0.46205477  0.88770195  0.25845443  1
  O2-  O243  1  0.46507193  0.88274710  0.74287462  1
  O2-  O244  1  0.98800990  0.37203561  0.26809380  1
  O2-  O245  1  0.97211292  0.38471177  0.75830849  1
  O2-  O246  1  0.99476921  0.88907352  0.28315380  1
  O2-  O247  1  0.98815454  0.87295316  0.75853537  1
  O2-  O248  1  0.02310485  0.12706291  0.24178612  1
  O2-  O249  1  0.02882283  0.11457854  0.73002222  1
  O2-  O250  1  0.03072626  0.61713876  0.24242872  1
  O2-  O251  1  0.02185564  0.62883277  0.73510123  1
  O2-  O252  1  0.52359825  0.11643474  0.25276769  1
  O2-  O253  1  0.51338671  0.11300579  0.74249839  1
  O2-  O254  1  0.51513161  0.61669724  0.25453080  1
  O2-  O255  1  0.53511230  0.61699032  0.73843911  1
  O2-  O256  1  0.13300570  0.46354038  -0.00456952  1
  O2-  O257  1  0.11848398  0.47375756  0.49118627  1
  O2-  O258  1  0.13707881  0.98494762  -0.01720000  1
  O2-  O259  1  0.12837082  0.97281440  0.48516361  1
  O2-  O260  1  0.63656632  0.46970127  -0.00818934  1
  O2-  O261  1  0.63310749  0.46084063  0.49244628  1
  O2-  O262  1  0.63465980  0.97513232  -0.02539553  1
  O2-  O263  1  0.62287939  0.97811096  0.48589144  1
  O2-  O264  1  0.36291573  0.04266531  0.00514145  1
  O2-  O265  1  0.37436629  0.02222982  0.51023524  1
  O2-  O266  1  0.36039416  0.51713697  0.02251548  1
  O2-  O267  1  0.36402524  0.53284271  0.50751617  1
  O2-  O268  1  0.86375378  0.01474161  0.03153225  1
  O2-  O269  1  0.88631556  0.01679463  0.51393381  1
  O2-  O270  1  0.86792358  0.52348181  0.01490590  1
  O2-  O271  1  0.88370294  0.52012056  0.50653286  1
  O2-  O272  1  0.47399181  0.36459315  0.00876860  1
  O2-  O273  1  0.45795368  0.36519056  0.49879980  1
  O2-  O274  1  0.48019410  0.86557447  0.00167588  1
  O2-  O275  1  0.48170521  0.88284181  0.48815314  1
  O2-  O276  1  0.96697971  0.36063772  -0.00324778  1
  O2-  O277  1  0.97994329  0.37150016  0.49022750  1
  O2-  O278  1  0.97564840  0.86780164  -0.02254894  1
  O2-  O279  1  0.98390785  0.87504397  0.48690033  1
  O2-  O280  1  0.01257083  0.13573032  0.03368370  1
  O2-  O281  1  0.03017111  0.11932554  0.51272341  1
  O2-  O282  1  0.02218020  0.63684349  0.00807482  1
  O2-  O283  1  0.02389037  0.62116799  0.51342325  1
  O2-  O284  1  0.52643761  0.13279971  -0.00967583  1
  O2-  O285  1  0.52636683  0.11648684  0.50368804  1
  O2-  O286  1  0.53001104  0.63402161  0.00302417  1
  O2-  O287  1  0.53000937  0.63268427  0.51446239  1
  O2-  O288  1  0.11954764  0.27145330  -0.00884936  1
  O2-  O289  1  0.11560947  0.25863547  0.47232680  1
  O2-  O290  1  0.11213670  0.77846348  0.02116934  1
  O2-  O291  1  0.11354471  0.76425547  0.53779850  1
  O2-  O292  1  0.62671671  0.27340005  -0.01591810  1
  O2-  O293  1  0.61473468  0.26933839  0.49006767  1
  O2-  O294  1  0.63444086  0.76895724  0.01549149  1
  O2-  O295  1  0.61848685  0.78217841  0.52223624  1
  O2-  O296  1  0.36819177  0.22709600  0.02101673  1
  O2-  O297  1  0.38384624  0.20989246  0.50648862  1
  O2-  O298  1  0.38130772  0.72271766  -0.02771059  1
  O2-  O299  1  0.38722252  0.73181892  0.47382625  1
  O2-  O300  1  0.86990231  0.22179395  0.01157774  1
  O2-  O301  1  0.89085237  0.21437930  0.50632162  1
  O2-  O302  1  0.87197589  0.72621694  -0.02065439  1
  O2-  O303  1  0.89130866  0.72249746  0.48504917  1
  O2-  O304  1  0.26828059  0.36807734  0.00765709  1
  O2-  O305  1  0.26241500  0.38709837  0.47530893  1
  O2-  O306  1  0.28213866  0.89046745  0.01059765  1
  O2-  O307  1  0.27529490  0.88535971  0.49861361  1
  O2-  O308  1  0.77570197  0.36567177  -0.00804371  1
  O2-  O309  1  0.78836907  0.38152404  0.50058561  1
  O2-  O310  1  0.77292176  0.86995067  -0.00332700  1
  O2-  O311  1  0.78068457  0.88434010  0.49552501  1
  O2-  O312  1  0.21924692  0.13192374  -0.00076123  1
  O2-  O313  1  0.22599646  0.11479884  0.48897554  1
  O2-  O314  1  0.21593500  0.61689898  -0.00544256  1
  O2-  O315  1  0.21265333  0.61413319  0.49811792  1
  O2-  O316  1  0.72483802  0.12383376  0.00102915  1
  O2-  O317  1  0.73321492  0.11427639  0.51466308  1
  O2-  O318  1  0.72624932  0.62336906  0.00401378  1
  O2-  O319  1  0.72887752  0.61270778  0.48664343  1
