# generated using pymatgen
data_Sr64Ca21Nb43O192
_symmetry_space_group_name_H-M   'P 1'
_cell_length_a   16.58931622
_cell_length_b   16.57448625
_cell_length_c   16.73786469
_cell_angle_alpha   89.95972820
_cell_angle_beta   90.00658491
_cell_angle_gamma   90.09956232
_symmetry_Int_Tables_number   1
_chemical_formula_structural   Sr64Ca21Nb43O192
_chemical_formula_sum   'Sr64 Ca21 Nb43 O192'
_cell_volume   4602.22500695
_cell_formula_units_Z   1
loop_
 _symmetry_equiv_pos_site_id
 _symmetry_equiv_pos_as_xyz
  1  'x, y, z'
loop_
 _atom_type_symbol
 _atom_type_oxidation_number
  Sr2+  2.0
  Ca2+  2.0
  Nb5+  5.0
  O2-  -2.0
loop_
 _atom_site_type_symbol
 _atom_site_label
 _atom_site_symmetry_multiplicity
 _atom_site_fract_x
 _atom_site_fract_y
 _atom_site_fract_z
 _atom_site_occupancy
  Sr2+  Sr0  1  0.11532125  0.13518110  0.12068949  1
  Sr2+  Sr1  1  0.11897301  0.12107277  0.63519955  1
  Sr2+  Sr2  1  0.12117283  0.60783520  0.12617208  1
  Sr2+  Sr3  1  0.11969940  0.61926944  0.61616314  1
  Sr2+  Sr4  1  0.63912089  0.11582393  0.12429171  1
  Sr2+  Sr5  1  0.62696247  0.12829815  0.62950004  1
  Sr2+  Sr6  1  0.62743026  0.63488601  0.12477023  1
  Sr2+  Sr7  1  0.63476251  0.61061114  0.62365793  1
  Sr2+  Sr8  1  0.37295489  0.37793058  0.15484138  1
  Sr2+  Sr9  1  0.37947554  0.36967202  0.63621226  1
  Sr2+  Sr10  1  0.37269220  0.86411825  0.11150395  1
  Sr2+  Sr11  1  0.37064874  0.86855885  0.62782829  1
  Sr2+  Sr12  1  0.87848714  0.38189321  0.12386634  1
  Sr2+  Sr13  1  0.86509494  0.38958679  0.62754881  1
  Sr2+  Sr14  1  0.86848960  0.85106876  0.12946152  1
  Sr2+  Sr15  1  0.87871064  0.85807239  0.62222796  1
  Sr2+  Sr16  1  0.13607688  0.36988729  0.36947286  1
  Sr2+  Sr17  1  0.13429378  0.38455819  0.87693259  1
  Sr2+  Sr18  1  0.11478414  0.87919100  0.38227818  1
  Sr2+  Sr19  1  0.13489178  0.87953427  0.87603792  1
  Sr2+  Sr20  1  0.61140204  0.37511622  0.37409936  1
  Sr2+  Sr21  1  0.61899678  0.37773453  0.87396521  1
  Sr2+  Sr22  1  0.61208298  0.88912113  0.37534628  1
  Sr2+  Sr23  1  0.60543422  0.88037868  0.87456195  1
  Sr2+  Sr24  1  0.37271507  0.12472123  0.37697935  1
  Sr2+  Sr25  1  0.37142776  0.12175379  0.87250786  1
  Sr2+  Sr26  1  0.37026634  0.62768501  0.36314029  1
  Sr2+  Sr27  1  0.37847665  0.62731315  0.88457426  1
  Sr2+  Sr28  1  0.87710270  0.12666937  0.37548165  1
  Sr2+  Sr29  1  0.87639883  0.13507012  0.88343875  1
  Sr2+  Sr30  1  0.88732701  0.63848673  0.36811431  1
  Sr2+  Sr31  1  0.88349758  0.63304825  0.87345979  1
  Sr2+  Sr32  1  0.12353646  0.11665764  0.36858348  1
  Sr2+  Sr33  1  0.13277506  0.11653205  0.88332444  1
  Sr2+  Sr34  1  0.13826817  0.64137110  0.37336483  1
  Sr2+  Sr35  1  0.12619955  0.62839465  0.88183154  1
  Sr2+  Sr36  1  0.62521108  0.12265307  0.37368427  1
  Sr2+  Sr37  1  0.62320586  0.12949188  0.88306557  1
  Sr2+  Sr38  1  0.61167308  0.64035665  0.36838570  1
  Sr2+  Sr39  1  0.61724320  0.64280325  0.87486900  1
  Sr2+  Sr40  1  0.37651346  0.39937767  0.37437040  1
  Sr2+  Sr41  1  0.37860670  0.39272694  0.87477534  1
  Sr2+  Sr42  1  0.37362083  0.86092962  0.38229422  1
  Sr2+  Sr43  1  0.37337581  0.85802811  0.87350541  1
  Sr2+  Sr44  1  0.87434594  0.37158509  0.37846503  1
  Sr2+  Sr45  1  0.87580628  0.38601457  0.87573690  1
  Sr2+  Sr46  1  0.87388976  0.88137291  0.37369090  1
  Sr2+  Sr47  1  0.87080763  0.87136622  0.87064270  1
  Sr2+  Sr48  1  0.13072617  0.37051474  0.12202980  1
  Sr2+  Sr49  1  0.14228834  0.37113733  0.62234652  1
  Sr2+  Sr50  1  0.11720546  0.87572225  0.13109706  1
  Sr2+  Sr51  1  0.11810984  0.87359017  0.62980327  1
  Sr2+  Sr52  1  0.61760095  0.37115171  0.12702971  1
  Sr2+  Sr53  1  0.62190548  0.36947682  0.63160301  1
  Sr2+  Sr54  1  0.62663700  0.87494109  0.12854115  1
  Sr2+  Sr55  1  0.62435684  0.87801540  0.62121408  1
  Sr2+  Sr56  1  0.34712343  0.12827534  0.12062723  1
  Sr2+  Sr57  1  0.36888208  0.12545999  0.62987286  1
  Sr2+  Sr58  1  0.39583447  0.61752472  0.12476964  1
  Sr2+  Sr59  1  0.37119905  0.62037068  0.61347662  1
  Sr2+  Sr60  1  0.87586578  0.12709259  0.12556494  1
  Sr2+  Sr61  1  0.87420873  0.12696304  0.62365220  1
  Sr2+  Sr62  1  0.88449832  0.61996468  0.12697344  1
  Sr2+  Sr63  1  0.86456250  0.61903290  0.62674540  1
  Ca2+  Ca64  1  0.00000768  0.49721864  0.50108892  1
  Ca2+  Ca65  1  0.50105029  0.50025441  0.50246546  1
  Ca2+  Ca66  1  0.50751225  0.49584976  0.00067980  1
  Ca2+  Ca67  1  -0.00312996  -0.00061681  0.00083307  1
  Ca2+  Ca68  1  0.49850128  0.00532921  0.00366776  1
  Ca2+  Ca69  1  0.74768081  0.74818720  0.49752706  1
  Ca2+  Ca70  1  0.24655581  0.74561560  -0.00093681  1
  Ca2+  Ca71  1  0.24976385  0.24555604  0.49886664  1
  Ca2+  Ca72  1  0.25064746  0.25290078  -0.00311529  1
  Ca2+  Ca73  1  0.75127456  0.74911987  -0.00263431  1
  Ca2+  Ca74  1  0.49835101  0.75112116  0.74361277  1
  Ca2+  Ca75  1  0.75170483  0.49815038  0.24979313  1
  Ca2+  Ca76  1  0.74841804  0.00338328  0.74921887  1
  Ca2+  Ca77  1  0.24494102  0.50360831  0.24998130  1
  Ca2+  Ca78  1  -0.00108601  0.25231420  0.74896697  1
  Ca2+  Ca79  1  0.25150195  -0.00409360  0.25241329  1
  Ca2+  Ca80  1  0.49744526  0.75734576  0.25091272  1
  Ca2+  Ca81  1  0.00667316  0.75051386  0.24846781  1
  Ca2+  Ca82  1  0.25094464  0.50374695  0.75000013  1
  Ca2+  Ca83  1  0.50196300  0.24363558  0.25060668  1
  Ca2+  Ca84  1  0.00233319  0.74916838  0.75098376  1
  Nb5+  Nb85  1  0.49173335  0.00451882  0.50127105  1
  Nb5+  Nb86  1  -0.00012350  0.49792226  -0.00236281  1
  Nb5+  Nb87  1  -0.00546189  0.00372335  0.50187813  1
  Nb5+  Nb88  1  0.75026538  0.25212442  0.00658385  1
  Nb5+  Nb89  1  0.24894335  0.75276707  0.50129629  1
  Nb5+  Nb90  1  0.75018674  0.24869981  0.50451304  1
  Nb5+  Nb91  1  0.75351693  -0.00154877  0.25055761  1
  Nb5+  Nb92  1  0.25145081  -0.00150870  0.74839372  1
  Nb5+  Nb93  1  0.49905971  0.24755634  0.75299567  1
  Nb5+  Nb94  1  -0.00258094  0.25106175  0.25104004  1
  Nb5+  Nb95  1  0.74629640  0.50155264  0.75447892  1
  Nb5+  Nb96  1  -0.00152137  0.00080386  0.24766973  1
  Nb5+  Nb97  1  -0.00455327  0.00153893  0.75535218  1
  Nb5+  Nb98  1  0.00255042  0.49754677  0.26071011  1
  Nb5+  Nb99  1  0.00236655  0.49740601  0.74812081  1
  Nb5+  Nb100  1  0.49286007  0.00400172  0.24623220  1
  Nb5+  Nb101  1  0.49921050  0.00099147  0.74925628  1
  Nb5+  Nb102  1  0.50665970  0.49961954  0.25060957  1
  Nb5+  Nb103  1  0.50210871  0.50751816  0.74967254  1
  Nb5+  Nb104  1  0.25217966  0.24401464  0.25217963  1
  Nb5+  Nb105  1  0.24863048  0.25200305  0.75180251  1
  Nb5+  Nb106  1  0.25064377  0.75600211  0.23957589  1
  Nb5+  Nb107  1  0.24695797  0.74458173  0.74571209  1
  Nb5+  Nb108  1  0.75196945  0.25148274  0.25538923  1
  Nb5+  Nb109  1  0.75044336  0.24885835  0.75809803  1
  Nb5+  Nb110  1  0.74889891  0.74541079  0.25510458  1
  Nb5+  Nb111  1  0.75021785  0.75587886  0.74760050  1
  Nb5+  Nb112  1  -0.00128218  0.25242943  0.50188262  1
  Nb5+  Nb113  1  -0.00148612  0.25373197  0.99477654  1
  Nb5+  Nb114  1  0.00014475  0.74535317  0.49902958  1
  Nb5+  Nb115  1  0.00020843  0.75417855  1.00202619  1
  Nb5+  Nb116  1  0.49681817  0.24692493  0.49996033  1
  Nb5+  Nb117  1  0.49530266  0.24938343  1.00439049  1
  Nb5+  Nb118  1  0.50254590  0.75066629  0.50320375  1
  Nb5+  Nb119  1  0.50176706  0.75225292  1.00037142  1
  Nb5+  Nb120  1  0.24898812  -0.00361057  0.00555054  1
  Nb5+  Nb121  1  0.24288657  0.00188201  0.50382029  1
  Nb5+  Nb122  1  0.25501841  0.49963114  -0.00013565  1
  Nb5+  Nb123  1  0.25122344  0.49642968  0.49928292  1
  Nb5+  Nb124  1  0.75351273  -0.00420030  -0.00368784  1
  Nb5+  Nb125  1  0.74640790  0.00190481  0.50176433  1
  Nb5+  Nb126  1  0.75040995  0.50090061  -0.00058820  1
  Nb5+  Nb127  1  0.74401387  0.49829539  0.49016185  1
  O2-  O128  1  0.00326390  0.02811823  0.13632139  1
  O2-  O129  1  -0.00100944  0.02475508  0.61894622  1
  O2-  O130  1  -0.01638514  0.50781927  0.11759208  1
  O2-  O131  1  -0.01708705  0.52475531  0.63679793  1
  O2-  O132  1  0.49345654  -0.02827424  0.13716923  1
  O2-  O133  1  0.49146601  -0.01458406  0.61956224  1
  O2-  O134  1  0.48564980  0.47993150  0.13296981  1
  O2-  O135  1  0.48896170  0.47550685  0.63686902  1
  O2-  O136  1  -0.00168117  -0.01164653  0.38077341  1
  O2-  O137  1  -0.00026478  -0.02890555  0.86514321  1
  O2-  O138  1  0.01333319  0.46520201  0.36886011  1
  O2-  O139  1  0.00841693  0.47411296  0.87800148  1
  O2-  O140  1  0.50499392  0.02692349  0.38337856  1
  O2-  O141  1  0.51208762  0.02299174  0.86284087  1
  O2-  O142  1  0.52260444  0.51668876  0.36933795  1
  O2-  O143  1  0.52532290  0.51160371  0.86541122  1
  O2-  O144  1  0.25247927  0.27232809  0.13449809  1
  O2-  O145  1  0.25848120  0.26835699  0.63308686  1
  O2-  O146  1  0.23322231  0.77805606  0.12941305  1
  O2-  O147  1  0.23247061  0.77345163  0.61940340  1
  O2-  O148  1  0.75145419  0.23401921  0.12363924  1
  O2-  O149  1  0.74987968  0.23606474  0.62164321  1
  O2-  O150  1  0.72873314  0.75773706  0.13654038  1
  O2-  O151  1  0.72488791  0.73162590  0.63256080  1
  O2-  O152  1  0.23783717  0.21540276  0.36687834  1
  O2-  O153  1  0.24919196  0.21574652  0.86316662  1
  O2-  O154  1  0.26620280  0.73961204  0.38306265  1
  O2-  O155  1  0.27121537  0.73292570  0.85902939  1
  O2-  O156  1  0.75189074  0.25866670  0.37316632  1
  O2-  O157  1  0.75396992  0.26181144  0.87421464  1
  O2-  O158  1  0.78569320  0.75455542  0.36766157  1
  O2-  O159  1  0.77759381  0.74834552  0.86260253  1
  O2-  O160  1  -0.00424642  0.23840868  0.13007873  1
  O2-  O161  1  -0.00050401  0.22372659  0.61337539  1
  O2-  O162  1  0.03071239  0.72655805  0.11551545  1
  O2-  O163  1  0.02913900  0.74247182  0.61282701  1
  O2-  O164  1  0.49393487  0.27870134  0.11495851  1
  O2-  O165  1  0.50345865  0.26354483  0.62397687  1
  O2-  O166  1  0.51850817  0.77087972  0.11787931  1
  O2-  O167  1  0.50744779  0.78969407  0.61312129  1
  O2-  O168  1  0.24972930  0.02059605  0.38923624  1
  O2-  O169  1  0.24950053  0.01730705  0.86421682  1
  O2-  O170  1  0.22256333  0.51684583  0.38559726  1
  O2-  O171  1  0.22917147  0.52003131  0.88221750  1
  O2-  O172  1  0.74945279  -0.00491386  0.37697141  1
  O2-  O173  1  0.73303217  -0.01495360  0.88417426  1
  O2-  O174  1  0.73910078  0.46559239  0.38209343  1
  O2-  O175  1  0.74092060  0.47523513  0.87130223  1
  O2-  O176  1  -0.00885644  0.26125777  0.37357884  1
  O2-  O177  1  -0.01597914  0.26818821  0.88297739  1
  O2-  O178  1  -0.01338159  0.77637179  0.38485845  1
  O2-  O179  1  -0.03052904  0.76377269  0.88516366  1
  O2-  O180  1  0.51400317  0.22565289  0.38719649  1
  O2-  O181  1  0.50418002  0.22327277  0.86677379  1
  O2-  O182  1  0.47492854  0.73527436  0.38769170  1
  O2-  O183  1  0.48257525  0.73242157  0.87952107  1
  O2-  O184  1  0.24968009  -0.02894464  0.11694380  1
  O2-  O185  1  0.25734472  -0.02262382  0.62405072  1
  O2-  O186  1  0.25637857  0.47173814  0.11475359  1
  O2-  O187  1  0.28022653  0.48919868  0.61691601  1
  O2-  O188  1  0.76471055  0.01365019  0.13385841  1
  O2-  O189  1  0.75272771  0.02827341  0.61370826  1
  O2-  O190  1  0.77420009  0.50997585  0.11176499  1
  O2-  O191  1  0.75740588  0.50606258  0.63142387  1
  O2-  O192  1  0.11571096  0.26733238  0.25058930  1
  O2-  O193  1  0.13440866  0.27270937  0.74680513  1
  O2-  O194  1  0.13788658  0.78804927  0.26940555  1
  O2-  O195  1  0.13657388  0.78441402  0.76040434  1
  O2-  O196  1  0.63826297  0.26951999  0.24574268  1
  O2-  O197  1  0.62134416  0.26674153  0.74844070  1
  O2-  O198  1  0.63633761  0.77653015  0.27932248  1
  O2-  O199  1  0.63421573  0.77256715  0.77193121  1
  O2-  O200  1  0.36634704  0.22476177  0.25125319  1
  O2-  O201  1  0.38017104  0.23138836  0.74589113  1
  O2-  O202  1  0.36552015  0.71845767  0.23220643  1
  O2-  O203  1  0.36256083  0.73618523  0.71594565  1
  O2-  O204  1  0.87572403  0.22313331  0.25194087  1
  O2-  O205  1  0.86221352  0.22364522  0.74776395  1
  O2-  O206  1  0.86893496  0.72885369  0.22922416  1
  O2-  O207  1  0.86739359  0.72910675  0.72321230  1
  O2-  O208  1  0.26116177  0.36267907  0.27870135  1
  O2-  O209  1  0.27440341  0.36464321  0.77035673  1
  O2-  O210  1  0.29336502  0.86612256  0.26084126  1
  O2-  O211  1  0.27483413  0.88185094  0.75947999  1
  O2-  O212  1  0.78234217  0.36103681  0.23850184  1
  O2-  O213  1  0.75898910  0.36923455  0.73680639  1
  O2-  O214  1  0.77841758  0.88253906  0.24924220  1
  O2-  O215  1  0.77464082  0.86873869  0.73445983  1
  O2-  O216  1  0.22370733  0.13115429  0.22128871  1
  O2-  O217  1  0.24070566  0.12101459  0.72479786  1
  O2-  O218  1  0.21719366  0.63924772  0.24335681  1
  O2-  O219  1  0.21663746  0.63532227  0.72722319  1
  O2-  O220  1  0.73783443  0.12408697  0.26068624  1
  O2-  O221  1  0.71748372  0.13685222  0.76230905  1
  O2-  O222  1  0.72169081  0.63297640  0.25883923  1
  O2-  O223  1  0.72389706  0.61561495  0.76109000  1
  O2-  O224  1  0.11165620  0.47563643  0.22452478  1
  O2-  O225  1  0.11405922  0.47066050  0.73578463  1
  O2-  O226  1  0.11355368  0.98413030  0.26233997  1
  O2-  O227  1  0.13260498  0.98394657  0.74227495  1
  O2-  O228  1  0.62051520  0.47042287  0.23566829  1
  O2-  O229  1  0.62666663  0.47537527  0.73959864  1
  O2-  O230  1  0.63759890  0.97883556  0.24664320  1
  O2-  O231  1  0.61327252  0.98332950  0.73018664  1
  O2-  O232  1  0.38443222  0.03941300  0.24990599  1
  O2-  O233  1  0.37548853  0.02368728  0.74474355  1
  O2-  O234  1  0.38215067  0.51328285  0.26258659  1
  O2-  O235  1  0.38747910  0.51898784  0.77227415  1
  O2-  O236  1  0.87748322  0.02155114  0.26483221  1
  O2-  O237  1  0.88419021  0.03134256  0.75565506  1
  O2-  O238  1  0.88634329  0.52176665  0.26100031  1
  O2-  O239  1  0.86438853  0.51640626  0.76343240  1
  O2-  O240  1  0.48365437  0.37911970  0.27420102  1
  O2-  O241  1  0.48433127  0.36638066  0.76477925  1
  O2-  O242  1  0.49019646  0.89302914  0.28563616  1
  O2-  O243  1  0.47727311  0.88803268  0.76643552  1
  O2-  O244  1  0.97423765  0.36841397  0.24071881  1
  O2-  O245  1  0.96280869  0.38571788  0.74081764  1
  O2-  O246  1  0.97800777  0.88753378  0.23125874  1
  O2-  O247  1  0.98649534  0.88897190  0.71960859  1
  O2-  O248  1  0.01318216  0.12874108  0.26754709  1
  O2-  O249  1  0.03298119  0.11449472  0.76643574  1
  O2-  O250  1  0.02305476  0.61278658  0.27408368  1
  O2-  O251  1  0.01164492  0.61178492  0.78089187  1
  O2-  O252  1  0.54176204  0.11109730  0.23865983  1
  O2-  O253  1  0.51120943  0.12715427  0.72557578  1
  O2-  O254  1  0.52369668  0.61844251  0.23216868  1
  O2-  O255  1  0.52531856  0.61737819  0.72684838  1
  O2-  O256  1  0.11546224  0.47822527  0.01003530  1
  O2-  O257  1  0.13503523  0.49168213  0.53205053  1
  O2-  O258  1  0.13167780  0.98422090  -0.01291369  1
  O2-  O259  1  0.12420810  0.98668292  0.50320211  1
  O2-  O260  1  0.64136218  0.46444056  0.01120625  1
  O2-  O261  1  0.63443599  0.46650986  0.51989080  1
  O2-  O262  1  0.63922700  0.99005747  0.02700971  1
  O2-  O263  1  0.62847340  0.98655916  0.50323699  1
  O2-  O264  1  0.36430284  0.02894374  -0.00177603  1
  O2-  O265  1  0.37546642  0.02009205  0.50026012  1
  O2-  O266  1  0.36924142  0.51697790  -0.01308730  1
  O2-  O267  1  0.36614911  0.52623885  0.47753781  1
  O2-  O268  1  0.86482138  0.03483029  -0.00511909  1
  O2-  O269  1  0.87687413  0.01998253  0.49626359  1
  O2-  O270  1  0.87431427  0.50917442  -0.02443754  1
  O2-  O271  1  0.86117929  0.51781787  0.49567256  1
  O2-  O272  1  0.49481679  0.35959823  -0.03701738  1
  O2-  O273  1  0.48100818  0.36117274  0.48410604  1
  O2-  O274  1  0.47890666  0.87038593  -0.01919678  1
  O2-  O275  1  0.48867696  0.88757970  0.47990307  1
  O2-  O276  1  0.97615220  0.37444917  0.01336771  1
  O2-  O277  1  0.96497399  0.36212775  0.51396199  1
  O2-  O278  1  0.98916587  0.86548265  0.03122504  1
  O2-  O279  1  0.98946116  0.88383307  0.51573583  1
  O2-  O280  1  0.01601509  0.13729743  -0.01480079  1
  O2-  O281  1  0.01581865  0.12324573  0.47895968  1
  O2-  O282  1  0.01082865  0.61454228  -0.01722191  1
  O2-  O283  1  0.01677035  0.63371691  0.47353031  1
  O2-  O284  1  0.53796388  0.14013689  0.01240865  1
  O2-  O285  1  0.52316747  0.12103085  0.52166927  1
  O2-  O286  1  0.52406908  0.63240494  0.01579837  1
  O2-  O287  1  0.51328073  0.63860899  0.52999643  1
  O2-  O288  1  0.11280790  0.27396675  0.00272349  1
  O2-  O289  1  0.11209106  0.27788264  0.49659528  1
  O2-  O290  1  0.11382971  0.75744480  -0.03470342  1
  O2-  O291  1  0.12887445  0.76508765  0.48111246  1
  O2-  O292  1  0.63495502  0.27359306  -0.00015717  1
  O2-  O293  1  0.63131674  0.26285311  0.50340317  1
  O2-  O294  1  0.61884612  0.77224595  -0.02387256  1
  O2-  O295  1  0.61360247  0.77172479  0.47670396  1
  O2-  O296  1  0.38519324  0.22028009  -0.00373612  1
  O2-  O297  1  0.38558835  0.21742698  0.50154621  1
  O2-  O298  1  0.38277761  0.73021324  0.01909905  1
  O2-  O299  1  0.37088723  0.74937874  0.51890369  1
  O2-  O300  1  0.87373912  0.23010920  0.00581948  1
  O2-  O301  1  0.87095148  0.22325961  0.49565008  1
  O2-  O302  1  0.88479464  0.72559582  0.02425488  1
  O2-  O303  1  0.88614254  0.73453583  0.52188544  1
  O2-  O304  1  0.25688218  0.38378221  -0.03353851  1
  O2-  O305  1  0.26340628  0.38266331  0.48126635  1
  O2-  O306  1  0.26779153  0.88283604  -0.02672375  1
  O2-  O307  1  0.26083172  0.87847989  0.48783471  1
  O2-  O308  1  0.77896498  0.36778069  0.00656668  1
  O2-  O309  1  0.77365652  0.36439872  0.50867229  1
  O2-  O310  1  0.78359758  0.88536450  0.00852607  1
  O2-  O311  1  0.76902468  0.88789319  0.51330321  1
  O2-  O312  1  0.22541979  0.11651696  0.01962497  1
  O2-  O313  1  0.23252960  0.11349698  0.53267871  1
  O2-  O314  1  0.22383240  0.61251827  0.01966443  1
  O2-  O315  1  0.23754215  0.63491136  0.51835933  1
  O2-  O316  1  0.73420794  0.13272125  -0.01372364  1
  O2-  O317  1  0.73573193  0.12746942  0.48161990  1
  O2-  O318  1  0.72529879  0.61171423  -0.01700661  1
  O2-  O319  1  0.71536545  0.61043684  0.48254561  1
