# generated using pymatgen
data_Sr64Ca21Nb43O192
_symmetry_space_group_name_H-M   'P 1'
_cell_length_a   16.59965316
_cell_length_b   16.59805551
_cell_length_c   16.77355728
_cell_angle_alpha   90.04821534
_cell_angle_beta   89.97168292
_cell_angle_gamma   89.92599371
_symmetry_Int_Tables_number   1
_chemical_formula_structural   Sr64Ca21Nb43O192
_chemical_formula_sum   'Sr64 Ca21 Nb43 O192'
_cell_volume   4621.47739711
_cell_formula_units_Z   1
loop_
 _symmetry_equiv_pos_site_id
 _symmetry_equiv_pos_as_xyz
  1  'x, y, z'
loop_
 _atom_type_symbol
 _atom_type_oxidation_number
  Sr2+  2.0
  Ca2+  2.0
  Nb5+  5.0
  O2-  -2.0
loop_
 _atom_site_type_symbol
 _atom_site_label
 _atom_site_symmetry_multiplicity
 _atom_site_fract_x
 _atom_site_fract_y
 _atom_site_fract_z
 _atom_site_occupancy
  Sr2+  Sr0  1  0.13107580  0.10972931  0.12196359  1
  Sr2+  Sr1  1  0.12713973  0.11720455  0.62666543  1
  Sr2+  Sr2  1  0.12875206  0.63368943  0.11223175  1
  Sr2+  Sr3  1  0.13658912  0.63813113  0.63068059  1
  Sr2+  Sr4  1  0.63144722  0.11985914  0.10686959  1
  Sr2+  Sr5  1  0.63276385  0.11707296  0.63071192  1
  Sr2+  Sr6  1  0.62697465  0.63562187  0.13419244  1
  Sr2+  Sr7  1  0.62938796  0.62822861  0.63068344  1
  Sr2+  Sr8  1  0.37692762  0.35709140  0.12500241  1
  Sr2+  Sr9  1  0.37305517  0.36556840  0.62278850  1
  Sr2+  Sr10  1  0.37699240  0.88096498  0.13151096  1
  Sr2+  Sr11  1  0.37992529  0.87094126  0.62414665  1
  Sr2+  Sr12  1  0.88296783  0.36958289  0.13426014  1
  Sr2+  Sr13  1  0.88130712  0.36809251  0.62763659  1
  Sr2+  Sr14  1  0.87958721  0.87697109  0.11757443  1
  Sr2+  Sr15  1  0.88330340  0.87741622  0.62345021  1
  Sr2+  Sr16  1  0.10770905  0.37406728  0.36968379  1
  Sr2+  Sr17  1  0.11844260  0.38292072  0.87852539  1
  Sr2+  Sr18  1  0.12071423  0.87331190  0.36940180  1
  Sr2+  Sr19  1  0.11476664  0.86609096  0.88332967  1
  Sr2+  Sr20  1  0.64670314  0.37819881  0.37912217  1
  Sr2+  Sr21  1  0.61751265  0.37936356  0.87072796  1
  Sr2+  Sr22  1  0.62456372  0.87601820  0.36849807  1
  Sr2+  Sr23  1  0.62334862  0.87577568  0.89403685  1
  Sr2+  Sr24  1  0.37616726  0.13127231  0.37114738  1
  Sr2+  Sr25  1  0.37482383  0.13409684  0.89050603  1
  Sr2+  Sr26  1  0.37289438  0.62110598  0.37284506  1
  Sr2+  Sr27  1  0.35687183  0.61570910  0.87493181  1
  Sr2+  Sr28  1  0.86625367  0.13251249  0.36991399  1
  Sr2+  Sr29  1  0.86412397  0.13170597  0.87894059  1
  Sr2+  Sr30  1  0.86309387  0.61061327  0.36962062  1
  Sr2+  Sr31  1  0.86305297  0.61671760  0.88252636  1
  Sr2+  Sr32  1  0.12036033  0.12874046  0.37112816  1
  Sr2+  Sr33  1  0.11922865  0.14162383  0.87724603  1
  Sr2+  Sr34  1  0.11732844  0.61068233  0.36977111  1
  Sr2+  Sr35  1  0.11446685  0.61268121  0.87963363  1
  Sr2+  Sr36  1  0.63012139  0.13512914  0.37556268  1
  Sr2+  Sr37  1  0.62333959  0.13333431  0.87815422  1
  Sr2+  Sr38  1  0.61588292  0.62183533  0.37443106  1
  Sr2+  Sr39  1  0.62000630  0.63334788  0.87186641  1
  Sr2+  Sr40  1  0.37768620  0.37417076  0.37314314  1
  Sr2+  Sr41  1  0.37248879  0.37652063  0.90675669  1
  Sr2+  Sr42  1  0.37341751  0.87621181  0.37247192  1
  Sr2+  Sr43  1  0.38056989  0.87191785  0.86994552  1
  Sr2+  Sr44  1  0.87117473  0.37207394  0.37426849  1
  Sr2+  Sr45  1  0.87443194  0.37933570  0.87506829  1
  Sr2+  Sr46  1  0.87521434  0.86450666  0.37305287  1
  Sr2+  Sr47  1  0.86582460  0.86835860  0.88702185  1
  Sr2+  Sr48  1  0.13239896  0.39394038  0.12909435  1
  Sr2+  Sr49  1  0.12433766  0.36770414  0.63059267  1
  Sr2+  Sr50  1  0.13397333  0.87710946  0.12310632  1
  Sr2+  Sr51  1  0.13437564  0.87368611  0.62186236  1
  Sr2+  Sr52  1  0.61553482  0.36921058  0.10452973  1
  Sr2+  Sr53  1  0.63209438  0.38143823  0.62853440  1
  Sr2+  Sr54  1  0.65439812  0.87597615  0.12629669  1
  Sr2+  Sr55  1  0.63166589  0.87204708  0.62532766  1
  Sr2+  Sr56  1  0.37219085  0.12592880  0.12160633  1
  Sr2+  Sr57  1  0.38141068  0.11833777  0.62719457  1
  Sr2+  Sr58  1  0.37489294  0.61884522  0.12057788  1
  Sr2+  Sr59  1  0.37389297  0.62414112  0.62675913  1
  Sr2+  Sr60  1  0.88609514  0.11647869  0.11744954  1
  Sr2+  Sr61  1  0.88585797  0.12038635  0.62783581  1
  Sr2+  Sr62  1  0.88789913  0.63257798  0.12347291  1
  Sr2+  Sr63  1  0.87960433  0.62264358  0.63241854  1
  Ca2+  Ca64  1  0.49831494  -0.00498124  0.00470503  1
  Ca2+  Ca65  1  0.50541026  0.50543958  -0.00077690  1
  Ca2+  Ca66  1  -0.00798411  0.49747578  0.00208493  1
  Ca2+  Ca67  1  -0.00104022  0.50033441  0.50071405  1
  Ca2+  Ca68  1  0.00473921  0.00203164  -0.00457114  1
  Ca2+  Ca69  1  0.25530548  0.75163018  0.00077977  1
  Ca2+  Ca70  1  0.74635404  0.74467066  -0.00111056  1
  Ca2+  Ca71  1  0.24204901  0.24973307  0.00349413  1
  Ca2+  Ca72  1  0.75430361  0.25686867  -0.00095732  1
  Ca2+  Ca73  1  0.75096298  0.74725315  0.49866113  1
  Ca2+  Ca74  1  0.75170620  -0.00137075  0.75001870  1
  Ca2+  Ca75  1  0.00142004  0.24748588  0.24924450  1
  Ca2+  Ca76  1  0.24700536  0.00125051  0.74999255  1
  Ca2+  Ca77  1  0.00044713  0.75123391  0.74989495  1
  Ca2+  Ca78  1  0.25279108  0.50397035  0.25255101  1
  Ca2+  Ca79  1  0.75176039  0.00255543  0.25047106  1
  Ca2+  Ca80  1  0.49811298  0.25088954  0.74889308  1
  Ca2+  Ca81  1  0.24966821  0.49527050  0.74787001  1
  Ca2+  Ca82  1  0.50431459  0.24707714  0.25315255  1
  Ca2+  Ca83  1  0.00582500  0.74836194  0.24861989  1
  Ca2+  Ca84  1  0.74595675  0.49995965  0.24983643  1
  Nb5+  Nb85  1  0.50663454  0.00128452  0.49972519  1
  Nb5+  Nb86  1  0.00537480  -0.00059901  0.49812454  1
  Nb5+  Nb87  1  0.49888205  0.50372898  0.50241861  1
  Nb5+  Nb88  1  0.75590440  0.24789666  0.50426385  1
  Nb5+  Nb89  1  0.24998337  0.74428925  0.49488390  1
  Nb5+  Nb90  1  0.25228950  0.24202407  0.50037631  1
  Nb5+  Nb91  1  -0.00266367  0.24957611  0.75106503  1
  Nb5+  Nb92  1  0.50067671  0.75239831  0.25648974  1
  Nb5+  Nb93  1  0.25187133  0.00138884  0.25585564  1
  Nb5+  Nb94  1  0.50112001  0.74925871  0.75238576  1
  Nb5+  Nb95  1  0.74891664  0.49852704  0.75262946  1
  Nb5+  Nb96  1  -0.00192569  0.00069974  0.25115223  1
  Nb5+  Nb97  1  0.00052657  0.00128539  0.75427575  1
  Nb5+  Nb98  1  -0.00288196  0.50164030  0.24819586  1
  Nb5+  Nb99  1  0.00041896  0.50004412  0.74489710  1
  Nb5+  Nb100  1  0.50033356  -0.00040962  0.25362781  1
  Nb5+  Nb101  1  0.50277154  0.00026040  0.75398560  1
  Nb5+  Nb102  1  0.50039769  0.49626346  0.24719034  1
  Nb5+  Nb103  1  0.49762010  0.49837168  0.74450781  1
  Nb5+  Nb104  1  0.24960054  0.25064491  0.25067948  1
  Nb5+  Nb105  1  0.25179369  0.25070639  0.75112883  1
  Nb5+  Nb106  1  0.25289294  0.75099829  0.25121978  1
  Nb5+  Nb107  1  0.25010732  0.75476191  0.75338242  1
  Nb5+  Nb108  1  0.74556430  0.24994094  0.24116156  1
  Nb5+  Nb109  1  0.74896011  0.25208423  0.75046501  1
  Nb5+  Nb110  1  0.75868129  0.74787764  0.25375807  1
  Nb5+  Nb111  1  0.75409757  0.74926988  0.74710186  1
  Nb5+  Nb112  1  0.00439858  0.24872043  0.49895614  1
  Nb5+  Nb113  1  0.00475947  0.25430129  1.00902313  1
  Nb5+  Nb114  1  0.00272027  0.74267844  0.49763350  1
  Nb5+  Nb115  1  0.00074291  0.74944300  0.99619017  1
  Nb5+  Nb116  1  0.50696257  0.25455523  0.50256450  1
  Nb5+  Nb117  1  0.49998633  0.24811790  0.99934878  1
  Nb5+  Nb118  1  0.49778710  0.75293046  0.50253079  1
  Nb5+  Nb119  1  0.49614394  0.75049891  1.01330465  1
  Nb5+  Nb120  1  0.25091318  -0.00534677  -0.00950881  1
  Nb5+  Nb121  1  0.25743737  -0.00299737  0.49916511  1
  Nb5+  Nb122  1  0.24823152  0.50168925  0.00122444  1
  Nb5+  Nb123  1  0.24768465  0.48968961  0.50001689  1
  Nb5+  Nb124  1  0.75277722  0.00168206  -0.00253006  1
  Nb5+  Nb125  1  0.75944139  -0.00014299  0.49929894  1
  Nb5+  Nb126  1  0.74612244  0.50192905  0.01031208  1
  Nb5+  Nb127  1  0.74990889  0.50403752  0.50413913  1
  O2-  O128  1  -0.01150733  -0.01503733  0.13687831  1
  O2-  O129  1  -0.02488229  -0.00725731  0.61353893  1
  O2-  O130  1  0.00126561  0.46745413  0.13438941  1
  O2-  O131  1  -0.00198577  0.46592932  0.63215630  1
  O2-  O132  1  0.47345886  0.01068124  0.14291427  1
  O2-  O133  1  0.47877614  0.00036817  0.61511713  1
  O2-  O134  1  0.52659051  0.50578408  0.13759918  1
  O2-  O135  1  0.51964285  0.51967016  0.62165901  1
  O2-  O136  1  0.01405522  0.02052064  0.38216944  1
  O2-  O137  1  0.03329561  0.01788785  0.86127252  1
  O2-  O138  1  -0.01233200  0.52937030  0.36800645  1
  O2-  O139  1  -0.01788390  0.51298558  0.86114718  1
  O2-  O140  1  0.50773006  -0.02274636  0.38407230  1
  O2-  O141  1  0.51280765  -0.02301034  0.86464841  1
  O2-  O142  1  0.47805325  0.49500168  0.38744982  1
  O2-  O143  1  0.49940617  0.48911505  0.85975805  1
  O2-  O144  1  0.23124119  0.22500334  0.14032984  1
  O2-  O145  1  0.22192882  0.23607093  0.61353036  1
  O2-  O146  1  0.27514028  0.73313297  0.14005628  1
  O2-  O147  1  0.26787526  0.73367302  0.61307408  1
  O2-  O148  1  0.71571869  0.24717886  0.13165692  1
  O2-  O149  1  0.72890361  0.24372037  0.62140364  1
  O2-  O150  1  0.75676541  0.72684355  0.13546168  1
  O2-  O151  1  0.76083492  0.71783757  0.63217499  1
  O2-  O152  1  0.26886381  0.26605806  0.38490175  1
  O2-  O153  1  0.26889881  0.26782008  0.86224831  1
  O2-  O154  1  0.24655389  0.77961374  0.38139036  1
  O2-  O155  1  0.24822878  0.77849304  0.86441135  1
  O2-  O156  1  0.76897894  0.25918856  0.38748696  1
  O2-  O157  1  0.77433147  0.26475040  0.86188419  1
  O2-  O158  1  0.73683623  0.77828052  0.36706056  1
  O2-  O159  1  0.71937041  0.76129444  0.85855072  1
  O2-  O160  1  0.02611987  0.28076941  0.11717548  1
  O2-  O161  1  0.00841675  0.26580699  0.61962695  1
  O2-  O162  1  -0.02545764  0.76308488  0.11426563  1
  O2-  O163  1  -0.00641642  0.77759050  0.61065881  1
  O2-  O164  1  0.52084944  0.23493779  0.11800241  1
  O2-  O165  1  0.50895596  0.22137118  0.61291732  1
  O2-  O166  1  0.47824011  0.74750352  0.12919560  1
  O2-  O167  1  0.47937831  0.73936565  0.61722045  1
  O2-  O168  1  0.23334729  -0.01664947  0.38349470  1
  O2-  O169  1  0.24394322  -0.03831992  0.88238169  1
  O2-  O170  1  0.28428131  0.49458779  0.38993568  1
  O2-  O171  1  0.25702350  0.47317306  0.88224740  1
  O2-  O172  1  0.72480095  -0.00482773  0.38810781  1
  O2-  O173  1  0.73533057  -0.02385838  0.88115030  1
  O2-  O174  1  0.76367686  0.48364861  0.38923475  1
  O2-  O175  1  0.75908972  0.48146167  0.86574026  1
  O2-  O176  1  -0.01820958  0.22602969  0.38692579  1
  O2-  O177  1  -0.02008797  0.22628223  0.86120613  1
  O2-  O178  1  0.03672080  0.74282837  0.38609120  1
  O2-  O179  1  0.03386831  0.73679358  0.87888728  1
  O2-  O180  1  0.47310103  0.25097927  0.39213904  1
  O2-  O181  1  0.47310895  0.26116567  0.88128344  1
  O2-  O182  1  0.51618519  0.75433272  0.37543610  1
  O2-  O183  1  0.51475978  0.75916019  0.86504394  1
  O2-  O184  1  0.26387092  0.02074650  0.14334965  1
  O2-  O185  1  0.25717975  0.02668477  0.61081585  1
  O2-  O186  1  0.24142056  0.53033893  0.11851145  1
  O2-  O187  1  0.23814955  0.52743267  0.60967587  1
  O2-  O188  1  0.76773152  0.02175933  0.11651199  1
  O2-  O189  1  0.75965600  0.02638314  0.61282899  1
  O2-  O190  1  0.72174404  0.51836654  0.11943545  1
  O2-  O191  1  0.73252364  0.50649178  0.62353746  1
  O2-  O192  1  0.13689761  0.25762949  0.28293607  1
  O2-  O193  1  0.11434954  0.27220898  0.75928588  1
  O2-  O194  1  0.14104776  0.77618546  0.23653151  1
  O2-  O195  1  0.13707553  0.76532899  0.72725053  1
  O2-  O196  1  0.63431710  0.26804647  0.28311831  1
  O2-  O197  1  0.63465607  0.27597216  0.75979130  1
  O2-  O198  1  0.61661573  0.77320556  0.23691475  1
  O2-  O199  1  0.61727353  0.75641233  0.72141814  1
  O2-  O200  1  0.36638182  0.22430199  0.24475944  1
  O2-  O201  1  0.36151805  0.23168016  0.72257529  1
  O2-  O202  1  0.37958128  0.74059349  0.27487994  1
  O2-  O203  1  0.37972934  0.73195318  0.75679694  1
  O2-  O204  1  0.86547317  0.22794315  0.22584471  1
  O2-  O205  1  0.87267644  0.24005065  0.72299365  1
  O2-  O206  1  0.87063135  0.72757393  0.27327461  1
  O2-  O207  1  0.86465385  0.72748580  0.76893364  1
  O2-  O208  1  0.26921649  0.36445125  0.23805702  1
  O2-  O209  1  0.25087177  0.36313857  0.71318886  1
  O2-  O210  1  0.27548323  0.87805647  0.24670749  1
  O2-  O211  1  0.27055664  0.86676003  0.71989843  1
  O2-  O212  1  0.77309083  0.36574557  0.25093357  1
  O2-  O213  1  0.76584894  0.37772634  0.72936560  1
  O2-  O214  1  0.77383324  0.86653143  0.22973560  1
  O2-  O215  1  0.76455393  0.86159636  0.72062210  1
  O2-  O216  1  0.24076122  0.11803963  0.28069268  1
  O2-  O217  1  0.21803002  0.13802217  0.75848015  1
  O2-  O218  1  0.23793695  0.64093970  0.28266331  1
  O2-  O219  1  0.23783472  0.63568888  0.76242988  1
  O2-  O220  1  0.73310171  0.13530005  0.26977997  1
  O2-  O221  1  0.73050881  0.13746155  0.75921474  1
  O2-  O222  1  0.72332620  0.63623010  0.27394657  1
  O2-  O223  1  0.73031769  0.61746239  0.76111523  1
  O2-  O224  1  0.11931179  0.47898418  0.26502764  1
  O2-  O225  1  0.11317610  0.48074407  0.75883637  1
  O2-  O226  1  0.13431551  0.97785422  0.24810612  1
  O2-  O227  1  0.11098882  0.98954283  0.71318552  1
  O2-  O228  1  0.60990304  0.49398512  0.28869232  1
  O2-  O229  1  0.62822645  0.48298812  0.75085158  1
  O2-  O230  1  0.61238164  0.97505956  0.23995884  1
  O2-  O231  1  0.61481270  0.98107298  0.71968826  1
  O2-  O232  1  0.37239797  0.00705175  0.28143466  1
  O2-  O233  1  0.38506267  0.01865699  0.75641510  1
  O2-  O234  1  0.38878129  0.53406562  0.24525275  1
  O2-  O235  1  0.38492956  0.51961337  0.73587184  1
  O2-  O236  1  0.88718056  0.02534406  0.26721156  1
  O2-  O237  1  0.88664369  0.03485588  0.75804533  1
  O2-  O238  1  0.88024362  0.52831140  0.23745433  1
  O2-  O239  1  0.86721989  0.51511911  0.73631899  1
  O2-  O240  1  0.47313384  0.38400706  0.24709490  1
  O2-  O241  1  0.49260923  0.38582181  0.71696216  1
  O2-  O242  1  0.47664339  0.87335258  0.25438288  1
  O2-  O243  1  0.48189436  0.86740282  0.73623242  1
  O2-  O244  1  0.97987319  0.38254547  0.27755310  1
  O2-  O245  1  0.97515174  0.36941607  0.76079630  1
  O2-  O246  1  0.99090929  0.88538193  0.27881335  1
  O2-  O247  1  0.97421777  0.88866883  0.76383930  1
  O2-  O248  1  0.03514700  0.11301224  0.23926978  1
  O2-  O249  1  0.01418923  0.13311129  0.72523360  1
  O2-  O250  1  0.02927553  0.61556383  0.22262651  1
  O2-  O251  1  0.01079827  0.61359394  0.71954965  1
  O2-  O252  1  0.51118751  0.11065213  0.28089047  1
  O2-  O253  1  0.52508196  0.11414076  0.75759517  1
  O2-  O254  1  0.51841386  0.63476795  0.25359044  1
  O2-  O255  1  0.51794639  0.62718396  0.74931761  1
  O2-  O256  1  0.12953557  0.48200420  -0.00391837  1
  O2-  O257  1  0.13557187  0.48375550  0.47603940  1
  O2-  O258  1  0.13771166  0.98799315  0.02674748  1
  O2-  O259  1  0.12139403  0.98889978  0.51321785  1
  O2-  O260  1  0.63579304  0.46243336  -0.01289811  1
  O2-  O261  1  0.61681501  0.47803867  0.49339120  1
  O2-  O262  1  0.63293970  0.98475402  0.02183782  1
  O2-  O263  1  0.61944778  0.98447365  0.51855778  1
  O2-  O264  1  0.36549997  0.02362058  -0.00356797  1
  O2-  O265  1  0.37166400  0.01375226  0.48391180  1
  O2-  O266  1  0.36943188  0.52075224  -0.00008171  1
  O2-  O267  1  0.38175818  0.49996647  0.52844703  1
  O2-  O268  1  0.87014056  0.02025245  -0.02021385  1
  O2-  O269  1  0.87215426  0.02134335  0.47937890  1
  O2-  O270  1  0.86149297  0.53620414  0.00956830  1
  O2-  O271  1  0.86256989  0.52544161  0.51673814  1
  O2-  O272  1  0.48158388  0.36818623  0.01823430  1
  O2-  O273  1  0.48834819  0.36937231  0.51794292  1
  O2-  O274  1  0.46161752  0.86318536  -0.00302375  1
  O2-  O275  1  0.47995552  0.87022856  0.50445923  1
  O2-  O276  1  0.98205350  0.36401704  -0.02878273  1
  O2-  O277  1  0.98121362  0.36256047  0.48263663  1
  O2-  O278  1  0.98765375  0.86922788  -0.02608968  1
  O2-  O279  1  0.98429941  0.88388115  0.48045597  1
  O2-  O280  1  0.02519765  0.13534294  0.01741966  1
  O2-  O281  1  0.01083314  0.12485166  0.51869717  1
  O2-  O282  1  0.01755099  0.63186336  0.01169054  1
  O2-  O283  1  0.02745363  0.63440643  0.52364794  1
  O2-  O284  1  0.51456548  0.12967402  -0.01739539  1
  O2-  O285  1  0.51196497  0.11685724  0.48637908  1
  O2-  O286  1  0.53640377  0.63877101  0.00237804  1
  O2-  O287  1  0.50523878  0.62327138  0.49001851  1
  O2-  O288  1  0.11477392  0.26397549  -0.03674429  1
  O2-  O289  1  0.12101376  0.25985335  0.48307273  1
  O2-  O290  1  0.11995817  0.76899537  0.02137823  1
  O2-  O291  1  0.13590917  0.76923637  0.51381942  1
  O2-  O292  1  0.61655387  0.26883176  -0.02331642  1
  O2-  O293  1  0.62148992  0.26230533  0.48458733  1
  O2-  O294  1  0.61131990  0.78564714  0.01433789  1
  O2-  O295  1  0.61245158  0.76388522  0.51384607  1
  O2-  O296  1  0.37881068  0.23403634  0.01858527  1
  O2-  O297  1  0.36713188  0.23739240  0.52278195  1
  O2-  O298  1  0.38817058  0.71483509  -0.01864160  1
  O2-  O299  1  0.37565532  0.73849640  0.48054975  1
  O2-  O300  1  0.88798545  0.22729970  0.01540206  1
  O2-  O301  1  0.87025134  0.23401050  0.52063019  1
  O2-  O302  1  0.88207499  0.73674610  -0.03019595  1
  O2-  O303  1  0.88963420  0.73053873  0.47472479  1
  O2-  O304  1  0.26651534  0.38339426  0.02984309  1
  O2-  O305  1  0.25927382  0.37419008  0.51735187  1
  O2-  O306  1  0.26739959  0.88519531  0.03467388  1
  O2-  O307  1  0.26532045  0.88180527  0.51800322  1
  O2-  O308  1  0.78633369  0.38851971  0.01666341  1
  O2-  O309  1  0.75613461  0.37214386  0.51399773  1
  O2-  O310  1  0.77188402  0.88134577  0.01534652  1
  O2-  O311  1  0.77099098  0.88572351  0.51724419  1
  O2-  O312  1  0.23341491  0.11463189  -0.02296999  1
  O2-  O313  1  0.23719170  0.12741793  0.47896191  1
  O2-  O314  1  0.23019610  0.61825948  -0.02855840  1
  O2-  O315  1  0.23785191  0.63102813  0.47691211  1
  O2-  O316  1  0.73007730  0.12011332  -0.01996068  1
  O2-  O317  1  0.73036949  0.13151981  0.49040984  1
  O2-  O318  1  0.72315855  0.61317688  -0.02814506  1
  O2-  O319  1  0.71759384  0.61366789  0.48742486  1
