# generated using pymatgen
data_Sr64Ca21Nb43O192
_symmetry_space_group_name_H-M   'P 1'
_cell_length_a   16.55858055
_cell_length_b   16.55303802
_cell_length_c   16.71925756
_cell_angle_alpha   90.00622754
_cell_angle_beta   89.98831671
_cell_angle_gamma   89.99155335
_symmetry_Int_Tables_number   1
_chemical_formula_structural   Sr64Ca21Nb43O192
_chemical_formula_sum   'Sr64 Ca21 Nb43 O192'
_cell_volume   4582.66161094
_cell_formula_units_Z   1
loop_
 _symmetry_equiv_pos_site_id
 _symmetry_equiv_pos_as_xyz
  1  'x, y, z'
loop_
 _atom_type_symbol
 _atom_type_oxidation_number
  Sr2+  2.0
  Ca2+  2.0
  Nb5+  5.0
  O2-  -2.0
loop_
 _atom_site_type_symbol
 _atom_site_label
 _atom_site_symmetry_multiplicity
 _atom_site_fract_x
 _atom_site_fract_y
 _atom_site_fract_z
 _atom_site_occupancy
  Sr2+  Sr0  1  0.11651006  0.13708237  0.12760664  1
  Sr2+  Sr1  1  0.12088678  0.13260230  0.62625647  1
  Sr2+  Sr2  1  0.12393926  0.63659930  0.12502783  1
  Sr2+  Sr3  1  0.12577360  0.62913352  0.62354140  1
  Sr2+  Sr4  1  0.63196529  0.13956454  0.12804337  1
  Sr2+  Sr5  1  0.63009942  0.13732928  0.61862247  1
  Sr2+  Sr6  1  0.61982408  0.62657181  0.12226433  1
  Sr2+  Sr7  1  0.62540283  0.62251516  0.63230677  1
  Sr2+  Sr8  1  0.37593969  0.38227205  0.12901696  1
  Sr2+  Sr9  1  0.37458498  0.37732631  0.62929632  1
  Sr2+  Sr10  1  0.37519405  0.88050623  0.13045871  1
  Sr2+  Sr11  1  0.38862107  0.87392982  0.63206809  1
  Sr2+  Sr12  1  0.88418108  0.37718740  0.12179359  1
  Sr2+  Sr13  1  0.88507695  0.38846206  0.62676178  1
  Sr2+  Sr14  1  0.87845257  0.87364533  0.12514637  1
  Sr2+  Sr15  1  0.87978097  0.88192752  0.62631093  1
  Sr2+  Sr16  1  0.12809528  0.37949637  0.37338051  1
  Sr2+  Sr17  1  0.12172259  0.37326760  0.86786147  1
  Sr2+  Sr18  1  0.13650511  0.87892082  0.37471614  1
  Sr2+  Sr19  1  0.10182657  0.87484359  0.87721509  1
  Sr2+  Sr20  1  0.61206920  0.36326959  0.37864901  1
  Sr2+  Sr21  1  0.62340450  0.37123199  0.88244652  1
  Sr2+  Sr22  1  0.63293614  0.87443485  0.37189551  1
  Sr2+  Sr23  1  0.60501346  0.88048170  0.87366417  1
  Sr2+  Sr24  1  0.38131521  0.11997298  0.37613620  1
  Sr2+  Sr25  1  0.37747847  0.11407128  0.87245813  1
  Sr2+  Sr26  1  0.37748485  0.62743539  0.38173541  1
  Sr2+  Sr27  1  0.37297692  0.62099248  0.86789272  1
  Sr2+  Sr28  1  0.86949823  0.11665289  0.37309128  1
  Sr2+  Sr29  1  0.87202315  0.12325220  0.87397023  1
  Sr2+  Sr30  1  0.87069759  0.61793972  0.38978064  1
  Sr2+  Sr31  1  0.86416542  0.63308976  0.86973763  1
  Sr2+  Sr32  1  0.12950412  0.12721509  0.37519531  1
  Sr2+  Sr33  1  0.11872426  0.13461510  0.87073987  1
  Sr2+  Sr34  1  0.12514966  0.63802560  0.37467454  1
  Sr2+  Sr35  1  0.12652364  0.64021449  0.87582326  1
  Sr2+  Sr36  1  0.62007674  0.11750891  0.37373023  1
  Sr2+  Sr37  1  0.62181070  0.12421947  0.87428388  1
  Sr2+  Sr38  1  0.61849832  0.63664228  0.39199643  1
  Sr2+  Sr39  1  0.61364971  0.63039958  0.87440421  1
  Sr2+  Sr40  1  0.36677989  0.35274816  0.37845258  1
  Sr2+  Sr41  1  0.36798134  0.36735189  0.87677939  1
  Sr2+  Sr42  1  0.37408343  0.88322585  0.37264704  1
  Sr2+  Sr43  1  0.36567881  0.87757793  0.87707353  1
  Sr2+  Sr44  1  0.87619940  0.37344102  0.38121589  1
  Sr2+  Sr45  1  0.87552045  0.36544871  0.86961616  1
  Sr2+  Sr46  1  0.87930691  0.87958249  0.37849431  1
  Sr2+  Sr47  1  0.87534811  0.87175273  0.86993575  1
  Sr2+  Sr48  1  0.12983152  0.38739248  0.12795407  1
  Sr2+  Sr49  1  0.13085459  0.37973603  0.62631661  1
  Sr2+  Sr50  1  0.12597024  0.87369624  0.12288272  1
  Sr2+  Sr51  1  0.11962113  0.88166050  0.62500614  1
  Sr2+  Sr52  1  0.62791900  0.38061430  0.12233646  1
  Sr2+  Sr53  1  0.62436126  0.37898057  0.62089572  1
  Sr2+  Sr54  1  0.63249176  0.87817988  0.12665780  1
  Sr2+  Sr55  1  0.62352790  0.87346856  0.62815642  1
  Sr2+  Sr56  1  0.38569887  0.13198924  0.13008418  1
  Sr2+  Sr57  1  0.39575880  0.13176168  0.62306897  1
  Sr2+  Sr58  1  0.37549269  0.61920353  0.12452518  1
  Sr2+  Sr59  1  0.39881244  0.62053051  0.62697161  1
  Sr2+  Sr60  1  0.87560538  0.12934548  0.12677625  1
  Sr2+  Sr61  1  0.88315393  0.12517098  0.61774821  1
  Sr2+  Sr62  1  0.84942361  0.62499059  0.12717798  1
  Sr2+  Sr63  1  0.85585315  0.62201895  0.62664844  1
  Ca2+  Ca64  1  -0.00109498  0.00085508  0.00231347  1
  Ca2+  Ca65  1  0.50074494  -0.00377426  0.49969190  1
  Ca2+  Ca66  1  -0.00106367  0.50219932  -0.00117793  1
  Ca2+  Ca67  1  0.49915760  0.49913006  0.49803593  1
  Ca2+  Ca68  1  0.49884042  0.00061170  0.00261032  1
  Ca2+  Ca69  1  0.24743715  0.24614866  0.50270766  1
  Ca2+  Ca70  1  0.75255981  0.75277030  0.50218715  1
  Ca2+  Ca71  1  0.24954710  0.25100175  0.00130810  1
  Ca2+  Ca72  1  0.75425736  0.24933018  0.49886759  1
  Ca2+  Ca73  1  0.25087471  0.75048603  0.49985615  1
  Ca2+  Ca74  1  0.49756636  0.75013637  0.75472471  1
  Ca2+  Ca75  1  0.00004707  0.74686894  0.74611831  1
  Ca2+  Ca76  1  -0.00459440  0.74892808  0.25110049  1
  Ca2+  Ca77  1  -0.00034277  0.25233769  0.25326138  1
  Ca2+  Ca78  1  0.74698892  0.49886134  0.25486436  1
  Ca2+  Ca79  1  0.75077574  0.49490902  0.75450929  1
  Ca2+  Ca80  1  0.75076297  0.00154357  0.75099527  1
  Ca2+  Ca81  1  0.49876332  0.25225331  0.24758801  1
  Ca2+  Ca82  1  0.50223293  0.25120782  0.75113410  1
  Ca2+  Ca83  1  0.25106765  0.00018477  0.74873946  1
  Ca2+  Ca84  1  0.49917379  0.74908936  0.24636605  1
  Nb5+  Nb85  1  0.00451540  0.50666756  0.50158161  1
  Nb5+  Nb86  1  0.00315770  0.00514500  0.49797608  1
  Nb5+  Nb87  1  0.49862055  0.49846859  -0.00052855  1
  Nb5+  Nb88  1  0.74235105  0.75536011  -0.00308881  1
  Nb5+  Nb89  1  0.75171394  0.25669672  0.00211265  1
  Nb5+  Nb90  1  0.24847802  0.75506938  0.00045397  1
  Nb5+  Nb91  1  0.25153603  0.00824279  0.24638520  1
  Nb5+  Nb92  1  0.75470939  0.00302508  0.24663082  1
  Nb5+  Nb93  1  -0.00075744  0.25223649  0.74692073  1
  Nb5+  Nb94  1  0.24891896  0.50173930  0.74616379  1
  Nb5+  Nb95  1  0.24761085  0.50805577  0.24949534  1
  Nb5+  Nb96  1  0.00806812  0.00047656  0.24959186  1
  Nb5+  Nb97  1  -0.00228295  0.00074903  0.75137169  1
  Nb5+  Nb98  1  -0.00430059  0.50462409  0.24952770  1
  Nb5+  Nb99  1  0.00368090  0.50398360  0.75103275  1
  Nb5+  Nb100  1  0.50727682  -0.00349753  0.24693120  1
  Nb5+  Nb101  1  0.50185333  0.00200609  0.74755058  1
  Nb5+  Nb102  1  0.50097898  0.49961439  0.25572655  1
  Nb5+  Nb103  1  0.50370317  0.49209516  0.75240386  1
  Nb5+  Nb104  1  0.25000640  0.25669204  0.24583741  1
  Nb5+  Nb105  1  0.25158562  0.24623698  0.75212688  1
  Nb5+  Nb106  1  0.25235090  0.75634961  0.25022923  1
  Nb5+  Nb107  1  0.25029070  0.75333826  0.74600342  1
  Nb5+  Nb108  1  0.75267496  0.25683087  0.25092608  1
  Nb5+  Nb109  1  0.75228859  0.24849313  0.74579124  1
  Nb5+  Nb110  1  0.74928189  0.75118307  0.25276714  1
  Nb5+  Nb111  1  0.74786608  0.74885864  0.74976965  1
  Nb5+  Nb112  1  0.00333493  0.25671516  0.49750368  1
  Nb5+  Nb113  1  0.00140318  0.25380981  1.00155867  1
  Nb5+  Nb114  1  -0.00122779  0.75679427  0.49955991  1
  Nb5+  Nb115  1  -0.01074669  0.74518426  1.00187987  1
  Nb5+  Nb116  1  0.50037968  0.24986148  0.49919471  1
  Nb5+  Nb117  1  0.49774544  0.24785794  0.99768067  1
  Nb5+  Nb118  1  0.49798140  0.75161597  0.50080194  1
  Nb5+  Nb119  1  0.49057293  0.75027200  1.00041515  1
  Nb5+  Nb120  1  0.24433494  0.00597304  0.00180264  1
  Nb5+  Nb121  1  0.25197996  -0.00021717  0.50412196  1
  Nb5+  Nb122  1  0.24887734  0.50110855  -0.00416724  1
  Nb5+  Nb123  1  0.25048466  0.50292951  0.49601804  1
  Nb5+  Nb124  1  0.74982353  0.00650650  -0.00051313  1
  Nb5+  Nb125  1  0.74825691  0.00004221  0.50154040  1
  Nb5+  Nb126  1  0.74988699  0.50610804  -0.00149728  1
  Nb5+  Nb127  1  0.74690663  0.49362028  0.49935375  1
  O2-  O128  1  0.01665356  0.01178698  0.13606177  1
  O2-  O129  1  0.00945328  -0.00046907  0.61825103  1
  O2-  O130  1  0.00804915  0.48632669  0.13613333  1
  O2-  O131  1  0.01797664  0.49168867  0.62305011  1
  O2-  O132  1  0.50445318  -0.03145613  0.13243270  1
  O2-  O133  1  0.50409934  -0.03009262  0.63218620  1
  O2-  O134  1  0.49974889  0.47672906  0.11676799  1
  O2-  O135  1  0.49902260  0.47955536  0.63466020  1
  O2-  O136  1  -0.00804938  -0.00372395  0.37864634  1
  O2-  O137  1  -0.01460912  0.00520306  0.86592168  1
  O2-  O138  1  -0.00675668  0.50333728  0.38241116  1
  O2-  O139  1  -0.00440579  0.49075522  0.86400867  1
  O2-  O140  1  0.49138287  0.01841627  0.36390225  1
  O2-  O141  1  0.50003945  0.02765620  0.86813328  1
  O2-  O142  1  0.50122791  0.53256087  0.36449665  1
  O2-  O143  1  0.49505266  0.51634594  0.87587530  1
  O2-  O144  1  0.28446280  0.25055768  0.13215933  1
  O2-  O145  1  0.26887268  0.26359581  0.63772999  1
  O2-  O146  1  0.22717111  0.75358608  0.12159793  1
  O2-  O147  1  0.22308222  0.75676257  0.63509221  1
  O2-  O148  1  0.76367582  0.22816671  0.12051226  1
  O2-  O149  1  0.76713569  0.21864327  0.63579960  1
  O2-  O150  1  0.73130071  0.72948773  0.11249671  1
  O2-  O151  1  0.72648780  0.73446240  0.63680742  1
  O2-  O152  1  0.22155451  0.25248773  0.36312172  1
  O2-  O153  1  0.21992870  0.25731896  0.86735682  1
  O2-  O154  1  0.27462889  0.73945561  0.36141949  1
  O2-  O155  1  0.27595191  0.74290784  0.88582577  1
  O2-  O156  1  0.73823975  0.27569757  0.36365363  1
  O2-  O157  1  0.74087899  0.27122757  0.88460675  1
  O2-  O158  1  0.76813864  0.77239058  0.36317179  1
  O2-  O159  1  0.77709606  0.75849218  0.88384077  1
  O2-  O160  1  -0.02129476  0.24429988  0.11562986  1
  O2-  O161  1  -0.02433601  0.24719620  0.62928394  1
  O2-  O162  1  0.02263887  0.75794141  0.11453084  1
  O2-  O163  1  0.03458082  0.75427489  0.61387397  1
  O2-  O164  1  0.48380597  0.27686075  0.11111435  1
  O2-  O165  1  0.47722422  0.26827143  0.61667171  1
  O2-  O166  1  0.52932491  0.76180783  0.10891775  1
  O2-  O167  1  0.50939384  0.77135819  0.62064756  1
  O2-  O168  1  0.25368499  0.01381125  0.36536945  1
  O2-  O169  1  0.26540301  0.00304424  0.88759385  1
  O2-  O170  1  0.24960057  0.50685902  0.37433355  1
  O2-  O171  1  0.25334618  0.50764040  0.87763341  1
  O2-  O172  1  0.76140524  -0.01912689  0.36486142  1
  O2-  O173  1  0.77612550  -0.01143575  0.88896039  1
  O2-  O174  1  0.77774469  0.48256307  0.38520928  1
  O2-  O175  1  0.75746691  0.46820714  0.88896862  1
  O2-  O176  1  0.03418271  0.25643350  0.38762918  1
  O2-  O177  1  0.01627581  0.25636820  0.87000277  1
  O2-  O178  1  -0.03453258  0.74055884  0.38525405  1
  O2-  O179  1  -0.01280070  0.74419891  0.88294316  1
  O2-  O180  1  0.52571488  0.23389813  0.38027988  1
  O2-  O181  1  0.53415132  0.24440007  0.88446769  1
  O2-  O182  1  0.49128625  0.72509021  0.38147731  1
  O2-  O183  1  0.48856860  0.71760555  0.88745608  1
  O2-  O184  1  0.23487385  -0.01337204  0.13010776  1
  O2-  O185  1  0.24239832  -0.02448342  0.61437859  1
  O2-  O186  1  0.24648895  0.50111236  0.12825909  1
  O2-  O187  1  0.24250341  0.49630885  0.62704524  1
  O2-  O188  1  0.72933625  0.01746731  0.12985528  1
  O2-  O189  1  0.73994296  0.02354815  0.61301581  1
  O2-  O190  1  0.73078065  0.51427131  0.11653027  1
  O2-  O191  1  0.73804858  0.51619165  0.61818378  1
  O2-  O192  1  0.13419232  0.26299688  0.21468261  1
  O2-  O193  1  0.11919913  0.26806172  0.73204364  1
  O2-  O194  1  0.13454800  0.76887633  0.26329613  1
  O2-  O195  1  0.13887607  0.76278445  0.78510943  1
  O2-  O196  1  0.63564775  0.26388030  0.22535867  1
  O2-  O197  1  0.63958150  0.27278095  0.73262732  1
  O2-  O198  1  0.63474721  0.78031445  0.25163327  1
  O2-  O199  1  0.63407803  0.76808395  0.77893452  1
  O2-  O200  1  0.36283802  0.22768351  0.27497287  1
  O2-  O201  1  0.36389913  0.22991226  0.77649722  1
  O2-  O202  1  0.36375185  0.74010360  0.21428122  1
  O2-  O203  1  0.36200639  0.71498322  0.73956035  1
  O2-  O204  1  0.86486205  0.21950308  0.26084783  1
  O2-  O205  1  0.88305574  0.23144343  0.77187668  1
  O2-  O206  1  0.86073864  0.74551510  0.21428356  1
  O2-  O207  1  0.86637666  0.71835699  0.74317039  1
  O2-  O208  1  0.26508872  0.37597341  0.25006830  1
  O2-  O209  1  0.26441036  0.38088043  0.75880983  1
  O2-  O210  1  0.26545340  0.87658662  0.25472521  1
  O2-  O211  1  0.28031918  0.86392101  0.75399356  1
  O2-  O212  1  0.77843922  0.36644438  0.22620902  1
  O2-  O213  1  0.78734570  0.36112299  0.74060810  1
  O2-  O214  1  0.76156287  0.88350339  0.22419062  1
  O2-  O215  1  0.77810235  0.86403092  0.74092059  1
  O2-  O216  1  0.22611939  0.12242626  0.23709099  1
  O2-  O217  1  0.22091599  0.13490020  0.74544326  1
  O2-  O218  1  0.22950645  0.62457916  0.24511566  1
  O2-  O219  1  0.22399734  0.61831894  0.75256396  1
  O2-  O220  1  0.72796228  0.12042748  0.26389106  1
  O2-  O221  1  0.74203833  0.13684050  0.78573118  1
  O2-  O222  1  0.72801965  0.63734961  0.26384635  1
  O2-  O223  1  0.73096502  0.62923763  0.77665483  1
  O2-  O224  1  0.13127017  0.47541452  0.25694550  1
  O2-  O225  1  0.12818226  0.47358586  0.75363897  1
  O2-  O226  1  0.12431499  0.97975558  0.26052852  1
  O2-  O227  1  0.11506967  0.97879898  0.75134041  1
  O2-  O228  1  0.61224526  0.46700729  0.25407268  1
  O2-  O229  1  0.61552925  0.46502359  0.75890965  1
  O2-  O230  1  0.62369143  0.98368269  0.26055790  1
  O2-  O231  1  0.61939117  0.97292588  0.75658532  1
  O2-  O232  1  0.36749255  0.01773676  0.23690378  1
  O2-  O233  1  0.38382440  0.03211951  0.73913758  1
  O2-  O234  1  0.36591738  0.52030606  0.24787319  1
  O2-  O235  1  0.36665926  0.51923838  0.74599428  1
  O2-  O236  1  0.87120232  0.02163945  0.23977355  1
  O2-  O237  1  0.88448094  0.02365297  0.72625937  1
  O2-  O238  1  0.88482859  0.53740803  0.24718540  1
  O2-  O239  1  0.88895103  0.51712976  0.73400239  1
  O2-  O240  1  0.46304280  0.38772123  0.26478354  1
  O2-  O241  1  0.46323039  0.38270422  0.76700765  1
  O2-  O242  1  0.47348180  0.88337983  0.26525561  1
  O2-  O243  1  0.47272658  0.88432518  0.77504199  1
  O2-  O244  1  0.97722569  0.38653278  0.26606362  1
  O2-  O245  1  0.98681938  0.37177505  0.74557212  1
  O2-  O246  1  0.97399141  0.88757353  0.25204241  1
  O2-  O247  1  0.97804307  0.88338625  0.74832851  1
  O2-  O248  1  0.01722191  0.11683474  0.26778504  1
  O2-  O249  1  0.02139977  0.12830754  0.74744342  1
  O2-  O250  1  0.03732534  0.61490778  0.25302909  1
  O2-  O251  1  0.03429034  0.61426895  0.74951618  1
  O2-  O252  1  0.50893527  0.11435094  0.22186917  1
  O2-  O253  1  0.52801018  0.11846338  0.72311654  1
  O2-  O254  1  0.50484817  0.61093048  0.21483423  1
  O2-  O255  1  0.51628344  0.61124402  0.73730483  1
  O2-  O256  1  0.13635819  0.47829682  -0.00235834  1
  O2-  O257  1  0.12120945  0.47249617  0.49430248  1
  O2-  O258  1  0.13476342  0.96070835  -0.00396393  1
  O2-  O259  1  0.11798282  0.97424360  0.49140380  1
  O2-  O260  1  0.62117729  0.48550729  -0.00803189  1
  O2-  O261  1  0.63481924  0.46973974  0.48726415  1
  O2-  O262  1  0.63672711  0.97322313  -0.00551222  1
  O2-  O263  1  0.63630994  0.97442466  0.48641109  1
  O2-  O264  1  0.36138273  0.02353614  0.02297149  1
  O2-  O265  1  0.36364593  0.02777778  0.50506999  1
  O2-  O266  1  0.37825035  0.51947584  0.00213375  1
  O2-  O267  1  0.36305094  0.52626093  0.50534086  1
  O2-  O268  1  0.86297618  0.00896413  0.03370296  1
  O2-  O269  1  0.88124466  0.01882454  0.50303151  1
  O2-  O270  1  0.86379053  0.52215505  0.01294119  1
  O2-  O271  1  0.88645703  0.51610897  0.51707966  1
  O2-  O272  1  0.48845459  0.37992194  -0.02328068  1
  O2-  O273  1  0.48233184  0.36706479  0.47290417  1
  O2-  O274  1  0.48258018  0.86298362  -0.02552416  1
  O2-  O275  1  0.46335293  0.86465952  0.48708360  1
  O2-  O276  1  0.96473966  0.36606723  -0.00718700  1
  O2-  O277  1  0.98167146  0.37226302  0.50071281  1
  O2-  O278  1  0.97853288  0.86495239  -0.00688047  1
  O2-  O279  1  0.98018787  0.87426092  0.50179594  1
  O2-  O280  1  0.01637220  0.13647291  -0.01261803  1
  O2-  O281  1  0.02169106  0.12107348  0.49950418  1
  O2-  O282  1  0.03252821  0.63429125  0.00068620  1
  O2-  O283  1  0.02311413  0.62078012  0.50177410  1
  O2-  O284  1  0.51760951  0.13628655  0.02222226  1
  O2-  O285  1  0.51924556  0.13108450  0.51922212  1
  O2-  O286  1  0.51470758  0.61872158  0.01598113  1
  O2-  O287  1  0.53025630  0.63134554  0.52193000  1
  O2-  O288  1  0.11314131  0.28002825  0.01740244  1
  O2-  O289  1  0.11333368  0.25849522  0.53863401  1
  O2-  O290  1  0.13520457  0.76806541  -0.01894458  1
  O2-  O291  1  0.11358664  0.76196379  0.46416212  1
  O2-  O292  1  0.63166443  0.26552135  0.01807269  1
  O2-  O293  1  0.61990484  0.26955399  0.52084285  1
  O2-  O294  1  0.62918614  0.76002638  -0.02524531  1
  O2-  O295  1  0.61742456  0.77455789  0.48277579  1
  O2-  O296  1  0.38565165  0.23466567  -0.03018109  1
  O2-  O297  1  0.38159196  0.22758124  0.47946094  1
  O2-  O298  1  0.37780956  0.73439592  0.02483209  1
  O2-  O299  1  0.38222488  0.71601594  0.51394949  1
  O2-  O300  1  0.86805490  0.22801165  -0.01479109  1
  O2-  O301  1  0.89075912  0.22434552  0.48141822  1
  O2-  O302  1  0.87447955  0.72425359  0.01552877  1
  O2-  O303  1  0.88711185  0.72899912  0.53063862  1
  O2-  O304  1  0.27853325  0.38838400  0.00335467  1
  O2-  O305  1  0.26254993  0.38460674  0.49500507  1
  O2-  O306  1  0.27836722  0.86897281  0.00616004  1
  O2-  O307  1  0.25860030  0.88583008  0.47038769  1
  O2-  O308  1  0.76438222  0.37139277  0.02533642  1
  O2-  O309  1  0.78103323  0.38180754  0.52156226  1
  O2-  O310  1  0.76436594  0.86757711  0.01840461  1
  O2-  O311  1  0.78205316  0.88660179  0.51043834  1
  O2-  O312  1  0.21005195  0.11605399  0.00785081  1
  O2-  O313  1  0.21280174  0.11133649  0.50269536  1
  O2-  O314  1  0.24128436  0.62559489  0.00801435  1
  O2-  O315  1  0.21335195  0.61466599  0.50126349  1
  O2-  O316  1  0.73034910  0.12235174  -0.01185505  1
  O2-  O317  1  0.74052902  0.11388559  0.46666777  1
  O2-  O318  1  0.73332875  0.62194346  -0.02137084  1
  O2-  O319  1  0.74338578  0.61483764  0.48089129  1
