# generated using pymatgen
data_Sr64Ca21Nb43O192
_symmetry_space_group_name_H-M   'P 1'
_cell_length_a   16.53186129
_cell_length_b   16.54238376
_cell_length_c   16.67147907
_cell_angle_alpha   90.01994756
_cell_angle_beta   90.01214435
_cell_angle_gamma   90.02346330
_symmetry_Int_Tables_number   1
_chemical_formula_structural   Sr64Ca21Nb43O192
_chemical_formula_sum   'Sr64 Ca21 Nb43 O192'
_cell_volume   4559.25521555
_cell_formula_units_Z   1
loop_
 _symmetry_equiv_pos_site_id
 _symmetry_equiv_pos_as_xyz
  1  'x, y, z'
loop_
 _atom_type_symbol
 _atom_type_oxidation_number
  Sr2+  2.0
  Ca2+  2.0
  Nb5+  5.0
  O2-  -2.0
loop_
 _atom_site_type_symbol
 _atom_site_label
 _atom_site_symmetry_multiplicity
 _atom_site_fract_x
 _atom_site_fract_y
 _atom_site_fract_z
 _atom_site_occupancy
  Sr2+  Sr0  1  0.12238582  0.12144826  0.12885422  1
  Sr2+  Sr1  1  0.12703814  0.12849760  0.62102148  1
  Sr2+  Sr2  1  0.13015996  0.61455183  0.12645784  1
  Sr2+  Sr3  1  0.12555787  0.61801976  0.62269949  1
  Sr2+  Sr4  1  0.62693825  0.15070063  0.12631361  1
  Sr2+  Sr5  1  0.62794241  0.12704284  0.61846922  1
  Sr2+  Sr6  1  0.62253439  0.62703868  0.13084360  1
  Sr2+  Sr7  1  0.62172067  0.59656207  0.62635483  1
  Sr2+  Sr8  1  0.39028850  0.37920853  0.11961546  1
  Sr2+  Sr9  1  0.38706989  0.37541887  0.63025810  1
  Sr2+  Sr10  1  0.37571320  0.87037673  0.12582037  1
  Sr2+  Sr11  1  0.37474522  0.87481050  0.62494540  1
  Sr2+  Sr12  1  0.86237782  0.37662985  0.12282086  1
  Sr2+  Sr13  1  0.86633075  0.38697444  0.62710755  1
  Sr2+  Sr14  1  0.87839267  0.87796826  0.12477496  1
  Sr2+  Sr15  1  0.87573337  0.87381391  0.62378174  1
  Sr2+  Sr16  1  0.12506433  0.37511043  0.37208441  1
  Sr2+  Sr17  1  0.12121724  0.38550475  0.87371212  1
  Sr2+  Sr18  1  0.12429206  0.87310859  0.37342599  1
  Sr2+  Sr19  1  0.12420601  0.87362366  0.87757870  1
  Sr2+  Sr20  1  0.63364663  0.38033719  0.36494850  1
  Sr2+  Sr21  1  0.63278028  0.36600863  0.87554913  1
  Sr2+  Sr22  1  0.64597413  0.87543325  0.37599881  1
  Sr2+  Sr23  1  0.64447590  0.87397499  0.86856571  1
  Sr2+  Sr24  1  0.37304813  0.12210250  0.37084391  1
  Sr2+  Sr25  1  0.36777857  0.12235315  0.87035210  1
  Sr2+  Sr26  1  0.37458942  0.62697347  0.37495854  1
  Sr2+  Sr27  1  0.37707684  0.62677916  0.87429608  1
  Sr2+  Sr28  1  0.89132415  0.13046187  0.37567442  1
  Sr2+  Sr29  1  0.87278348  0.12531975  0.88113360  1
  Sr2+  Sr30  1  0.85393630  0.62212251  0.37149726  1
  Sr2+  Sr31  1  0.88551472  0.61365145  0.87887945  1
  Sr2+  Sr32  1  0.12555216  0.15147592  0.37426460  1
  Sr2+  Sr33  1  0.12182485  0.13155054  0.87357053  1
  Sr2+  Sr34  1  0.13011850  0.59519106  0.37571801  1
  Sr2+  Sr35  1  0.12533686  0.61507750  0.87510476  1
  Sr2+  Sr36  1  0.63019742  0.12078760  0.37492563  1
  Sr2+  Sr37  1  0.63014539  0.12552826  0.88320503  1
  Sr2+  Sr38  1  0.62525889  0.62516547  0.37086112  1
  Sr2+  Sr39  1  0.62426670  0.62767940  0.86899946  1
  Sr2+  Sr40  1  0.36225732  0.37493793  0.37989689  1
  Sr2+  Sr41  1  0.37036320  0.35406151  0.87745489  1
  Sr2+  Sr42  1  0.37236576  0.87649541  0.37511385  1
  Sr2+  Sr43  1  0.36684614  0.86955374  0.87506396  1
  Sr2+  Sr44  1  0.88042216  0.38004019  0.37071120  1
  Sr2+  Sr45  1  0.87624638  0.39052929  0.87416086  1
  Sr2+  Sr46  1  0.87703593  0.87193193  0.37504297  1
  Sr2+  Sr47  1  0.88590528  0.87524349  0.87584620  1
  Sr2+  Sr48  1  0.11052325  0.37459493  0.13344193  1
  Sr2+  Sr49  1  0.10563174  0.37757666  0.62075988  1
  Sr2+  Sr50  1  0.11999780  0.87186560  0.12384299  1
  Sr2+  Sr51  1  0.12026079  0.87308339  0.62473641  1
  Sr2+  Sr52  1  0.62282153  0.38238779  0.11727549  1
  Sr2+  Sr53  1  0.62986532  0.37280051  0.62921517  1
  Sr2+  Sr54  1  0.62587524  0.87168469  0.13154663  1
  Sr2+  Sr55  1  0.64334065  0.87457802  0.62407918  1
  Sr2+  Sr56  1  0.37135744  0.11966415  0.12787754  1
  Sr2+  Sr57  1  0.38319278  0.12475989  0.62396002  1
  Sr2+  Sr58  1  0.38458226  0.62308659  0.12142197  1
  Sr2+  Sr59  1  0.37997327  0.62175211  0.62515962  1
  Sr2+  Sr60  1  0.86617094  0.12684499  0.12381109  1
  Sr2+  Sr61  1  0.89351092  0.12525453  0.62275989  1
  Sr2+  Sr62  1  0.89373030  0.62217474  0.12419725  1
  Sr2+  Sr63  1  0.86097206  0.61659056  0.62387487  1
  Ca2+  Ca64  1  0.49991658  0.49832953  0.49722078  1
  Ca2+  Ca65  1  0.50155486  0.50206399  -0.00661873  1
  Ca2+  Ca66  1  0.00267390  0.49665258  0.00376909  1
  Ca2+  Ca67  1  -0.00540594  0.50501696  0.49593203  1
  Ca2+  Ca68  1  0.50019732  -0.00053280  -0.00149997  1
  Ca2+  Ca69  1  0.75046913  0.75015387  0.00000161  1
  Ca2+  Ca70  1  0.24627564  0.24690940  0.00454250  1
  Ca2+  Ca71  1  0.75132462  0.25054054  0.50219932  1
  Ca2+  Ca72  1  0.25347385  0.24739618  0.50380494  1
  Ca2+  Ca73  1  0.74680189  0.74522975  0.50281394  1
  Ca2+  Ca74  1  0.25493105  0.49818111  0.24630560  1
  Ca2+  Ca75  1  0.74992939  0.50023466  0.24428662  1
  Ca2+  Ca76  1  0.74952177  0.00333221  0.24831833  1
  Ca2+  Ca77  1  -0.00138915  0.24987222  0.75129071  1
  Ca2+  Ca78  1  0.50043449  0.25224208  0.25181618  1
  Ca2+  Ca79  1  0.24949456  0.49859656  0.74927903  1
  Ca2+  Ca80  1  -0.00386032  0.24970933  0.24545967  1
  Ca2+  Ca81  1  0.00297681  0.74813506  0.74809636  1
  Ca2+  Ca82  1  0.75217455  0.00573125  0.75022669  1
  Ca2+  Ca83  1  0.74868179  0.50101245  0.75386390  1
  Ca2+  Ca84  1  0.00433218  0.74733020  0.25325069  1
  Nb5+  Nb85  1  0.00246972  0.00114670  0.00472934  1
  Nb5+  Nb86  1  0.50386018  -0.00344733  0.50017986  1
  Nb5+  Nb87  1  0.00828341  -0.00253016  0.50045069  1
  Nb5+  Nb88  1  0.24747522  0.74979139  0.50237560  1
  Nb5+  Nb89  1  0.24837388  0.74745334  0.00517352  1
  Nb5+  Nb90  1  0.75365472  0.25019945  -0.00057973  1
  Nb5+  Nb91  1  0.50131996  0.23948678  0.74925475  1
  Nb5+  Nb92  1  0.24785237  -0.00228481  0.24770527  1
  Nb5+  Nb93  1  0.24809582  -0.00080974  0.74440046  1
  Nb5+  Nb94  1  0.50127823  0.75121432  0.74819100  1
  Nb5+  Nb95  1  0.49925088  0.75387868  0.25494885  1
  Nb5+  Nb96  1  -0.00177641  0.00074592  0.25498433  1
  Nb5+  Nb97  1  0.00098417  0.00261277  0.75428964  1
  Nb5+  Nb98  1  0.00122978  0.50041458  0.24946014  1
  Nb5+  Nb99  1  0.00036942  0.50166677  0.74614887  1
  Nb5+  Nb100  1  0.50010813  -0.00182598  0.24807800  1
  Nb5+  Nb101  1  0.49907460  -0.00556992  0.74909022  1
  Nb5+  Nb102  1  0.49526375  0.49773871  0.25350167  1
  Nb5+  Nb103  1  0.49465247  0.49033139  0.75595475  1
  Nb5+  Nb104  1  0.25574448  0.25343438  0.24542666  1
  Nb5+  Nb105  1  0.24936964  0.25279181  0.74947764  1
  Nb5+  Nb106  1  0.24947463  0.75121869  0.25508447  1
  Nb5+  Nb107  1  0.24821916  0.75108110  0.75284038  1
  Nb5+  Nb108  1  0.74751449  0.25054052  0.25562111  1
  Nb5+  Nb109  1  0.75451691  0.24533900  0.75009706  1
  Nb5+  Nb110  1  0.75468176  0.74805156  0.24660600  1
  Nb5+  Nb111  1  0.75729172  0.74728775  0.75425962  1
  Nb5+  Nb112  1  -0.00384245  0.25622928  0.50149800  1
  Nb5+  Nb113  1  0.00030873  0.25139556  0.99936292  1
  Nb5+  Nb114  1  -0.00178454  0.74538772  0.49722147  1
  Nb5+  Nb115  1  0.00254299  0.74686070  0.99867556  1
  Nb5+  Nb116  1  0.50000083  0.25147980  0.49633153  1
  Nb5+  Nb117  1  0.49753296  0.24550331  0.99933725  1
  Nb5+  Nb118  1  0.49900157  0.75422551  0.50401932  1
  Nb5+  Nb119  1  0.50309202  0.75860002  1.00030794  1
  Nb5+  Nb120  1  0.24868452  -0.00090022  -0.00484794  1
  Nb5+  Nb121  1  0.25200231  -0.00156101  0.49540845  1
  Nb5+  Nb122  1  0.25486112  0.49267487  0.00190164  1
  Nb5+  Nb123  1  0.25456215  0.49313313  0.50635138  1
  Nb5+  Nb124  1  0.74890109  -0.00325549  0.00193775  1
  Nb5+  Nb125  1  0.76312996  0.00270729  0.49856492  1
  Nb5+  Nb126  1  0.74638582  0.50853274  -0.00051251  1
  Nb5+  Nb127  1  0.74651899  0.49585950  0.49638223  1
  O2-  O128  1  0.00294221  0.00241324  0.12431337  1
  O2-  O129  1  0.00356199  0.00573262  0.62034973  1
  O2-  O130  1  0.00858613  0.52465154  0.13253690  1
  O2-  O131  1  -0.00382989  0.50604795  0.62826096  1
  O2-  O132  1  0.48380846  -0.01382736  0.13525990  1
  O2-  O133  1  0.48306332  -0.00795971  0.62286162  1
  O2-  O134  1  0.49458948  0.49132163  0.13096071  1
  O2-  O135  1  0.49381197  0.48989596  0.63467395  1
  O2-  O136  1  0.00272694  -0.01064286  0.37500209  1
  O2-  O137  1  0.00856510  -0.00419089  0.87326096  1
  O2-  O138  1  0.00495019  0.47223823  0.36684738  1
  O2-  O139  1  0.00344893  0.49813154  0.86930929  1
  O2-  O140  1  0.49347030  0.00573286  0.38114688  1
  O2-  O141  1  0.49964805  0.02212706  0.86067688  1
  O2-  O142  1  0.50649756  0.53052069  0.36679386  1
  O2-  O143  1  0.50346031  0.53502882  0.86298448  1
  O2-  O144  1  0.24617862  0.21228898  0.13507223  1
  O2-  O145  1  0.25576480  0.21808559  0.63746349  1
  O2-  O146  1  0.25070990  0.74378913  0.12466717  1
  O2-  O147  1  0.25018838  0.74227650  0.62309363  1
  O2-  O148  1  0.75796738  0.25531137  0.11909453  1
  O2-  O149  1  0.75430754  0.27138284  0.63763272  1
  O2-  O150  1  0.72382727  0.75587856  0.13251405  1
  O2-  O151  1  0.76097260  0.76799631  0.63631762  1
  O2-  O152  1  0.25644922  0.26311103  0.36673108  1
  O2-  O153  1  0.25601105  0.24391967  0.86785735  1
  O2-  O154  1  0.25700081  0.76983003  0.37481652  1
  O2-  O155  1  0.25219217  0.76486315  0.87352713  1
  O2-  O156  1  0.72645217  0.24864146  0.36902036  1
  O2-  O157  1  0.74493427  0.22924790  0.87960397  1
  O2-  O158  1  0.74925592  0.74755064  0.36690091  1
  O2-  O159  1  0.72415509  0.74234427  0.86796512  1
  O2-  O160  1  0.00095314  0.22461406  0.11313871  1
  O2-  O161  1  0.00818952  0.23065685  0.61718933  1
  O2-  O162  1  0.00614961  0.75609386  0.11626664  1
  O2-  O163  1  0.00639091  0.76359837  0.61282560  1
  O2-  O164  1  0.49723299  0.26800153  0.11403376  1
  O2-  O165  1  0.48407427  0.26139121  0.63272293  1
  O2-  O166  1  0.50009643  0.76941553  0.12514448  1
  O2-  O167  1  0.48915298  0.77175922  0.62469127  1
  O2-  O168  1  0.24926945  -0.02221126  0.37934737  1
  O2-  O169  1  0.25010329  -0.01516748  0.87668474  1
  O2-  O170  1  0.24792950  0.48106771  0.38475003  1
  O2-  O171  1  0.23118947  0.49741114  0.88475273  1
  O2-  O172  1  0.73868626  0.00102556  0.38286143  1
  O2-  O173  1  0.74976276  0.01966598  0.88520065  1
  O2-  O174  1  0.74038540  0.50575127  0.37845958  1
  O2-  O175  1  0.76905508  0.51020592  0.88399544  1
  O2-  O176  1  -0.00569111  0.25624138  0.38147944  1
  O2-  O177  1  -0.00480932  0.22881688  0.88397062  1
  O2-  O178  1  0.00182919  0.77915766  0.38525081  1
  O2-  O179  1  0.01019744  0.76779718  0.88246739  1
  O2-  O180  1  0.52423397  0.23814017  0.38547402  1
  O2-  O181  1  0.50636228  0.22951512  0.86989344  1
  O2-  O182  1  0.49030490  0.74239625  0.37636946  1
  O2-  O183  1  0.49749749  0.74332344  0.87086095  1
  O2-  O184  1  0.25023520  0.00783140  0.12940407  1
  O2-  O185  1  0.24538608  0.00662258  0.62568848  1
  O2-  O186  1  0.25844689  0.52910744  0.11460197  1
  O2-  O187  1  0.25188593  0.53282443  0.61712521  1
  O2-  O188  1  0.77540450  -0.00528511  0.11648586  1
  O2-  O189  1  0.75421036  -0.01059902  0.61606499  1
  O2-  O190  1  0.74471809  0.47549084  0.11307994  1
  O2-  O191  1  0.75206499  0.49081800  0.61940241  1
  O2-  O192  1  0.13600190  0.26870703  0.25295992  1
  O2-  O193  1  0.13607008  0.27618794  0.75193988  1
  O2-  O194  1  0.13875199  0.78308693  0.24774852  1
  O2-  O195  1  0.13827740  0.78474129  0.74637883  1
  O2-  O196  1  0.63317137  0.28254275  0.22943876  1
  O2-  O197  1  0.61453208  0.27459541  0.74782741  1
  O2-  O198  1  0.61379296  0.77843556  0.25979965  1
  O2-  O199  1  0.61222785  0.78523778  0.74548651  1
  O2-  O200  1  0.36891474  0.21280964  0.25041885  1
  O2-  O201  1  0.38009989  0.22621229  0.75906483  1
  O2-  O202  1  0.37376105  0.73591905  0.24484633  1
  O2-  O203  1  0.37400711  0.74068391  0.74889944  1
  O2-  O204  1  0.86237429  0.21479279  0.25210668  1
  O2-  O205  1  0.86412384  0.21143786  0.75104083  1
  O2-  O206  1  0.86680682  0.72118301  0.23910828  1
  O2-  O207  1  0.86765967  0.72006717  0.76733310  1
  O2-  O208  1  0.28297208  0.36287595  0.22249922  1
  O2-  O209  1  0.28458033  0.36285743  0.74183822  1
  O2-  O210  1  0.27665370  0.87779519  0.24342146  1
  O2-  O211  1  0.27633114  0.88015255  0.74328567  1
  O2-  O212  1  0.78223749  0.36537043  0.25741031  1
  O2-  O213  1  0.76153517  0.36166571  0.77775281  1
  O2-  O214  1  0.77259767  0.86678181  0.25162670  1
  O2-  O215  1  0.76875878  0.86843189  0.76995476  1
  O2-  O216  1  0.23146115  0.11115958  0.27306489  1
  O2-  O217  1  0.23049273  0.11462494  0.76471934  1
  O2-  O218  1  0.23018783  0.63839681  0.26726597  1
  O2-  O219  1  0.22914435  0.63881167  0.76107514  1
  O2-  O220  1  0.71365998  0.13395981  0.24378309  1
  O2-  O221  1  0.70702283  0.13693696  0.74513440  1
  O2-  O222  1  0.71572839  0.63431607  0.24984252  1
  O2-  O223  1  0.71325793  0.63772085  0.73773630  1
  O2-  O224  1  0.12238647  0.47061484  0.24838064  1
  O2-  O225  1  0.11682968  0.46385343  0.74196033  1
  O2-  O226  1  0.13073424  0.97121651  0.24775293  1
  O2-  O227  1  0.13105948  0.97196663  0.74904884  1
  O2-  O228  1  0.61304515  0.47952209  0.24615050  1
  O2-  O229  1  0.61344321  0.48183129  0.74871693  1
  O2-  O230  1  0.61129549  0.96635072  0.25326422  1
  O2-  O231  1  0.61221599  0.97526057  0.73933911  1
  O2-  O232  1  0.37084950  0.01612070  0.25849237  1
  O2-  O233  1  0.36991891  0.02196319  0.74774853  1
  O2-  O234  1  0.38362376  0.53930660  0.25090348  1
  O2-  O235  1  0.38253322  0.53110135  0.75115241  1
  O2-  O236  1  0.88729554  0.03023756  0.25562990  1
  O2-  O237  1  0.88910424  0.03180634  0.75119062  1
  O2-  O238  1  0.88460145  0.53023417  0.25354466  1
  O2-  O239  1  0.88310907  0.53295321  0.74932439  1
  O2-  O240  1  0.46574962  0.38654970  0.27098046  1
  O2-  O241  1  0.47500460  0.37509908  0.76916489  1
  O2-  O242  1  0.46974392  0.87303547  0.26087026  1
  O2-  O243  1  0.46947867  0.88142002  0.75936046  1
  O2-  O244  1  0.97770911  0.38301638  0.21957292  1
  O2-  O245  1  0.96563596  0.38215394  0.74596025  1
  O2-  O246  1  0.97775607  0.88517866  0.24212096  1
  O2-  O247  1  0.97803210  0.88697519  0.74103406  1
  O2-  O248  1  0.03644009  0.11276374  0.25760629  1
  O2-  O249  1  0.03989133  0.11316158  0.74483008  1
  O2-  O250  1  0.03483975  0.61629409  0.26602712  1
  O2-  O251  1  0.03874100  0.61712309  0.75023346  1
  O2-  O252  1  0.52071459  0.11229950  0.24621052  1
  O2-  O253  1  0.51509053  0.12500342  0.72732197  1
  O2-  O254  1  0.51754884  0.63860778  0.23649835  1
  O2-  O255  1  0.51708414  0.63935168  0.73095629  1
  O2-  O256  1  0.13645712  0.46963309  0.01572525  1
  O2-  O257  1  0.13459402  0.48207073  0.50570091  1
  O2-  O258  1  0.12436812  0.97018063  0.00281984  1
  O2-  O259  1  0.12277443  0.97062474  0.50142057  1
  O2-  O260  1  0.63494278  0.46775443  -0.01486575  1
  O2-  O261  1  0.63088531  0.45779568  0.50203444  1
  O2-  O262  1  0.63660689  0.97038539  0.00692992  1
  O2-  O263  1  0.61603372  0.97297219  0.50520992  1
  O2-  O264  1  0.36177358  0.02593679  -0.00069352  1
  O2-  O265  1  0.36660362  0.02012771  0.49914381  1
  O2-  O266  1  0.36673731  0.53309431  -0.01100897  1
  O2-  O267  1  0.36631875  0.53307790  0.49425679  1
  O2-  O268  1  0.88682382  0.02351609  -0.00585024  1
  O2-  O269  1  0.87816236  0.02585993  0.49534894  1
  O2-  O270  1  0.86742613  0.52571940  0.01106287  1
  O2-  O271  1  0.86250196  0.53767438  0.49596833  1
  O2-  O272  1  0.48547087  0.36234659  -0.02588888  1
  O2-  O273  1  0.46711014  0.36249163  0.49051868  1
  O2-  O274  1  0.45945338  0.86814203  -0.00888301  1
  O2-  O275  1  0.46645166  0.87979235  0.49525331  1
  O2-  O276  1  0.96613705  0.36192252  0.00375016  1
  O2-  O277  1  0.97266577  0.36734577  0.51799238  1
  O2-  O278  1  0.98072536  0.88029110  0.00237691  1
  O2-  O279  1  0.97074132  0.88438812  0.50471780  1
  O2-  O280  1  0.03117383  0.11513875  -0.00310663  1
  O2-  O281  1  0.02310087  0.11548099  0.48873048  1
  O2-  O282  1  0.03272013  0.63524393  -0.00501618  1
  O2-  O283  1  0.03863222  0.63821310  0.49153134  1
  O2-  O284  1  0.53297184  0.13266805  0.00951405  1
  O2-  O285  1  0.51735795  0.11418561  0.51219459  1
  O2-  O286  1  0.51613389  0.64226719  0.01404277  1
  O2-  O287  1  0.51409577  0.64132105  0.51939607  1
  O2-  O288  1  0.11379150  0.27987607  -0.00510718  1
  O2-  O289  1  0.11702218  0.26994687  0.49539509  1
  O2-  O290  1  0.13152932  0.77897716  0.00066820  1
  O2-  O291  1  0.13288786  0.78131579  0.49916017  1
  O2-  O292  1  0.63155507  0.26680145  0.00098216  1
  O2-  O293  1  0.61219102  0.25732769  0.53066712  1
  O2-  O294  1  0.61219114  0.78983190  -0.00533150  1
  O2-  O295  1  0.60978474  0.78522368  0.49732164  1
  O2-  O296  1  0.38435538  0.21938243  -0.00511327  1
  O2-  O297  1  0.38709173  0.21185715  0.49645090  1
  O2-  O298  1  0.36707309  0.73171510  -0.00201911  1
  O2-  O299  1  0.37050832  0.73974745  0.49972380  1
  O2-  O300  1  0.87192231  0.21908393  -0.00038150  1
  O2-  O301  1  0.88424322  0.21401727  0.50128461  1
  O2-  O302  1  0.88697707  0.72365508  -0.00366838  1
  O2-  O303  1  0.88541338  0.72065005  0.49776045  1
  O2-  O304  1  0.28861188  0.38141755  0.00804471  1
  O2-  O305  1  0.28052390  0.38237026  0.52523728  1
  O2-  O306  1  0.26775663  0.87641915  0.01109017  1
  O2-  O307  1  0.26755599  0.87773376  0.51471470  1
  O2-  O308  1  0.77440723  0.36466106  -0.01545270  1
  O2-  O309  1  0.78745405  0.38279005  0.48955220  1
  O2-  O310  1  0.78427361  0.88460538  -0.01267823  1
  O2-  O311  1  0.77231205  0.88269818  0.49124402  1
  O2-  O312  1  0.21545014  0.11009069  -0.00707568  1
  O2-  O313  1  0.21969236  0.10982946  0.48923200  1
  O2-  O314  1  0.22246281  0.63562435  -0.00990269  1
  O2-  O315  1  0.22996050  0.63712249  0.48304598  1
  O2-  O316  1  0.73218764  0.12312000  0.01466063  1
  O2-  O317  1  0.72156285  0.11349753  0.50287526  1
  O2-  O318  1  0.71174925  0.61761973  0.00745154  1
  O2-  O319  1  0.70865655  0.61439782  0.50489641  1
