# generated using pymatgen
data_Sr64Ca21Nb43O192
_symmetry_space_group_name_H-M   'P 1'
_cell_length_a   16.63974431
_cell_length_b   16.60790229
_cell_length_c   16.74104528
_cell_angle_alpha   89.89910197
_cell_angle_beta   90.01140354
_cell_angle_gamma   90.14034307
_symmetry_Int_Tables_number   1
_chemical_formula_structural   Sr64Ca21Nb43O192
_chemical_formula_sum   'Sr64 Ca21 Nb43 O192'
_cell_volume   4626.38761013
_cell_formula_units_Z   1
loop_
 _symmetry_equiv_pos_site_id
 _symmetry_equiv_pos_as_xyz
  1  'x, y, z'
loop_
 _atom_type_symbol
 _atom_type_oxidation_number
  Sr2+  2.0
  Ca2+  2.0
  Nb5+  5.0
  O2-  -2.0
loop_
 _atom_site_type_symbol
 _atom_site_label
 _atom_site_symmetry_multiplicity
 _atom_site_fract_x
 _atom_site_fract_y
 _atom_site_fract_z
 _atom_site_occupancy
  Sr2+  Sr0  1  0.12414990  0.13019905  0.11677776  1
  Sr2+  Sr1  1  0.13094676  0.13808759  0.62226013  1
  Sr2+  Sr2  1  0.12743459  0.63556596  0.12056491  1
  Sr2+  Sr3  1  0.12588653  0.62955031  0.64189811  1
  Sr2+  Sr4  1  0.61514968  0.13253479  0.12248162  1
  Sr2+  Sr5  1  0.61661174  0.13573718  0.63110909  1
  Sr2+  Sr6  1  0.62312435  0.62646737  0.11131933  1
  Sr2+  Sr7  1  0.62120647  0.62783017  0.62747404  1
  Sr2+  Sr8  1  0.37165835  0.40051579  0.12783275  1
  Sr2+  Sr9  1  0.37302878  0.37886813  0.62152186  1
  Sr2+  Sr10  1  0.37586453  0.89915334  0.12799724  1
  Sr2+  Sr11  1  0.37573721  0.90055737  0.62432461  1
  Sr2+  Sr12  1  0.86650119  0.38892918  0.13113509  1
  Sr2+  Sr13  1  0.87815352  0.38335971  0.62467971  1
  Sr2+  Sr14  1  0.87066829  0.88385748  0.12389294  1
  Sr2+  Sr15  1  0.86365446  0.88622288  0.62548437  1
  Sr2+  Sr16  1  0.12856366  0.37390152  0.37352662  1
  Sr2+  Sr17  1  0.12140743  0.37500572  0.86822820  1
  Sr2+  Sr18  1  0.12165364  0.87787811  0.37099417  1
  Sr2+  Sr19  1  0.12981831  0.87476262  0.87836778  1
  Sr2+  Sr20  1  0.64064754  0.36865809  0.37675760  1
  Sr2+  Sr21  1  0.63599459  0.36495925  0.87733604  1
  Sr2+  Sr22  1  0.63968996  0.86688608  0.38238889  1
  Sr2+  Sr23  1  0.63063340  0.86580347  0.87575754  1
  Sr2+  Sr24  1  0.37759424  0.11239368  0.37553268  1
  Sr2+  Sr25  1  0.39900010  0.12216500  0.87513049  1
  Sr2+  Sr26  1  0.38367221  0.61774474  0.37474327  1
  Sr2+  Sr27  1  0.36233892  0.61666387  0.86797459  1
  Sr2+  Sr28  1  0.87909571  0.12056653  0.37973679  1
  Sr2+  Sr29  1  0.88041052  0.11781915  0.86811617  1
  Sr2+  Sr30  1  0.88187228  0.62163307  0.37270670  1
  Sr2+  Sr31  1  0.87865619  0.62516085  0.89110662  1
  Sr2+  Sr32  1  0.12483275  0.13114495  0.37719671  1
  Sr2+  Sr33  1  0.12217180  0.11864593  0.87230068  1
  Sr2+  Sr34  1  0.12210880  0.64416313  0.37419602  1
  Sr2+  Sr35  1  0.12500703  0.65096967  0.87695648  1
  Sr2+  Sr36  1  0.63788149  0.11218131  0.37085842  1
  Sr2+  Sr37  1  0.63288959  0.11424729  0.86992017  1
  Sr2+  Sr38  1  0.62712230  0.62502088  0.38192081  1
  Sr2+  Sr39  1  0.63641343  0.60823313  0.87159929  1
  Sr2+  Sr40  1  0.37946323  0.36971700  0.37499112  1
  Sr2+  Sr41  1  0.37741011  0.36291007  0.90059827  1
  Sr2+  Sr42  1  0.37533836  0.87215127  0.36950332  1
  Sr2+  Sr43  1  0.37838734  0.86524404  0.85244791  1
  Sr2+  Sr44  1  0.88454870  0.36263702  0.37250833  1
  Sr2+  Sr45  1  0.88004355  0.36098878  0.86804930  1
  Sr2+  Sr46  1  0.87927690  0.87301479  0.37875459  1
  Sr2+  Sr47  1  0.87996458  0.87832331  0.88142673  1
  Sr2+  Sr48  1  0.13242373  0.38321551  0.12317690  1
  Sr2+  Sr49  1  0.13070292  0.37965531  0.62379862  1
  Sr2+  Sr50  1  0.12828378  0.88780086  0.12321402  1
  Sr2+  Sr51  1  0.13394086  0.87686296  0.63363517  1
  Sr2+  Sr52  1  0.60855620  0.38483547  0.11620283  1
  Sr2+  Sr53  1  0.61104126  0.39004537  0.63227797  1
  Sr2+  Sr54  1  0.61049723  0.87846432  0.12288623  1
  Sr2+  Sr55  1  0.60956459  0.88005666  0.62716560  1
  Sr2+  Sr56  1  0.38104755  0.13101621  0.12753031  1
  Sr2+  Sr57  1  0.37362107  0.13054725  0.62631738  1
  Sr2+  Sr58  1  0.38146246  0.62717719  0.13040527  1
  Sr2+  Sr59  1  0.38275206  0.62964573  0.62663892  1
  Sr2+  Sr60  1  0.86339036  0.13128330  0.12135183  1
  Sr2+  Sr61  1  0.86499353  0.13293421  0.62951257  1
  Sr2+  Sr62  1  0.86211486  0.63335184  0.12641832  1
  Sr2+  Sr63  1  0.86408958  0.62643542  0.62948095  1
  Ca2+  Ca64  1  0.49776731  0.50536982  -0.00207756  1
  Ca2+  Ca65  1  0.00134744  0.00003122  0.50167245  1
  Ca2+  Ca66  1  0.49909031  -0.00316056  -0.00250227  1
  Ca2+  Ca67  1  0.00022660  0.49955680  0.00337350  1
  Ca2+  Ca68  1  0.50292141  0.00468350  0.49759856  1
  Ca2+  Ca69  1  0.75094662  0.25285246  0.50261843  1
  Ca2+  Ca70  1  0.25314915  0.75144177  0.00522956  1
  Ca2+  Ca71  1  0.75272690  0.24673929  0.00043330  1
  Ca2+  Ca72  1  0.24927798  0.74837044  0.49950877  1
  Ca2+  Ca73  1  0.24920525  0.24590582  0.00404974  1
  Ca2+  Ca74  1  0.50022127  0.25259640  0.25360290  1
  Ca2+  Ca75  1  0.74824751  0.50162626  0.24958728  1
  Ca2+  Ca76  1  0.24967301  0.00417637  0.75132883  1
  Ca2+  Ca77  1  0.24868288  0.49732155  0.74678660  1
  Ca2+  Ca78  1  0.50378337  0.75033374  0.25086433  1
  Ca2+  Ca79  1  0.75120597  0.49869553  0.74950927  1
  Ca2+  Ca80  1  0.75072680  -0.00462473  0.74972369  1
  Ca2+  Ca81  1  -0.00592479  0.75145395  0.74876433  1
  Ca2+  Ca82  1  0.49778995  0.25656601  0.75040447  1
  Ca2+  Ca83  1  0.50547007  0.74795303  0.75143140  1
  Ca2+  Ca84  1  0.75358296  -0.00264091  0.24816502  1
  Nb5+  Nb85  1  0.00031066  0.00134302  0.00035817  1
  Nb5+  Nb86  1  0.00769693  0.50057956  0.49644093  1
  Nb5+  Nb87  1  0.50517863  0.49991139  0.49750828  1
  Nb5+  Nb88  1  0.25383359  0.24962946  0.49663491  1
  Nb5+  Nb89  1  0.75312632  0.74987317  0.50807202  1
  Nb5+  Nb90  1  0.74958447  0.75433837  0.00711879  1
  Nb5+  Nb91  1  0.24500740  0.50850164  0.25476510  1
  Nb5+  Nb92  1  -0.00075781  0.24889133  0.74169956  1
  Nb5+  Nb93  1  -0.00262525  0.75635669  0.24609470  1
  Nb5+  Nb94  1  -0.00119875  0.25183278  0.24235939  1
  Nb5+  Nb95  1  0.24776023  0.00864546  0.25121775  1
  Nb5+  Nb96  1  0.00076136  0.00808590  0.24726979  1
  Nb5+  Nb97  1  0.00456108  0.00033247  0.74076084  1
  Nb5+  Nb98  1  0.00304790  0.50739149  0.24975320  1
  Nb5+  Nb99  1  -0.00118742  0.50157587  0.75526062  1
  Nb5+  Nb100  1  0.50693210  -0.00195614  0.25703301  1
  Nb5+  Nb101  1  0.50140869  0.00101969  0.75123861  1
  Nb5+  Nb102  1  0.50400788  0.49836700  0.25598743  1
  Nb5+  Nb103  1  0.49395923  0.49836174  0.75928007  1
  Nb5+  Nb104  1  0.25055797  0.25215825  0.25172371  1
  Nb5+  Nb105  1  0.25014919  0.25163582  0.75680087  1
  Nb5+  Nb106  1  0.25271765  0.75630088  0.25087733  1
  Nb5+  Nb107  1  0.25050630  0.74730696  0.74713103  1
  Nb5+  Nb108  1  0.74457301  0.25366663  0.24648046  1
  Nb5+  Nb109  1  0.74658531  0.25117282  0.74552680  1
  Nb5+  Nb110  1  0.74863482  0.75221928  0.25439450  1
  Nb5+  Nb111  1  0.75346513  0.74713759  0.76058392  1
  Nb5+  Nb112  1  0.00308345  0.25055665  0.49455841  1
  Nb5+  Nb113  1  -0.00261747  0.25275844  0.99645889  1
  Nb5+  Nb114  1  -0.00470262  0.74838734  0.50436680  1
  Nb5+  Nb115  1  0.00032361  0.75408057  1.00186817  1
  Nb5+  Nb116  1  0.50746924  0.25401679  0.49761143  1
  Nb5+  Nb117  1  0.50323281  0.25020106  1.00121987  1
  Nb5+  Nb118  1  0.49672295  0.75327349  0.49865093  1
  Nb5+  Nb119  1  0.49430900  0.74641717  0.99868976  1
  Nb5+  Nb120  1  0.25344242  -0.00032689  -0.00172344  1
  Nb5+  Nb121  1  0.24605768  -0.00099422  0.50084147  1
  Nb5+  Nb122  1  0.24597680  0.49680875  -0.00607801  1
  Nb5+  Nb123  1  0.25339424  0.50318846  0.49520718  1
  Nb5+  Nb124  1  0.74527214  -0.00206494  0.00163318  1
  Nb5+  Nb125  1  0.74874913  0.00459347  0.50411923  1
  Nb5+  Nb126  1  0.75431117  0.49233155  -0.00317797  1
  Nb5+  Nb127  1  0.75871482  0.50124739  0.49606754  1
  O2-  O128  1  0.02615315  0.00554379  0.12747209  1
  O2-  O129  1  0.03641162  0.01645963  0.63332050  1
  O2-  O130  1  0.03101186  0.50433969  0.13869811  1
  O2-  O131  1  0.01999520  0.51071208  0.61037492  1
  O2-  O132  1  0.51355361  0.01664298  0.13825163  1
  O2-  O133  1  0.52475734  0.01693719  0.63214452  1
  O2-  O134  1  0.51257810  0.51585857  0.13948903  1
  O2-  O135  1  0.51534385  0.51773132  0.61258940  1
  O2-  O136  1  -0.01739440  -0.01212670  0.36129436  1
  O2-  O137  1  -0.01850981  -0.00631660  0.88426499  1
  O2-  O138  1  -0.01758811  0.48168823  0.37155835  1
  O2-  O139  1  -0.02284854  0.48416241  0.86563530  1
  O2-  O140  1  0.46615245  -0.01299857  0.36795703  1
  O2-  O141  1  0.46746882  -0.01356844  0.86594865  1
  O2-  O142  1  0.47142015  0.48846945  0.37920932  1
  O2-  O143  1  0.46239566  0.48685723  0.86798841  1
  O2-  O144  1  0.25391005  0.22137112  0.14142305  1
  O2-  O145  1  0.26077602  0.23453486  0.61295032  1
  O2-  O146  1  0.25824070  0.71782529  0.14105510  1
  O2-  O147  1  0.25592230  0.71654041  0.63103849  1
  O2-  O148  1  0.78597827  0.26234116  0.13585032  1
  O2-  O149  1  0.78689789  0.26505365  0.63383788  1
  O2-  O150  1  0.76986852  0.76545881  0.12134168  1
  O2-  O151  1  0.77726164  0.75818358  0.61934499  1
  O2-  O152  1  0.22621688  0.25917253  0.37503917  1
  O2-  O153  1  0.23085912  0.27195856  0.86734797  1
  O2-  O154  1  0.21909003  0.76489380  0.36302841  1
  O2-  O155  1  0.23652417  0.76849137  0.86869070  1
  O2-  O156  1  0.73314858  0.23413231  0.36553952  1
  O2-  O157  1  0.73591813  0.22858695  0.86297051  1
  O2-  O158  1  0.73808211  0.73598037  0.37050031  1
  O2-  O159  1  0.73681850  0.73891048  0.87594391  1
  O2-  O160  1  -0.01457194  0.23026004  0.13071092  1
  O2-  O161  1  -0.01007368  0.23904598  0.62503570  1
  O2-  O162  1  -0.01864477  0.73478456  0.12838298  1
  O2-  O163  1  -0.01348374  0.71560092  0.61258899  1
  O2-  O164  1  0.49499092  0.22465863  0.11939893  1
  O2-  O165  1  0.47209572  0.24139635  0.61008725  1
  O2-  O166  1  0.50276074  0.71897340  0.11794546  1
  O2-  O167  1  0.50178984  0.72153045  0.61186318  1
  O2-  O168  1  0.26880490  -0.01686256  0.36825065  1
  O2-  O169  1  0.26663204  -0.02210589  0.88728706  1
  O2-  O170  1  0.26066655  0.47326724  0.37288746  1
  O2-  O171  1  0.26752276  0.48023360  0.88324068  1
  O2-  O172  1  0.77653789  0.01122812  0.38590684  1
  O2-  O173  1  0.77570525  0.01126730  0.88741525  1
  O2-  O174  1  0.75490354  0.53502616  0.38329082  1
  O2-  O175  1  0.76945001  0.52677965  0.88357504  1
  O2-  O176  1  0.01715297  0.26480369  0.37802039  1
  O2-  O177  1  0.01456520  0.26242099  0.87979912  1
  O2-  O178  1  0.00784628  0.76291005  0.36780005  1
  O2-  O179  1  0.01161387  0.77407495  0.88637818  1
  O2-  O180  1  0.51171905  0.28910559  0.38616623  1
  O2-  O181  1  0.50889089  0.28083289  0.88354945  1
  O2-  O182  1  0.53196046  0.76257488  0.38736408  1
  O2-  O183  1  0.50798177  0.78226190  0.88642308  1
  O2-  O184  1  0.22776753  0.01516944  0.13512783  1
  O2-  O185  1  0.22125824  0.01107474  0.61280823  1
  O2-  O186  1  0.22594766  0.50829098  0.14018048  1
  O2-  O187  1  0.22403591  0.50822938  0.60618332  1
  O2-  O188  1  0.74053542  -0.03460922  0.11517590  1
  O2-  O189  1  0.73378236  -0.03533468  0.61441449  1
  O2-  O190  1  0.72786248  0.48315938  0.11426033  1
  O2-  O191  1  0.73035261  0.48858057  0.60921429  1
  O2-  O192  1  0.11979264  0.25558910  0.24324583  1
  O2-  O193  1  0.11661729  0.27001541  0.73685107  1
  O2-  O194  1  0.11680770  0.75505138  0.23084562  1
  O2-  O195  1  0.12944464  0.76612785  0.73396264  1
  O2-  O196  1  0.63558638  0.28252669  0.22856810  1
  O2-  O197  1  0.63457040  0.26928427  0.72267731  1
  O2-  O198  1  0.63964883  0.78187641  0.23767930  1
  O2-  O199  1  0.64169920  0.78122552  0.73699041  1
  O2-  O200  1  0.36123792  0.23314559  0.27335812  1
  O2-  O201  1  0.36204908  0.22967023  0.76636869  1
  O2-  O202  1  0.36341847  0.73971495  0.27654657  1
  O2-  O203  1  0.36755163  0.72732860  0.76482147  1
  O2-  O204  1  0.88873082  0.22771927  0.27450985  1
  O2-  O205  1  0.88380444  0.23063340  0.76796593  1
  O2-  O206  1  0.88217528  0.72534675  0.26043253  1
  O2-  O207  1  0.86695290  0.70755940  0.76403124  1
  O2-  O208  1  0.25361758  0.36819436  0.23775399  1
  O2-  O209  1  0.25553658  0.36210205  0.71770708  1
  O2-  O210  1  0.25833039  0.87194207  0.23312960  1
  O2-  O211  1  0.26687242  0.86619212  0.72451189  1
  O2-  O212  1  0.78067854  0.36691846  0.26868116  1
  O2-  O213  1  0.77075818  0.36528049  0.77073590  1
  O2-  O214  1  0.78918863  0.86273325  0.26153768  1
  O2-  O215  1  0.79227130  0.86035977  0.76051082  1
  O2-  O216  1  0.23267063  0.12111501  0.27405762  1
  O2-  O217  1  0.21704525  0.13889459  0.74897208  1
  O2-  O218  1  0.23292885  0.62112439  0.27394975  1
  O2-  O219  1  0.22493066  0.62921624  0.77149926  1
  O2-  O220  1  0.73089738  0.13401096  0.23107727  1
  O2-  O221  1  0.73657072  0.13106357  0.72478536  1
  O2-  O222  1  0.73767646  0.63855921  0.22308718  1
  O2-  O223  1  0.72435183  0.63404824  0.73214793  1
  O2-  O224  1  0.12445344  0.48467674  0.27463236  1
  O2-  O225  1  0.11075051  0.46739960  0.74870721  1
  O2-  O226  1  0.12597849  0.98201632  0.26345043  1
  O2-  O227  1  0.11441858  0.98836828  0.78402411  1
  O2-  O228  1  0.61403973  0.47666287  0.27542853  1
  O2-  O229  1  0.61341000  0.47312667  0.76962323  1
  O2-  O230  1  0.61835954  0.97639965  0.27580003  1
  O2-  O231  1  0.61687700  0.98067926  0.77780566  1
  O2-  O232  1  0.36419173  0.01794063  0.23230399  1
  O2-  O233  1  0.38097700  0.02278254  0.72589796  1
  O2-  O234  1  0.36240802  0.51782540  0.24115266  1
  O2-  O235  1  0.38109721  0.52478728  0.72605924  1
  O2-  O236  1  0.88924964  0.01803048  0.22345552  1
  O2-  O237  1  0.88978690  0.02589706  0.73693304  1
  O2-  O238  1  0.88830984  0.51489336  0.23164319  1
  O2-  O239  1  0.88879950  0.50671193  0.71449310  1
  O2-  O240  1  0.46701453  0.38698719  0.24165328  1
  O2-  O241  1  0.48206692  0.38793489  0.71813004  1
  O2-  O242  1  0.47441949  0.88378234  0.23779464  1
  O2-  O243  1  0.47967203  0.88326812  0.72804088  1
  O2-  O244  1  0.98758747  0.36834518  0.23793636  1
  O2-  O245  1  0.97785087  0.36684749  0.74089383  1
  O2-  O246  1  0.98875276  0.87180025  0.23550428  1
  O2-  O247  1  0.98562409  0.88677420  0.72591126  1
  O2-  O248  1  0.02130060  0.12237005  0.26094100  1
  O2-  O249  1  0.01817061  0.13093426  0.76294454  1
  O2-  O250  1  0.01682933  0.62180488  0.26499691  1
  O2-  O251  1  0.02488988  0.61320840  0.76302077  1
  O2-  O252  1  0.51496473  0.11676176  0.27617489  1
  O2-  O253  1  0.51917475  0.12090425  0.76863706  1
  O2-  O254  1  0.50417320  0.61478481  0.27844002  1
  O2-  O255  1  0.52629811  0.61305850  0.76075829  1
  O2-  O256  1  0.13101439  0.46234689  -0.00813247  1
  O2-  O257  1  0.12049472  0.48344063  0.47687874  1
  O2-  O258  1  0.11864953  0.97499107  -0.00975597  1
  O2-  O259  1  0.13391159  0.99270589  0.46532116  1
  O2-  O260  1  0.63469326  0.48452590  -0.02277703  1
  O2-  O261  1  0.61890881  0.48658322  0.47784450  1
  O2-  O262  1  0.63437616  0.97662972  -0.02015504  1
  O2-  O263  1  0.63578418  0.98277264  0.47231096  1
  O2-  O264  1  0.36351878  0.02271776  0.02473324  1
  O2-  O265  1  0.36230236  0.02735612  0.51301399  1
  O2-  O266  1  0.35955304  0.52348956  0.02531418  1
  O2-  O267  1  0.36800098  0.51497792  0.51268296  1
  O2-  O268  1  0.88299523  0.01094097  0.02431094  1
  O2-  O269  1  0.86800230  0.01650629  0.52686876  1
  O2-  O270  1  0.86659315  0.52098468  0.02753306  1
  O2-  O271  1  0.87425076  0.51493715  0.51143910  1
  O2-  O272  1  0.47586521  0.36886007  0.02464430  1
  O2-  O273  1  0.47758377  0.38458913  0.51415609  1
  O2-  O274  1  0.48602910  0.86226928  0.03300749  1
  O2-  O275  1  0.48914316  0.86643370  0.52203731  1
  O2-  O276  1  0.96781496  0.36135843  0.01423677  1
  O2-  O277  1  0.98548284  0.37829995  0.50885818  1
  O2-  O278  1  0.98234597  0.87689145  0.01815305  1
  O2-  O279  1  0.97428601  0.86113735  0.51332311  1
  O2-  O280  1  0.02287481  0.11757980  -0.00554646  1
  O2-  O281  1  0.02043552  0.13639694  0.48899513  1
  O2-  O282  1  0.01091659  0.63721206  -0.01381718  1
  O2-  O283  1  0.00660990  0.61763957  0.47133765  1
  O2-  O284  1  0.52773165  0.13323512  -0.02344699  1
  O2-  O285  1  0.52137636  0.14188966  0.47516093  1
  O2-  O286  1  0.53824750  0.63727480  -0.02094589  1
  O2-  O287  1  0.50778225  0.61983221  0.47781516  1
  O2-  O288  1  0.11084424  0.26119221  0.02577230  1
  O2-  O289  1  0.12438568  0.26865813  0.51398248  1
  O2-  O290  1  0.11411774  0.76599410  0.02440949  1
  O2-  O291  1  0.11053684  0.75829233  0.50625751  1
  O2-  O292  1  0.62055354  0.27563747  0.01555979  1
  O2-  O293  1  0.61631502  0.27842959  0.52456046  1
  O2-  O294  1  0.63569794  0.77491780  0.01369680  1
  O2-  O295  1  0.63634527  0.76433283  0.51538332  1
  O2-  O296  1  0.38347693  0.22479570  -0.01437422  1
  O2-  O297  1  0.36795166  0.23951858  0.47420402  1
  O2-  O298  1  0.38419338  0.71572948  -0.01152605  1
  O2-  O299  1  0.38503775  0.73887694  0.47513289  1
  O2-  O300  1  0.88778381  0.21147798  -0.01247887  1
  O2-  O301  1  0.88746884  0.23781687  0.48317209  1
  O2-  O302  1  0.87578826  0.74121269  -0.01025704  1
  O2-  O303  1  0.87379213  0.72644534  0.47911129  1
  O2-  O304  1  0.26895401  0.38101835  0.02574567  1
  O2-  O305  1  0.26097937  0.37190207  0.50467727  1
  O2-  O306  1  0.25566577  0.88619849  0.03442527  1
  O2-  O307  1  0.26378193  0.88473227  0.51219199  1
  O2-  O308  1  0.77633143  0.38144457  -0.02239668  1
  O2-  O309  1  0.76616308  0.38842730  0.47164172  1
  O2-  O310  1  0.77212120  0.87098772  -0.01882703  1
  O2-  O311  1  0.77100604  0.86456239  0.48142052  1
  O2-  O312  1  0.21635356  0.11096773  -0.00814131  1
  O2-  O313  1  0.23146558  0.13130730  0.48408422  1
  O2-  O314  1  0.21501966  0.61194797  -0.00867250  1
  O2-  O315  1  0.23773007  0.61261177  0.46736650  1
  O2-  O316  1  0.73290308  0.11089072  0.02492758  1
  O2-  O317  1  0.72838993  0.11681946  0.52227664  1
  O2-  O318  1  0.74040631  0.63557080  0.01238604  1
  O2-  O319  1  0.73516249  0.62892548  0.51471218  1
