# generated using pymatgen
data_Sr64Ca21Nb43O192
_symmetry_space_group_name_H-M   'P 1'
_cell_length_a   16.54185179
_cell_length_b   16.54410155
_cell_length_c   16.70993712
_cell_angle_alpha   90.07715763
_cell_angle_beta   89.95214770
_cell_angle_gamma   90.00442221
_symmetry_Int_Tables_number   1
_chemical_formula_structural   Sr64Ca21Nb43O192
_chemical_formula_sum   'Sr64 Ca21 Nb43 O192'
_cell_volume   4573.00400202
_cell_formula_units_Z   1
loop_
 _symmetry_equiv_pos_site_id
 _symmetry_equiv_pos_as_xyz
  1  'x, y, z'
loop_
 _atom_type_symbol
 _atom_type_oxidation_number
  Sr2+  2.0
  Ca2+  2.0
  Nb5+  5.0
  O2-  -2.0
loop_
 _atom_site_type_symbol
 _atom_site_label
 _atom_site_symmetry_multiplicity
 _atom_site_fract_x
 _atom_site_fract_y
 _atom_site_fract_z
 _atom_site_occupancy
  Sr2+  Sr0  1  0.13271548  0.12814690  0.13065432  1
  Sr2+  Sr1  1  0.13002747  0.13848212  0.62307860  1
  Sr2+  Sr2  1  0.12236383  0.63197004  0.11813023  1
  Sr2+  Sr3  1  0.13921832  0.62463750  0.63220442  1
  Sr2+  Sr4  1  0.62942951  0.12845714  0.12417546  1
  Sr2+  Sr5  1  0.63199449  0.13594849  0.62304525  1
  Sr2+  Sr6  1  0.63502664  0.62388514  0.12217956  1
  Sr2+  Sr7  1  0.62568593  0.62090530  0.63053162  1
  Sr2+  Sr8  1  0.38484342  0.38447209  0.12672204  1
  Sr2+  Sr9  1  0.37345044  0.39081731  0.63013973  1
  Sr2+  Sr10  1  0.38401538  0.87484510  0.13211139  1
  Sr2+  Sr11  1  0.38487008  0.86147996  0.61333999  1
  Sr2+  Sr12  1  0.88337886  0.39144672  0.12843154  1
  Sr2+  Sr13  1  0.88059875  0.38377030  0.62252503  1
  Sr2+  Sr14  1  0.88218788  0.86236368  0.12703914  1
  Sr2+  Sr15  1  0.88378456  0.87649763  0.62953092  1
  Sr2+  Sr16  1  0.11958993  0.36367863  0.38021138  1
  Sr2+  Sr17  1  0.11208442  0.37479520  0.87895711  1
  Sr2+  Sr18  1  0.12337636  0.87499772  0.37905340  1
  Sr2+  Sr19  1  0.11732150  0.87592210  0.86621674  1
  Sr2+  Sr20  1  0.60758254  0.37150359  0.37262661  1
  Sr2+  Sr21  1  0.61650982  0.36236730  0.87360735  1
  Sr2+  Sr22  1  0.63129483  0.87712243  0.37533056  1
  Sr2+  Sr23  1  0.61683580  0.87354485  0.87283275  1
  Sr2+  Sr24  1  0.37230534  0.12463614  0.37363069  1
  Sr2+  Sr25  1  0.36842830  0.11669991  0.87499372  1
  Sr2+  Sr26  1  0.36974323  0.62673359  0.37220043  1
  Sr2+  Sr27  1  0.36044349  0.62891664  0.87299573  1
  Sr2+  Sr28  1  0.87349192  0.11501651  0.37335633  1
  Sr2+  Sr29  1  0.87272564  0.12241279  0.87451301  1
  Sr2+  Sr30  1  0.86837195  0.62047869  0.38862730  1
  Sr2+  Sr31  1  0.86969811  0.61921626  0.87648358  1
  Sr2+  Sr32  1  0.12323579  0.11648392  0.37732786  1
  Sr2+  Sr33  1  0.11952930  0.12957892  0.87761499  1
  Sr2+  Sr34  1  0.11069168  0.63269252  0.37791918  1
  Sr2+  Sr35  1  0.11458829  0.61717791  0.87353386  1
  Sr2+  Sr36  1  0.62384511  0.12546683  0.37098040  1
  Sr2+  Sr37  1  0.62310193  0.11248863  0.87721561  1
  Sr2+  Sr38  1  0.62047383  0.60158317  0.38065477  1
  Sr2+  Sr39  1  0.61134897  0.62184668  0.87386362  1
  Sr2+  Sr40  1  0.36926458  0.36351599  0.37096835  1
  Sr2+  Sr41  1  0.36108347  0.36774272  0.88110791  1
  Sr2+  Sr42  1  0.36481977  0.88132797  0.37278121  1
  Sr2+  Sr43  1  0.37591882  0.87807803  0.87359704  1
  Sr2+  Sr44  1  0.86657799  0.37131710  0.37986602  1
  Sr2+  Sr45  1  0.87269006  0.35825987  0.87425581  1
  Sr2+  Sr46  1  0.87439950  0.87496600  0.38510228  1
  Sr2+  Sr47  1  0.86344773  0.87562240  0.86647377  1
  Sr2+  Sr48  1  0.12929655  0.38996151  0.12742628  1
  Sr2+  Sr49  1  0.13858093  0.37845767  0.62436144  1
  Sr2+  Sr50  1  0.13887998  0.86960636  0.12896072  1
  Sr2+  Sr51  1  0.12074781  0.87737508  0.61862716  1
  Sr2+  Sr52  1  0.63001160  0.37255708  0.12818373  1
  Sr2+  Sr53  1  0.63841750  0.38580620  0.62293731  1
  Sr2+  Sr54  1  0.63354630  0.87480312  0.12011160  1
  Sr2+  Sr55  1  0.62561846  0.86624650  0.62912187  1
  Sr2+  Sr56  1  0.38433638  0.12305870  0.12337068  1
  Sr2+  Sr57  1  0.38206348  0.13174595  0.62508197  1
  Sr2+  Sr58  1  0.37301426  0.63433469  0.12958852  1
  Sr2+  Sr59  1  0.38916362  0.62749528  0.62740894  1
  Sr2+  Sr60  1  0.88219943  0.13213915  0.12688584  1
  Sr2+  Sr61  1  0.89151285  0.12382947  0.62889582  1
  Sr2+  Sr62  1  0.88680206  0.62856064  0.12131118  1
  Sr2+  Sr63  1  0.85848074  0.62599981  0.62220981  1
  Ca2+  Ca64  1  -0.00087586  -0.00132403  0.00324977  1
  Ca2+  Ca65  1  0.49926528  0.50099437  -0.00099259  1
  Ca2+  Ca66  1  0.49678135  0.49745172  0.50054122  1
  Ca2+  Ca67  1  0.50113992  -0.00290999  0.49693439  1
  Ca2+  Ca68  1  0.00512696  0.49918695  0.50561762  1
  Ca2+  Ca69  1  0.74733318  0.75264936  0.49971854  1
  Ca2+  Ca70  1  0.75039628  0.24881824  0.49565225  1
  Ca2+  Ca71  1  0.25111843  0.74946545  0.50159720  1
  Ca2+  Ca72  1  0.25029338  0.75290043  -0.00204595  1
  Ca2+  Ca73  1  0.24972885  0.24904766  0.00592700  1
  Ca2+  Ca74  1  -0.00256377  0.25331381  0.25109190  1
  Ca2+  Ca75  1  -0.00114010  0.74565035  0.74915515  1
  Ca2+  Ca76  1  0.75186068  0.50186090  0.24897496  1
  Ca2+  Ca77  1  0.75031494  0.49831475  0.75627975  1
  Ca2+  Ca78  1  -0.00288750  0.74973943  0.25206189  1
  Ca2+  Ca79  1  0.24581430  0.49920855  0.25267111  1
  Ca2+  Ca80  1  0.74867593  0.00267722  0.74827576  1
  Ca2+  Ca81  1  0.24964242  -0.00062418  0.74602263  1
  Ca2+  Ca82  1  0.50388454  0.75309955  0.24914058  1
  Ca2+  Ca83  1  0.00107453  0.25181835  0.74889229  1
  Ca2+  Ca84  1  0.50092683  0.24994144  0.75040892  1
  Nb5+  Nb85  1  0.00056541  0.00099939  0.49969571  1
  Nb5+  Nb86  1  -0.00090890  0.50079391  0.00023339  1
  Nb5+  Nb87  1  0.49896068  0.00016402  -0.00079399  1
  Nb5+  Nb88  1  0.74809755  0.24371644  -0.00066759  1
  Nb5+  Nb89  1  0.74653050  0.74450211  -0.00356673  1
  Nb5+  Nb90  1  0.25292532  0.24917066  0.50220108  1
  Nb5+  Nb91  1  0.49713027  0.24774891  0.24823976  1
  Nb5+  Nb92  1  0.50031261  0.74990416  0.75044262  1
  Nb5+  Nb93  1  0.75631067  0.00076826  0.24592605  1
  Nb5+  Nb94  1  0.24935947  0.50003518  0.75535796  1
  Nb5+  Nb95  1  0.25400803  0.00183988  0.24878440  1
  Nb5+  Nb96  1  0.00595634  -0.00447622  0.24668479  1
  Nb5+  Nb97  1  0.00313306  0.00190246  0.75481207  1
  Nb5+  Nb98  1  -0.00055939  0.50389047  0.25965667  1
  Nb5+  Nb99  1  -0.00157483  0.49891842  0.74863027  1
  Nb5+  Nb100  1  0.50594985  0.00055188  0.24947846  1
  Nb5+  Nb101  1  0.49984749  -0.00178935  0.74105825  1
  Nb5+  Nb102  1  0.49962890  0.50799554  0.24287313  1
  Nb5+  Nb103  1  0.49807481  0.49385225  0.75982975  1
  Nb5+  Nb104  1  0.24866351  0.24953967  0.24627193  1
  Nb5+  Nb105  1  0.24788594  0.24876977  0.75841262  1
  Nb5+  Nb106  1  0.24542112  0.74614879  0.25562894  1
  Nb5+  Nb107  1  0.25233514  0.75723670  0.74648824  1
  Nb5+  Nb108  1  0.74984159  0.25037570  0.24816420  1
  Nb5+  Nb109  1  0.75270372  0.24805649  0.74206536  1
  Nb5+  Nb110  1  0.74527200  0.75082769  0.25137796  1
  Nb5+  Nb111  1  0.74891846  0.74680927  0.74976029  1
  Nb5+  Nb112  1  -0.00422707  0.24976877  0.49449933  1
  Nb5+  Nb113  1  0.00316673  0.25098721  1.00812305  1
  Nb5+  Nb114  1  0.00201154  0.74389801  0.50633267  1
  Nb5+  Nb115  1  -0.00008338  0.75616637  0.99330276  1
  Nb5+  Nb116  1  0.49872169  0.25301408  0.50736955  1
  Nb5+  Nb117  1  0.49811436  0.24746869  0.99702194  1
  Nb5+  Nb118  1  0.50350570  0.74443079  0.48850453  1
  Nb5+  Nb119  1  0.50164738  0.74835962  1.00138354  1
  Nb5+  Nb120  1  0.24438526  -0.00717154  -0.00290426  1
  Nb5+  Nb121  1  0.25307714  0.00534025  0.50420681  1
  Nb5+  Nb122  1  0.25191024  0.50531603  0.00495830  1
  Nb5+  Nb123  1  0.25194293  0.50143344  0.49522046  1
  Nb5+  Nb124  1  0.75280634  -0.00357225  0.00283589  1
  Nb5+  Nb125  1  0.75040765  0.00355452  0.50470308  1
  Nb5+  Nb126  1  0.75037190  0.48820042  -0.00140828  1
  Nb5+  Nb127  1  0.75092080  0.49866565  0.49946200  1
  O2-  O128  1  0.00006640  -0.03218243  0.13514857  1
  O2-  O129  1  -0.00338844  -0.01588145  0.61746027  1
  O2-  O130  1  0.01102565  0.48499652  0.11968779  1
  O2-  O131  1  0.01546330  0.46698674  0.63901507  1
  O2-  O132  1  0.49603943  -0.01592819  0.12311954  1
  O2-  O133  1  0.49277258  -0.03171479  0.63101316  1
  O2-  O134  1  0.51544070  0.46740425  0.13061184  1
  O2-  O135  1  0.51074637  0.48018928  0.64141265  1
  O2-  O136  1  0.00115970  0.01879873  0.37554039  1
  O2-  O137  1  0.01037014  0.02400002  0.86851050  1
  O2-  O138  1  -0.00715124  0.52899240  0.37191200  1
  O2-  O139  1  -0.00890924  0.52008074  0.88065406  1
  O2-  O140  1  0.50467396  0.02713264  0.36175415  1
  O2-  O141  1  0.50355840  0.01643807  0.88156108  1
  O2-  O142  1  0.48231440  0.52257187  0.36110770  1
  O2-  O143  1  0.47925744  0.53639451  0.86844554  1
  O2-  O144  1  0.26499786  0.21541533  0.13639290  1
  O2-  O145  1  0.26619047  0.23117152  0.61820772  1
  O2-  O146  1  0.23885254  0.73239747  0.13514963  1
  O2-  O147  1  0.26010917  0.71635281  0.63553097  1
  O2-  O148  1  0.75572113  0.22556086  0.12220430  1
  O2-  O149  1  0.76623874  0.22198856  0.63099333  1
  O2-  O150  1  0.73288645  0.74120541  0.11530505  1
  O2-  O151  1  0.73382237  0.72927943  0.63606965  1
  O2-  O152  1  0.24400885  0.26454340  0.37220128  1
  O2-  O153  1  0.23114483  0.27262557  0.86976925  1
  O2-  O154  1  0.25573776  0.78065351  0.36875867  1
  O2-  O155  1  0.26692801  0.77031951  0.86305677  1
  O2-  O156  1  0.72469525  0.27149166  0.35936360  1
  O2-  O157  1  0.73573374  0.27093834  0.88559305  1
  O2-  O158  1  0.75922690  0.77788918  0.36235204  1
  O2-  O159  1  0.75024012  0.77594151  0.88004715  1
  O2-  O160  1  -0.03544903  0.26676608  0.11775660  1
  O2-  O161  1  -0.02017475  0.26002279  0.61164821  1
  O2-  O162  1  -0.00055747  0.75881182  0.11226992  1
  O2-  O163  1  0.00147640  0.78248829  0.61858761  1
  O2-  O164  1  0.48145328  0.25846428  0.12359356  1
  O2-  O165  1  0.47106247  0.27280382  0.61607420  1
  O2-  O166  1  0.50450999  0.77861117  0.11306755  1
  O2-  O167  1  0.50287895  0.76760633  0.63287116  1
  O2-  O168  1  0.24692997  -0.01385190  0.37069001  1
  O2-  O169  1  0.25113229  -0.02977403  0.88420997  1
  O2-  O170  1  0.28081292  0.48618419  0.38563013  1
  O2-  O171  1  0.26805110  0.48540606  0.87540453  1
  O2-  O172  1  0.75298128  -0.02086656  0.36224347  1
  O2-  O173  1  0.74934197  -0.01398945  0.88718544  1
  O2-  O174  1  0.77505851  0.48942505  0.38174190  1
  O2-  O175  1  0.78531926  0.48573219  0.88796626  1
  O2-  O176  1  0.03343954  0.23371885  0.38209748  1
  O2-  O177  1  0.01015993  0.23585017  0.88966556  1
  O2-  O178  1  -0.00956372  0.73127157  0.38701965  1
  O2-  O179  1  -0.00893740  0.71822418  0.88326427  1
  O2-  O180  1  0.51329816  0.22873551  0.36490235  1
  O2-  O181  1  0.52645149  0.22787805  0.88564251  1
  O2-  O182  1  0.51083010  0.71429072  0.37882589  1
  O2-  O183  1  0.50426372  0.74253587  0.87598367  1
  O2-  O184  1  0.24252067  0.02056035  0.13136493  1
  O2-  O185  1  0.25075139  0.03759270  0.61416318  1
  O2-  O186  1  0.22254224  0.51825513  0.11678817  1
  O2-  O187  1  0.23140900  0.50335782  0.63528676  1
  O2-  O188  1  0.74105954  0.02134197  0.12414717  1
  O2-  O189  1  0.75114356  0.03362785  0.61409933  1
  O2-  O190  1  0.74258519  0.52135114  0.11164582  1
  O2-  O191  1  0.73198297  0.51501385  0.62011513  1
  O2-  O192  1  0.13483950  0.26446123  0.22985561  1
  O2-  O193  1  0.13654454  0.26658684  0.72266915  1
  O2-  O194  1  0.13130663  0.78262511  0.25538644  1
  O2-  O195  1  0.13702996  0.76908204  0.75046264  1
  O2-  O196  1  0.61789403  0.25551799  0.22875512  1
  O2-  O197  1  0.63502216  0.27978113  0.73389112  1
  O2-  O198  1  0.63441239  0.79308492  0.24652291  1
  O2-  O199  1  0.62176224  0.77148631  0.75694082  1
  O2-  O200  1  0.37813321  0.22605683  0.26104815  1
  O2-  O201  1  0.36526069  0.22751411  0.76175840  1
  O2-  O202  1  0.36615894  0.73586956  0.24638423  1
  O2-  O203  1  0.38204208  0.72928283  0.75165033  1
  O2-  O204  1  0.86050957  0.22473002  0.26616437  1
  O2-  O205  1  0.86664152  0.22866328  0.77381383  1
  O2-  O206  1  0.85978866  0.74100561  0.22507465  1
  O2-  O207  1  0.86320515  0.72327553  0.75026539  1
  O2-  O208  1  0.27587797  0.36133707  0.23184910  1
  O2-  O209  1  0.27120534  0.37490357  0.74076097  1
  O2-  O210  1  0.26763930  0.88472840  0.23196604  1
  O2-  O211  1  0.27561387  0.86569260  0.71754336  1
  O2-  O212  1  0.76069340  0.36263117  0.21986744  1
  O2-  O213  1  0.77934251  0.36571045  0.73494540  1
  O2-  O214  1  0.76589454  0.88647571  0.22001036  1
  O2-  O215  1  0.76828063  0.86557112  0.73418306  1
  O2-  O216  1  0.23180938  0.12182730  0.27088718  1
  O2-  O217  1  0.22789570  0.13344603  0.77374217  1
  O2-  O218  1  0.22992149  0.63434140  0.28257989  1
  O2-  O219  1  0.23593212  0.61846784  0.77082038  1
  O2-  O220  1  0.72540356  0.12140407  0.25892819  1
  O2-  O221  1  0.72192561  0.13650585  0.77282499  1
  O2-  O222  1  0.71607905  0.63999770  0.26253636  1
  O2-  O223  1  0.72520857  0.63444543  0.78037529  1
  O2-  O224  1  0.11356346  0.46150866  0.26311359  1
  O2-  O225  1  0.13263319  0.47886886  0.77198857  1
  O2-  O226  1  0.12363852  0.98239743  0.25248011  1
  O2-  O227  1  0.11710024  0.96766520  0.74133302  1
  O2-  O228  1  0.61505868  0.48021075  0.26739698  1
  O2-  O229  1  0.61367747  0.48386576  0.77714735  1
  O2-  O230  1  0.62197606  0.98519646  0.24558689  1
  O2-  O231  1  0.61434390  0.97419181  0.75639356  1
  O2-  O232  1  0.37108003  0.02111337  0.24766729  1
  O2-  O233  1  0.38498288  0.01470136  0.76450696  1
  O2-  O234  1  0.38118085  0.51152623  0.22368822  1
  O2-  O235  1  0.37158225  0.51603286  0.73698566  1
  O2-  O236  1  0.87056866  0.02432898  0.24410120  1
  O2-  O237  1  0.88439233  0.02367044  0.74676445  1
  O2-  O238  1  0.88563051  0.53303985  0.23439187  1
  O2-  O239  1  0.88685191  0.52582390  0.73652067  1
  O2-  O240  1  0.48215443  0.36389002  0.26291744  1
  O2-  O241  1  0.47585173  0.38330905  0.78493172  1
  O2-  O242  1  0.47432302  0.88974969  0.26606440  1
  O2-  O243  1  0.48169683  0.87093222  0.76854051  1
  O2-  O244  1  0.96222256  0.38734576  0.26542803  1
  O2-  O245  1  0.98936674  0.38503036  0.78319117  1
  O2-  O246  1  0.97146285  0.88634342  0.27466839  1
  O2-  O247  1  0.97633965  0.88337891  0.76972314  1
  O2-  O248  1  0.01161334  0.11342698  0.22903150  1
  O2-  O249  1  0.02506894  0.11638053  0.72701470  1
  O2-  O250  1  0.03595195  0.61605042  0.23483516  1
  O2-  O251  1  0.03667861  0.61096663  0.73977835  1
  O2-  O252  1  0.50908234  0.12220900  0.22311915  1
  O2-  O253  1  0.51859612  0.11309215  0.72111721  1
  O2-  O254  1  0.51542546  0.61843028  0.21412976  1
  O2-  O255  1  0.51845658  0.63075967  0.73709300  1
  O2-  O256  1  0.11996977  0.48191408  -0.01402029  1
  O2-  O257  1  0.14029440  0.46350423  0.49373008  1
  O2-  O258  1  0.13247190  0.96706478  0.00396226  1
  O2-  O259  1  0.12494205  0.99076270  0.49595054  1
  O2-  O260  1  0.63700726  0.48112708  -0.02271986  1
  O2-  O261  1  0.63277428  0.47539900  0.48173390  1
  O2-  O262  1  0.62387654  0.98888112  0.00348932  1
  O2-  O263  1  0.63725737  0.97879416  0.49712029  1
  O2-  O264  1  0.37938016  0.01970069  -0.00024497  1
  O2-  O265  1  0.36615571  0.02292638  0.48858650  1
  O2-  O266  1  0.36492569  0.52771926  0.02025048  1
  O2-  O267  1  0.36364737  0.51152091  0.53337962  1
  O2-  O268  1  0.86383561  0.02987777  0.00530385  1
  O2-  O269  1  0.88145071  0.02310988  0.49596305  1
  O2-  O270  1  0.87879969  0.51615082  0.01625884  1
  O2-  O271  1  0.87075741  0.52118760  0.51892581  1
  O2-  O272  1  0.48369337  0.36241031  -0.01820899  1
  O2-  O273  1  0.48239228  0.36265856  0.46573716  1
  O2-  O274  1  0.48673128  0.88104061  -0.01823208  1
  O2-  O275  1  0.46879289  0.86166238  0.47845715  1
  O2-  O276  1  0.97944539  0.37853824  -0.01418958  1
  O2-  O277  1  0.98701460  0.36494714  0.47620640  1
  O2-  O278  1  0.96728809  0.86566364  -0.02494119  1
  O2-  O279  1  0.98757150  0.88392980  0.48226074  1
  O2-  O280  1  0.01875119  0.13550788  0.02647551  1
  O2-  O281  1  0.01933140  0.12372359  0.51515580  1
  O2-  O282  1  0.01298997  0.62148320  0.01546116  1
  O2-  O283  1  0.03084274  0.63364318  0.52638812  1
  O2-  O284  1  0.51714489  0.12124537  0.01967936  1
  O2-  O285  1  0.51513637  0.13462766  0.51874835  1
  O2-  O286  1  0.53284337  0.63769791  0.01426692  1
  O2-  O287  1  0.52602268  0.63254947  0.52556709  1
  O2-  O288  1  0.11445482  0.27678423  0.02427644  1
  O2-  O289  1  0.13351797  0.26391197  0.51551536  1
  O2-  O290  1  0.11408988  0.77605125  -0.01194456  1
  O2-  O291  1  0.11751607  0.77651307  0.49446434  1
  O2-  O292  1  0.62574512  0.26443452  0.01990369  1
  O2-  O293  1  0.61478821  0.26800232  0.52009196  1
  O2-  O294  1  0.62774222  0.77776693  -0.00755777  1
  O2-  O295  1  0.61518871  0.78631809  0.49974350  1
  O2-  O296  1  0.38449916  0.22477230  -0.01758878  1
  O2-  O297  1  0.37372294  0.22783275  0.48289349  1
  O2-  O298  1  0.38735264  0.72748644  0.00100928  1
  O2-  O299  1  0.38542586  0.72056182  0.50088408  1
  O2-  O300  1  0.86616862  0.23313934  -0.01387753  1
  O2-  O301  1  0.88508598  0.23026811  0.46898968  1
  O2-  O302  1  0.86533585  0.73349317  0.00398217  1
  O2-  O303  1  0.88244414  0.72984821  0.51149275  1
  O2-  O304  1  0.27048079  0.38611310  0.01595059  1
  O2-  O305  1  0.27499520  0.36577575  0.51142635  1
  O2-  O306  1  0.27869907  0.88510862  0.03164732  1
  O2-  O307  1  0.26343733  0.89037641  0.52175350  1
  O2-  O308  1  0.76437914  0.37350913  0.02244637  1
  O2-  O309  1  0.77410942  0.38063860  0.51867239  1
  O2-  O310  1  0.76725040  0.88150472  0.02080807  1
  O2-  O311  1  0.78267723  0.88978843  0.51319797  1
  O2-  O312  1  0.22996265  0.11122841  -0.01680345  1
  O2-  O313  1  0.23354049  0.12925118  0.47677551  1
  O2-  O314  1  0.22664161  0.61758198  -0.02532780  1
  O2-  O315  1  0.22410675  0.61276084  0.48463984  1
  O2-  O316  1  0.72764676  0.12810341  -0.01430406  1
  O2-  O317  1  0.74117928  0.11425579  0.46220478  1
  O2-  O318  1  0.73093681  0.63045869  -0.02029954  1
  O2-  O319  1  0.73231525  0.61825982  0.48136472  1
