# generated using pymatgen
data_Sr64Ca21Nb43O192
_symmetry_space_group_name_H-M   'P 1'
_cell_length_a   16.53633614
_cell_length_b   16.53014341
_cell_length_c   16.70566569
_cell_angle_alpha   90.03766857
_cell_angle_beta   89.97136252
_cell_angle_gamma   89.98072358
_symmetry_Int_Tables_number   1
_chemical_formula_structural   Sr64Ca21Nb43O192
_chemical_formula_sum   'Sr64 Ca21 Nb43 O192'
_cell_volume   4566.45862054
_cell_formula_units_Z   1
loop_
 _symmetry_equiv_pos_site_id
 _symmetry_equiv_pos_as_xyz
  1  'x, y, z'
loop_
 _atom_type_symbol
 _atom_type_oxidation_number
  Sr2+  2.0
  Ca2+  2.0
  Nb5+  5.0
  O2-  -2.0
loop_
 _atom_site_type_symbol
 _atom_site_label
 _atom_site_symmetry_multiplicity
 _atom_site_fract_x
 _atom_site_fract_y
 _atom_site_fract_z
 _atom_site_occupancy
  Sr2+  Sr0  1  0.12382827  0.13680446  0.12632552  1
  Sr2+  Sr1  1  0.13354694  0.10504265  0.62142722  1
  Sr2+  Sr2  1  0.14027271  0.63272117  0.12487030  1
  Sr2+  Sr3  1  0.12198003  0.61073885  0.62883633  1
  Sr2+  Sr4  1  0.62236244  0.11874117  0.12159768  1
  Sr2+  Sr5  1  0.62558919  0.12302929  0.61954130  1
  Sr2+  Sr6  1  0.62352601  0.61655225  0.12780595  1
  Sr2+  Sr7  1  0.62606333  0.62655697  0.62192431  1
  Sr2+  Sr8  1  0.36584310  0.39840377  0.13050903  1
  Sr2+  Sr9  1  0.36394066  0.36350630  0.62040764  1
  Sr2+  Sr10  1  0.37064836  0.86339174  0.12127486  1
  Sr2+  Sr11  1  0.37015924  0.87996739  0.62742583  1
  Sr2+  Sr12  1  0.88472238  0.36901198  0.13478620  1
  Sr2+  Sr13  1  0.87978262  0.37409362  0.61784386  1
  Sr2+  Sr14  1  0.87459355  0.87899414  0.12140772  1
  Sr2+  Sr15  1  0.87683015  0.87061202  0.62799541  1
  Sr2+  Sr16  1  0.13901659  0.37416967  0.37526515  1
  Sr2+  Sr17  1  0.12805936  0.37989826  0.88380574  1
  Sr2+  Sr18  1  0.14170748  0.87750644  0.36746496  1
  Sr2+  Sr19  1  0.14320642  0.87491465  0.87547133  1
  Sr2+  Sr20  1  0.62061835  0.37541796  0.37490008  1
  Sr2+  Sr21  1  0.62254969  0.37100911  0.87424838  1
  Sr2+  Sr22  1  0.62804273  0.87436126  0.36342820  1
  Sr2+  Sr23  1  0.63095154  0.87957725  0.87265972  1
  Sr2+  Sr24  1  0.35144763  0.12260286  0.37539456  1
  Sr2+  Sr25  1  0.38005954  0.13119323  0.87237163  1
  Sr2+  Sr26  1  0.36265067  0.62041398  0.37123655  1
  Sr2+  Sr27  1  0.38996728  0.61393566  0.87432844  1
  Sr2+  Sr28  1  0.87424712  0.12544248  0.37006675  1
  Sr2+  Sr29  1  0.89278634  0.12155103  0.87737297  1
  Sr2+  Sr30  1  0.87326531  0.61818350  0.37649382  1
  Sr2+  Sr31  1  0.88890479  0.62337837  0.87719715  1
  Sr2+  Sr32  1  0.12514050  0.12597959  0.36902511  1
  Sr2+  Sr33  1  0.13379130  0.13499801  0.88421829  1
  Sr2+  Sr34  1  0.12707940  0.62233377  0.37924070  1
  Sr2+  Sr35  1  0.13077115  0.61370581  0.86663983  1
  Sr2+  Sr36  1  0.62159374  0.11888146  0.37629739  1
  Sr2+  Sr37  1  0.63246700  0.12914453  0.87396398  1
  Sr2+  Sr38  1  0.63206479  0.61530291  0.37167119  1
  Sr2+  Sr39  1  0.63386967  0.59448125  0.87471002  1
  Sr2+  Sr40  1  0.37752167  0.37652372  0.36728529  1
  Sr2+  Sr41  1  0.37258234  0.37129890  0.88017737  1
  Sr2+  Sr42  1  0.36974887  0.87235872  0.36593955  1
  Sr2+  Sr43  1  0.38642581  0.87322663  0.87644904  1
  Sr2+  Sr44  1  0.86899777  0.37114424  0.37232110  1
  Sr2+  Sr45  1  0.87199097  0.37295468  0.87671689  1
  Sr2+  Sr46  1  0.86872510  0.85450593  0.36772523  1
  Sr2+  Sr47  1  0.87747403  0.87413420  0.87441919  1
  Sr2+  Sr48  1  0.12559609  0.37271119  0.12787119  1
  Sr2+  Sr49  1  0.11680877  0.38226350  0.62190516  1
  Sr2+  Sr50  1  0.14616809  0.87791047  0.12694579  1
  Sr2+  Sr51  1  0.14614454  0.87359531  0.62342829  1
  Sr2+  Sr52  1  0.60116571  0.38135938  0.13201224  1
  Sr2+  Sr53  1  0.61621191  0.36924043  0.62468680  1
  Sr2+  Sr54  1  0.62190292  0.87927674  0.12337237  1
  Sr2+  Sr55  1  0.62423277  0.87965975  0.62499029  1
  Sr2+  Sr56  1  0.38297835  0.12078057  0.12238022  1
  Sr2+  Sr57  1  0.36859478  0.12463686  0.62403783  1
  Sr2+  Sr58  1  0.37415010  0.62295082  0.13354575  1
  Sr2+  Sr59  1  0.37869506  0.62855263  0.63287495  1
  Sr2+  Sr60  1  0.88807466  0.12638911  0.12919763  1
  Sr2+  Sr61  1  0.87394188  0.12174940  0.62389716  1
  Sr2+  Sr62  1  0.86707021  0.62263851  0.12930118  1
  Sr2+  Sr63  1  0.88081713  0.62408995  0.61782920  1
  Ca2+  Ca64  1  0.00097983  0.50348834  0.00350089  1
  Ca2+  Ca65  1  0.49918656  0.50386164  0.50529540  1
  Ca2+  Ca66  1  0.49881851  0.00020877  0.50288335  1
  Ca2+  Ca67  1  0.49814984  0.50072221  -0.00014071  1
  Ca2+  Ca68  1  -0.00016555  -0.00560436  0.49874884  1
  Ca2+  Ca69  1  0.25458316  0.25120445  0.00389645  1
  Ca2+  Ca70  1  0.25213579  0.74750695  0.50443683  1
  Ca2+  Ca71  1  0.75116186  0.24735873  0.00408929  1
  Ca2+  Ca72  1  0.25188615  0.74453827  -0.00797447  1
  Ca2+  Ca73  1  0.24458183  0.24984140  0.50013320  1
  Ca2+  Ca74  1  0.25099299  0.00340271  0.75518879  1
  Ca2+  Ca75  1  0.24350708  0.50038785  0.25204622  1
  Ca2+  Ca76  1  0.49903995  0.24603307  0.25017617  1
  Ca2+  Ca77  1  0.75191835  0.00182406  0.25031490  1
  Ca2+  Ca78  1  0.74986569  0.49558651  0.24945993  1
  Ca2+  Ca79  1  0.00187908  0.24729332  0.74747592  1
  Ca2+  Ca80  1  0.00032481  0.74834293  0.24722739  1
  Ca2+  Ca81  1  0.50027583  0.75095475  0.25039962  1
  Ca2+  Ca82  1  0.25296852  0.49551092  0.74767837  1
  Ca2+  Ca83  1  0.75424995  0.49960883  0.74700969  1
  Ca2+  Ca84  1  0.25330442  0.00270007  0.24228689  1
  Nb5+  Nb85  1  0.00773762  -0.00499111  0.00109653  1
  Nb5+  Nb86  1  0.50709417  -0.00044474  -0.00346937  1
  Nb5+  Nb87  1  -0.00181883  0.49852678  0.49584922  1
  Nb5+  Nb88  1  0.74700438  0.74939275  -0.00978819  1
  Nb5+  Nb89  1  0.74804042  0.24562238  0.49711852  1
  Nb5+  Nb90  1  0.74658131  0.74625385  0.49716818  1
  Nb5+  Nb91  1  0.50020141  0.24140933  0.74922026  1
  Nb5+  Nb92  1  0.00630820  0.75439966  0.74947226  1
  Nb5+  Nb93  1  0.00066929  0.25079938  0.25438536  1
  Nb5+  Nb94  1  0.75220905  0.00203203  0.75007891  1
  Nb5+  Nb95  1  0.50968052  0.74625724  0.75508207  1
  Nb5+  Nb96  1  -0.00179453  -0.00293813  0.25331479  1
  Nb5+  Nb97  1  0.00498592  -0.00418388  0.75080546  1
  Nb5+  Nb98  1  0.00197294  0.50286073  0.24713992  1
  Nb5+  Nb99  1  -0.00731245  0.49384173  0.75171360  1
  Nb5+  Nb100  1  0.50089447  -0.00042920  0.25449749  1
  Nb5+  Nb101  1  0.49998222  -0.00200264  0.74938773  1
  Nb5+  Nb102  1  0.49906935  0.50165263  0.25459817  1
  Nb5+  Nb103  1  0.49788045  0.48714473  0.74631308  1
  Nb5+  Nb104  1  0.25347209  0.24759633  0.24802064  1
  Nb5+  Nb105  1  0.24254330  0.25482455  0.74966848  1
  Nb5+  Nb106  1  0.24957383  0.74869939  0.25116107  1
  Nb5+  Nb107  1  0.26077800  0.74850839  0.75467737  1
  Nb5+  Nb108  1  0.74681811  0.24744650  0.24739493  1
  Nb5+  Nb109  1  0.75463263  0.24970309  0.74814078  1
  Nb5+  Nb110  1  0.74976928  0.75031413  0.23735969  1
  Nb5+  Nb111  1  0.75234275  0.74837435  0.74833500  1
  Nb5+  Nb112  1  0.00050540  0.24725968  0.50076008  1
  Nb5+  Nb113  1  -0.00427701  0.25522961  0.99747908  1
  Nb5+  Nb114  1  0.00023191  0.75074451  0.50001942  1
  Nb5+  Nb115  1  0.00117694  0.75393569  1.00010714  1
  Nb5+  Nb116  1  0.49691292  0.24934021  0.49881113  1
  Nb5+  Nb117  1  0.49963026  0.25195541  1.00389158  1
  Nb5+  Nb118  1  0.49955989  0.75303635  0.49836618  1
  Nb5+  Nb119  1  0.50350042  0.74751909  0.99529547  1
  Nb5+  Nb120  1  0.26156001  0.00120913  -0.00437049  1
  Nb5+  Nb121  1  0.25232314  -0.00301668  0.49717541  1
  Nb5+  Nb122  1  0.24811344  0.50228304  -0.00023499  1
  Nb5+  Nb123  1  0.25451931  0.50237519  0.50306396  1
  Nb5+  Nb124  1  0.75527244  0.00191836  -0.00056686  1
  Nb5+  Nb125  1  0.75507560  -0.00982472  0.49801505  1
  Nb5+  Nb126  1  0.75691148  0.49086094  0.00403009  1
  Nb5+  Nb127  1  0.74890563  0.49283125  0.50382802  1
  O2-  O128  1  -0.01224436  -0.00407349  0.11727347  1
  O2-  O129  1  -0.01465867  0.00332720  0.63701608  1
  O2-  O130  1  -0.00949123  0.48068601  0.13525841  1
  O2-  O131  1  -0.00394889  0.49182300  0.62115845  1
  O2-  O132  1  0.50012830  0.01761289  0.11280998  1
  O2-  O133  1  0.50028285  0.02617051  0.63826629  1
  O2-  O134  1  0.50487014  0.51619486  0.13228322  1
  O2-  O135  1  0.50921994  0.53246483  0.63878423  1
  O2-  O136  1  0.00832607  0.01781679  0.36550047  1
  O2-  O137  1  -0.00487738  -0.00964622  0.87753239  1
  O2-  O138  1  0.00117622  0.51991490  0.37960763  1
  O2-  O139  1  -0.00273902  0.49531246  0.86740866  1
  O2-  O140  1  0.50754732  -0.01736270  0.36836220  1
  O2-  O141  1  0.50808336  -0.01545412  0.87369794  1
  O2-  O142  1  0.49208891  0.48116906  0.37258933  1
  O2-  O143  1  0.49202938  0.47880746  0.86552638  1
  O2-  O144  1  0.22848470  0.25917419  0.13449507  1
  O2-  O145  1  0.26245197  0.24943862  0.63256892  1
  O2-  O146  1  0.26129532  0.74370969  0.12827188  1
  O2-  O147  1  0.26354977  0.77126281  0.63811393  1
  O2-  O148  1  0.75113340  0.21394707  0.13772027  1
  O2-  O149  1  0.75545769  0.23367551  0.61995885  1
  O2-  O150  1  0.75978780  0.74554896  0.11918936  1
  O2-  O151  1  0.75738402  0.74614799  0.62943447  1
  O2-  O152  1  0.24354424  0.24340773  0.36698244  1
  O2-  O153  1  0.25469950  0.24254442  0.86755803  1
  O2-  O154  1  0.24223942  0.75483713  0.37103877  1
  O2-  O155  1  0.21604345  0.73826349  0.86185857  1
  O2-  O156  1  0.74579233  0.27524666  0.38278502  1
  O2-  O157  1  0.74831175  0.26298366  0.86358248  1
  O2-  O158  1  0.74030929  0.76191256  0.38141059  1
  O2-  O159  1  0.73640384  0.76542117  0.87233998  1
  O2-  O160  1  0.00089519  0.25654813  0.12800301  1
  O2-  O161  1  -0.01709847  0.26291707  0.61424801  1
  O2-  O162  1  -0.03106986  0.74646047  0.11035881  1
  O2-  O163  1  -0.02084426  0.75154478  0.63054720  1
  O2-  O164  1  0.50897896  0.22328998  0.11401453  1
  O2-  O165  1  0.50478439  0.22967755  0.63136433  1
  O2-  O166  1  0.49194649  0.73536100  0.10961945  1
  O2-  O167  1  0.49461605  0.72954297  0.63981082  1
  O2-  O168  1  0.24918081  -0.00427609  0.37755071  1
  O2-  O169  1  0.22584915  0.01678165  0.88487822  1
  O2-  O170  1  0.24324342  0.51086131  0.38555305  1
  O2-  O171  1  0.23990691  0.49454424  0.87993680  1
  O2-  O172  1  0.74891259  -0.02491292  0.38532306  1
  O2-  O173  1  0.74383867  -0.00778173  0.87186447  1
  O2-  O174  1  0.75032285  0.50425620  0.38680978  1
  O2-  O175  1  0.75989033  0.48810643  0.88278030  1
  O2-  O176  1  -0.00227415  0.23689887  0.37531608  1
  O2-  O177  1  -0.00613791  0.24821763  0.88141365  1
  O2-  O178  1  0.00217610  0.73143782  0.38677463  1
  O2-  O179  1  0.00134901  0.76564649  0.86923941  1
  O2-  O180  1  0.50502214  0.27230901  0.38598459  1
  O2-  O181  1  0.49810035  0.27134017  0.86728034  1
  O2-  O182  1  0.50446320  0.78414283  0.38814300  1
  O2-  O183  1  0.51277694  0.78306509  0.87033700  1
  O2-  O184  1  0.26501839  -0.02322844  0.11070216  1
  O2-  O185  1  0.25313181  -0.00328198  0.62012846  1
  O2-  O186  1  0.25076753  0.51054839  0.11978064  1
  O2-  O187  1  0.23314133  0.47774486  0.61590962  1
  O2-  O188  1  0.74722020  0.00330232  0.11382953  1
  O2-  O189  1  0.76066884  0.00558471  0.63130997  1
  O2-  O190  1  0.74498871  0.52108169  0.11707274  1
  O2-  O191  1  0.75525706  0.52576098  0.61533295  1
  O2-  O192  1  0.11658375  0.27413390  0.25764760  1
  O2-  O193  1  0.13301813  0.29422573  0.74961968  1
  O2-  O194  1  0.13159604  0.78115813  0.23998298  1
  O2-  O195  1  0.11751675  0.77539782  0.73533666  1
  O2-  O196  1  0.63494046  0.27692547  0.24699951  1
  O2-  O197  1  0.62593190  0.26494303  0.74472245  1
  O2-  O198  1  0.63496341  0.78118623  0.24248613  1
  O2-  O199  1  0.62319326  0.77604247  0.74043899  1
  O2-  O200  1  0.36529400  0.21691512  0.24358465  1
  O2-  O201  1  0.38464554  0.22134594  0.74899130  1
  O2-  O202  1  0.36776225  0.72036029  0.26003543  1
  O2-  O203  1  0.37826040  0.73344605  0.76990461  1
  O2-  O204  1  0.87943726  0.22799183  0.25254326  1
  O2-  O205  1  0.86479163  0.21286338  0.75130657  1
  O2-  O206  1  0.86348318  0.72265888  0.26589408  1
  O2-  O207  1  0.86711940  0.73579466  0.76192794  1
  O2-  O208  1  0.27490088  0.36632717  0.25649223  1
  O2-  O209  1  0.29288680  0.36350450  0.75411088  1
  O2-  O210  1  0.27677997  0.86746203  0.24864367  1
  O2-  O211  1  0.27071002  0.86804496  0.77194893  1
  O2-  O212  1  0.78249753  0.36115402  0.24288217  1
  O2-  O213  1  0.77337230  0.36240945  0.72870788  1
  O2-  O214  1  0.78114097  0.86590653  0.24317118  1
  O2-  O215  1  0.76185256  0.87762941  0.74430037  1
  O2-  O216  1  0.21536049  0.13279183  0.24700721  1
  O2-  O217  1  0.21788036  0.13672759  0.74464496  1
  O2-  O218  1  0.21616493  0.63355973  0.25489285  1
  O2-  O219  1  0.23470364  0.63454919  0.73114028  1
  O2-  O220  1  0.74077798  0.13688622  0.29124301  1
  O2-  O221  1  0.72442650  0.12012571  0.75120646  1
  O2-  O222  1  0.72162595  0.63525812  0.25028042  1
  O2-  O223  1  0.72023636  0.63886073  0.75786878  1
  O2-  O224  1  0.11209853  0.46166484  0.25725619  1
  O2-  O225  1  0.11062813  0.49096474  0.74358427  1
  O2-  O226  1  0.11411170  0.97932232  0.23513808  1
  O2-  O227  1  0.11445736  0.96404213  0.74397487  1
  O2-  O228  1  0.61715510  0.46965332  0.25477969  1
  O2-  O229  1  0.61761684  0.48049857  0.75705015  1
  O2-  O230  1  0.61906329  0.97024053  0.24167708  1
  O2-  O231  1  0.62585242  0.98340689  0.74707196  1
  O2-  O232  1  0.38776870  0.03727148  0.25163359  1
  O2-  O233  1  0.38656781  0.02376922  0.76148337  1
  O2-  O234  1  0.38036092  0.52559515  0.25162091  1
  O2-  O235  1  0.38659295  0.52883724  0.74817763  1
  O2-  O236  1  0.88481168  0.03232052  0.24506962  1
  O2-  O237  1  0.86920216  0.01803770  0.76137242  1
  O2-  O238  1  0.88452467  0.52126273  0.25928880  1
  O2-  O239  1  0.88508844  0.54137318  0.74535780  1
  O2-  O240  1  0.47520398  0.38123549  0.23116060  1
  O2-  O241  1  0.48423547  0.37251792  0.72442038  1
  O2-  O242  1  0.47138129  0.88684634  0.22693880  1
  O2-  O243  1  0.48307406  0.88119401  0.73650917  1
  O2-  O244  1  0.97326559  0.36852166  0.26317030  1
  O2-  O245  1  0.96177889  0.38288450  0.74901769  1
  O2-  O246  1  0.96935107  0.88454051  0.25739880  1
  O2-  O247  1  0.96728287  0.87420444  0.74964678  1
  O2-  O248  1  0.02050761  0.13052422  0.23875271  1
  O2-  O249  1  0.02462468  0.11075148  0.76275501  1
  O2-  O250  1  0.03134111  0.61363203  0.23578897  1
  O2-  O251  1  0.01833765  0.63655496  0.75376963  1
  O2-  O252  1  0.54005303  0.11418527  0.25137626  1
  O2-  O253  1  0.52313162  0.12759623  0.77218036  1
  O2-  O254  1  0.52960144  0.61747449  0.26444074  1
  O2-  O255  1  0.52074109  0.63525343  0.78080743  1
  O2-  O256  1  0.13096099  0.46283160  0.00686813  1
  O2-  O257  1  0.11432541  0.47679106  0.49744823  1
  O2-  O258  1  0.11951222  0.97074450  0.00576542  1
  O2-  O259  1  0.13356379  0.96444102  0.50351614  1
  O2-  O260  1  0.63640645  0.47709852  -0.00545967  1
  O2-  O261  1  0.63429017  0.47595830  0.50616900  1
  O2-  O262  1  0.62303190  0.97705962  -0.00147205  1
  O2-  O263  1  0.63930644  0.99285629  0.51793441  1
  O2-  O264  1  0.37805097  0.02012212  -0.01648834  1
  O2-  O265  1  0.36755286  0.03558646  0.49854299  1
  O2-  O266  1  0.36552834  0.53776726  0.00016917  1
  O2-  O267  1  0.36503424  0.53547065  0.51181264  1
  O2-  O268  1  0.87080907  0.01807537  -0.00660492  1
  O2-  O269  1  0.86432756  0.03301019  0.50059205  1
  O2-  O270  1  0.86578692  0.54050228  0.00278442  1
  O2-  O271  1  0.87536206  0.52068475  0.49909712  1
  O2-  O272  1  0.47494645  0.36391546  0.02089406  1
  O2-  O273  1  0.48917022  0.36434675  0.53289394  1
  O2-  O274  1  0.48122884  0.88083603  0.00976035  1
  O2-  O275  1  0.49178439  0.86452736  0.54096033  1
  O2-  O276  1  0.96764108  0.36618999  -0.00238495  1
  O2-  O277  1  0.97100498  0.38193663  0.48760367  1
  O2-  O278  1  0.96795058  0.87725398  -0.00309343  1
  O2-  O279  1  0.96228566  0.86111065  0.49563130  1
  O2-  O280  1  0.02108388  0.11405831  -0.00290596  1
  O2-  O281  1  0.02280608  0.13557713  0.51046779  1
  O2-  O282  1  0.01590107  0.64066395  -0.02032478  1
  O2-  O283  1  0.01008983  0.62414423  0.51784578  1
  O2-  O284  1  0.52314284  0.11838358  -0.02183998  1
  O2-  O285  1  0.53547835  0.13779004  0.49558065  1
  O2-  O286  1  0.52883996  0.63759515  -0.02711218  1
  O2-  O287  1  0.54134601  0.64226260  0.49307123  1
  O2-  O288  1  0.11406410  0.26308164  -0.00374122  1
  O2-  O289  1  0.10968405  0.28609418  0.50036524  1
  O2-  O290  1  0.11126152  0.78059278  0.01400073  1
  O2-  O291  1  0.11162536  0.77324889  0.51325869  1
  O2-  O292  1  0.61633079  0.26922373  -0.01040692  1
  O2-  O293  1  0.63315970  0.27481363  0.50839532  1
  O2-  O294  1  0.62632568  0.78110200  0.00316264  1
  O2-  O295  1  0.63347898  0.77838231  0.51443513  1
  O2-  O296  1  0.38744673  0.21556387  -0.00655628  1
  O2-  O297  1  0.38470759  0.22501345  0.49984199  1
  O2-  O298  1  0.38922528  0.73865824  -0.02876965  1
  O2-  O299  1  0.38913437  0.72013538  0.49832633  1
  O2-  O300  1  0.88493498  0.21220950  0.00429412  1
  O2-  O301  1  0.87218818  0.23760058  0.48974923  1
  O2-  O302  1  0.86462134  0.73899040  -0.02250816  1
  O2-  O303  1  0.86596030  0.72700637  0.49689797  1
  O2-  O304  1  0.28403461  0.38463812  0.00235876  1
  O2-  O305  1  0.27885702  0.38414975  0.48596742  1
  O2-  O306  1  0.26804751  0.88182769  -0.02436164  1
  O2-  O307  1  0.28824437  0.88171823  0.49672738  1
  O2-  O308  1  0.78808466  0.38108978  0.01617910  1
  O2-  O309  1  0.77314015  0.37825276  0.51360125  1
  O2-  O310  1  0.76584740  0.87705206  0.00111547  1
  O2-  O311  1  0.77326159  0.87519242  0.51546758  1
  O2-  O312  1  0.22845416  0.11284352  0.01856935  1
  O2-  O313  1  0.21587614  0.11511368  0.49690339  1
  O2-  O314  1  0.20811057  0.61609270  -0.00588195  1
  O2-  O315  1  0.21314829  0.61618841  0.51088185  1
  O2-  O316  1  0.72336469  0.11282541  -0.01151244  1
  O2-  O317  1  0.73202384  0.13101615  0.48556208  1
  O2-  O318  1  0.72177982  0.63671132  -0.00854280  1
  O2-  O319  1  0.72680632  0.63183775  0.49495729  1
