# generated using pymatgen
data_Sr64Ca21Nb43O192
_symmetry_space_group_name_H-M   'P 1'
_cell_length_a   16.54680405
_cell_length_b   16.53999806
_cell_length_c   16.65240260
_cell_angle_alpha   90.05245741
_cell_angle_beta   90.07981223
_cell_angle_gamma   90.02071829
_symmetry_Int_Tables_number   1
_chemical_formula_structural   Sr64Ca21Nb43O192
_chemical_formula_sum   'Sr64 Ca21 Nb43 O192'
_cell_volume   4557.49130259
_cell_formula_units_Z   1
loop_
 _symmetry_equiv_pos_site_id
 _symmetry_equiv_pos_as_xyz
  1  'x, y, z'
loop_
 _atom_type_symbol
 _atom_type_oxidation_number
  Sr2+  2.0
  Ca2+  2.0
  Nb5+  5.0
  O2-  -2.0
loop_
 _atom_site_type_symbol
 _atom_site_label
 _atom_site_symmetry_multiplicity
 _atom_site_fract_x
 _atom_site_fract_y
 _atom_site_fract_z
 _atom_site_occupancy
  Sr2+  Sr0  1  0.12823961  0.11064030  0.13272097  1
  Sr2+  Sr1  1  0.14168399  0.12027628  0.62169954  1
  Sr2+  Sr2  1  0.13456877  0.62104837  0.12603028  1
  Sr2+  Sr3  1  0.12643145  0.61284525  0.62480934  1
  Sr2+  Sr4  1  0.63653817  0.11413054  0.12855318  1
  Sr2+  Sr5  1  0.62755494  0.11237842  0.62696326  1
  Sr2+  Sr6  1  0.62607391  0.60871715  0.12328275  1
  Sr2+  Sr7  1  0.64110367  0.62263073  0.62436047  1
  Sr2+  Sr8  1  0.38551708  0.36780356  0.12877548  1
  Sr2+  Sr9  1  0.37447417  0.35726251  0.62882612  1
  Sr2+  Sr10  1  0.37652939  0.86003969  0.12234616  1
  Sr2+  Sr11  1  0.38928616  0.87620083  0.62222589  1
  Sr2+  Sr12  1  0.87845543  0.36207833  0.12119635  1
  Sr2+  Sr13  1  0.89004439  0.37312961  0.62456530  1
  Sr2+  Sr14  1  0.88528952  0.86489948  0.13239321  1
  Sr2+  Sr15  1  0.87790640  0.86171809  0.62671752  1
  Sr2+  Sr16  1  0.11476259  0.38005751  0.36974248  1
  Sr2+  Sr17  1  0.12355411  0.39030566  0.87433068  1
  Sr2+  Sr18  1  0.12084094  0.88834436  0.37061048  1
  Sr2+  Sr19  1  0.11263772  0.87787480  0.87909597  1
  Sr2+  Sr20  1  0.61656449  0.38495861  0.37763548  1
  Sr2+  Sr21  1  0.61248530  0.37610123  0.87597960  1
  Sr2+  Sr22  1  0.60938717  0.87755315  0.37453040  1
  Sr2+  Sr23  1  0.61859962  0.88881031  0.87469715  1
  Sr2+  Sr24  1  0.35628963  0.12654507  0.37955772  1
  Sr2+  Sr25  1  0.37012402  0.13761083  0.87444130  1
  Sr2+  Sr26  1  0.37638845  0.63562849  0.36736222  1
  Sr2+  Sr27  1  0.36178956  0.62804332  0.87613753  1
  Sr2+  Sr28  1  0.87260672  0.13814575  0.37570872  1
  Sr2+  Sr29  1  0.86135420  0.12929390  0.87450385  1
  Sr2+  Sr30  1  0.85914970  0.62688697  0.37678253  1
  Sr2+  Sr31  1  0.86995377  0.63814147  0.87337790  1
  Sr2+  Sr32  1  0.12030202  0.13991419  0.37324868  1
  Sr2+  Sr33  1  0.11040236  0.12743549  0.87431308  1
  Sr2+  Sr34  1  0.11667156  0.63182264  0.37188984  1
  Sr2+  Sr35  1  0.12208297  0.63738475  0.87599373  1
  Sr2+  Sr36  1  0.61573973  0.13159802  0.36747522  1
  Sr2+  Sr37  1  0.62303488  0.13808196  0.87328739  1
  Sr2+  Sr38  1  0.62369730  0.64199169  0.37755737  1
  Sr2+  Sr39  1  0.60933888  0.62718458  0.87496960  1
  Sr2+  Sr40  1  0.36348569  0.38504902  0.36492615  1
  Sr2+  Sr41  1  0.37279023  0.38827020  0.87356176  1
  Sr2+  Sr42  1  0.37248525  0.88771637  0.38224787  1
  Sr2+  Sr43  1  0.35771442  0.88239025  0.87720950  1
  Sr2+  Sr44  1  0.87469727  0.38737653  0.37675372  1
  Sr2+  Sr45  1  0.86137035  0.37557960  0.87961674  1
  Sr2+  Sr46  1  0.86193962  0.88536610  0.37308914  1
  Sr2+  Sr47  1  0.87610466  0.89266930  0.87053292  1
  Sr2+  Sr48  1  0.13228754  0.36201608  0.13067650  1
  Sr2+  Sr49  1  0.13890836  0.37484428  0.62408763  1
  Sr2+  Sr50  1  0.14157397  0.87201641  0.12752967  1
  Sr2+  Sr51  1  0.13126816  0.85881024  0.62508369  1
  Sr2+  Sr52  1  0.64029641  0.37382026  0.12153652  1
  Sr2+  Sr53  1  0.63218387  0.36053020  0.62481285  1
  Sr2+  Sr54  1  0.63069513  0.86624970  0.12520678  1
  Sr2+  Sr55  1  0.63734285  0.87273869  0.62406773  1
  Sr2+  Sr56  1  0.38280269  0.11068361  0.12130287  1
  Sr2+  Sr57  1  0.38832553  0.11978165  0.62452077  1
  Sr2+  Sr58  1  0.38969301  0.62208575  0.12402808  1
  Sr2+  Sr59  1  0.38152150  0.61289947  0.62696711  1
  Sr2+  Sr60  1  0.88853510  0.12349690  0.12916040  1
  Sr2+  Sr61  1  0.87893907  0.11338407  0.62416392  1
  Sr2+  Sr62  1  0.87561264  0.61496222  0.12655665  1
  Sr2+  Sr63  1  0.88760903  0.62237448  0.62413534  1
  Ca2+  Ca64  1  -0.00209409  -0.00118464  0.00289670  1
  Ca2+  Ca65  1  0.49855936  0.49906404  0.50335276  1
  Ca2+  Ca66  1  0.49987899  0.00005450  -0.00381077  1
  Ca2+  Ca67  1  0.00016580  0.49938714  -0.00130713  1
  Ca2+  Ca68  1  -0.00100924  -0.00038658  0.49962990  1
  Ca2+  Ca69  1  0.25044462  0.25134428  0.00045367  1
  Ca2+  Ca70  1  0.25043278  0.25352652  0.49808680  1
  Ca2+  Ca71  1  0.24997596  0.74882509  0.50236354  1
  Ca2+  Ca72  1  0.74972227  0.24952188  0.50162798  1
  Ca2+  Ca73  1  0.75079730  0.75093386  -0.00361150  1
  Ca2+  Ca74  1  0.00031584  0.74825247  0.25264139  1
  Ca2+  Ca75  1  0.25080942  -0.00050713  0.74939056  1
  Ca2+  Ca76  1  0.25285148  -0.00062235  0.24950081  1
  Ca2+  Ca77  1  -0.00062603  0.25041938  0.75059108  1
  Ca2+  Ca78  1  0.50129654  0.24864931  0.24778963  1
  Ca2+  Ca79  1  0.50036335  0.75174653  0.24860999  1
  Ca2+  Ca80  1  0.74937646  0.49827498  0.25143445  1
  Ca2+  Ca81  1  0.49949574  0.75017836  0.75059509  1
  Ca2+  Ca82  1  0.75078930  -0.00062130  0.25171799  1
  Ca2+  Ca83  1  0.75047159  0.49979232  0.75017153  1
  Ca2+  Ca84  1  0.24856499  0.50158913  0.24692909  1
  Nb5+  Nb85  1  0.00191323  0.50147896  0.49872664  1
  Nb5+  Nb86  1  0.49809713  0.49812527  0.00053479  1
  Nb5+  Nb87  1  0.50303523  0.00339701  0.49768259  1
  Nb5+  Nb88  1  0.24902340  0.74873586  0.00075209  1
  Nb5+  Nb89  1  0.74832587  0.24618990  0.00285836  1
  Nb5+  Nb90  1  0.75213029  0.75237636  0.49908482  1
  Nb5+  Nb91  1  0.00065197  0.74916663  0.75062974  1
  Nb5+  Nb92  1  -0.00070165  0.25158943  0.25078259  1
  Nb5+  Nb93  1  0.25044870  0.50227214  0.74951140  1
  Nb5+  Nb94  1  0.50018100  0.24965177  0.74891942  1
  Nb5+  Nb95  1  0.74987530  0.00024187  0.75053030  1
  Nb5+  Nb96  1  -0.00331064  -0.00337975  0.25478620  1
  Nb5+  Nb97  1  0.00659595  0.00070621  0.74148450  1
  Nb5+  Nb98  1  -0.00210995  0.49968818  0.24323156  1
  Nb5+  Nb99  1  -0.00299346  0.50142651  0.75401778  1
  Nb5+  Nb100  1  0.49841840  -0.00287719  0.24234081  1
  Nb5+  Nb101  1  0.49834604  0.00088183  0.75373525  1
  Nb5+  Nb102  1  0.50254409  0.50217173  0.25742142  1
  Nb5+  Nb103  1  0.50331378  0.49707437  0.74490319  1
  Nb5+  Nb104  1  0.25638380  0.24589825  0.24323327  1
  Nb5+  Nb105  1  0.24344323  0.24991964  0.75751916  1
  Nb5+  Nb106  1  0.25203808  0.75176660  0.25770652  1
  Nb5+  Nb107  1  0.25379248  0.74844279  0.74675067  1
  Nb5+  Nb108  1  0.74906131  0.25474673  0.25792781  1
  Nb5+  Nb109  1  0.75235746  0.24869637  0.74642398  1
  Nb5+  Nb110  1  0.74827656  0.74648005  0.24202285  1
  Nb5+  Nb111  1  0.74744306  0.75252849  0.75478170  1
  Nb5+  Nb112  1  0.00427527  0.24907063  0.50645778  1
  Nb5+  Nb113  1  0.00283942  0.25092289  0.99676191  1
  Nb5+  Nb114  1  -0.00198177  0.75220790  0.49567384  1
  Nb5+  Nb115  1  0.00049387  0.74860475  1.00605420  1
  Nb5+  Nb116  1  0.49542796  0.25189415  0.49157604  1
  Nb5+  Nb117  1  0.50291509  0.24741200  1.00426125  1
  Nb5+  Nb118  1  0.49981066  0.74572835  0.50833562  1
  Nb5+  Nb119  1  0.49997525  0.75455108  0.99180678  1
  Nb5+  Nb120  1  0.24555668  0.00694756  -0.00618134  1
  Nb5+  Nb121  1  0.24511356  -0.00344516  0.50472585  1
  Nb5+  Nb122  1  0.25149846  0.49846458  0.00362359  1
  Nb5+  Nb123  1  0.25093192  0.50354380  0.49474350  1
  Nb5+  Nb124  1  0.75474424  -0.00350098  0.00675590  1
  Nb5+  Nb125  1  0.74653990  0.00352338  0.49628275  1
  Nb5+  Nb126  1  0.74978220  0.50446115  -0.00849323  1
  Nb5+  Nb127  1  0.75018494  0.49482470  0.50773565  1
  O2-  O128  1  -0.03238365  -0.00803210  0.13728579  1
  O2-  O129  1  -0.03511956  -0.01568955  0.63269416  1
  O2-  O130  1  -0.03143843  0.48797042  0.13269586  1
  O2-  O131  1  -0.01166401  0.49222965  0.62841609  1
  O2-  O132  1  0.47341575  -0.01947718  0.13046742  1
  O2-  O133  1  0.48979262  -0.00495300  0.62874888  1
  O2-  O134  1  0.47911830  0.48639052  0.11524512  1
  O2-  O135  1  0.46661179  0.47902266  0.63577341  1
  O2-  O136  1  0.03158767  0.01697277  0.36875251  1
  O2-  O137  1  0.01370811  0.00777021  0.86028918  1
  O2-  O138  1  0.02139199  0.50987097  0.38275084  1
  O2-  O139  1  0.02975537  0.51448451  0.86481847  1
  O2-  O140  1  0.52470004  0.01257935  0.38357166  1
  O2-  O141  1  0.53071551  0.01922042  0.86381139  1
  O2-  O142  1  0.52827973  0.51881425  0.36908477  1
  O2-  O143  1  0.51238934  0.50653930  0.86993322  1
  O2-  O144  1  0.21600242  0.23428660  0.13090006  1
  O2-  O145  1  0.23389093  0.24471302  0.63882962  1
  O2-  O146  1  0.22973743  0.73662322  0.11570326  1
  O2-  O147  1  0.22092389  0.73169464  0.63656291  1
  O2-  O148  1  0.72865134  0.23624004  0.11846762  1
  O2-  O149  1  0.72361432  0.23042302  0.63538310  1
  O2-  O150  1  0.72143849  0.73092394  0.13064266  1
  O2-  O151  1  0.73855559  0.74292420  0.62981286  1
  O2-  O152  1  0.27218648  0.26541830  0.36188604  1
  O2-  O153  1  0.28257692  0.26875208  0.86694505  1
  O2-  O154  1  0.28115110  0.76206904  0.36898728  1
  O2-  O155  1  0.26135307  0.75747895  0.87148388  1
  O2-  O156  1  0.77812026  0.26823890  0.36822649  1
  O2-  O157  1  0.76239625  0.25535799  0.87277821  1
  O2-  O158  1  0.77222943  0.76305754  0.38463691  1
  O2-  O159  1  0.78339846  0.77086932  0.86397027  1
  O2-  O160  1  0.00520934  0.27171271  0.12916159  1
  O2-  O161  1  0.01618332  0.28070518  0.61749338  1
  O2-  O162  1  0.01783433  0.77598536  0.11636182  1
  O2-  O163  1  0.01007881  0.76190130  0.62533268  1
  O2-  O164  1  0.51901586  0.28094327  0.11340374  1
  O2-  O165  1  0.51216636  0.26850917  0.63131115  1
  O2-  O166  1  0.50798629  0.76807490  0.10996534  1
  O2-  O167  1  0.51771015  0.78242854  0.61951817  1
  O2-  O168  1  0.24676773  -0.02574970  0.38637736  1
  O2-  O169  1  0.23232710  -0.03125367  0.88042383  1
  O2-  O170  1  0.23483093  0.47632896  0.38428788  1
  O2-  O171  1  0.24150311  0.48701308  0.87425301  1
  O2-  O172  1  0.73024177  -0.02939785  0.38706852  1
  O2-  O173  1  0.73717527  -0.01828320  0.86822687  1
  O2-  O174  1  0.74104976  0.47937058  0.38998078  1
  O2-  O175  1  0.73297144  0.46565358  0.88090796  1
  O2-  O176  1  -0.01371293  0.23900392  0.37313919  1
  O2-  O177  1  -0.01588493  0.22227686  0.88527747  1
  O2-  O178  1  -0.01683629  0.71680790  0.38700855  1
  O2-  O179  1  -0.00832418  0.72860338  0.86791428  1
  O2-  O180  1  0.48365281  0.21788529  0.38309896  1
  O2-  O181  1  0.49357884  0.23408217  0.87399081  1
  O2-  O182  1  0.49470388  0.73422412  0.38959926  1
  O2-  O183  1  0.48416063  0.71450623  0.88125654  1
  O2-  O184  1  0.26621824  0.01690169  0.11129932  1
  O2-  O185  1  0.26890022  0.02922256  0.61755739  1
  O2-  O186  1  0.26628362  0.53129113  0.11284734  1
  O2-  O187  1  0.25846165  0.52301185  0.63217651  1
  O2-  O188  1  0.76658727  0.02891576  0.11587710  1
  O2-  O189  1  0.75743847  0.01707193  0.62608644  1
  O2-  O190  1  0.75638011  0.51615928  0.11024919  1
  O2-  O191  1  0.76676551  0.53326023  0.61908706  1
  O2-  O192  1  0.11669409  0.27011963  0.26462818  1
  O2-  O193  1  0.13296263  0.27661288  0.77740223  1
  O2-  O194  1  0.13401116  0.77664003  0.27113773  1
  O2-  O195  1  0.12108322  0.76763902  0.76485178  1
  O2-  O196  1  0.63485581  0.27534082  0.27519840  1
  O2-  O197  1  0.62354636  0.26677165  0.76619881  1
  O2-  O198  1  0.63540462  0.77110069  0.27303557  1
  O2-  O199  1  0.63588387  0.77883953  0.76952779  1
  O2-  O200  1  0.36741542  0.22555993  0.21782833  1
  O2-  O201  1  0.38093698  0.23261602  0.73640287  1
  O2-  O202  1  0.36565767  0.72531577  0.22782876  1
  O2-  O203  1  0.36463462  0.71777704  0.73458996  1
  O2-  O204  1  0.87617653  0.23299046  0.23484618  1
  O2-  O205  1  0.86461176  0.21896770  0.73585118  1
  O2-  O206  1  0.86690759  0.72318979  0.22906533  1
  O2-  O207  1  0.87988542  0.73293706  0.73335665  1
  O2-  O208  1  0.26674288  0.36593160  0.22526823  1
  O2-  O209  1  0.26676502  0.38165666  0.73794934  1
  O2-  O210  1  0.26806723  0.86508444  0.22311901  1
  O2-  O211  1  0.27534218  0.86195491  0.73285010  1
  O2-  O212  1  0.76814811  0.36526371  0.22094961  1
  O2-  O213  1  0.77327086  0.36218862  0.73210188  1
  O2-  O214  1  0.77689555  0.86334757  0.23604791  1
  O2-  O215  1  0.76842454  0.87997068  0.73171849  1
  O2-  O216  1  0.22543841  0.13325052  0.26802110  1
  O2-  O217  1  0.22660839  0.13573235  0.77270540  1
  O2-  O218  1  0.22091360  0.63552010  0.26159781  1
  O2-  O219  1  0.22951455  0.62109475  0.76909233  1
  O2-  O220  1  0.72980563  0.13704762  0.26146951  1
  O2-  O221  1  0.72875183  0.12004863  0.76514369  1
  O2-  O222  1  0.73343861  0.63251131  0.27680587  1
  O2-  O223  1  0.72828967  0.63811283  0.76966646  1
  O2-  O224  1  0.11255881  0.46894734  0.23716445  1
  O2-  O225  1  0.12861157  0.48275710  0.73507084  1
  O2-  O226  1  0.11410972  0.98378343  0.22682849  1
  O2-  O227  1  0.11631415  0.97285746  0.72212697  1
  O2-  O228  1  0.61501683  0.47789361  0.22566403  1
  O2-  O229  1  0.61464495  0.47039207  0.73006284  1
  O2-  O230  1  0.61711944  0.97238903  0.23093779  1
  O2-  O231  1  0.62774091  0.98333028  0.73241831  1
  O2-  O232  1  0.38706279  0.02900123  0.27171906  1
  O2-  O233  1  0.38681068  0.03057865  0.76543223  1
  O2-  O234  1  0.38320484  0.52217908  0.26848678  1
  O2-  O235  1  0.37053228  0.51732893  0.76647741  1
  O2-  O236  1  0.88299698  0.02600951  0.28139030  1
  O2-  O237  1  0.86854795  0.01856484  0.76334830  1
  O2-  O238  1  0.88547015  0.51509738  0.27910785  1
  O2-  O239  1  0.88573666  0.53071940  0.76693005  1
  O2-  O240  1  0.47556810  0.38435911  0.26500887  1
  O2-  O241  1  0.48209631  0.37019431  0.76807457  1
  O2-  O242  1  0.47941484  0.88459258  0.27733595  1
  O2-  O243  1  0.47758280  0.88757283  0.76871096  1
  O2-  O244  1  0.97788949  0.37272019  0.26679939  1
  O2-  O245  1  0.97467847  0.38708023  0.76604520  1
  O2-  O246  1  0.97626858  0.88320963  0.27322603  1
  O2-  O247  1  0.98212219  0.86903392  0.76064475  1
  O2-  O248  1  0.01492380  0.13275486  0.23662853  1
  O2-  O249  1  0.02489641  0.11518165  0.72645431  1
  O2-  O250  1  0.02486144  0.61284856  0.23408665  1
  O2-  O251  1  0.01971904  0.62818573  0.73299697  1
  O2-  O252  1  0.53006367  0.11405683  0.23395470  1
  O2-  O253  1  0.52136984  0.13098739  0.73546636  1
  O2-  O254  1  0.51655072  0.61643275  0.22466503  1
  O2-  O255  1  0.52260667  0.61142734  0.73001357  1
  O2-  O256  1  0.13799577  0.47515748  0.01488458  1
  O2-  O257  1  0.11899435  0.48182784  0.51953921  1
  O2-  O258  1  0.13209436  0.97544216  0.01712860  1
  O2-  O259  1  0.13333800  0.97351473  0.52375222  1
  O2-  O260  1  0.61911144  0.48101944  0.00923894  1
  O2-  O261  1  0.63516328  0.48057768  0.52514358  1
  O2-  O262  1  0.63682288  0.97435892  0.01110650  1
  O2-  O263  1  0.62345772  0.98176078  0.52218394  1
  O2-  O264  1  0.36534208  0.01928834  -0.02680838  1
  O2-  O265  1  0.38521656  0.01941759  0.48921134  1
  O2-  O266  1  0.37975770  0.51849407  -0.02114889  1
  O2-  O267  1  0.36318555  0.53395092  0.48476118  1
  O2-  O268  1  0.86483262  0.01862938  -0.02939708  1
  O2-  O269  1  0.86124618  0.02333285  0.48526135  1
  O2-  O270  1  0.86397527  0.51949950  -0.02495930  1
  O2-  O271  1  0.87952099  0.51971900  0.48935650  1
  O2-  O272  1  0.48494548  0.37694174  -0.02089234  1
  O2-  O273  1  0.47226170  0.36552291  0.47355281  1
  O2-  O274  1  0.47415654  0.86483075  -0.02944509  1
  O2-  O275  1  0.48633436  0.88127561  0.48837111  1
  O2-  O276  1  0.96487748  0.36387765  -0.01162181  1
  O2-  O277  1  0.97771635  0.38264284  0.48966603  1
  O2-  O278  1  0.98391595  0.86137212  -0.02760349  1
  O2-  O279  1  0.96754150  0.86317088  0.48344973  1
  O2-  O280  1  0.01747624  0.13650768  0.02700087  1
  O2-  O281  1  0.02695766  0.13605129  0.52113359  1
  O2-  O282  1  0.03248283  0.63360858  0.01187889  1
  O2-  O283  1  0.01371856  0.62214662  0.52016128  1
  O2-  O284  1  0.52791047  0.13505970  0.01980723  1
  O2-  O285  1  0.52113501  0.12297800  0.51840767  1
  O2-  O286  1  0.51833271  0.61771435  0.01317238  1
  O2-  O287  1  0.52714446  0.63453144  0.52720778  1
  O2-  O288  1  0.11356442  0.28009049  -0.01742745  1
  O2-  O289  1  0.11605200  0.27509138  0.47646305  1
  O2-  O290  1  0.12972452  0.76555796  -0.01974741  1
  O2-  O291  1  0.11168456  0.77514993  0.48448071  1
  O2-  O292  1  0.62752912  0.26741927  -0.02019188  1
  O2-  O293  1  0.61301363  0.27608662  0.48884764  1
  O2-  O294  1  0.61469702  0.76936669  -0.02502773  1
  O2-  O295  1  0.63254301  0.76874117  0.49045672  1
  O2-  O296  1  0.38830312  0.22723450  0.01467285  1
  O2-  O297  1  0.38429684  0.23053530  0.52634911  1
  O2-  O298  1  0.37053586  0.72846081  0.01021898  1
  O2-  O299  1  0.38628619  0.73021890  0.52473174  1
  O2-  O300  1  0.86621434  0.22789556  0.01327245  1
  O2-  O301  1  0.88616636  0.22933447  0.51461028  1
  O2-  O302  1  0.88700813  0.71989328  0.01619657  1
  O2-  O303  1  0.87154451  0.73157517  0.52161834  1
  O2-  O304  1  0.28276486  0.38724026  0.01495750  1
  O2-  O305  1  0.26538606  0.39027620  0.52859515  1
  O2-  O306  1  0.27079368  0.86553637  0.01091912  1
  O2-  O307  1  0.27930671  0.88299151  0.52469260  1
  O2-  O308  1  0.76459246  0.36759583  0.01263807  1
  O2-  O309  1  0.77522198  0.38411640  0.52969156  1
  O2-  O310  1  0.77746829  0.88336468  0.02426742  1
  O2-  O311  1  0.76651899  0.87289591  0.52059934  1
  O2-  O312  1  0.22281652  0.11822917  -0.02756037  1
  O2-  O313  1  0.23059056  0.11562444  0.47961955  1
  O2-  O314  1  0.23626195  0.62569035  -0.02149832  1
  O2-  O315  1  0.21246930  0.61554459  0.48984745  1
  O2-  O316  1  0.72893892  0.12703019  -0.01764216  1
  O2-  O317  1  0.71984670  0.11519390  0.48169073  1
  O2-  O318  1  0.72388985  0.61541353  -0.02829026  1
  O2-  O319  1  0.73341252  0.63136063  0.48687698  1
