# generated using pymatgen
data_Sr64Ca21Nb43O192
_symmetry_space_group_name_H-M   'P 1'
_cell_length_a   16.59079802
_cell_length_b   16.60030133
_cell_length_c   16.75197807
_cell_angle_alpha   89.95438314
_cell_angle_beta   89.98729390
_cell_angle_gamma   89.99086868
_symmetry_Int_Tables_number   1
_chemical_formula_structural   Sr64Ca21Nb43O192
_chemical_formula_sum   'Sr64 Ca21 Nb43 O192'
_cell_volume   4613.69827898
_cell_formula_units_Z   1
loop_
 _symmetry_equiv_pos_site_id
 _symmetry_equiv_pos_as_xyz
  1  'x, y, z'
loop_
 _atom_type_symbol
 _atom_type_oxidation_number
  Sr2+  2.0
  Ca2+  2.0
  Nb5+  5.0
  O2-  -2.0
loop_
 _atom_site_type_symbol
 _atom_site_label
 _atom_site_symmetry_multiplicity
 _atom_site_fract_x
 _atom_site_fract_y
 _atom_site_fract_z
 _atom_site_occupancy
  Sr2+  Sr0  1  0.11676013  0.10857462  0.12293537  1
  Sr2+  Sr1  1  0.11922618  0.11216011  0.62186501  1
  Sr2+  Sr2  1  0.12479248  0.62838267  0.11821384  1
  Sr2+  Sr3  1  0.12080278  0.61862329  0.62571781  1
  Sr2+  Sr4  1  0.61979716  0.11152884  0.12524179  1
  Sr2+  Sr5  1  0.61299612  0.12930936  0.63148315  1
  Sr2+  Sr6  1  0.62036065  0.63246943  0.12489755  1
  Sr2+  Sr7  1  0.62633855  0.61994985  0.62306793  1
  Sr2+  Sr8  1  0.35780009  0.39384120  0.12129503  1
  Sr2+  Sr9  1  0.37448312  0.36964262  0.62960475  1
  Sr2+  Sr10  1  0.37507616  0.87359013  0.11696787  1
  Sr2+  Sr11  1  0.37109246  0.86194248  0.62703751  1
  Sr2+  Sr12  1  0.86285769  0.36723714  0.11725140  1
  Sr2+  Sr13  1  0.86787024  0.37834829  0.62889297  1
  Sr2+  Sr14  1  0.87841331  0.87586228  0.12784149  1
  Sr2+  Sr15  1  0.87469566  0.87496224  0.63079834  1
  Sr2+  Sr16  1  0.12696383  0.36861537  0.37589927  1
  Sr2+  Sr17  1  0.14636339  0.37739894  0.87180086  1
  Sr2+  Sr18  1  0.13823587  0.87813282  0.37501405  1
  Sr2+  Sr19  1  0.13198172  0.87413198  0.85927552  1
  Sr2+  Sr20  1  0.64623515  0.37774390  0.37328404  1
  Sr2+  Sr21  1  0.65276997  0.37412775  0.87192023  1
  Sr2+  Sr22  1  0.63770034  0.87841645  0.37955311  1
  Sr2+  Sr23  1  0.63165781  0.88837367  0.87960029  1
  Sr2+  Sr24  1  0.37547430  0.12998825  0.36681774  1
  Sr2+  Sr25  1  0.38996693  0.12972824  0.87896331  1
  Sr2+  Sr26  1  0.38507216  0.62477560  0.37119073  1
  Sr2+  Sr27  1  0.37543736  0.62257436  0.89795796  1
  Sr2+  Sr28  1  0.86802043  0.12837615  0.36946354  1
  Sr2+  Sr29  1  0.87708879  0.13170031  0.88108284  1
  Sr2+  Sr30  1  0.88444663  0.62239802  0.37028984  1
  Sr2+  Sr31  1  0.87608406  0.61867305  0.87873033  1
  Sr2+  Sr32  1  0.13660085  0.13191614  0.37190707  1
  Sr2+  Sr33  1  0.12568919  0.14429335  0.87825082  1
  Sr2+  Sr34  1  0.12894415  0.61964352  0.37631870  1
  Sr2+  Sr35  1  0.13189354  0.60919399  0.87450452  1
  Sr2+  Sr36  1  0.62956392  0.14023405  0.36763451  1
  Sr2+  Sr37  1  0.62668709  0.13656184  0.87287325  1
  Sr2+  Sr38  1  0.63187215  0.61997305  0.37147855  1
  Sr2+  Sr39  1  0.63489582  0.61532493  0.89001592  1
  Sr2+  Sr40  1  0.37966167  0.37056866  0.38009357  1
  Sr2+  Sr41  1  0.37411356  0.37587569  0.87696987  1
  Sr2+  Sr42  1  0.38317000  0.88021837  0.37304555  1
  Sr2+  Sr43  1  0.38355454  0.88995120  0.87173847  1
  Sr2+  Sr44  1  0.88163845  0.36690876  0.37051497  1
  Sr2+  Sr45  1  0.88298077  0.37205658  0.88042259  1
  Sr2+  Sr46  1  0.88144765  0.88172368  0.37763391  1
  Sr2+  Sr47  1  0.88462685  0.88357375  0.87085908  1
  Sr2+  Sr48  1  0.11983048  0.37136145  0.09580172  1
  Sr2+  Sr49  1  0.11821964  0.37113158  0.62912061  1
  Sr2+  Sr50  1  0.11969180  0.87305729  0.12717731  1
  Sr2+  Sr51  1  0.11400149  0.86696539  0.62422659  1
  Sr2+  Sr52  1  0.62404257  0.37811335  0.12487699  1
  Sr2+  Sr53  1  0.61487903  0.37548486  0.63204698  1
  Sr2+  Sr54  1  0.63210020  0.87105476  0.11889172  1
  Sr2+  Sr55  1  0.64482529  0.87739754  0.63169490  1
  Sr2+  Sr56  1  0.36347430  0.11341343  0.12410805  1
  Sr2+  Sr57  1  0.36819492  0.12675319  0.62135076  1
  Sr2+  Sr58  1  0.38326467  0.63119893  0.12626860  1
  Sr2+  Sr59  1  0.37825853  0.62547335  0.62339505  1
  Sr2+  Sr60  1  0.85918776  0.11988378  0.12962077  1
  Sr2+  Sr61  1  0.85932788  0.10963063  0.62771457  1
  Sr2+  Sr62  1  0.87650886  0.62996062  0.12013671  1
  Sr2+  Sr63  1  0.87006530  0.63285750  0.62512972  1
  Ca2+  Ca64  1  0.50074818  -0.00169943  0.49915596  1
  Ca2+  Ca65  1  -0.00026604  0.50059908  0.00060420  1
  Ca2+  Ca66  1  -0.00076647  -0.00230456  0.49922576  1
  Ca2+  Ca67  1  0.50130079  0.49739970  0.00197644  1
  Ca2+  Ca68  1  0.00376109  -0.00641543  -0.00285411  1
  Ca2+  Ca69  1  0.24799381  0.75593291  -0.00189315  1
  Ca2+  Ca70  1  0.74748360  0.24660463  0.00090000  1
  Ca2+  Ca71  1  0.25406100  0.24570231  0.00097399  1
  Ca2+  Ca72  1  0.75499071  0.75049285  -0.00060478  1
  Ca2+  Ca73  1  0.74890068  0.25207194  0.50364241  1
  Ca2+  Ca74  1  0.25153485  0.00287978  0.74606005  1
  Ca2+  Ca75  1  0.50335368  0.75096060  0.74906389  1
  Ca2+  Ca76  1  0.24311899  0.50511389  0.25211078  1
  Ca2+  Ca77  1  0.00132438  0.24806709  0.74901453  1
  Ca2+  Ca78  1  0.25434495  0.50175125  0.74342926  1
  Ca2+  Ca79  1  0.00366844  0.24863592  0.24628016  1
  Ca2+  Ca80  1  0.49687128  0.25093651  0.24742952  1
  Ca2+  Ca81  1  0.75090234  0.00253531  0.75500783  1
  Ca2+  Ca82  1  0.75082493  0.50148927  0.74734594  1
  Ca2+  Ca83  1  0.75217489  0.50392033  0.25004118  1
  Ca2+  Ca84  1  0.74514387  -0.00252280  0.25063275  1
  Nb5+  Nb85  1  0.50092063  0.00147254  0.00074373  1
  Nb5+  Nb86  1  0.00221439  0.49470160  0.49953567  1
  Nb5+  Nb87  1  0.50379783  0.49976782  0.49601931  1
  Nb5+  Nb88  1  0.75678244  0.74887841  0.49755758  1
  Nb5+  Nb89  1  0.24952083  0.24718936  0.50308147  1
  Nb5+  Nb90  1  0.25143254  0.74385432  0.50027757  1
  Nb5+  Nb91  1  0.49858886  0.25372750  0.75361965  1
  Nb5+  Nb92  1  0.00112253  0.74489491  0.74486190  1
  Nb5+  Nb93  1  0.00632714  0.75059663  0.24879425  1
  Nb5+  Nb94  1  0.24901304  -0.00175134  0.25097885  1
  Nb5+  Nb95  1  0.50565194  0.75415608  0.25218298  1
  Nb5+  Nb96  1  -0.00099036  0.00005656  0.25714286  1
  Nb5+  Nb97  1  0.00426828  0.00378001  0.75111911  1
  Nb5+  Nb98  1  -0.00063621  0.49822649  0.24658246  1
  Nb5+  Nb99  1  -0.00319748  0.49636554  0.75047137  1
  Nb5+  Nb100  1  0.50037493  -0.00405288  0.25109678  1
  Nb5+  Nb101  1  0.49686600  0.00060975  0.74402951  1
  Nb5+  Nb102  1  0.49481021  0.49814458  0.24940773  1
  Nb5+  Nb103  1  0.49783574  0.50363203  0.75697512  1
  Nb5+  Nb104  1  0.25237981  0.25930813  0.24663958  1
  Nb5+  Nb105  1  0.25230592  0.24833686  0.74969819  1
  Nb5+  Nb106  1  0.25295865  0.75270540  0.25086777  1
  Nb5+  Nb107  1  0.25334603  0.74536118  0.75160541  1
  Nb5+  Nb108  1  0.74771292  0.25180197  0.24851461  1
  Nb5+  Nb109  1  0.75754368  0.24860260  0.74460963  1
  Nb5+  Nb110  1  0.75841642  0.75013803  0.25182249  1
  Nb5+  Nb111  1  0.74972049  0.74776265  0.75633667  1
  Nb5+  Nb112  1  0.00015490  0.24087949  0.50080886  1
  Nb5+  Nb113  1  0.00039294  0.24444065  1.00263441  1
  Nb5+  Nb114  1  0.00204433  0.74755855  0.49535529  1
  Nb5+  Nb115  1  0.00283963  0.75160044  0.98673673  1
  Nb5+  Nb116  1  0.50197334  0.24957726  0.49918236  1
  Nb5+  Nb117  1  0.50081578  0.25287325  1.00789858  1
  Nb5+  Nb118  1  0.50579427  0.74961956  0.49963254  1
  Nb5+  Nb119  1  0.50018270  0.75423753  0.99389771  1
  Nb5+  Nb120  1  0.24653603  0.00097235  -0.00729476  1
  Nb5+  Nb121  1  0.25697145  -0.00819544  0.50080441  1
  Nb5+  Nb122  1  0.24834450  0.50336508  0.00059412  1
  Nb5+  Nb123  1  0.25456940  0.49667389  0.49799885  1
  Nb5+  Nb124  1  0.75554878  0.00088612  -0.00079615  1
  Nb5+  Nb125  1  0.74345038  0.00516788  0.49974097  1
  Nb5+  Nb126  1  0.75111341  0.49931052  0.00323442  1
  Nb5+  Nb127  1  0.75938496  0.50182753  0.49976519  1
  O2-  O128  1  -0.00415229  -0.00222453  0.13882034  1
  O2-  O129  1  -0.02502885  0.00870851  0.63441175  1
  O2-  O130  1  0.02814376  0.51426575  0.13756862  1
  O2-  O131  1  0.01895103  0.50820747  0.61743082  1
  O2-  O132  1  0.47626512  0.00874553  0.12550193  1
  O2-  O133  1  0.48681062  0.02921315  0.63425724  1
  O2-  O134  1  0.51910830  0.51892308  0.13788654  1
  O2-  O135  1  0.51616949  0.51661483  0.61093613  1
  O2-  O136  1  0.01620537  -0.03498821  0.36800885  1
  O2-  O137  1  0.01754607  -0.03362849  0.86287681  1
  O2-  O138  1  -0.03208875  0.49353516  0.38563243  1
  O2-  O139  1  -0.02545881  0.49570580  0.86334267  1
  O2-  O140  1  0.51168106  -0.02927920  0.36330451  1
  O2-  O141  1  0.51163304  -0.01604646  0.88411050  1
  O2-  O142  1  0.46942209  0.49486667  0.37804806  1
  O2-  O143  1  0.46873794  0.49295770  0.86641174  1
  O2-  O144  1  0.24196989  0.28012639  0.13526751  1
  O2-  O145  1  0.24599436  0.28107255  0.61777844  1
  O2-  O146  1  0.24514447  0.77713925  0.13903488  1
  O2-  O147  1  0.24133340  0.77841396  0.61226737  1
  O2-  O148  1  0.73666340  0.27876442  0.13388456  1
  O2-  O149  1  0.73646404  0.28653222  0.63375330  1
  O2-  O150  1  0.75725709  0.77305064  0.13804949  1
  O2-  O151  1  0.75652647  0.77040784  0.61508042  1
  O2-  O152  1  0.26774710  0.23691253  0.38522181  1
  O2-  O153  1  0.26655276  0.22235182  0.86150490  1
  O2-  O154  1  0.24247792  0.74154046  0.38062852  1
  O2-  O155  1  0.25177204  0.71775106  0.86218459  1
  O2-  O156  1  0.75653021  0.22672429  0.37088006  1
  O2-  O157  1  0.75548977  0.22557283  0.86253355  1
  O2-  O158  1  0.74853993  0.72598319  0.37879943  1
  O2-  O159  1  0.75044313  0.71839972  0.86553838  1
  O2-  O160  1  0.03703361  0.23641261  0.11670933  1
  O2-  O161  1  0.03000940  0.24365945  0.61324082  1
  O2-  O162  1  0.00613325  0.73853095  0.13320051  1
  O2-  O163  1  0.00243013  0.73007473  0.62474567  1
  O2-  O164  1  0.53194577  0.23768886  0.11590157  1
  O2-  O165  1  0.50994093  0.24695723  0.62432323  1
  O2-  O166  1  0.50203443  0.73985741  0.13452701  1
  O2-  O167  1  0.50426204  0.72318097  0.61147707  1
  O2-  O168  1  0.22925004  0.01100034  0.37702524  1
  O2-  O169  1  0.22413019  0.02269197  0.88370534  1
  O2-  O170  1  0.25635933  0.53397136  0.38757907  1
  O2-  O171  1  0.26802040  0.51941464  0.88017784  1
  O2-  O172  1  0.71705059  0.01713822  0.38382249  1
  O2-  O173  1  0.72232313  0.02287201  0.88725055  1
  O2-  O174  1  0.75751917  0.53165183  0.38685900  1
  O2-  O175  1  0.75730258  0.52403218  0.88156447  1
  O2-  O176  1  -0.00128809  0.27245386  0.38685453  1
  O2-  O177  1  -0.02669602  0.25050047  0.88297541  1
  O2-  O178  1  -0.00751202  0.75908712  0.37934918  1
  O2-  O179  1  0.00193098  0.76127605  0.87030691  1
  O2-  O180  1  0.47578869  0.25532552  0.38587940  1
  O2-  O181  1  0.47609852  0.25927336  0.86844666  1
  O2-  O182  1  0.49037340  0.76380294  0.37457143  1
  O2-  O183  1  0.48999769  0.77442864  0.88260856  1
  O2-  O184  1  0.26813695  -0.02108280  0.13774398  1
  O2-  O185  1  0.28917164  -0.01132564  0.61214115  1
  O2-  O186  1  0.22676791  0.48264739  0.11774107  1
  O2-  O187  1  0.21872197  0.48863010  0.60765052  1
  O2-  O188  1  0.76233855  -0.03053103  0.11587063  1
  O2-  O189  1  0.76801761  -0.02326258  0.61559758  1
  O2-  O190  1  0.73905952  0.47416255  0.11926752  1
  O2-  O191  1  0.72195081  0.48661413  0.60923920  1
  O2-  O192  1  0.14028676  0.25253732  0.27698660  1
  O2-  O193  1  0.13823545  0.27093570  0.76138827  1
  O2-  O194  1  0.11935345  0.77773869  0.25883669  1
  O2-  O195  1  0.12431312  0.76358104  0.74625040  1
  O2-  O196  1  0.62956580  0.27012131  0.27054779  1
  O2-  O197  1  0.61750641  0.26616329  0.75830385  1
  O2-  O198  1  0.61884885  0.77615216  0.25591673  1
  O2-  O199  1  0.63802141  0.77724238  0.74996117  1
  O2-  O200  1  0.36213093  0.21719939  0.24140133  1
  O2-  O201  1  0.37949742  0.23264643  0.72923933  1
  O2-  O202  1  0.36761365  0.73242168  0.25354986  1
  O2-  O203  1  0.36671715  0.73975373  0.72733151  1
  O2-  O204  1  0.86746372  0.22604827  0.24027818  1
  O2-  O205  1  0.86878826  0.22594199  0.72537816  1
  O2-  O206  1  0.87386878  0.72923303  0.25268123  1
  O2-  O207  1  0.88280636  0.72701231  0.75012023  1
  O2-  O208  1  0.27136084  0.36908262  0.27464620  1
  O2-  O209  1  0.27718546  0.36567251  0.76156335  1
  O2-  O210  1  0.26134152  0.87372729  0.27922604  1
  O2-  O211  1  0.26162728  0.86454351  0.76948771  1
  O2-  O212  1  0.76991938  0.36911580  0.27466342  1
  O2-  O213  1  0.77450839  0.36645957  0.77271118  1
  O2-  O214  1  0.76102089  0.86322029  0.28392770  1
  O2-  O215  1  0.78130852  0.86270737  0.76035571  1
  O2-  O216  1  0.23230205  0.11443792  0.23870747  1
  O2-  O217  1  0.23846111  0.13762531  0.70986150  1
  O2-  O218  1  0.21820043  0.64283785  0.24157887  1
  O2-  O219  1  0.23796509  0.63549787  0.71208244  1
  O2-  O220  1  0.72649355  0.13207832  0.23007410  1
  O2-  O221  1  0.72950680  0.13435933  0.71999922  1
  O2-  O222  1  0.71840681  0.64023712  0.23846045  1
  O2-  O223  1  0.74020196  0.63763626  0.71613579  1
  O2-  O224  1  0.10836774  0.49201004  0.28983391  1
  O2-  O225  1  0.11595391  0.48625075  0.76194157  1
  O2-  O226  1  0.12962669  0.97553752  0.24116673  1
  O2-  O227  1  0.11816371  0.97587999  0.72255415  1
  O2-  O228  1  0.60949173  0.49048009  0.27869737  1
  O2-  O229  1  0.61154822  0.47180121  0.75451021  1
  O2-  O230  1  0.60999593  0.97525764  0.22407482  1
  O2-  O231  1  0.61399144  0.98127840  0.74629519  1
  O2-  O232  1  0.36967317  0.00908796  0.26964399  1
  O2-  O233  1  0.38496888  0.01789247  0.78104550  1
  O2-  O234  1  0.37992484  0.53248292  0.23892074  1
  O2-  O235  1  0.38895329  0.50783874  0.71256724  1
  O2-  O236  1  0.88292522  0.01375936  0.26753408  1
  O2-  O237  1  0.88584835  0.01907750  0.77479549  1
  O2-  O238  1  0.88719328  0.53735507  0.24117872  1
  O2-  O239  1  0.88523902  0.52273775  0.72044456  1
  O2-  O240  1  0.46921941  0.38665910  0.23611572  1
  O2-  O241  1  0.48161604  0.37097902  0.73805798  1
  O2-  O242  1  0.46793586  0.86917603  0.23877333  1
  O2-  O243  1  0.47580955  0.88687294  0.73174205  1
  O2-  O244  1  0.97403160  0.38651772  0.23981727  1
  O2-  O245  1  0.98061772  0.38312698  0.73121404  1
  O2-  O246  1  0.97370691  0.86545610  0.24423578  1
  O2-  O247  1  0.98649161  0.86316114  0.73297656  1
  O2-  O248  1  0.02254731  0.11112033  0.27224265  1
  O2-  O249  1  0.03291315  0.11423054  0.76351308  1
  O2-  O250  1  0.01794370  0.63479048  0.27035697  1
  O2-  O251  1  0.02236247  0.62636222  0.75977308  1
  O2-  O252  1  0.51235859  0.11041983  0.26466564  1
  O2-  O253  1  0.51651929  0.13005483  0.76482473  1
  O2-  O254  1  0.51160889  0.63602918  0.26741075  1
  O2-  O255  1  0.52361010  0.61576964  0.76562306  1
  O2-  O256  1  0.13229579  0.48146131  -0.02506662  1
  O2-  O257  1  0.11611410  0.48908574  0.47592673  1
  O2-  O258  1  0.13836885  0.97742813  0.02445163  1
  O2-  O259  1  0.14011365  0.98687227  0.52445378  1
  O2-  O260  1  0.63184425  0.47428246  -0.01616977  1
  O2-  O261  1  0.61706261  0.49296659  0.47530540  1
  O2-  O262  1  0.61704521  0.98270892  0.02084104  1
  O2-  O263  1  0.63194307  0.96539424  0.51607194  1
  O2-  O264  1  0.37824657  0.01944630  -0.01170003  1
  O2-  O265  1  0.36693352  0.02502742  0.47158022  1
  O2-  O266  1  0.36690466  0.52175142  0.02386747  1
  O2-  O267  1  0.36758298  0.51587135  0.51665449  1
  O2-  O268  1  0.86813278  0.02011843  -0.01513086  1
  O2-  O269  1  0.86128481  0.00969828  0.47284285  1
  O2-  O270  1  0.86779330  0.52548006  0.01495475  1
  O2-  O271  1  0.87239605  0.51699562  0.52376719  1
  O2-  O272  1  0.47132782  0.36375394  0.01949705  1
  O2-  O273  1  0.47789290  0.38472241  0.50909422  1
  O2-  O274  1  0.48344311  0.87798215  0.01513352  1
  O2-  O275  1  0.47239293  0.85967476  0.51285965  1
  O2-  O276  1  0.98154610  0.36483932  0.01772753  1
  O2-  O277  1  0.98247841  0.37950326  0.51545844  1
  O2-  O278  1  0.96376365  0.86142040  0.01055946  1
  O2-  O279  1  0.98197006  0.85924274  0.52006897  1
  O2-  O280  1  0.02679576  0.12693030  -0.01203646  1
  O2-  O281  1  0.03044073  0.13146513  0.48265804  1
  O2-  O282  1  0.03542847  0.63706584  -0.00774671  1
  O2-  O283  1  0.00855702  0.62462233  0.49063286  1
  O2-  O284  1  0.52185577  0.11821155  -0.01063634  1
  O2-  O285  1  0.52540675  0.13689732  0.49351960  1
  O2-  O286  1  0.51548073  0.63648577  -0.01430331  1
  O2-  O287  1  0.50337165  0.62546042  0.47560224  1
  O2-  O288  1  0.12015643  0.26968940  -0.02821458  1
  O2-  O289  1  0.13486508  0.27133616  0.48946298  1
  O2-  O290  1  0.11506057  0.78872942  -0.00138001  1
  O2-  O291  1  0.12002279  0.76185271  0.49470406  1
  O2-  O292  1  0.61115794  0.26342523  -0.03280538  1
  O2-  O293  1  0.61204998  0.28413117  0.48990894  1
  O2-  O294  1  0.61619415  0.77019143  0.00697614  1
  O2-  O295  1  0.62214501  0.76158354  0.49387339  1
  O2-  O296  1  0.38941607  0.21462784  0.00943493  1
  O2-  O297  1  0.37446028  0.24601739  0.51897751  1
  O2-  O298  1  0.38365643  0.73561764  0.01515968  1
  O2-  O299  1  0.36730385  0.72925890  0.50123295  1
  O2-  O300  1  0.88447383  0.22379594  0.02620979  1
  O2-  O301  1  0.88696301  0.22310846  0.51362912  1
  O2-  O302  1  0.88799684  0.71561295  -0.00224773  1
  O2-  O303  1  0.87377084  0.72979810  0.49693322  1
  O2-  O304  1  0.27140424  0.38242965  -0.01505368  1
  O2-  O305  1  0.26210725  0.38266044  0.47662957  1
  O2-  O306  1  0.28073840  0.88847309  -0.01768323  1
  O2-  O307  1  0.26820875  0.87674111  0.48080128  1
  O2-  O308  1  0.77614632  0.38132249  -0.01943058  1
  O2-  O309  1  0.77087223  0.38873891  0.47631275  1
  O2-  O310  1  0.75912850  0.88368646  -0.03205048  1
  O2-  O311  1  0.76230438  0.86477331  0.47598531  1
  O2-  O312  1  0.24007290  0.11225920  0.03455704  1
  O2-  O313  1  0.23668486  0.13252259  0.51787731  1
  O2-  O314  1  0.22925767  0.62115847  0.01308416  1
  O2-  O315  1  0.22946991  0.63155713  0.51683951  1
  O2-  O316  1  0.73315347  0.11396974  0.03231605  1
  O2-  O317  1  0.72802804  0.11610536  0.52693553  1
  O2-  O318  1  0.72205114  0.61655144  0.02130893  1
  O2-  O319  1  0.73427700  0.62998480  0.51938141  1
