# generated using pymatgen
data_Sr64Ca21Nb43O192
_symmetry_space_group_name_H-M   'P 1'
_cell_length_a   16.57188864
_cell_length_b   16.57912825
_cell_length_c   16.75508984
_cell_angle_alpha   90.02168867
_cell_angle_beta   89.98568495
_cell_angle_gamma   89.89884099
_symmetry_Int_Tables_number   1
_chemical_formula_structural   Sr64Ca21Nb43O192
_chemical_formula_sum   'Sr64 Ca21 Nb43 O192'
_cell_volume   4603.41084533
_cell_formula_units_Z   1
loop_
 _symmetry_equiv_pos_site_id
 _symmetry_equiv_pos_as_xyz
  1  'x, y, z'
loop_
 _atom_type_symbol
 _atom_type_oxidation_number
  Sr2+  2.0
  Ca2+  2.0
  Nb5+  5.0
  O2-  -2.0
loop_
 _atom_site_type_symbol
 _atom_site_label
 _atom_site_symmetry_multiplicity
 _atom_site_fract_x
 _atom_site_fract_y
 _atom_site_fract_z
 _atom_site_occupancy
  Sr2+  Sr0  1  0.12489687  0.12762539  0.12895884  1
  Sr2+  Sr1  1  0.12584561  0.13456321  0.60904307  1
  Sr2+  Sr2  1  0.11868827  0.62710037  0.13625481  1
  Sr2+  Sr3  1  0.12433990  0.62827445  0.59386773  1
  Sr2+  Sr4  1  0.61876255  0.12949482  0.12416018  1
  Sr2+  Sr5  1  0.62385377  0.14786984  0.62388953  1
  Sr2+  Sr6  1  0.63239118  0.62479202  0.12450003  1
  Sr2+  Sr7  1  0.62188118  0.62974032  0.62873052  1
  Sr2+  Sr8  1  0.38381448  0.38353234  0.12328528  1
  Sr2+  Sr9  1  0.37844314  0.38648261  0.62388580  1
  Sr2+  Sr10  1  0.37843394  0.87722452  0.12877057  1
  Sr2+  Sr11  1  0.37961391  0.85982388  0.61762215  1
  Sr2+  Sr12  1  0.87440998  0.37615978  0.12825616  1
  Sr2+  Sr13  1  0.87092864  0.37848730  0.63019550  1
  Sr2+  Sr14  1  0.87391818  0.85455437  0.12426171  1
  Sr2+  Sr15  1  0.86860702  0.85780573  0.62088431  1
  Sr2+  Sr16  1  0.12070543  0.37586255  0.38900702  1
  Sr2+  Sr17  1  0.12611021  0.37820089  0.87523089  1
  Sr2+  Sr18  1  0.12888151  0.87377971  0.38631518  1
  Sr2+  Sr19  1  0.12139014  0.87802287  0.87295857  1
  Sr2+  Sr20  1  0.61086373  0.36628746  0.37159833  1
  Sr2+  Sr21  1  0.61848142  0.36679626  0.86521303  1
  Sr2+  Sr22  1  0.64281741  0.88788158  0.37984334  1
  Sr2+  Sr23  1  0.62229544  0.88008954  0.87129333  1
  Sr2+  Sr24  1  0.39618925  0.12603107  0.36872877  1
  Sr2+  Sr25  1  0.37096431  0.12593033  0.87585378  1
  Sr2+  Sr26  1  0.36704844  0.61559430  0.38582738  1
  Sr2+  Sr27  1  0.37389775  0.63413289  0.87173145  1
  Sr2+  Sr28  1  0.86653589  0.12584244  0.37000749  1
  Sr2+  Sr29  1  0.88872198  0.11908541  0.87609816  1
  Sr2+  Sr30  1  0.88020263  0.62468405  0.38881613  1
  Sr2+  Sr31  1  0.87877049  0.62059289  0.87640067  1
  Sr2+  Sr32  1  0.12583937  0.12146725  0.36863300  1
  Sr2+  Sr33  1  0.12731726  0.14107429  0.87789362  1
  Sr2+  Sr34  1  0.12689380  0.60936403  0.37518149  1
  Sr2+  Sr35  1  0.12700065  0.61914001  0.87566262  1
  Sr2+  Sr36  1  0.62965294  0.12647155  0.40420644  1
  Sr2+  Sr37  1  0.62427845  0.12107016  0.86337144  1
  Sr2+  Sr38  1  0.62267467  0.61177464  0.38210912  1
  Sr2+  Sr39  1  0.62272662  0.62564278  0.86779354  1
  Sr2+  Sr40  1  0.37395744  0.36464993  0.37582078  1
  Sr2+  Sr41  1  0.36287139  0.36213124  0.87004309  1
  Sr2+  Sr42  1  0.37033281  0.89219089  0.37859912  1
  Sr2+  Sr43  1  0.37377345  0.87763155  0.87190337  1
  Sr2+  Sr44  1  0.87300630  0.36187469  0.38059216  1
  Sr2+  Sr45  1  0.87877151  0.36716998  0.87052686  1
  Sr2+  Sr46  1  0.88518521  0.89334241  0.38292050  1
  Sr2+  Sr47  1  0.87766593  0.89160310  0.86899519  1
  Sr2+  Sr48  1  0.12312919  0.38001819  0.12722101  1
  Sr2+  Sr49  1  0.13879129  0.38348415  0.62666806  1
  Sr2+  Sr50  1  0.12737313  0.86906011  0.13091766  1
  Sr2+  Sr51  1  0.10323971  0.86783620  0.62404907  1
  Sr2+  Sr52  1  0.63411382  0.37960673  0.13220129  1
  Sr2+  Sr53  1  0.62803472  0.37769564  0.62419428  1
  Sr2+  Sr54  1  0.62960300  0.87059449  0.12127941  1
  Sr2+  Sr55  1  0.62308654  0.87668119  0.61672309  1
  Sr2+  Sr56  1  0.38070260  0.12301643  0.12344716  1
  Sr2+  Sr57  1  0.38808135  0.12754888  0.60655646  1
  Sr2+  Sr58  1  0.37743823  0.63231453  0.12157607  1
  Sr2+  Sr59  1  0.36810464  0.62452403  0.62748252  1
  Sr2+  Sr60  1  0.87355997  0.13067217  0.12881264  1
  Sr2+  Sr61  1  0.86089029  0.11986146  0.61954173  1
  Sr2+  Sr62  1  0.86956756  0.62106383  0.12594199  1
  Sr2+  Sr63  1  0.88522317  0.62841096  0.62721119  1
  Ca2+  Ca64  1  0.50455204  0.50249221  0.50122742  1
  Ca2+  Ca65  1  -0.00613381  0.49970980  0.50058067  1
  Ca2+  Ca66  1  0.50221903  0.50006108  -0.00127309  1
  Ca2+  Ca67  1  0.00481435  0.00565181  0.49961977  1
  Ca2+  Ca68  1  0.49966121  -0.00236026  0.49982225  1
  Ca2+  Ca69  1  0.75403251  0.25474415  0.50232822  1
  Ca2+  Ca70  1  0.25403265  0.75286591  0.49893886  1
  Ca2+  Ca71  1  0.74432071  0.74712413  0.49762836  1
  Ca2+  Ca72  1  0.24801498  0.24813146  0.49506514  1
  Ca2+  Ca73  1  0.74972845  0.25020576  -0.00114815  1
  Ca2+  Ca74  1  0.49954770  0.75292829  0.24724620  1
  Ca2+  Ca75  1  0.75447338  -0.00326175  0.24710990  1
  Ca2+  Ca76  1  -0.00132095  0.24898096  0.75164437  1
  Ca2+  Ca77  1  -0.00282227  0.75047369  0.75377950  1
  Ca2+  Ca78  1  0.24955895  0.49453312  0.24859030  1
  Ca2+  Ca79  1  0.25112494  -0.00209183  0.75175057  1
  Ca2+  Ca80  1  0.24938346  0.50225710  0.75211949  1
  Ca2+  Ca81  1  0.74992378  -0.00375244  0.74867020  1
  Ca2+  Ca82  1  0.49850053  0.24974872  0.24636799  1
  Ca2+  Ca83  1  0.49589799  0.25080410  0.75033316  1
  Ca2+  Ca84  1  -0.00157040  0.75158438  0.25282888  1
  Nb5+  Nb85  1  -0.00210305  -0.00535427  0.00610200  1
  Nb5+  Nb86  1  -0.00211777  0.49421501  0.00010452  1
  Nb5+  Nb87  1  0.49736642  -0.00123117  -0.00181852  1
  Nb5+  Nb88  1  0.24954527  0.25553268  0.00544966  1
  Nb5+  Nb89  1  0.75418900  0.74730413  -0.00453158  1
  Nb5+  Nb90  1  0.25232456  0.75630921  0.00122903  1
  Nb5+  Nb91  1  0.75272708  0.49978461  0.25729770  1
  Nb5+  Nb92  1  0.50091744  0.75050749  0.75031952  1
  Nb5+  Nb93  1  0.24997103  0.00121078  0.24800938  1
  Nb5+  Nb94  1  0.75018023  0.50151019  0.75750811  1
  Nb5+  Nb95  1  0.00262725  0.25197750  0.25049906  1
  Nb5+  Nb96  1  0.00289413  -0.00020366  0.24492510  1
  Nb5+  Nb97  1  0.00089680  0.00568117  0.74234396  1
  Nb5+  Nb98  1  -0.00273171  0.49689677  0.25339322  1
  Nb5+  Nb99  1  0.00084061  0.50236155  0.74976746  1
  Nb5+  Nb100  1  0.50837929  -0.00229009  0.24831660  1
  Nb5+  Nb101  1  0.49827249  -0.00136195  0.74626161  1
  Nb5+  Nb102  1  0.49575050  0.50456707  0.24666977  1
  Nb5+  Nb103  1  0.49748867  0.50128121  0.75483428  1
  Nb5+  Nb104  1  0.24902930  0.25000098  0.24606738  1
  Nb5+  Nb105  1  0.25199693  0.24318344  0.74067948  1
  Nb5+  Nb106  1  0.25221343  0.74912519  0.25313402  1
  Nb5+  Nb107  1  0.24545603  0.75029047  0.74912122  1
  Nb5+  Nb108  1  0.74747552  0.24722808  0.24466169  1
  Nb5+  Nb109  1  0.74882829  0.24614232  0.75314109  1
  Nb5+  Nb110  1  0.75224919  0.74794943  0.25813070  1
  Nb5+  Nb111  1  0.74769826  0.74836115  0.75297967  1
  Nb5+  Nb112  1  -0.00491068  0.24973613  0.50976979  1
  Nb5+  Nb113  1  0.00018369  0.24347466  1.00206002  1
  Nb5+  Nb114  1  -0.00260238  0.75313779  0.49775887  1
  Nb5+  Nb115  1  0.00430415  0.74412945  0.99712001  1
  Nb5+  Nb116  1  0.49791153  0.25388771  0.49901450  1
  Nb5+  Nb117  1  0.50017126  0.25357541  0.99985992  1
  Nb5+  Nb118  1  0.49744361  0.74923916  0.48655576  1
  Nb5+  Nb119  1  0.50577476  0.75110382  0.99956352  1
  Nb5+  Nb120  1  0.24462325  0.00301421  0.00163389  1
  Nb5+  Nb121  1  0.25215371  0.00328877  0.50952394  1
  Nb5+  Nb122  1  0.25110280  0.50770418  0.00291277  1
  Nb5+  Nb123  1  0.25227147  0.49835998  0.50104686  1
  Nb5+  Nb124  1  0.74644295  0.00056258  0.00539890  1
  Nb5+  Nb125  1  0.75453793  -0.00107658  0.50141219  1
  Nb5+  Nb126  1  0.75117312  0.49607168  -0.00018787  1
  Nb5+  Nb127  1  0.74804186  0.50176561  0.51043153  1
  O2-  O128  1  -0.00621321  0.03162030  0.12155682  1
  O2-  O129  1  -0.00217769  0.03841690  0.63399263  1
  O2-  O130  1  0.01164506  0.51448741  0.11896170  1
  O2-  O131  1  0.00969837  0.52363771  0.63718472  1
  O2-  O132  1  0.49226298  -0.02090281  0.11643278  1
  O2-  O133  1  0.47525334  -0.02192187  0.63646122  1
  O2-  O134  1  0.52088491  0.47202693  0.13212862  1
  O2-  O135  1  0.52508789  0.48844325  0.63943606  1
  O2-  O136  1  0.02521909  -0.01105501  0.35854605  1
  O2-  O137  1  0.01000772  -0.01782588  0.89162167  1
  O2-  O138  1  -0.02927847  0.48236977  0.36284774  1
  O2-  O139  1  -0.02068319  0.48261263  0.88316929  1
  O2-  O140  1  0.51844706  0.01958086  0.36123550  1
  O2-  O141  1  0.52247113  0.01207313  0.88338786  1
  O2-  O142  1  0.49213785  0.52866350  0.36296689  1
  O2-  O143  1  0.49267996  0.53558400  0.86804530  1
  O2-  O144  1  0.25931933  0.21819091  0.11985013  1
  O2-  O145  1  0.26698369  0.21627662  0.63172234  1
  O2-  O146  1  0.23042497  0.72775157  0.11391010  1
  O2-  O147  1  0.24072498  0.72509121  0.63765708  1
  O2-  O148  1  0.77445487  0.26891446  0.13160027  1
  O2-  O149  1  0.77692504  0.26027479  0.63848231  1
  O2-  O150  1  0.73791925  0.75707408  0.11282695  1
  O2-  O151  1  0.72785586  0.76211170  0.63903002  1
  O2-  O152  1  0.22310665  0.26793089  0.35721186  1
  O2-  O153  1  0.22716620  0.26704964  0.89035799  1
  O2-  O154  1  0.27290543  0.77233424  0.36191152  1
  O2-  O155  1  0.25907583  0.76969651  0.88416373  1
  O2-  O156  1  0.74037838  0.24217827  0.36240213  1
  O2-  O157  1  0.71458114  0.24862331  0.86882905  1
  O2-  O158  1  0.75374672  0.70980417  0.36390874  1
  O2-  O159  1  0.75541979  0.71922274  0.87922318  1
  O2-  O160  1  -0.01716002  0.24062319  0.12149343  1
  O2-  O161  1  -0.02955752  0.23011923  0.61880182  1
  O2-  O162  1  0.01025252  0.73826586  0.11300353  1
  O2-  O163  1  0.00940489  0.72901072  0.61892670  1
  O2-  O164  1  0.46527857  0.25684482  0.11275173  1
  O2-  O165  1  0.47261894  0.26635878  0.61662210  1
  O2-  O166  1  0.50551106  0.78319902  0.11050770  1
  O2-  O167  1  0.51706043  0.76875331  0.63802035  1
  O2-  O168  1  0.23146412  -0.01339945  0.36062068  1
  O2-  O169  1  0.24339701  -0.03059715  0.89195508  1
  O2-  O170  1  0.27120590  0.47700930  0.38236101  1
  O2-  O171  1  0.25583039  0.47257767  0.89121740  1
  O2-  O172  1  0.73786138  0.02107357  0.38057368  1
  O2-  O173  1  0.74258423  0.01021102  0.88952707  1
  O2-  O174  1  0.77044885  0.51486835  0.36823319  1
  O2-  O175  1  0.76937346  0.51368190  0.87379545  1
  O2-  O176  1  0.01706425  0.27140598  0.36250000  1
  O2-  O177  1  0.02209771  0.27008197  0.89073115  1
  O2-  O178  1  -0.01277620  0.78197717  0.38252872  1
  O2-  O179  1  -0.01645267  0.78417963  0.88983470  1
  O2-  O180  1  0.52146444  0.23105081  0.38077464  1
  O2-  O181  1  0.51278414  0.22116669  0.88777771  1
  O2-  O182  1  0.47506904  0.72759823  0.37828180  1
  O2-  O183  1  0.48787875  0.73411822  0.88097064  1
  O2-  O184  1  0.26818390  0.01254973  0.11878453  1
  O2-  O185  1  0.27198807  0.02325899  0.61887018  1
  O2-  O186  1  0.21437507  0.51189773  0.11349372  1
  O2-  O187  1  0.22999170  0.52097391  0.61846007  1
  O2-  O188  1  0.76663158  -0.04183755  0.11323144  1
  O2-  O189  1  0.77453349  -0.02415035  0.61694691  1
  O2-  O190  1  0.74109204  0.48874532  0.11729002  1
  O2-  O191  1  0.73484653  0.49202398  0.62746301  1
  O2-  O192  1  0.12109014  0.25929844  0.22080996  1
  O2-  O193  1  0.13384575  0.26311115  0.73283775  1
  O2-  O194  1  0.13555636  0.77211026  0.25029050  1
  O2-  O195  1  0.13338478  0.77211414  0.76409424  1
  O2-  O196  1  0.63382586  0.26372536  0.22762108  1
  O2-  O197  1  0.63132956  0.27533967  0.72942015  1
  O2-  O198  1  0.63729563  0.77014568  0.24676768  1
  O2-  O199  1  0.62263105  0.75554494  0.77785057  1
  O2-  O200  1  0.36168369  0.23429985  0.26683765  1
  O2-  O201  1  0.36458823  0.24112034  0.78134671  1
  O2-  O202  1  0.36240883  0.74636982  0.21342892  1
  O2-  O203  1  0.38360731  0.72904395  0.74639351  1
  O2-  O204  1  0.88187823  0.24188091  0.26078542  1
  O2-  O205  1  0.86267737  0.23909888  0.78686488  1
  O2-  O206  1  0.86510279  0.73442606  0.22273201  1
  O2-  O207  1  0.86111435  0.72677842  0.74167835  1
  O2-  O208  1  0.26120436  0.36066343  0.21278909  1
  O2-  O209  1  0.26668980  0.36477430  0.73298703  1
  O2-  O210  1  0.25835574  0.88330186  0.22665619  1
  O2-  O211  1  0.28229600  0.86073338  0.73964413  1
  O2-  O212  1  0.76605726  0.37964682  0.25538625  1
  O2-  O213  1  0.76592505  0.38312833  0.75975046  1
  O2-  O214  1  0.77426815  0.86066690  0.28029203  1
  O2-  O215  1  0.76079876  0.85995862  0.77848155  1
  O2-  O216  1  0.22745658  0.12402155  0.25181073  1
  O2-  O217  1  0.23895802  0.13259296  0.78311999  1
  O2-  O218  1  0.23725835  0.63419230  0.26591368  1
  O2-  O219  1  0.24777535  0.63645017  0.78635094  1
  O2-  O220  1  0.74704341  0.13309912  0.22428488  1
  O2-  O221  1  0.72761774  0.13251581  0.73930653  1
  O2-  O222  1  0.74230284  0.61659966  0.22665503  1
  O2-  O223  1  0.72665138  0.62119965  0.74424549  1
  O2-  O224  1  0.11303010  0.47825363  0.26764534  1
  O2-  O225  1  0.11355410  0.48473855  0.76986292  1
  O2-  O226  1  0.12665429  0.99651963  0.21943407  1
  O2-  O227  1  0.11489856  0.97161189  0.74816586  1
  O2-  O228  1  0.63535990  0.48590937  0.26296582  1
  O2-  O229  1  0.63093651  0.48785774  0.77286903  1
  O2-  O230  1  0.61939390  0.97626265  0.23019761  1
  O2-  O231  1  0.61430286  0.97003835  0.74607521  1
  O2-  O232  1  0.36619087  0.01991665  0.25607348  1
  O2-  O233  1  0.38813689  0.00536803  0.78564194  1
  O2-  O234  1  0.38270459  0.51661049  0.22352729  1
  O2-  O235  1  0.38476763  0.51537451  0.73296485  1
  O2-  O236  1  0.88930650  0.02266343  0.25814418  1
  O2-  O237  1  0.88383122  0.01626468  0.77187711  1
  O2-  O238  1  0.87509122  0.50508648  0.22439807  1
  O2-  O239  1  0.86823214  0.51982220  0.73713135  1
  O2-  O240  1  0.48876308  0.38503464  0.27330372  1
  O2-  O241  1  0.48812292  0.38753765  0.77985808  1
  O2-  O242  1  0.46810718  0.88886202  0.25970768  1
  O2-  O243  1  0.48887915  0.86725238  0.77415116  1
  O2-  O244  1  0.99103713  0.37376541  0.22448106  1
  O2-  O245  1  0.97365589  0.38695918  0.74400207  1
  O2-  O246  1  0.98866544  0.88864271  0.22112766  1
  O2-  O247  1  0.97418193  0.88643411  0.72904694  1
  O2-  O248  1  0.01722995  0.13294816  0.25555152  1
  O2-  O249  1  0.01606281  0.11577647  0.78550290  1
  O2-  O250  1  0.01404069  0.61308842  0.25931176  1
  O2-  O251  1  0.00225185  0.61557913  0.78705037  1
  O2-  O252  1  0.50203893  0.11269783  0.21897337  1
  O2-  O253  1  0.51804536  0.11286930  0.73426532  1
  O2-  O254  1  0.52305673  0.61788391  0.22280966  1
  O2-  O255  1  0.52032772  0.62954147  0.73996679  1
  O2-  O256  1  0.11646764  0.49750531  -0.01992023  1
  O2-  O257  1  0.12995825  0.48896343  0.48484987  1
  O2-  O258  1  0.12727901  0.99258220  0.01826923  1
  O2-  O259  1  0.13700678  0.96912014  0.51446411  1
  O2-  O260  1  0.63920250  0.47974717  -0.02142743  1
  O2-  O261  1  0.63883153  0.47159648  0.47346995  1
  O2-  O262  1  0.62819820  0.98563660  0.01461311  1
  O2-  O263  1  0.63456210  0.97868224  0.50672881  1
  O2-  O264  1  0.37761825  0.00330956  -0.01035255  1
  O2-  O265  1  0.36464871  0.02788298  0.47271047  1
  O2-  O266  1  0.36358162  0.50713824  0.02621137  1
  O2-  O267  1  0.36945370  0.51917113  0.51908416  1
  O2-  O268  1  0.87941639  0.00741216  -0.00661984  1
  O2-  O269  1  0.87167514  0.02436301  0.48147990  1
  O2-  O270  1  0.88040075  0.52245425  0.00987612  1
  O2-  O271  1  0.86176408  0.53760206  0.51045184  1
  O2-  O272  1  0.48076496  0.36435478  -0.02563199  1
  O2-  O273  1  0.48209539  0.36972342  0.47729747  1
  O2-  O274  1  0.49513314  0.87659268  -0.02482475  1
  O2-  O275  1  0.46942630  0.86668775  0.48961912  1
  O2-  O276  1  0.99257192  0.37821153  0.01880398  1
  O2-  O277  1  0.97293397  0.36775137  0.50792396  1
  O2-  O278  1  0.99559846  0.88026090  0.02908125  1
  O2-  O279  1  0.97951383  0.87104310  0.52452432  1
  O2-  O280  1  0.01509254  0.12623093  -0.01103121  1
  O2-  O281  1  0.03056388  0.13943720  0.48197218  1
  O2-  O282  1  0.00777136  0.62926557  -0.02109475  1
  O2-  O283  1  0.01666230  0.63499298  0.47098774  1
  O2-  O284  1  0.50553454  0.11704258  0.01854080  1
  O2-  O285  1  0.51686234  0.13235664  0.52035846  1
  O2-  O286  1  0.50380286  0.63754798  0.02604923  1
  O2-  O287  1  0.52877881  0.63733798  0.51345285  1
  O2-  O288  1  0.12593200  0.25209844  0.02482327  1
  O2-  O289  1  0.11312986  0.27765641  0.52277270  1
  O2-  O290  1  0.12310995  0.75640517  -0.01638479  1
  O2-  O291  1  0.11837056  0.77086986  0.49804403  1
  O2-  O292  1  0.61223465  0.26064366  0.02947748  1
  O2-  O293  1  0.61801874  0.26884757  0.51800818  1
  O2-  O294  1  0.62419676  0.75425910  -0.01337535  1
  O2-  O295  1  0.61210060  0.78385191  0.48497531  1
  O2-  O296  1  0.36512129  0.23743009  -0.01668507  1
  O2-  O297  1  0.38106717  0.23096867  0.47490284  1
  O2-  O298  1  0.37059695  0.74622730  0.00837167  1
  O2-  O299  1  0.38637694  0.72930667  0.52830203  1
  O2-  O300  1  0.88626350  0.23308907  -0.01632585  1
  O2-  O301  1  0.88546973  0.23127968  0.46852190  1
  O2-  O302  1  0.87355530  0.73701715  0.01005767  1
  O2-  O303  1  0.87945388  0.72952134  0.51220096  1
  O2-  O304  1  0.25536491  0.36979794  0.02614982  1
  O2-  O305  1  0.26364655  0.38142473  0.52616834  1
  O2-  O306  1  0.25163595  0.87075225  0.02634314  1
  O2-  O307  1  0.28052924  0.88678616  0.50339775  1
  O2-  O308  1  0.78431577  0.38563677  -0.01071381  1
  O2-  O309  1  0.78336880  0.38792967  0.50013327  1
  O2-  O310  1  0.75888936  0.86341112  -0.02449767  1
  O2-  O311  1  0.77143147  0.88129548  0.47568999  1
  O2-  O312  1  0.24152494  0.11797070  -0.01720248  1
  O2-  O313  1  0.21582907  0.11509959  0.48501079  1
  O2-  O314  1  0.24658193  0.62341643  -0.01951719  1
  O2-  O315  1  0.23699195  0.61842507  0.47458379  1
  O2-  O316  1  0.74380435  0.11208971  0.03151249  1
  O2-  O317  1  0.73393905  0.11798646  0.52556021  1
  O2-  O318  1  0.74124586  0.62122977  0.01049487  1
  O2-  O319  1  0.71189872  0.61505406  0.50708577  1
