# generated using pymatgen
data_Sr64Ca21Nb43O192
_symmetry_space_group_name_H-M   'P 1'
_cell_length_a   16.55970028
_cell_length_b   16.57577216
_cell_length_c   16.72948685
_cell_angle_alpha   90.00298684
_cell_angle_beta   90.01857704
_cell_angle_gamma   90.10956248
_symmetry_Int_Tables_number   1
_chemical_formula_structural   Sr64Ca21Nb43O192
_chemical_formula_sum   'Sr64 Ca21 Nb43 O192'
_cell_volume   4592.06517189
_cell_formula_units_Z   1
loop_
 _symmetry_equiv_pos_site_id
 _symmetry_equiv_pos_as_xyz
  1  'x, y, z'
loop_
 _atom_type_symbol
 _atom_type_oxidation_number
  Sr2+  2.0
  Ca2+  2.0
  Nb5+  5.0
  O2-  -2.0
loop_
 _atom_site_type_symbol
 _atom_site_label
 _atom_site_symmetry_multiplicity
 _atom_site_fract_x
 _atom_site_fract_y
 _atom_site_fract_z
 _atom_site_occupancy
  Sr2+  Sr0  1  0.13322400  0.12238345  0.12241495  1
  Sr2+  Sr1  1  0.12449626  0.12166765  0.61972891  1
  Sr2+  Sr2  1  0.13094674  0.63641528  0.12149005  1
  Sr2+  Sr3  1  0.13599047  0.62308321  0.63806356  1
  Sr2+  Sr4  1  0.62593612  0.12153831  0.12678115  1
  Sr2+  Sr5  1  0.62373275  0.12405198  0.61649195  1
  Sr2+  Sr6  1  0.62493225  0.64164303  0.11577834  1
  Sr2+  Sr7  1  0.61591163  0.62049698  0.63525335  1
  Sr2+  Sr8  1  0.38266211  0.36329893  0.11968746  1
  Sr2+  Sr9  1  0.37953961  0.39306700  0.62228037  1
  Sr2+  Sr10  1  0.38088229  0.85619979  0.13011753  1
  Sr2+  Sr11  1  0.38301414  0.85757450  0.62352002  1
  Sr2+  Sr12  1  0.87901173  0.36626438  0.12803711  1
  Sr2+  Sr13  1  0.87372881  0.36198028  0.62709254  1
  Sr2+  Sr14  1  0.87167070  0.86576623  0.13365377  1
  Sr2+  Sr15  1  0.87778025  0.87173367  0.62351853  1
  Sr2+  Sr16  1  0.11502563  0.38383117  0.37928943  1
  Sr2+  Sr17  1  0.10584557  0.37524770  0.87721061  1
  Sr2+  Sr18  1  0.11480178  0.86682545  0.37547099  1
  Sr2+  Sr19  1  0.12838194  0.87720162  0.87781397  1
  Sr2+  Sr20  1  0.61712300  0.37858910  0.37504831  1
  Sr2+  Sr21  1  0.62729457  0.38022066  0.87878747  1
  Sr2+  Sr22  1  0.62240792  0.87064353  0.37518583  1
  Sr2+  Sr23  1  0.61541269  0.87275751  0.87591464  1
  Sr2+  Sr24  1  0.37135668  0.13214736  0.36938474  1
  Sr2+  Sr25  1  0.35477659  0.12484907  0.87274541  1
  Sr2+  Sr26  1  0.35252375  0.62483849  0.37532630  1
  Sr2+  Sr27  1  0.38659192  0.63626775  0.87133174  1
  Sr2+  Sr28  1  0.87579455  0.12383119  0.37511906  1
  Sr2+  Sr29  1  0.87847408  0.12595844  0.87289866  1
  Sr2+  Sr30  1  0.88805759  0.62596132  0.37248740  1
  Sr2+  Sr31  1  0.89039736  0.62361765  0.87807769  1
  Sr2+  Sr32  1  0.12126425  0.12286885  0.37775489  1
  Sr2+  Sr33  1  0.11803229  0.13394093  0.88264682  1
  Sr2+  Sr34  1  0.12218151  0.62950176  0.37156870  1
  Sr2+  Sr35  1  0.11524619  0.61938160  0.87192833  1
  Sr2+  Sr36  1  0.61893304  0.12801651  0.37398580  1
  Sr2+  Sr37  1  0.61928812  0.11180516  0.86957861  1
  Sr2+  Sr38  1  0.62570114  0.62067203  0.37323260  1
  Sr2+  Sr39  1  0.62327449  0.62274126  0.87998492  1
  Sr2+  Sr40  1  0.37282231  0.38900763  0.37220830  1
  Sr2+  Sr41  1  0.36754425  0.38548309  0.86844613  1
  Sr2+  Sr42  1  0.37437417  0.84938793  0.37546419  1
  Sr2+  Sr43  1  0.37212645  0.87545143  0.88279573  1
  Sr2+  Sr44  1  0.86411355  0.38345512  0.37578247  1
  Sr2+  Sr45  1  0.87112037  0.38680618  0.88220655  1
  Sr2+  Sr46  1  0.86579441  0.85646305  0.37825298  1
  Sr2+  Sr47  1  0.86031899  0.86143979  0.87013949  1
  Sr2+  Sr48  1  0.13672495  0.37239187  0.11604273  1
  Sr2+  Sr49  1  0.13969810  0.36867094  0.62550518  1
  Sr2+  Sr50  1  0.14162008  0.87481448  0.12497176  1
  Sr2+  Sr51  1  0.13906551  0.87518003  0.62806506  1
  Sr2+  Sr52  1  0.62255993  0.37050235  0.12590459  1
  Sr2+  Sr53  1  0.62230179  0.36690928  0.63220899  1
  Sr2+  Sr54  1  0.63545802  0.88303178  0.11947013  1
  Sr2+  Sr55  1  0.61982034  0.88492224  0.62716232  1
  Sr2+  Sr56  1  0.37521452  0.12261388  0.12084542  1
  Sr2+  Sr57  1  0.37163387  0.12123979  0.62322563  1
  Sr2+  Sr58  1  0.37630931  0.63020149  0.12768125  1
  Sr2+  Sr59  1  0.37326673  0.62806078  0.63667152  1
  Sr2+  Sr60  1  0.88761483  0.11543029  0.12993830  1
  Sr2+  Sr61  1  0.88537262  0.11884722  0.62310873  1
  Sr2+  Sr62  1  0.88665215  0.62889999  0.11836794  1
  Sr2+  Sr63  1  0.88575387  0.62997395  0.63887568  1
  Ca2+  Ca64  1  -0.00218236  0.49718010  0.50150742  1
  Ca2+  Ca65  1  0.50354736  0.49974390  0.49785336  1
  Ca2+  Ca66  1  0.49869937  0.00012141  0.00370005  1
  Ca2+  Ca67  1  0.50015939  0.49629414  -0.00014735  1
  Ca2+  Ca68  1  -0.00386207  -0.00007246  0.00046806  1
  Ca2+  Ca69  1  0.74859959  0.24628110  0.00106015  1
  Ca2+  Ca70  1  0.24625153  0.75032004  0.50270190  1
  Ca2+  Ca71  1  0.25030961  0.74679289  -0.00303181  1
  Ca2+  Ca72  1  0.74658605  0.74763437  0.50483425  1
  Ca2+  Ca73  1  0.75040679  0.75127704  -0.00182144  1
  Ca2+  Ca74  1  0.50412334  0.75313500  0.74822884  1
  Ca2+  Ca75  1  0.00130025  0.25093313  0.74744091  1
  Ca2+  Ca76  1  0.25401438  -0.00032620  0.25372020  1
  Ca2+  Ca77  1  0.49951916  0.24613826  0.75017529  1
  Ca2+  Ca78  1  -0.00148548  0.75127198  0.24803213  1
  Ca2+  Ca79  1  0.00193727  0.25179555  0.25092162  1
  Ca2+  Ca80  1  0.50400897  0.74787295  0.25132204  1
  Ca2+  Ca81  1  0.24797958  -0.00019994  0.74948413  1
  Ca2+  Ca82  1  -0.00119556  0.75662496  0.75304086  1
  Ca2+  Ca83  1  0.24750381  0.49880395  0.75558838  1
  Ca2+  Ca84  1  0.24955154  0.49689903  0.24654926  1
  Nb5+  Nb85  1  0.00017852  0.49854661  0.00326358  1
  Nb5+  Nb86  1  0.50040174  0.00114191  0.49686129  1
  Nb5+  Nb87  1  0.00212557  -0.00245610  0.50034085  1
  Nb5+  Nb88  1  0.24887539  0.25128896  0.49197901  1
  Nb5+  Nb89  1  0.74411137  0.25210960  0.49856856  1
  Nb5+  Nb90  1  0.25186934  0.25325526  -0.00789829  1
  Nb5+  Nb91  1  0.75252080  -0.00321919  0.74415989  1
  Nb5+  Nb92  1  0.74904390  0.49545492  0.25296055  1
  Nb5+  Nb93  1  0.50089991  0.25033635  0.25035476  1
  Nb5+  Nb94  1  0.75093674  -0.00150813  0.24957836  1
  Nb5+  Nb95  1  0.75129446  0.49525979  0.75293360  1
  Nb5+  Nb96  1  0.00227137  -0.00462204  0.24884681  1
  Nb5+  Nb97  1  0.00010383  0.00163962  0.75207868  1
  Nb5+  Nb98  1  0.00237294  0.49735123  0.24686074  1
  Nb5+  Nb99  1  -0.00268592  0.49513397  0.74310909  1
  Nb5+  Nb100  1  0.50021443  -0.00014115  0.25189285  1
  Nb5+  Nb101  1  0.49535697  0.00565218  0.75036893  1
  Nb5+  Nb102  1  0.50209325  0.50385086  0.24826590  1
  Nb5+  Nb103  1  0.49919145  0.50130846  0.75338711  1
  Nb5+  Nb104  1  0.24874743  0.25331890  0.24793721  1
  Nb5+  Nb105  1  0.25059895  0.24738707  0.74045345  1
  Nb5+  Nb106  1  0.24838247  0.74977446  0.25061716  1
  Nb5+  Nb107  1  0.24945223  0.75362806  0.75257453  1
  Nb5+  Nb108  1  0.74812424  0.24509504  0.24999642  1
  Nb5+  Nb109  1  0.75134139  0.24414352  0.75387977  1
  Nb5+  Nb110  1  0.74582963  0.73940471  0.25082575  1
  Nb5+  Nb111  1  0.74763967  0.74044373  0.74848746  1
  Nb5+  Nb112  1  -0.00705695  0.24929739  0.49644284  1
  Nb5+  Nb113  1  -0.00315775  0.24811471  1.00693065  1
  Nb5+  Nb114  1  0.00173192  0.74317116  0.50425312  1
  Nb5+  Nb115  1  -0.00254010  0.75968872  0.99650388  1
  Nb5+  Nb116  1  0.49266636  0.24809861  0.49897169  1
  Nb5+  Nb117  1  0.49979788  0.24507933  0.99226984  1
  Nb5+  Nb118  1  0.50668640  0.74078547  0.49886886  1
  Nb5+  Nb119  1  0.49855800  0.75074341  1.00163227  1
  Nb5+  Nb120  1  0.25311205  -0.00396723  0.00432343  1
  Nb5+  Nb121  1  0.25760176  -0.00040185  0.49961133  1
  Nb5+  Nb122  1  0.25124379  0.50323581  -0.00618791  1
  Nb5+  Nb123  1  0.24626444  0.50202115  0.49957879  1
  Nb5+  Nb124  1  0.75115292  0.00256452  -0.00959160  1
  Nb5+  Nb125  1  0.75288187  0.00175534  0.49637346  1
  Nb5+  Nb126  1  0.75091522  0.49816141  0.01141234  1
  Nb5+  Nb127  1  0.74964365  0.50226218  0.50873414  1
  O2-  O128  1  -0.02198892  -0.02280856  0.13707995  1
  O2-  O129  1  -0.01648415  -0.01290265  0.61851803  1
  O2-  O130  1  -0.02228637  0.48095982  0.11937146  1
  O2-  O131  1  -0.03300336  0.48248632  0.63311977  1
  O2-  O132  1  0.52128413  -0.00800822  0.13969717  1
  O2-  O133  1  0.49684392  0.01105698  0.61456862  1
  O2-  O134  1  0.48773684  0.47418088  0.13507593  1
  O2-  O135  1  0.48997501  0.51067869  0.63324496  1
  O2-  O136  1  0.00390960  0.02185157  0.38113083  1
  O2-  O137  1  0.00153562  0.03025887  0.86380859  1
  O2-  O138  1  0.01343915  0.52047043  0.36166230  1
  O2-  O139  1  0.00627115  0.51018993  0.87849634  1
  O2-  O140  1  0.50953466  0.01387221  0.37772769  1
  O2-  O141  1  0.50353708  -0.00189637  0.86479328  1
  O2-  O142  1  0.53056507  0.50060288  0.36347853  1
  O2-  O143  1  0.53414263  0.49432378  0.86598100  1
  O2-  O144  1  0.23670608  0.23716298  0.13292814  1
  O2-  O145  1  0.23588626  0.23038679  0.62448946  1
  O2-  O146  1  0.26275374  0.72730161  0.13257486  1
  O2-  O147  1  0.25227382  0.72138293  0.63272811  1
  O2-  O148  1  0.72102925  0.24817820  0.13808938  1
  O2-  O149  1  0.72790764  0.24770481  0.61711520  1
  O2-  O150  1  0.77045859  0.73983648  0.13500075  1
  O2-  O151  1  0.78249209  0.74185925  0.63593656  1
  O2-  O152  1  0.27766186  0.26688525  0.38119464  1
  O2-  O153  1  0.27165609  0.26527231  0.88026392  1
  O2-  O154  1  0.23523528  0.77045724  0.36892746  1
  O2-  O155  1  0.25036715  0.78631111  0.86757566  1
  O2-  O156  1  0.76836903  0.25562042  0.37726363  1
  O2-  O157  1  0.78005916  0.25400939  0.86419410  1
  O2-  O158  1  0.72635016  0.75859977  0.36785362  1
  O2-  O159  1  0.72488583  0.76978433  0.86290552  1
  O2-  O160  1  0.02021761  0.28016229  0.11811356  1
  O2-  O161  1  0.01943254  0.27258534  0.60889516  1
  O2-  O162  1  -0.02301511  0.76321436  0.11443487  1
  O2-  O163  1  -0.02233426  0.76382711  0.61804311  1
  O2-  O164  1  0.51116343  0.26823623  0.13505265  1
  O2-  O165  1  0.52065052  0.25092947  0.61147558  1
  O2-  O166  1  0.48101787  0.74274646  0.12056390  1
  O2-  O167  1  0.47980111  0.74064685  0.61447196  1
  O2-  O168  1  0.22826094  -0.01192264  0.38867914  1
  O2-  O169  1  0.25284897  -0.02005972  0.88456770  1
  O2-  O170  1  0.23832928  0.46997793  0.38390671  1
  O2-  O171  1  0.22808495  0.46129675  0.88520549  1
  O2-  O172  1  0.74901879  -0.00239142  0.38034567  1
  O2-  O173  1  0.75733666  -0.00580802  0.87291650  1
  O2-  O174  1  0.73124396  0.49121796  0.36803046  1
  O2-  O175  1  0.73762313  0.48974351  0.86786542  1
  O2-  O176  1  -0.00280913  0.21698900  0.38328980  1
  O2-  O177  1  -0.00599942  0.23058274  0.88733836  1
  O2-  O178  1  0.01752674  0.73282014  0.38349882  1
  O2-  O179  1  0.01666086  0.72539950  0.88494208  1
  O2-  O180  1  0.49046700  0.23448936  0.37657646  1
  O2-  O181  1  0.48930760  0.20992938  0.88458076  1
  O2-  O182  1  0.52121522  0.75839435  0.38281000  1
  O2-  O183  1  0.50960208  0.75958633  0.88201377  1
  O2-  O184  1  0.24979742  0.02902646  0.11974750  1
  O2-  O185  1  0.24579434  0.03048896  0.61312469  1
  O2-  O186  1  0.25645426  0.51567530  0.11107330  1
  O2-  O187  1  0.26426683  0.51328870  0.61795462  1
  O2-  O188  1  0.74450927  0.01301099  0.13377636  1
  O2-  O189  1  0.74624764  0.01483730  0.62582063  1
  O2-  O190  1  0.76798339  0.50732637  0.12520825  1
  O2-  O191  1  0.77225814  0.50728888  0.62224826  1
  O2-  O192  1  0.13934482  0.27884818  0.27105131  1
  O2-  O193  1  0.13689076  0.27975707  0.76228488  1
  O2-  O194  1  0.13113115  0.76978530  0.23210719  1
  O2-  O195  1  0.13122316  0.77820005  0.74404488  1
  O2-  O196  1  0.62647272  0.26703897  0.27350822  1
  O2-  O197  1  0.63929408  0.27916242  0.76254310  1
  O2-  O198  1  0.63638973  0.77822261  0.22811969  1
  O2-  O199  1  0.63739973  0.76965725  0.71841615  1
  O2-  O200  1  0.38464517  0.22711145  0.24107342  1
  O2-  O201  1  0.36604189  0.21608474  0.74134503  1
  O2-  O202  1  0.36860433  0.72870304  0.26827745  1
  O2-  O203  1  0.36896531  0.73038696  0.75574249  1
  O2-  O204  1  0.86267747  0.23292871  0.23230923  1
  O2-  O205  1  0.86314266  0.23809024  0.71577379  1
  O2-  O206  1  0.86265926  0.73930695  0.27386424  1
  O2-  O207  1  0.86364858  0.73518890  0.77897529  1
  O2-  O208  1  0.28890256  0.36346753  0.23942719  1
  O2-  O209  1  0.28163719  0.36317091  0.73226625  1
  O2-  O210  1  0.27442696  0.86727626  0.23308014  1
  O2-  O211  1  0.27119172  0.86849726  0.71711813  1
  O2-  O212  1  0.76723037  0.37664023  0.24594285  1
  O2-  O213  1  0.77107872  0.38020123  0.74015467  1
  O2-  O214  1  0.76880037  0.88395407  0.24724365  1
  O2-  O215  1  0.77229375  0.88385404  0.73807125  1
  O2-  O216  1  0.24074164  0.13895646  0.27826963  1
  O2-  O217  1  0.22272609  0.13559225  0.77543156  1
  O2-  O218  1  0.22836046  0.62971886  0.27036392  1
  O2-  O219  1  0.22518596  0.63426505  0.77293980  1
  O2-  O220  1  0.73052536  0.12884696  0.26431270  1
  O2-  O221  1  0.72800419  0.12957332  0.75767412  1
  O2-  O222  1  0.72478447  0.62308244  0.25421360  1
  O2-  O223  1  0.72751205  0.62417805  0.75288076  1
  O2-  O224  1  0.11273119  0.46841064  0.23314067  1
  O2-  O225  1  0.11164843  0.48004682  0.73006741  1
  O2-  O226  1  0.11514164  0.97542510  0.24433935  1
  O2-  O227  1  0.11131937  0.97238918  0.74472883  1
  O2-  O228  1  0.63296779  0.47845987  0.22878936  1
  O2-  O229  1  0.63569796  0.48653519  0.72476148  1
  O2-  O230  1  0.63127021  0.98831334  0.26458166  1
  O2-  O231  1  0.63506318  0.98302876  0.75608004  1
  O2-  O232  1  0.39056570  0.03486885  0.25112871  1
  O2-  O233  1  0.38368151  0.03017043  0.74920843  1
  O2-  O234  1  0.38874856  0.52104463  0.26825535  1
  O2-  O235  1  0.38538698  0.51868554  0.77197635  1
  O2-  O236  1  0.86663703  0.02693905  0.25907926  1
  O2-  O237  1  0.86604561  0.03354035  0.75027118  1
  O2-  O238  1  0.86518336  0.52316965  0.25944799  1
  O2-  O239  1  0.86734330  0.52499786  0.76186262  1
  O2-  O240  1  0.49065307  0.36834631  0.26995643  1
  O2-  O241  1  0.48706426  0.38223257  0.74543755  1
  O2-  O242  1  0.47760427  0.88783851  0.26514574  1
  O2-  O243  1  0.49425621  0.89035269  0.72724612  1
  O2-  O244  1  0.96363014  0.38617015  0.26310316  1
  O2-  O245  1  0.97257681  0.38369407  0.77287202  1
  O2-  O246  1  0.97281755  0.88614366  0.28120249  1
  O2-  O247  1  0.95857796  0.89206352  0.76006862  1
  O2-  O248  1  0.01523684  0.11432294  0.23142218  1
  O2-  O249  1  0.01079369  0.11657497  0.71899236  1
  O2-  O250  1  0.00900643  0.61330132  0.21960094  1
  O2-  O251  1  0.01020492  0.61497353  0.73812905  1
  O2-  O252  1  0.52975479  0.13117520  0.24727574  1
  O2-  O253  1  0.53832508  0.11424337  0.73777305  1
  O2-  O254  1  0.53274164  0.61368082  0.23504715  1
  O2-  O255  1  0.52725189  0.61859580  0.75702121  1
  O2-  O256  1  0.11651383  0.47680226  0.01014999  1
  O2-  O257  1  0.13216226  0.46861399  0.51530246  1
  O2-  O258  1  0.13267844  0.98424218  0.00355062  1
  O2-  O259  1  0.11870781  0.98879601  0.51165905  1
  O2-  O260  1  0.63768851  0.47001801  0.01285254  1
  O2-  O261  1  0.64012910  0.45970270  0.51205474  1
  O2-  O262  1  0.63444818  0.96932648  -0.00828069  1
  O2-  O263  1  0.62450867  0.99044437  0.50228443  1
  O2-  O264  1  0.36606746  0.03296383  -0.00520219  1
  O2-  O265  1  0.37480926  0.02636128  0.48953199  1
  O2-  O266  1  0.36376899  0.51442643  -0.02939599  1
  O2-  O267  1  0.36629234  0.50576233  0.48316594  1
  O2-  O268  1  0.86300229  0.04320359  -0.00081225  1
  O2-  O269  1  0.86987866  0.02578627  0.49763007  1
  O2-  O270  1  0.87553654  0.51544895  -0.01371552  1
  O2-  O271  1  0.86131111  0.50887595  0.47005877  1
  O2-  O272  1  0.46662998  0.35892433  -0.01513000  1
  O2-  O273  1  0.48199882  0.36296491  0.48815473  1
  O2-  O274  1  0.46625251  0.86738568  0.00317745  1
  O2-  O275  1  0.47682455  0.88743545  0.49618991  1
  O2-  O276  1  0.98297806  0.37480210  -0.01750582  1
  O2-  O277  1  0.98532703  0.36182669  0.46641180  1
  O2-  O278  1  0.98002276  0.86908375  -0.03303294  1
  O2-  O279  1  0.97591812  0.88518843  0.48246780  1
  O2-  O280  1  0.02294783  0.13553087  0.02553208  1
  O2-  O281  1  0.01226140  0.12400771  0.51887847  1
  O2-  O282  1  0.01554553  0.61496658  0.01780284  1
  O2-  O283  1  0.02410252  0.63158197  0.52441007  1
  O2-  O284  1  0.51005432  0.13617738  0.03567301  1
  O2-  O285  1  0.52105361  0.12700197  0.49869542  1
  O2-  O286  1  0.52838081  0.63016692  -0.00197290  1
  O2-  O287  1  0.53877276  0.63141516  0.49799850  1
  O2-  O288  1  0.13111209  0.27019556  -0.01168071  1
  O2-  O289  1  0.13276859  0.26190782  0.48072951  1
  O2-  O290  1  0.11532239  0.76769350  0.01875729  1
  O2-  O291  1  0.11241085  0.78699882  0.51051858  1
  O2-  O292  1  0.61208681  0.27466615  -0.01214747  1
  O2-  O293  1  0.62954652  0.26409400  0.47940920  1
  O2-  O294  1  0.61646631  0.77370950  0.02076997  1
  O2-  O295  1  0.61400147  0.78789642  0.51784655  1
  O2-  O296  1  0.36837838  0.23276449  0.01950279  1
  O2-  O297  1  0.37750311  0.22707260  0.51285294  1
  O2-  O298  1  0.38170049  0.71663090  -0.00796984  1
  O2-  O299  1  0.38557921  0.73565912  0.47914862  1
  O2-  O300  1  0.88394717  0.23407701  0.02767366  1
  O2-  O301  1  0.87702772  0.23261952  0.51337573  1
  O2-  O302  1  0.88284151  0.72454349  -0.01438551  1
  O2-  O303  1  0.88364653  0.73650936  0.47887252  1
  O2-  O304  1  0.26415989  0.36960120  0.02361414  1
  O2-  O305  1  0.26790707  0.36309569  0.52495524  1
  O2-  O306  1  0.27292708  0.88431371  0.02768964  1
  O2-  O307  1  0.27320732  0.88797115  0.52096564  1
  O2-  O308  1  0.77746050  0.38206450  0.00242961  1
  O2-  O309  1  0.77629835  0.36649291  0.50607733  1
  O2-  O310  1  0.78125449  0.89002426  0.01579458  1
  O2-  O311  1  0.76783062  0.88894400  0.51085663  1
  O2-  O312  1  0.22900910  0.13500586  -0.01379534  1
  O2-  O313  1  0.23891407  0.13114146  0.48220073  1
  O2-  O314  1  0.21911898  0.61227426  -0.02258264  1
  O2-  O315  1  0.22658804  0.61409335  0.47942593  1
  O2-  O316  1  0.70983288  0.11511649  -0.00628641  1
  O2-  O317  1  0.73556616  0.12918031  0.49330314  1
  O2-  O318  1  0.72991656  0.61265440  -0.00846858  1
  O2-  O319  1  0.71967531  0.61189003  0.49729307  1
