# generated using pymatgen
data_Sr64Ca21Nb43O192
_symmetry_space_group_name_H-M   'P 1'
_cell_length_a   16.55460091
_cell_length_b   16.57656439
_cell_length_c   16.73444258
_cell_angle_alpha   90.00919337
_cell_angle_beta   89.96746523
_cell_angle_gamma   90.04708845
_symmetry_Int_Tables_number   1
_chemical_formula_structural   Sr64Ca21Nb43O192
_chemical_formula_sum   'Sr64 Ca21 Nb43 O192'
_cell_volume   4592.23673955
_cell_formula_units_Z   1
loop_
 _symmetry_equiv_pos_site_id
 _symmetry_equiv_pos_as_xyz
  1  'x, y, z'
loop_
 _atom_type_symbol
 _atom_type_oxidation_number
  Sr2+  2.0
  Ca2+  2.0
  Nb5+  5.0
  O2-  -2.0
loop_
 _atom_site_type_symbol
 _atom_site_label
 _atom_site_symmetry_multiplicity
 _atom_site_fract_x
 _atom_site_fract_y
 _atom_site_fract_z
 _atom_site_occupancy
  Sr2+  Sr0  1  0.13633989  0.13678765  0.11620657  1
  Sr2+  Sr1  1  0.11646106  0.13160845  0.62973592  1
  Sr2+  Sr2  1  0.12333656  0.61572047  0.12277348  1
  Sr2+  Sr3  1  0.13473618  0.63026630  0.62223380  1
  Sr2+  Sr4  1  0.62723061  0.13351256  0.12534140  1
  Sr2+  Sr5  1  0.62969411  0.10404783  0.62669270  1
  Sr2+  Sr6  1  0.62535147  0.63825278  0.12474102  1
  Sr2+  Sr7  1  0.62428934  0.61369883  0.62433971  1
  Sr2+  Sr8  1  0.37067798  0.36983779  0.12240297  1
  Sr2+  Sr9  1  0.37884205  0.38107864  0.62559713  1
  Sr2+  Sr10  1  0.38822193  0.86064168  0.12586470  1
  Sr2+  Sr11  1  0.36443372  0.86093133  0.62207460  1
  Sr2+  Sr12  1  0.87800002  0.37640720  0.12741089  1
  Sr2+  Sr13  1  0.87127108  0.37696064  0.62668437  1
  Sr2+  Sr14  1  0.86773611  0.85610513  0.12402946  1
  Sr2+  Sr15  1  0.86640852  0.86681662  0.61991137  1
  Sr2+  Sr16  1  0.12679730  0.37873161  0.35520833  1
  Sr2+  Sr17  1  0.12341858  0.38403264  0.87143711  1
  Sr2+  Sr18  1  0.12501382  0.88266536  0.37517782  1
  Sr2+  Sr19  1  0.11259166  0.88223363  0.87520119  1
  Sr2+  Sr20  1  0.61508770  0.37276405  0.37314187  1
  Sr2+  Sr21  1  0.62861824  0.37393917  0.87695944  1
  Sr2+  Sr22  1  0.61546289  0.88462943  0.37369320  1
  Sr2+  Sr23  1  0.60971470  0.88189283  0.87393179  1
  Sr2+  Sr24  1  0.36056792  0.12324742  0.36835496  1
  Sr2+  Sr25  1  0.36446084  0.11094221  0.88362099  1
  Sr2+  Sr26  1  0.36175086  0.62750567  0.37187796  1
  Sr2+  Sr27  1  0.37473200  0.63228857  0.87099513  1
  Sr2+  Sr28  1  0.88444339  0.11204354  0.37650811  1
  Sr2+  Sr29  1  0.88763330  0.12378272  0.87469763  1
  Sr2+  Sr30  1  0.88653961  0.63440183  0.37267094  1
  Sr2+  Sr31  1  0.89241429  0.62725943  0.87890929  1
  Sr2+  Sr32  1  0.12799769  0.13100447  0.38275835  1
  Sr2+  Sr33  1  0.12206221  0.14562595  0.86561841  1
  Sr2+  Sr34  1  0.12536745  0.62606920  0.36832511  1
  Sr2+  Sr35  1  0.13193572  0.63569190  0.88127149  1
  Sr2+  Sr36  1  0.62214225  0.12621526  0.36568862  1
  Sr2+  Sr37  1  0.62607770  0.12050499  0.87857183  1
  Sr2+  Sr38  1  0.61874748  0.63079672  0.37660738  1
  Sr2+  Sr39  1  0.62234612  0.62544106  0.87272782  1
  Sr2+  Sr40  1  0.37101669  0.36997353  0.37477180  1
  Sr2+  Sr41  1  0.36733132  0.39429831  0.87266131  1
  Sr2+  Sr42  1  0.36348861  0.87936288  0.36802258  1
  Sr2+  Sr43  1  0.37510396  0.87058227  0.88200425  1
  Sr2+  Sr44  1  0.88166061  0.39754729  0.37292863  1
  Sr2+  Sr45  1  0.88228788  0.37482867  0.87656252  1
  Sr2+  Sr46  1  0.87453029  0.87426227  0.36811002  1
  Sr2+  Sr47  1  0.87804408  0.87422894  0.88055210  1
  Sr2+  Sr48  1  0.13576210  0.37962307  0.12088595  1
  Sr2+  Sr49  1  0.14890489  0.36886418  0.62958204  1
  Sr2+  Sr50  1  0.12271734  0.86132732  0.11633665  1
  Sr2+  Sr51  1  0.12223831  0.87254206  0.62647380  1
  Sr2+  Sr52  1  0.63717216  0.36503103  0.12631514  1
  Sr2+  Sr53  1  0.60954669  0.37876350  0.62569490  1
  Sr2+  Sr54  1  0.62419109  0.88179132  0.11831599  1
  Sr2+  Sr55  1  0.62600560  0.87296244  0.63254416  1
  Sr2+  Sr56  1  0.37824195  0.12704044  0.12577126  1
  Sr2+  Sr57  1  0.36759125  0.13004058  0.61935028  1
  Sr2+  Sr58  1  0.36609280  0.61903375  0.11115669  1
  Sr2+  Sr59  1  0.38778637  0.61945187  0.62202043  1
  Sr2+  Sr60  1  0.86559877  0.12711291  0.12423720  1
  Sr2+  Sr61  1  0.87480087  0.12139777  0.61612950  1
  Sr2+  Sr62  1  0.88171294  0.61991817  0.13947372  1
  Sr2+  Sr63  1  0.86189248  0.61786783  0.62190011  1
  Ca2+  Ca64  1  0.50120626  0.49576851  0.00234553  1
  Ca2+  Ca65  1  0.00145242  0.50030138  0.50450159  1
  Ca2+  Ca66  1  -0.00189467  0.00273413  0.00322460  1
  Ca2+  Ca67  1  -0.00301271  0.49640465  -0.00232730  1
  Ca2+  Ca68  1  0.49855134  -0.00170278  0.49911158  1
  Ca2+  Ca69  1  0.24989876  0.75407688  0.00135960  1
  Ca2+  Ca70  1  0.25461759  0.24902416  -0.00671407  1
  Ca2+  Ca71  1  0.24905262  0.25117831  0.50121155  1
  Ca2+  Ca72  1  0.75151363  0.74790255  -0.00267877  1
  Ca2+  Ca73  1  0.74957511  0.24901445  0.49959668  1
  Ca2+  Ca74  1  0.49997410  0.75379650  0.74650524  1
  Ca2+  Ca75  1  0.24885301  0.50876780  0.74622400  1
  Ca2+  Ca76  1  0.25053809  -0.00081279  0.75182213  1
  Ca2+  Ca77  1  0.25631101  0.49889723  0.25066221  1
  Ca2+  Ca78  1  0.00038520  0.75315117  0.74623749  1
  Ca2+  Ca79  1  -0.00328188  0.24408402  0.25327812  1
  Ca2+  Ca80  1  0.74519063  0.49950785  0.25215150  1
  Ca2+  Ca81  1  0.00429632  0.75542775  0.25056909  1
  Ca2+  Ca82  1  0.50360769  0.24771280  0.75308988  1
  Ca2+  Ca83  1  0.24726853  -0.00186151  0.24226265  1
  Ca2+  Ca84  1  0.49940581  0.74665197  0.25116897  1
  Nb5+  Nb85  1  0.49859287  0.50199022  0.49665054  1
  Nb5+  Nb86  1  0.49964291  0.00304182  0.00219159  1
  Nb5+  Nb87  1  0.00211712  -0.00434862  0.50111985  1
  Nb5+  Nb88  1  0.75036186  0.24780844  -0.00153305  1
  Nb5+  Nb89  1  0.74202538  0.75021451  0.49741150  1
  Nb5+  Nb90  1  0.24413339  0.75345488  0.49431910  1
  Nb5+  Nb91  1  -0.00430734  0.25639369  0.74833465  1
  Nb5+  Nb92  1  0.75019634  0.49516274  0.75269060  1
  Nb5+  Nb93  1  0.74952581  -0.00117464  0.24402620  1
  Nb5+  Nb94  1  0.49913033  0.24874566  0.24971364  1
  Nb5+  Nb95  1  0.75467397  -0.00595717  0.75011638  1
  Nb5+  Nb96  1  0.00249858  0.00178110  0.24151096  1
  Nb5+  Nb97  1  -0.00354811  0.00048582  0.74757299  1
  Nb5+  Nb98  1  0.00003656  0.49785727  0.25121967  1
  Nb5+  Nb99  1  0.00189240  0.50381852  0.74652711  1
  Nb5+  Nb100  1  0.49802219  0.00132816  0.25075126  1
  Nb5+  Nb101  1  0.49554993  0.00662031  0.74863837  1
  Nb5+  Nb102  1  0.50011187  0.50013816  0.24636382  1
  Nb5+  Nb103  1  0.50243756  0.50208132  0.75382388  1
  Nb5+  Nb104  1  0.24477047  0.24914354  0.24774758  1
  Nb5+  Nb105  1  0.26241481  0.25085310  0.75511181  1
  Nb5+  Nb106  1  0.24913159  0.74847718  0.24312363  1
  Nb5+  Nb107  1  0.25202680  0.75544441  0.75313140  1
  Nb5+  Nb108  1  0.75182746  0.24815706  0.25498571  1
  Nb5+  Nb109  1  0.74986946  0.24423888  0.74894178  1
  Nb5+  Nb110  1  0.74449778  0.74839001  0.25093557  1
  Nb5+  Nb111  1  0.75308677  0.74399637  0.75208139  1
  Nb5+  Nb112  1  -0.00290549  0.25406676  0.49877301  1
  Nb5+  Nb113  1  0.00102509  0.24808399  1.00502650  1
  Nb5+  Nb114  1  -0.00452954  0.74841768  0.50270303  1
  Nb5+  Nb115  1  -0.00044782  0.74864230  1.00123570  1
  Nb5+  Nb116  1  0.50249958  0.24396506  0.50190089  1
  Nb5+  Nb117  1  0.50058631  0.24891109  0.99715799  1
  Nb5+  Nb118  1  0.49091721  0.75063752  0.49573332  1
  Nb5+  Nb119  1  0.50565688  0.74508582  0.99886024  1
  Nb5+  Nb120  1  0.24395129  -0.00258712  0.00225943  1
  Nb5+  Nb121  1  0.25098748  0.00249459  0.50216888  1
  Nb5+  Nb122  1  0.24991808  0.49989309  -0.00413766  1
  Nb5+  Nb123  1  0.24745153  0.49989396  0.50307681  1
  Nb5+  Nb124  1  0.75248452  0.00091239  -0.00413980  1
  Nb5+  Nb125  1  0.74909331  -0.00392382  0.49497953  1
  Nb5+  Nb126  1  0.74706506  0.50268563  0.00255829  1
  Nb5+  Nb127  1  0.74811242  0.49680759  0.49725888  1
  O2-  O128  1  0.00272678  0.04133263  0.13554124  1
  O2-  O129  1  -0.00439086  0.02191128  0.62451900  1
  O2-  O130  1  -0.02198544  0.50444690  0.13274205  1
  O2-  O131  1  -0.03698617  0.50683691  0.63593693  1
  O2-  O132  1  0.50667939  -0.01028337  0.12504782  1
  O2-  O133  1  0.50716973  -0.01130553  0.63538300  1
  O2-  O134  1  0.46590378  0.49292382  0.13727094  1
  O2-  O135  1  0.48888040  0.49547139  0.62139123  1
  O2-  O136  1  -0.00690855  -0.02473637  0.38567894  1
  O2-  O137  1  -0.01387220  -0.01358998  0.86400742  1
  O2-  O138  1  0.01898231  0.48464274  0.37064578  1
  O2-  O139  1  0.00012023  0.47710631  0.86074026  1
  O2-  O140  1  0.51369394  0.01631029  0.36486768  1
  O2-  O141  1  0.50316546  0.01718315  0.88208143  1
  O2-  O142  1  0.53063804  0.50494538  0.38425242  1
  O2-  O143  1  0.52764126  0.49974663  0.86614864  1
  O2-  O144  1  0.26779003  0.23664688  0.13109085  1
  O2-  O145  1  0.27652405  0.24828984  0.63490355  1
  O2-  O146  1  0.21812525  0.74104377  0.13333512  1
  O2-  O147  1  0.23264463  0.75893036  0.61396398  1
  O2-  O148  1  0.75811536  0.24522009  0.12444400  1
  O2-  O149  1  0.77182924  0.24942030  0.63728263  1
  O2-  O150  1  0.72525657  0.76351389  0.13711956  1
  O2-  O151  1  0.73361798  0.76429980  0.61608909  1
  O2-  O152  1  0.23280100  0.26112082  0.36830171  1
  O2-  O153  1  0.21760691  0.26652651  0.86276746  1
  O2-  O154  1  0.27773423  0.75510293  0.37931731  1
  O2-  O155  1  0.27370998  0.74856682  0.86663103  1
  O2-  O156  1  0.72547457  0.24292419  0.36599689  1
  O2-  O157  1  0.72960868  0.24527948  0.88166536  1
  O2-  O158  1  0.77568232  0.74315434  0.38226688  1
  O2-  O159  1  0.78061230  0.74078272  0.86245824  1
  O2-  O160  1  -0.02088014  0.22873792  0.11627484  1
  O2-  O161  1  -0.03077696  0.23822030  0.63289745  1
  O2-  O162  1  0.02956230  0.73900990  0.11736365  1
  O2-  O163  1  0.03470552  0.74310597  0.61334347  1
  O2-  O164  1  0.49127938  0.25511012  0.12844119  1
  O2-  O165  1  0.47639634  0.25315401  0.61456772  1
  O2-  O166  1  0.52908787  0.76570976  0.11631523  1
  O2-  O167  1  0.51860671  0.76935968  0.60932306  1
  O2-  O168  1  0.24318676  -0.00802670  0.38322541  1
  O2-  O169  1  0.26857210  -0.02074062  0.88649405  1
  O2-  O170  1  0.22932660  0.49733810  0.38748321  1
  O2-  O171  1  0.23016257  0.49646533  0.87762284  1
  O2-  O172  1  0.74789383  0.00208581  0.37721006  1
  O2-  O173  1  0.75289064  0.00624974  0.87549953  1
  O2-  O174  1  0.71974052  0.49865472  0.38671086  1
  O2-  O175  1  0.72053639  0.50301776  0.86696983  1
  O2-  O176  1  0.02991396  0.25868424  0.38906259  1
  O2-  O177  1  0.00903886  0.26733543  0.86983047  1
  O2-  O178  1  -0.01568189  0.77279025  0.38781870  1
  O2-  O179  1  -0.02588308  0.76286069  0.88139912  1
  O2-  O180  1  0.52099603  0.24067091  0.36854834  1
  O2-  O181  1  0.53102051  0.24145257  0.88750582  1
  O2-  O182  1  0.48637894  0.71564870  0.38415443  1
  O2-  O183  1  0.47966615  0.74198790  0.88213776  1
  O2-  O184  1  0.25028533  0.03833808  0.11315980  1
  O2-  O185  1  0.25160515  -0.01691381  0.61656645  1
  O2-  O186  1  0.26701515  0.50063938  0.11625905  1
  O2-  O187  1  0.28060619  0.51829731  0.61519125  1
  O2-  O188  1  0.74870788  -0.00456250  0.12606735  1
  O2-  O189  1  0.75244542  -0.00858608  0.62963273  1
  O2-  O190  1  0.77375299  0.49814488  0.11462429  1
  O2-  O191  1  0.76294410  0.50104256  0.62846095  1
  O2-  O192  1  0.13165903  0.26780409  0.22664280  1
  O2-  O193  1  0.11043140  0.26618560  0.73149153  1
  O2-  O194  1  0.13752081  0.77145271  0.27944499  1
  O2-  O195  1  0.13659159  0.79170237  0.75954246  1
  O2-  O196  1  0.62505475  0.25856905  0.23379374  1
  O2-  O197  1  0.64003867  0.28180082  0.74339188  1
  O2-  O198  1  0.63467297  0.76923291  0.28740275  1
  O2-  O199  1  0.64119974  0.78151791  0.75921926  1
  O2-  O200  1  0.38294838  0.22479506  0.26062646  1
  O2-  O201  1  0.36985636  0.23328209  0.78800547  1
  O2-  O202  1  0.36788653  0.72248738  0.22419971  1
  O2-  O203  1  0.36556078  0.72625402  0.72077933  1
  O2-  O204  1  0.86169405  0.21317754  0.26171370  1
  O2-  O205  1  0.86715368  0.24179242  0.78004938  1
  O2-  O206  1  0.86400294  0.73524815  0.23970908  1
  O2-  O207  1  0.86416316  0.73927558  0.71262077  1
  O2-  O208  1  0.27893332  0.36352468  0.24694475  1
  O2-  O209  1  0.26664121  0.37075358  0.73907308  1
  O2-  O210  1  0.28139664  0.86487854  0.24119768  1
  O2-  O211  1  0.28838082  0.86872007  0.74569978  1
  O2-  O212  1  0.77219645  0.36165193  0.24997777  1
  O2-  O213  1  0.77219053  0.38095103  0.75772284  1
  O2-  O214  1  0.76671338  0.87955909  0.25667686  1
  O2-  O215  1  0.77879736  0.88130839  0.75741374  1
  O2-  O216  1  0.23414608  0.13258105  0.26757692  1
  O2-  O217  1  0.22467040  0.13734976  0.74839203  1
  O2-  O218  1  0.23432053  0.63147167  0.26510743  1
  O2-  O219  1  0.21489917  0.64076353  0.74748091  1
  O2-  O220  1  0.72470284  0.11720571  0.24613869  1
  O2-  O221  1  0.73015269  0.12829417  0.74946597  1
  O2-  O222  1  0.72369745  0.63417341  0.24643421  1
  O2-  O223  1  0.72741955  0.63062429  0.74211534  1
  O2-  O224  1  0.11766529  0.47598483  0.23229330  1
  O2-  O225  1  0.11137220  0.47643113  0.72628100  1
  O2-  O226  1  0.11250984  0.96754261  0.24361120  1
  O2-  O227  1  0.11154911  0.98894988  0.74797994  1
  O2-  O228  1  0.61192059  0.46049686  0.23877834  1
  O2-  O229  1  0.62984961  0.48710936  0.72797660  1
  O2-  O230  1  0.62864698  0.97913246  0.24744829  1
  O2-  O231  1  0.63642668  0.98180295  0.75246804  1
  O2-  O232  1  0.38529370  0.02541776  0.24981078  1
  O2-  O233  1  0.38648429  0.04177880  0.74635196  1
  O2-  O234  1  0.39180830  0.50426336  0.29159078  1
  O2-  O235  1  0.38743514  0.52168257  0.76757767  1
  O2-  O236  1  0.86650775  0.02172338  0.25155171  1
  O2-  O237  1  0.86841823  0.03236975  0.74727921  1
  O2-  O238  1  0.87972444  0.52046166  0.27572076  1
  O2-  O239  1  0.86262475  0.52853091  0.76619951  1
  O2-  O240  1  0.48252535  0.36461944  0.26298318  1
  O2-  O241  1  0.48734089  0.38411296  0.74507446  1
  O2-  O242  1  0.48241609  0.88521936  0.26144704  1
  O2-  O243  1  0.48789099  0.89176809  0.77531932  1
  O2-  O244  1  0.97100248  0.37811358  0.24917362  1
  O2-  O245  1  0.96953866  0.37178922  0.73957781  1
  O2-  O246  1  0.96472937  0.89001080  0.23397436  1
  O2-  O247  1  0.97107186  0.88966644  0.72873343  1
  O2-  O248  1  0.01167029  0.10838297  0.29143613  1
  O2-  O249  1  0.00529378  0.13077074  0.76070247  1
  O2-  O250  1  0.01753066  0.61771293  0.25923627  1
  O2-  O251  1  0.01761587  0.61694050  0.76509490  1
  O2-  O252  1  0.52302420  0.12456222  0.23702975  1
  O2-  O253  1  0.54174343  0.11584601  0.74760620  1
  O2-  O254  1  0.53128823  0.61088546  0.24188805  1
  O2-  O255  1  0.52618659  0.61907386  0.74016556  1
  O2-  O256  1  0.13164735  0.47171108  0.00879725  1
  O2-  O257  1  0.13647092  0.49218086  0.53466998  1
  O2-  O258  1  0.13189549  0.96929526  0.00335609  1
  O2-  O259  1  0.12013120  0.97575681  0.50436391  1
  O2-  O260  1  0.63573491  0.46040137  0.00969346  1
  O2-  O261  1  0.62620169  0.49159882  0.52491893  1
  O2-  O262  1  0.62884361  0.98255473  -0.00180087  1
  O2-  O263  1  0.63661910  0.96878763  0.50812314  1
  O2-  O264  1  0.38493386  0.02177741  0.00681856  1
  O2-  O265  1  0.36560849  0.02968374  0.49767109  1
  O2-  O266  1  0.36880599  0.52550779  -0.02690737  1
  O2-  O267  1  0.38298635  0.52342872  0.48262953  1
  O2-  O268  1  0.86373223  0.03052229  0.00409474  1
  O2-  O269  1  0.87365164  0.00773536  0.50295177  1
  O2-  O270  1  0.85774907  0.50757706  -0.03462785  1
  O2-  O271  1  0.86089616  0.52817333  0.48114783  1
  O2-  O272  1  0.47409262  0.36083720  -0.00648238  1
  O2-  O273  1  0.48100517  0.38283730  0.49299267  1
  O2-  O274  1  0.48997171  0.88282997  -0.00841653  1
  O2-  O275  1  0.48255490  0.86364051  0.46799171  1
  O2-  O276  1  0.96755063  0.36065044  0.00503600  1
  O2-  O277  1  0.96758402  0.36463250  0.50693580  1
  O2-  O278  1  0.97455141  0.86785156  0.01738147  1
  O2-  O279  1  0.98782974  0.87657276  0.52692670  1
  O2-  O280  1  0.01226810  0.13580515  -0.03037523  1
  O2-  O281  1  0.01689637  0.11379828  0.49009730  1
  O2-  O282  1  0.01840954  0.63047577  -0.01878609  1
  O2-  O283  1  0.01763494  0.63623427  0.48331320  1
  O2-  O284  1  0.52692761  0.12016790  0.01498210  1
  O2-  O285  1  0.53380406  0.13336027  0.50845534  1
  O2-  O286  1  0.52493747  0.63112593  0.00957806  1
  O2-  O287  1  0.51780097  0.62421700  0.51541915  1
  O2-  O288  1  0.11498072  0.26348587  0.02097449  1
  O2-  O289  1  0.10923010  0.25459264  0.53916774  1
  O2-  O290  1  0.11626868  0.77430508  -0.02524800  1
  O2-  O291  1  0.13047792  0.76846577  0.47662508  1
  O2-  O292  1  0.62638981  0.25969177  0.02085314  1
  O2-  O293  1  0.61359675  0.28542580  0.50571321  1
  O2-  O294  1  0.61959645  0.76963071  -0.02935586  1
  O2-  O295  1  0.62927365  0.76483010  0.47609149  1
  O2-  O296  1  0.39045886  0.21213617  -0.00765365  1
  O2-  O297  1  0.38734830  0.23262667  0.47129793  1
  O2-  O298  1  0.38736938  0.74077058  0.02266840  1
  O2-  O299  1  0.37714863  0.73545330  0.51882342  1
  O2-  O300  1  0.86543798  0.22320839  -0.01060965  1
  O2-  O301  1  0.88583742  0.21435064  0.48693686  1
  O2-  O302  1  0.88217836  0.72311720  0.02913173  1
  O2-  O303  1  0.87955965  0.73602017  0.52071991  1
  O2-  O304  1  0.28147907  0.38127143  -0.00150011  1
  O2-  O305  1  0.27293173  0.38651318  0.51003241  1
  O2-  O306  1  0.27770315  0.88676124  0.02955555  1
  O2-  O307  1  0.27254932  0.87253236  0.49544787  1
  O2-  O308  1  0.76753529  0.36435668  -0.00151992  1
  O2-  O309  1  0.77394871  0.38488903  0.50059561  1
  O2-  O310  1  0.77308802  0.88567531  -0.00245257  1
  O2-  O311  1  0.77336439  0.87143116  0.49297586  1
  O2-  O312  1  0.22880341  0.11502949  -0.02981866  1
  O2-  O313  1  0.22141693  0.11529342  0.50758313  1
  O2-  O314  1  0.22701263  0.61841255  0.00202969  1
  O2-  O315  1  0.23748442  0.63220723  0.49196695  1
  O2-  O316  1  0.72556872  0.12306188  0.00543082  1
  O2-  O317  1  0.73325633  0.11010415  0.51081409  1
  O2-  O318  1  0.71669737  0.61365465  0.00141978  1
  O2-  O319  1  0.73302142  0.63198697  0.50956970  1
