# generated using pymatgen
data_Sr64Ca21Nb43O192
_symmetry_space_group_name_H-M   'P 1'
_cell_length_a   16.56417323
_cell_length_b   16.60743963
_cell_length_c   16.72076067
_cell_angle_alpha   89.98030000
_cell_angle_beta   89.94956265
_cell_angle_gamma   90.01807763
_symmetry_Int_Tables_number   1
_chemical_formula_structural   Sr64Ca21Nb43O192
_chemical_formula_sum   'Sr64 Ca21 Nb43 O192'
_cell_volume   4599.68680420
_cell_formula_units_Z   1
loop_
 _symmetry_equiv_pos_site_id
 _symmetry_equiv_pos_as_xyz
  1  'x, y, z'
loop_
 _atom_type_symbol
 _atom_type_oxidation_number
  Sr2+  2.0
  Ca2+  2.0
  Nb5+  5.0
  O2-  -2.0
loop_
 _atom_site_type_symbol
 _atom_site_label
 _atom_site_symmetry_multiplicity
 _atom_site_fract_x
 _atom_site_fract_y
 _atom_site_fract_z
 _atom_site_occupancy
  Sr2+  Sr0  1  0.13211568  0.15070070  0.12048625  1
  Sr2+  Sr1  1  0.14196061  0.13947710  0.62646048  1
  Sr2+  Sr2  1  0.12754244  0.62263915  0.12756554  1
  Sr2+  Sr3  1  0.12785526  0.62496042  0.62266037  1
  Sr2+  Sr4  1  0.61606887  0.13958490  0.12915493  1
  Sr2+  Sr5  1  0.60860654  0.13547292  0.62523326  1
  Sr2+  Sr6  1  0.62236754  0.63185931  0.12874082  1
  Sr2+  Sr7  1  0.62640718  0.63060150  0.62598575  1
  Sr2+  Sr8  1  0.37091031  0.35919629  0.12380318  1
  Sr2+  Sr9  1  0.37580565  0.35028976  0.62120404  1
  Sr2+  Sr10  1  0.36619139  0.89592785  0.12633943  1
  Sr2+  Sr11  1  0.37011349  0.89013645  0.62803457  1
  Sr2+  Sr12  1  0.87992209  0.37748825  0.11744571  1
  Sr2+  Sr13  1  0.87470231  0.38364439  0.62813117  1
  Sr2+  Sr14  1  0.88004622  0.89192592  0.13282825  1
  Sr2+  Sr15  1  0.87460682  0.88663648  0.62623571  1
  Sr2+  Sr16  1  0.11678204  0.36499440  0.37334036  1
  Sr2+  Sr17  1  0.10885621  0.36299266  0.88080551  1
  Sr2+  Sr18  1  0.12297190  0.86610548  0.37998398  1
  Sr2+  Sr19  1  0.12074576  0.86846901  0.87548959  1
  Sr2+  Sr20  1  0.63884940  0.36698382  0.37612366  1
  Sr2+  Sr21  1  0.63958561  0.37365088  0.87226058  1
  Sr2+  Sr22  1  0.64233160  0.86890990  0.37575903  1
  Sr2+  Sr23  1  0.64189763  0.86545401  0.88124306  1
  Sr2+  Sr24  1  0.37882091  0.11540643  0.36584820  1
  Sr2+  Sr25  1  0.37626892  0.11214847  0.87887068  1
  Sr2+  Sr26  1  0.39111744  0.61548154  0.37168668  1
  Sr2+  Sr27  1  0.38716282  0.62234237  0.87675279  1
  Sr2+  Sr28  1  0.86606879  0.12347541  0.37019273  1
  Sr2+  Sr29  1  0.88220760  0.12320293  0.88032541  1
  Sr2+  Sr30  1  0.87499661  0.62463609  0.37334419  1
  Sr2+  Sr31  1  0.87563576  0.62634611  0.87510243  1
  Sr2+  Sr32  1  0.11950048  0.12729258  0.36655401  1
  Sr2+  Sr33  1  0.11850473  0.12047374  0.87775889  1
  Sr2+  Sr34  1  0.12931151  0.61175104  0.37626181  1
  Sr2+  Sr35  1  0.13178344  0.62072274  0.88447979  1
  Sr2+  Sr36  1  0.63216568  0.10760266  0.36604665  1
  Sr2+  Sr37  1  0.64324826  0.11173496  0.88173703  1
  Sr2+  Sr38  1  0.63124388  0.61562567  0.37582620  1
  Sr2+  Sr39  1  0.62951135  0.61623647  0.87803819  1
  Sr2+  Sr40  1  0.38026237  0.36088170  0.36755740  1
  Sr2+  Sr41  1  0.38464043  0.36209465  0.87538329  1
  Sr2+  Sr42  1  0.37594686  0.87452814  0.36549334  1
  Sr2+  Sr43  1  0.37381249  0.86919350  0.88031292  1
  Sr2+  Sr44  1  0.87638937  0.34837641  0.37716534  1
  Sr2+  Sr45  1  0.87170839  0.34780584  0.87239486  1
  Sr2+  Sr46  1  0.87620347  0.90360379  0.37843485  1
  Sr2+  Sr47  1  0.87929059  0.90003376  0.87649092  1
  Sr2+  Sr48  1  0.13252440  0.38309053  0.12240829  1
  Sr2+  Sr49  1  0.12468658  0.38570670  0.62257290  1
  Sr2+  Sr50  1  0.12933001  0.87161555  0.13856838  1
  Sr2+  Sr51  1  0.13891473  0.87753970  0.62634074  1
  Sr2+  Sr52  1  0.61730188  0.37782448  0.12598841  1
  Sr2+  Sr53  1  0.62194821  0.38312842  0.62370084  1
  Sr2+  Sr54  1  0.60739515  0.88491854  0.12677455  1
  Sr2+  Sr55  1  0.61583878  0.87864633  0.62161114  1
  Sr2+  Sr56  1  0.36977978  0.13209954  0.12747148  1
  Sr2+  Sr57  1  0.37521280  0.12242843  0.63417236  1
  Sr2+  Sr58  1  0.36431987  0.62328197  0.12344774  1
  Sr2+  Sr59  1  0.38290192  0.63204288  0.62796594  1
  Sr2+  Sr60  1  0.86375950  0.13696592  0.12443704  1
  Sr2+  Sr61  1  0.87216263  0.14003531  0.62261684  1
  Sr2+  Sr62  1  0.87982520  0.63563251  0.13715530  1
  Sr2+  Sr63  1  0.87974585  0.63054193  0.62614503  1
  Ca2+  Ca64  1  0.00630960  -0.00173851  0.00450409  1
  Ca2+  Ca65  1  0.49749966  -0.00402121  0.49767200  1
  Ca2+  Ca66  1  0.00491969  -0.00115349  0.50298327  1
  Ca2+  Ca67  1  0.50038385  -0.00130625  -0.00200388  1
  Ca2+  Ca68  1  -0.00018133  0.50310297  -0.00311488  1
  Ca2+  Ca69  1  0.74636321  0.25162122  0.00252321  1
  Ca2+  Ca70  1  0.74707545  0.24841725  0.50205060  1
  Ca2+  Ca71  1  0.24950517  0.24866788  0.49648560  1
  Ca2+  Ca72  1  0.75389784  0.75081424  0.00190167  1
  Ca2+  Ca73  1  0.24934681  0.25198664  -0.00717094  1
  Ca2+  Ca74  1  -0.00145326  0.25113868  0.24693309  1
  Ca2+  Ca75  1  0.00085024  0.25100831  0.74453885  1
  Ca2+  Ca76  1  0.50057135  0.74978495  0.24936753  1
  Ca2+  Ca77  1  0.75115930  0.49697525  0.25355849  1
  Ca2+  Ca78  1  0.24369789  0.00253299  0.25032239  1
  Ca2+  Ca79  1  0.74637775  -0.00288724  0.24554826  1
  Ca2+  Ca80  1  0.25218643  0.50027818  0.25287920  1
  Ca2+  Ca81  1  0.50217988  0.24877214  0.75472761  1
  Ca2+  Ca82  1  0.25355643  0.50157658  0.75052776  1
  Ca2+  Ca83  1  0.75047134  -0.00070002  0.74865808  1
  Ca2+  Ca84  1  0.49917285  0.25144616  0.25182137  1
  Nb5+  Nb85  1  0.50211069  0.49732153  0.49794537  1
  Nb5+  Nb86  1  0.00382997  0.49900343  0.49694754  1
  Nb5+  Nb87  1  0.49870549  0.49803541  -0.00665829  1
  Nb5+  Nb88  1  0.25091545  0.75230035  0.00818172  1
  Nb5+  Nb89  1  0.25968899  0.74629682  0.50440532  1
  Nb5+  Nb90  1  0.75871889  0.74699102  0.49991654  1
  Nb5+  Nb91  1  0.50940268  0.75198745  0.75212003  1
  Nb5+  Nb92  1  0.24799526  0.00112456  0.75271584  1
  Nb5+  Nb93  1  0.75309003  0.50407713  0.75094203  1
  Nb5+  Nb94  1  0.00506184  0.74885049  0.75293434  1
  Nb5+  Nb95  1  0.00060568  0.74932433  0.26301366  1
  Nb5+  Nb96  1  0.00442616  0.00695547  0.24775420  1
  Nb5+  Nb97  1  0.00255165  0.00520843  0.74110008  1
  Nb5+  Nb98  1  -0.00139975  0.49860928  0.24896417  1
  Nb5+  Nb99  1  0.00212877  0.50275058  0.75093471  1
  Nb5+  Nb100  1  0.49761687  0.00012846  0.24888605  1
  Nb5+  Nb101  1  0.50624782  -0.00278959  0.75526969  1
  Nb5+  Nb102  1  0.50043286  0.50219135  0.23909776  1
  Nb5+  Nb103  1  0.49904537  0.50123247  0.74437773  1
  Nb5+  Nb104  1  0.24602002  0.25203693  0.25183882  1
  Nb5+  Nb105  1  0.25113184  0.25588687  0.75212506  1
  Nb5+  Nb106  1  0.25176449  0.74674588  0.26058756  1
  Nb5+  Nb107  1  0.25428570  0.74790616  0.75495784  1
  Nb5+  Nb108  1  0.74771126  0.25113738  0.24881094  1
  Nb5+  Nb109  1  0.74480627  0.24257704  0.74544880  1
  Nb5+  Nb110  1  0.75218635  0.75315379  0.24374517  1
  Nb5+  Nb111  1  0.75968349  0.74848553  0.75063025  1
  Nb5+  Nb112  1  0.00272252  0.24285834  0.50396974  1
  Nb5+  Nb113  1  -0.00182185  0.24970889  1.00062693  1
  Nb5+  Nb114  1  0.00489391  0.74989583  0.50648600  1
  Nb5+  Nb115  1  -0.00062819  0.74930552  1.00961789  1
  Nb5+  Nb116  1  0.50330150  0.24260938  0.49414873  1
  Nb5+  Nb117  1  0.50232566  0.24465723  0.99362621  1
  Nb5+  Nb118  1  0.50700682  0.74983989  0.50008035  1
  Nb5+  Nb119  1  0.49826788  0.74809453  1.00495942  1
  Nb5+  Nb120  1  0.24431029  0.00195116  0.00040601  1
  Nb5+  Nb121  1  0.24870247  0.00220208  0.49609364  1
  Nb5+  Nb122  1  0.25330341  0.49783766  -0.00565281  1
  Nb5+  Nb123  1  0.26238546  0.50104216  0.50267762  1
  Nb5+  Nb124  1  0.75010606  -0.00461468  0.00505737  1
  Nb5+  Nb125  1  0.74602030  0.00320397  0.50928837  1
  Nb5+  Nb126  1  0.75272689  0.50316404  0.00698773  1
  Nb5+  Nb127  1  0.75760506  0.50322240  0.50276460  1
  O2-  O128  1  0.01692890  -0.03476009  0.13689733  1
  O2-  O129  1  0.01721703  -0.04043367  0.63492840  1
  O2-  O130  1  0.01828438  0.48924034  0.13474689  1
  O2-  O131  1  0.00975768  0.49297413  0.61968917  1
  O2-  O132  1  0.52306041  0.01433127  0.13137850  1
  O2-  O133  1  0.51337460  0.00716221  0.63630264  1
  O2-  O134  1  0.51816565  0.51747545  0.12353528  1
  O2-  O135  1  0.51650388  0.52180372  0.62909899  1
  O2-  O136  1  -0.01769178  0.02323554  0.36733438  1
  O2-  O137  1  -0.01277281  0.01140303  0.85941423  1
  O2-  O138  1  -0.01254873  0.52416825  0.38245218  1
  O2-  O139  1  -0.00793491  0.53211585  0.86102318  1
  O2-  O140  1  0.46768897  -0.01183921  0.36667445  1
  O2-  O141  1  0.46791820  -0.01840354  0.86433739  1
  O2-  O142  1  0.47852202  0.48774167  0.38657212  1
  O2-  O143  1  0.48536164  0.48962187  0.87507347  1
  O2-  O144  1  0.26589057  0.24595636  0.12892455  1
  O2-  O145  1  0.27311080  0.23173989  0.63311299  1
  O2-  O146  1  0.26259351  0.75059240  0.12416890  1
  O2-  O147  1  0.26359578  0.74770131  0.62331864  1
  O2-  O148  1  0.77505523  0.27572205  0.13420031  1
  O2-  O149  1  0.77796843  0.26868350  0.63490597  1
  O2-  O150  1  0.78482909  0.76657555  0.13561887  1
  O2-  O151  1  0.76152308  0.76000996  0.62487702  1
  O2-  O152  1  0.21773644  0.25334964  0.36683486  1
  O2-  O153  1  0.21320417  0.25180622  0.86178313  1
  O2-  O154  1  0.23593393  0.75052906  0.37882594  1
  O2-  O155  1  0.23564187  0.75380452  0.87088978  1
  O2-  O156  1  0.72417507  0.22641188  0.36839266  1
  O2-  O157  1  0.72587337  0.24512385  0.86401697  1
  O2-  O158  1  0.73726400  0.72604029  0.38559375  1
  O2-  O159  1  0.73872832  0.72482369  0.86185211  1
  O2-  O160  1  -0.02721064  0.26067931  0.11538692  1
  O2-  O161  1  -0.03096000  0.26884582  0.61379219  1
  O2-  O162  1  -0.00907171  0.76533195  0.12392934  1
  O2-  O163  1  -0.01473309  0.76194719  0.62024091  1
  O2-  O164  1  0.47627119  0.23832118  0.11178179  1
  O2-  O165  1  0.47852599  0.23242760  0.61504982  1
  O2-  O166  1  0.48782642  0.71597615  0.11447364  1
  O2-  O167  1  0.49723664  0.72811198  0.63094399  1
  O2-  O168  1  0.27524730  -0.00708376  0.38489243  1
  O2-  O169  1  0.27271926  -0.00936501  0.86836399  1
  O2-  O170  1  0.26430240  0.52259012  0.38876558  1
  O2-  O171  1  0.26924054  0.52772885  0.88262763  1
  O2-  O172  1  0.76079882  0.01526938  0.38857364  1
  O2-  O173  1  0.77105021  0.02551288  0.88185610  1
  O2-  O174  1  0.75517511  0.52889418  0.39080179  1
  O2-  O175  1  0.75631529  0.52792877  0.86611742  1
  O2-  O176  1  0.02078782  0.24608544  0.38459020  1
  O2-  O177  1  0.01758712  0.24012715  0.87834484  1
  O2-  O178  1  0.01541302  0.72766474  0.37661034  1
  O2-  O179  1  0.01627074  0.72560477  0.86394827  1
  O2-  O180  1  0.51399490  0.28614516  0.38573223  1
  O2-  O181  1  0.51672570  0.28868359  0.88396531  1
  O2-  O182  1  0.51171932  0.76720974  0.38751774  1
  O2-  O183  1  0.50461222  0.76644951  0.87008099  1
  O2-  O184  1  0.22301610  -0.00936105  0.11264918  1
  O2-  O185  1  0.23291232  -0.00105420  0.63097273  1
  O2-  O186  1  0.23879398  0.50666936  0.11296670  1
  O2-  O187  1  0.22666068  0.50589672  0.61467904  1
  O2-  O188  1  0.73610795  -0.04309766  0.11597374  1
  O2-  O189  1  0.73677777  -0.03920853  0.61873006  1
  O2-  O190  1  0.73856604  0.47505836  0.11648709  1
  O2-  O191  1  0.73485608  0.48941599  0.62588975  1
  O2-  O192  1  0.13007308  0.28256710  0.22615444  1
  O2-  O193  1  0.13598329  0.26966762  0.71652742  1
  O2-  O194  1  0.11998734  0.76926988  0.24698255  1
  O2-  O195  1  0.12000833  0.76547980  0.73280882  1
  O2-  O196  1  0.63064225  0.26991630  0.22571287  1
  O2-  O197  1  0.63264692  0.27867952  0.72601220  1
  O2-  O198  1  0.63737898  0.77124533  0.22835514  1
  O2-  O199  1  0.62474218  0.76722944  0.73938154  1
  O2-  O200  1  0.36357969  0.22659194  0.26999488  1
  O2-  O201  1  0.36540754  0.22305516  0.77522514  1
  O2-  O202  1  0.36428235  0.72542295  0.26916588  1
  O2-  O203  1  0.37033812  0.73270655  0.76009484  1
  O2-  O204  1  0.86641181  0.22866693  0.26950273  1
  O2-  O205  1  0.86385932  0.22699425  0.76980582  1
  O2-  O206  1  0.88114523  0.72664712  0.26422553  1
  O2-  O207  1  0.87556709  0.72473574  0.75361159  1
  O2-  O208  1  0.27702944  0.36918963  0.25157349  1
  O2-  O209  1  0.28235195  0.36713788  0.74788475  1
  O2-  O210  1  0.26288736  0.86322052  0.24580612  1
  O2-  O211  1  0.25812066  0.86880819  0.74203108  1
  O2-  O212  1  0.76327929  0.36596440  0.28429482  1
  O2-  O213  1  0.76426502  0.38816261  0.76312703  1
  O2-  O214  1  0.76964374  0.86097654  0.28565883  1
  O2-  O215  1  0.77238149  0.86139953  0.76722314  1
  O2-  O216  1  0.21709486  0.13378102  0.24845105  1
  O2-  O217  1  0.22899202  0.11576439  0.75684126  1
  O2-  O218  1  0.21900139  0.63622750  0.24488072  1
  O2-  O219  1  0.22201991  0.63810947  0.74561709  1
  O2-  O220  1  0.73218605  0.13128770  0.22546956  1
  O2-  O221  1  0.71977888  0.13168698  0.72860442  1
  O2-  O222  1  0.73442472  0.63527572  0.23759547  1
  O2-  O223  1  0.73494735  0.62589639  0.72732002  1
  O2-  O224  1  0.11364345  0.49041861  0.27880853  1
  O2-  O225  1  0.11452605  0.48017128  0.75847130  1
  O2-  O226  1  0.11369697  0.97217616  0.27864092  1
  O2-  O227  1  0.12850260  0.97622185  0.76559533  1
  O2-  O228  1  0.61272057  0.47616577  0.26915109  1
  O2-  O229  1  0.62285399  0.49436000  0.76317002  1
  O2-  O230  1  0.61320456  0.97194073  0.27195420  1
  O2-  O231  1  0.61543012  0.96542863  0.77093713  1
  O2-  O232  1  0.37800059  0.02198109  0.22608310  1
  O2-  O233  1  0.36854385  0.00783281  0.73239398  1
  O2-  O234  1  0.38550311  0.53479023  0.24232647  1
  O2-  O235  1  0.38824064  0.53518546  0.74142815  1
  O2-  O236  1  0.88425186  0.00972476  0.23266432  1
  O2-  O237  1  0.88668514  0.01374089  0.72336375  1
  O2-  O238  1  0.88495342  0.53159690  0.24391670  1
  O2-  O239  1  0.86919636  0.52228650  0.73307735  1
  O2-  O240  1  0.47064352  0.38843517  0.23461914  1
  O2-  O241  1  0.47971093  0.38936456  0.73165634  1
  O2-  O242  1  0.47224660  0.88076763  0.22956100  1
  O2-  O243  1  0.47990528  0.86555369  0.73243883  1
  O2-  O244  1  0.97319791  0.38800939  0.26615318  1
  O2-  O245  1  0.97099615  0.39087508  0.75755567  1
  O2-  O246  1  0.97915948  0.86403210  0.26986140  1
  O2-  O247  1  0.97994809  0.86157572  0.76484232  1
  O2-  O248  1  0.02804013  0.11648749  0.22671068  1
  O2-  O249  1  0.02719336  0.11464937  0.72270148  1
  O2-  O250  1  0.01669406  0.63219553  0.23199427  1
  O2-  O251  1  0.00776172  0.62722416  0.72061152  1
  O2-  O252  1  0.51874945  0.11733059  0.26792948  1
  O2-  O253  1  0.52360671  0.11160029  0.76742290  1
  O2-  O254  1  0.52447025  0.61608162  0.27389386  1
  O2-  O255  1  0.51766143  0.63233631  0.76796039  1
  O2-  O256  1  0.13815366  0.48163221  -0.02250102  1
  O2-  O257  1  0.12050763  0.48709221  0.48480856  1
  O2-  O258  1  0.13552231  0.98152685  -0.03774250  1
  O2-  O259  1  0.13818456  0.96063713  0.49358982  1
  O2-  O260  1  0.61702651  0.48519343  -0.01551551  1
  O2-  O261  1  0.62026876  0.49042369  0.49115255  1
  O2-  O262  1  0.63306633  0.98005842  -0.02542390  1
  O2-  O263  1  0.63258135  0.96945555  0.48660798  1
  O2-  O264  1  0.36304963  0.01900406  0.01414252  1
  O2-  O265  1  0.36216136  0.01273480  0.52962740  1
  O2-  O266  1  0.38096185  0.52825966  0.01052115  1
  O2-  O267  1  0.37649974  0.52586247  0.52086042  1
  O2-  O268  1  0.87014754  0.00798359  0.02213886  1
  O2-  O269  1  0.86631519  0.00248855  0.52018421  1
  O2-  O270  1  0.86459491  0.53149474  0.01474994  1
  O2-  O271  1  0.87308846  0.51929926  0.51828366  1
  O2-  O272  1  0.47745177  0.38738249  0.01666394  1
  O2-  O273  1  0.48330741  0.38756774  0.52624969  1
  O2-  O274  1  0.47199848  0.86080018  0.01800559  1
  O2-  O275  1  0.47886598  0.85828408  0.52557393  1
  O2-  O276  1  0.97616550  0.37114397  -0.01974113  1
  O2-  O277  1  0.97925392  0.38645574  0.48648035  1
  O2-  O278  1  0.99398360  0.85834128  -0.03067251  1
  O2-  O279  1  0.98455099  0.85849473  0.47516474  1
  O2-  O280  1  0.02599371  0.13343660  0.00913782  1
  O2-  O281  1  0.02590921  0.13263291  0.52378690  1
  O2-  O282  1  0.03821827  0.63817209  0.00701871  1
  O2-  O283  1  0.01301881  0.62677644  0.51308027  1
  O2-  O284  1  0.52218534  0.13417599  -0.02813266  1
  O2-  O285  1  0.52855574  0.13198357  0.47912268  1
  O2-  O286  1  0.51208408  0.62590280  -0.02476566  1
  O2-  O287  1  0.51178282  0.62505931  0.49027195  1
  O2-  O288  1  0.11557823  0.28057875  0.01811175  1
  O2-  O289  1  0.11464938  0.28151429  0.52016663  1
  O2-  O290  1  0.13326369  0.77446989  0.01193693  1
  O2-  O291  1  0.12295007  0.76256519  0.51459404  1
  O2-  O292  1  0.61400876  0.27317062  0.02345904  1
  O2-  O293  1  0.61441615  0.27543996  0.52373963  1
  O2-  O294  1  0.61272216  0.76824813  0.00959378  1
  O2-  O295  1  0.62404510  0.75919731  0.51593033  1
  O2-  O296  1  0.38351455  0.23755269  -0.02873728  1
  O2-  O297  1  0.38465947  0.23711817  0.47447363  1
  O2-  O298  1  0.36997516  0.73210045  -0.01775887  1
  O2-  O299  1  0.37403817  0.72371056  0.49104843  1
  O2-  O300  1  0.87969718  0.22964558  -0.01934204  1
  O2-  O301  1  0.88374970  0.22853369  0.47761897  1
  O2-  O302  1  0.88941246  0.71951411  -0.00781307  1
  O2-  O303  1  0.87483146  0.72544577  0.49485135  1
  O2-  O304  1  0.28297200  0.38749666  -0.00928178  1
  O2-  O305  1  0.27608499  0.38750013  0.49958465  1
  O2-  O306  1  0.27134514  0.87143314  -0.00306897  1
  O2-  O307  1  0.27172412  0.86383250  0.50215170  1
  O2-  O308  1  0.76275172  0.39242144  -0.03121835  1
  O2-  O309  1  0.76357193  0.38868323  0.48713650  1
  O2-  O310  1  0.76684392  0.87919061  -0.03285661  1
  O2-  O311  1  0.76654191  0.86110712  0.48378929  1
  O2-  O312  1  0.22757394  0.11642596  -0.00874688  1
  O2-  O313  1  0.21804571  0.11269328  0.49228692  1
  O2-  O314  1  0.23229136  0.63494722  0.00383381  1
  O2-  O315  1  0.22724289  0.63140982  0.50467076  1
  O2-  O316  1  0.72970457  0.11303688  0.02662224  1
  O2-  O317  1  0.73030910  0.11371198  0.53517647  1
  O2-  O318  1  0.71544397  0.61576042  0.01225013  1
  O2-  O319  1  0.73512073  0.62594936  0.52412759  1
