# generated using pymatgen
data_Sr64Ca21Nb43O192
_symmetry_space_group_name_H-M   'P 1'
_cell_length_a   16.56055370
_cell_length_b   16.58541481
_cell_length_c   16.70651104
_cell_angle_alpha   90.01151013
_cell_angle_beta   90.00018522
_cell_angle_gamma   90.01459175
_symmetry_Int_Tables_number   1
_chemical_formula_structural   Sr64Ca21Nb43O192
_chemical_formula_sum   'Sr64 Ca21 Nb43 O192'
_cell_volume   4588.67110178
_cell_formula_units_Z   1
loop_
 _symmetry_equiv_pos_site_id
 _symmetry_equiv_pos_as_xyz
  1  'x, y, z'
loop_
 _atom_type_symbol
 _atom_type_oxidation_number
  Sr2+  2.0
  Ca2+  2.0
  Nb5+  5.0
  O2-  -2.0
loop_
 _atom_site_type_symbol
 _atom_site_label
 _atom_site_symmetry_multiplicity
 _atom_site_fract_x
 _atom_site_fract_y
 _atom_site_fract_z
 _atom_site_occupancy
  Sr2+  Sr0  1  0.12660453  0.14045048  0.12048986  1
  Sr2+  Sr1  1  0.13148101  0.13532074  0.62029332  1
  Sr2+  Sr2  1  0.12826155  0.63308400  0.12820425  1
  Sr2+  Sr3  1  0.12865713  0.62593863  0.62520867  1
  Sr2+  Sr4  1  0.63086482  0.13574705  0.13058165  1
  Sr2+  Sr5  1  0.62816453  0.11420247  0.63290159  1
  Sr2+  Sr6  1  0.63092211  0.63519658  0.12211074  1
  Sr2+  Sr7  1  0.62951535  0.63299792  0.61889001  1
  Sr2+  Sr8  1  0.38632076  0.37679126  0.12071830  1
  Sr2+  Sr9  1  0.37885492  0.37804919  0.62646117  1
  Sr2+  Sr10  1  0.37960758  0.88882452  0.12278528  1
  Sr2+  Sr11  1  0.38508777  0.88974811  0.62948199  1
  Sr2+  Sr12  1  0.87575425  0.35444081  0.12521306  1
  Sr2+  Sr13  1  0.87884468  0.36315071  0.62566848  1
  Sr2+  Sr14  1  0.88116073  0.88965989  0.12288525  1
  Sr2+  Sr15  1  0.87952818  0.88914382  0.62501264  1
  Sr2+  Sr16  1  0.12657148  0.36971899  0.38500434  1
  Sr2+  Sr17  1  0.12693639  0.37254227  0.87100408  1
  Sr2+  Sr18  1  0.11604531  0.86682341  0.37574432  1
  Sr2+  Sr19  1  0.13779616  0.86832291  0.87047446  1
  Sr2+  Sr20  1  0.61398202  0.36865649  0.37319495  1
  Sr2+  Sr21  1  0.62133487  0.37056043  0.87310134  1
  Sr2+  Sr22  1  0.61608853  0.86550854  0.37124670  1
  Sr2+  Sr23  1  0.60956911  0.86652306  0.87041501  1
  Sr2+  Sr24  1  0.36089845  0.12427807  0.36835979  1
  Sr2+  Sr25  1  0.36050539  0.11944133  0.87445601  1
  Sr2+  Sr26  1  0.37269143  0.61276383  0.36869255  1
  Sr2+  Sr27  1  0.37485311  0.61951570  0.88280850  1
  Sr2+  Sr28  1  0.86590255  0.11296445  0.37319891  1
  Sr2+  Sr29  1  0.86675819  0.11796419  0.87878726  1
  Sr2+  Sr30  1  0.86936690  0.62327331  0.36981654  1
  Sr2+  Sr31  1  0.86871546  0.61742080  0.87336230  1
  Sr2+  Sr32  1  0.12376584  0.10438257  0.37625487  1
  Sr2+  Sr33  1  0.11873812  0.14089216  0.87601537  1
  Sr2+  Sr34  1  0.11673439  0.61371664  0.37227665  1
  Sr2+  Sr35  1  0.12095312  0.61569051  0.87598856  1
  Sr2+  Sr36  1  0.61220512  0.11597849  0.36845835  1
  Sr2+  Sr37  1  0.61046397  0.10632899  0.87426356  1
  Sr2+  Sr38  1  0.62460188  0.61117030  0.37433568  1
  Sr2+  Sr39  1  0.62661997  0.61557920  0.87495121  1
  Sr2+  Sr40  1  0.37313168  0.36406057  0.36686015  1
  Sr2+  Sr41  1  0.36619761  0.36104261  0.87525675  1
  Sr2+  Sr42  1  0.36213902  0.87121744  0.38095320  1
  Sr2+  Sr43  1  0.37178011  0.87368746  0.87748152  1
  Sr2+  Sr44  1  0.87349431  0.35690367  0.37648505  1
  Sr2+  Sr45  1  0.87443499  0.35522039  0.87901949  1
  Sr2+  Sr46  1  0.87349420  0.86957458  0.36996911  1
  Sr2+  Sr47  1  0.87618918  0.86838411  0.87143513  1
  Sr2+  Sr48  1  0.12840820  0.38263015  0.11819565  1
  Sr2+  Sr49  1  0.13793422  0.38281693  0.62579692  1
  Sr2+  Sr50  1  0.14051534  0.87932634  0.12134251  1
  Sr2+  Sr51  1  0.12990699  0.88391644  0.62410066  1
  Sr2+  Sr52  1  0.63356901  0.37583414  0.13558188  1
  Sr2+  Sr53  1  0.63741028  0.38187131  0.62481365  1
  Sr2+  Sr54  1  0.63175348  0.88668293  0.11712574  1
  Sr2+  Sr55  1  0.62828429  0.87853006  0.62354899  1
  Sr2+  Sr56  1  0.39183046  0.12880253  0.12276869  1
  Sr2+  Sr57  1  0.38610962  0.13512683  0.63508050  1
  Sr2+  Sr58  1  0.38953942  0.63356738  0.12642958  1
  Sr2+  Sr59  1  0.39111225  0.63084937  0.62448156  1
  Sr2+  Sr60  1  0.87496507  0.12722842  0.12649282  1
  Sr2+  Sr61  1  0.87396471  0.12838245  0.62095788  1
  Sr2+  Sr62  1  0.88820743  0.63057431  0.11926938  1
  Sr2+  Sr63  1  0.88451870  0.63026273  0.62384376  1
  Ca2+  Ca64  1  -0.00281161  0.50022521  -0.00117811  1
  Ca2+  Ca65  1  0.00198556  -0.00214630  -0.00177876  1
  Ca2+  Ca66  1  0.50134578  0.49937876  -0.00214598  1
  Ca2+  Ca67  1  0.49909515  0.00006989  0.00149766  1
  Ca2+  Ca68  1  0.49950790  0.00125312  0.49801772  1
  Ca2+  Ca69  1  0.24896731  0.74874371  0.50269558  1
  Ca2+  Ca70  1  0.74365206  0.25044541  0.49896982  1
  Ca2+  Ca71  1  0.74609121  0.24977035  -0.00208060  1
  Ca2+  Ca72  1  0.25367418  0.25045669  0.00409148  1
  Ca2+  Ca73  1  0.25220983  0.25144914  0.49763774  1
  Ca2+  Ca74  1  0.75461004  0.50019874  0.25053958  1
  Ca2+  Ca75  1  0.24543912  -0.00249668  0.74874201  1
  Ca2+  Ca76  1  0.24738028  0.00236840  0.24757328  1
  Ca2+  Ca77  1  0.50190525  0.75085620  0.25048827  1
  Ca2+  Ca78  1  0.24820052  0.49748187  0.24926065  1
  Ca2+  Ca79  1  0.50225433  0.25279000  0.74945478  1
  Ca2+  Ca80  1  0.50041950  0.74699595  0.75016202  1
  Ca2+  Ca81  1  0.75155611  -0.00514351  0.75425601  1
  Ca2+  Ca82  1  0.00293662  0.24812522  0.25197750  1
  Ca2+  Ca83  1  -0.00045792  0.24965730  0.74841542  1
  Ca2+  Ca84  1  0.74787824  -0.00167331  0.25084504  1
  Nb5+  Nb85  1  -0.00229250  -0.00721310  0.49830179  1
  Nb5+  Nb86  1  -0.00056737  0.49498631  0.50004912  1
  Nb5+  Nb87  1  0.50558403  0.49864578  0.49950481  1
  Nb5+  Nb88  1  0.25774941  0.74616834  0.00115998  1
  Nb5+  Nb89  1  0.75529927  0.75014426  -0.00691046  1
  Nb5+  Nb90  1  0.74964149  0.75210270  0.49516750  1
  Nb5+  Nb91  1  -0.00012164  0.75102343  0.74410292  1
  Nb5+  Nb92  1  0.25841696  0.50384705  0.74941456  1
  Nb5+  Nb93  1  0.00079813  0.75188106  0.24372221  1
  Nb5+  Nb94  1  0.50010724  0.24832772  0.24948791  1
  Nb5+  Nb95  1  0.75934349  0.50003593  0.74760669  1
  Nb5+  Nb96  1  0.00523799  -0.00025178  0.24634820  1
  Nb5+  Nb97  1  0.00134877  0.00341420  0.75098796  1
  Nb5+  Nb98  1  -0.00176859  0.49732551  0.24781756  1
  Nb5+  Nb99  1  0.00233956  0.50017059  0.74869036  1
  Nb5+  Nb100  1  0.49501893  -0.00661460  0.25525105  1
  Nb5+  Nb101  1  0.49685823  -0.00063765  0.75117581  1
  Nb5+  Nb102  1  0.50459655  0.50036626  0.24480120  1
  Nb5+  Nb103  1  0.50812998  0.50131235  0.74948931  1
  Nb5+  Nb104  1  0.24573288  0.25287506  0.24566916  1
  Nb5+  Nb105  1  0.24844589  0.24640672  0.74997546  1
  Nb5+  Nb106  1  0.25178051  0.74931734  0.25358003  1
  Nb5+  Nb107  1  0.25611180  0.74223307  0.74872890  1
  Nb5+  Nb108  1  0.75202684  0.24958712  0.25483530  1
  Nb5+  Nb109  1  0.74552732  0.24365770  0.75319183  1
  Nb5+  Nb110  1  0.75270591  0.75038637  0.23954005  1
  Nb5+  Nb111  1  0.75375441  0.74764947  0.74255093  1
  Nb5+  Nb112  1  0.00111743  0.23876666  0.49875808  1
  Nb5+  Nb113  1  0.00024965  0.24966878  1.00111767  1
  Nb5+  Nb114  1  -0.00118944  0.74694099  0.49803910  1
  Nb5+  Nb115  1  0.00723661  0.75265651  0.99262485  1
  Nb5+  Nb116  1  0.50181680  0.24711879  0.50063982  1
  Nb5+  Nb117  1  0.50551950  0.24980101  0.99406892  1
  Nb5+  Nb118  1  0.49440713  0.74912203  0.49447837  1
  Nb5+  Nb119  1  0.50880441  0.75051672  1.00300747  1
  Nb5+  Nb120  1  0.24320681  0.00490557  -0.00148815  1
  Nb5+  Nb121  1  0.25615150  0.00313365  0.50662236  1
  Nb5+  Nb122  1  0.24869296  0.50195376  0.00386357  1
  Nb5+  Nb123  1  0.25852750  0.50386007  0.50116991  1
  Nb5+  Nb124  1  0.74783950  0.00396346  -0.00246316  1
  Nb5+  Nb125  1  0.74504385  -0.00084336  0.49735419  1
  Nb5+  Nb126  1  0.74969554  0.49869766  0.00473611  1
  Nb5+  Nb127  1  0.75872642  0.50105010  0.50328360  1
  O2-  O128  1  0.01990066  -0.02573933  0.13611800  1
  O2-  O129  1  0.01338713  -0.01417788  0.61735914  1
  O2-  O130  1  0.02506702  0.50090977  0.13685772  1
  O2-  O131  1  0.01079518  0.50099327  0.62223400  1
  O2-  O132  1  0.51565212  -0.02089427  0.13787330  1
  O2-  O133  1  0.52044263  -0.02131348  0.63204396  1
  O2-  O134  1  0.51387747  0.47432187  0.13362530  1
  O2-  O135  1  0.50902378  0.47716383  0.61952002  1
  O2-  O136  1  -0.02237773  0.00515008  0.38074447  1
  O2-  O137  1  -0.02554407  0.00317140  0.86209574  1
  O2-  O138  1  -0.02016599  0.51642381  0.38592121  1
  O2-  O139  1  -0.01294528  0.52094384  0.86120940  1
  O2-  O140  1  0.47969733  0.03290017  0.36759020  1
  O2-  O141  1  0.47680716  0.02487771  0.86721617  1
  O2-  O142  1  0.49078368  0.52108567  0.38299655  1
  O2-  O143  1  0.49363207  0.52788290  0.86041584  1
  O2-  O144  1  0.26942604  0.21557533  0.13517926  1
  O2-  O145  1  0.27473908  0.24192057  0.63430998  1
  O2-  O146  1  0.25492482  0.72508547  0.11821034  1
  O2-  O147  1  0.25800720  0.71753505  0.63634675  1
  O2-  O148  1  0.76293241  0.22808847  0.13412525  1
  O2-  O149  1  0.76666035  0.23739318  0.63497076  1
  O2-  O150  1  0.76614607  0.72554552  0.12657521  1
  O2-  O151  1  0.76589820  0.72804366  0.62857699  1
  O2-  O152  1  0.24384577  0.28386392  0.36343564  1
  O2-  O153  1  0.23425131  0.27199518  0.86728692  1
  O2-  O154  1  0.23733727  0.77454793  0.36528564  1
  O2-  O155  1  0.24140173  0.75801738  0.87691786  1
  O2-  O156  1  0.73743973  0.28471544  0.36748699  1
  O2-  O157  1  0.74016252  0.28537389  0.86449396  1
  O2-  O158  1  0.74312364  0.77006109  0.38197916  1
  O2-  O159  1  0.74090804  0.76554622  0.87870817  1
  O2-  O160  1  -0.02483510  0.24092109  0.11910693  1
  O2-  O161  1  -0.02750595  0.24621574  0.61457321  1
  O2-  O162  1  -0.01442041  0.75841230  0.12832440  1
  O2-  O163  1  -0.01935550  0.75628155  0.62650293  1
  O2-  O164  1  0.48435900  0.26477097  0.13233515  1
  O2-  O165  1  0.47501762  0.26392094  0.61238545  1
  O2-  O166  1  0.47793009  0.77065442  0.11664606  1
  O2-  O167  1  0.48447455  0.76399746  0.61198095  1
  O2-  O168  1  0.26918855  -0.01283069  0.38881042  1
  O2-  O169  1  0.26911238  -0.02087009  0.88236778  1
  O2-  O170  1  0.26998893  0.48772875  0.38763832  1
  O2-  O171  1  0.27009562  0.49432889  0.86776374  1
  O2-  O172  1  0.77983391  -0.01760509  0.38689383  1
  O2-  O173  1  0.78517060  -0.01780363  0.88606471  1
  O2-  O174  1  0.77213257  0.48984774  0.39034658  1
  O2-  O175  1  0.77033911  0.49263919  0.86409348  1
  O2-  O176  1  0.02446411  0.25727599  0.38521571  1
  O2-  O177  1  0.02389218  0.26050501  0.88203115  1
  O2-  O178  1  0.00988891  0.74293780  0.38106588  1
  O2-  O179  1  0.01388342  0.74391924  0.87518436  1
  O2-  O180  1  0.52264919  0.24281139  0.37092036  1
  O2-  O181  1  0.53362384  0.23875919  0.88320704  1
  O2-  O182  1  0.53622247  0.73045232  0.38527270  1
  O2-  O183  1  0.51789226  0.72332027  0.88625391  1
  O2-  O184  1  0.21285987  0.01311451  0.11408154  1
  O2-  O185  1  0.21188107  0.00989724  0.61670466  1
  O2-  O186  1  0.21999729  0.51367619  0.11445191  1
  O2-  O187  1  0.23282219  0.51686075  0.62996024  1
  O2-  O188  1  0.72061649  0.01031463  0.11562781  1
  O2-  O189  1  0.73106387  -0.00039526  0.61670489  1
  O2-  O190  1  0.72290219  0.51572825  0.11492205  1
  O2-  O191  1  0.73274826  0.52331135  0.62784406  1
  O2-  O192  1  0.13406441  0.27450586  0.22333692  1
  O2-  O193  1  0.13404847  0.27524826  0.72881685  1
  O2-  O194  1  0.11932334  0.77223698  0.23690910  1
  O2-  O195  1  0.11862015  0.76201733  0.73920178  1
  O2-  O196  1  0.62288953  0.26608615  0.23689011  1
  O2-  O197  1  0.63456162  0.28246213  0.73294080  1
  O2-  O198  1  0.63947088  0.77572726  0.23008271  1
  O2-  O199  1  0.63871573  0.76529127  0.73627216  1
  O2-  O200  1  0.38291292  0.23699073  0.26770323  1
  O2-  O201  1  0.36697880  0.23764811  0.77420730  1
  O2-  O202  1  0.36471301  0.72317764  0.26236427  1
  O2-  O203  1  0.36610300  0.71731508  0.76670136  1
  O2-  O204  1  0.86732334  0.23246553  0.27292714  1
  O2-  O205  1  0.86516297  0.23200752  0.77168969  1
  O2-  O206  1  0.88143902  0.73080237  0.26304298  1
  O2-  O207  1  0.87905402  0.72504854  0.76618720  1
  O2-  O208  1  0.27670242  0.36721451  0.21999958  1
  O2-  O209  1  0.26356222  0.38668749  0.73658909  1
  O2-  O210  1  0.26463433  0.86240884  0.21961446  1
  O2-  O211  1  0.26657159  0.85682609  0.73628130  1
  O2-  O212  1  0.76369225  0.36775357  0.22407776  1
  O2-  O213  1  0.76938360  0.38738803  0.72742009  1
  O2-  O214  1  0.78363349  0.86328881  0.24061991  1
  O2-  O215  1  0.78070147  0.85991019  0.74031570  1
  O2-  O216  1  0.23388092  0.13790708  0.28034215  1
  O2-  O217  1  0.22740648  0.13346370  0.76359346  1
  O2-  O218  1  0.21832881  0.63525108  0.26034654  1
  O2-  O219  1  0.22082187  0.62049214  0.76653205  1
  O2-  O220  1  0.72928794  0.13376776  0.27504364  1
  O2-  O221  1  0.72079334  0.13235733  0.76899048  1
  O2-  O222  1  0.73734361  0.63924300  0.27684079  1
  O2-  O223  1  0.73777590  0.62675010  0.76826100  1
  O2-  O224  1  0.11066271  0.48510306  0.28605496  1
  O2-  O225  1  0.11940236  0.48545013  0.75860056  1
  O2-  O226  1  0.11573419  0.97678530  0.28351014  1
  O2-  O227  1  0.11027678  0.95886764  0.75704755  1
  O2-  O228  1  0.61848297  0.48524218  0.27718044  1
  O2-  O229  1  0.62573667  0.48546297  0.75889721  1
  O2-  O230  1  0.61408511  0.98447499  0.27783317  1
  O2-  O231  1  0.61624011  0.98074594  0.77397056  1
  O2-  O232  1  0.38143138  0.02025523  0.22802683  1
  O2-  O233  1  0.37949132  0.01434473  0.72387097  1
  O2-  O234  1  0.38647815  0.52110460  0.24468102  1
  O2-  O235  1  0.37113337  0.52420751  0.73192486  1
  O2-  O236  1  0.88709377  0.01726930  0.23617415  1
  O2-  O237  1  0.88654943  0.01521681  0.71922935  1
  O2-  O238  1  0.88777498  0.53862259  0.24118991  1
  O2-  O239  1  0.87328349  0.52499242  0.73107409  1
  O2-  O240  1  0.48816513  0.37540644  0.26729071  1
  O2-  O241  1  0.47218719  0.39028290  0.76052303  1
  O2-  O242  1  0.47455854  0.88203399  0.28064052  1
  O2-  O243  1  0.47743843  0.87985857  0.76956006  1
  O2-  O244  1  0.96767979  0.38684721  0.25437685  1
  O2-  O245  1  0.97347457  0.38885018  0.74963749  1
  O2-  O246  1  0.98327088  0.86866485  0.26740464  1
  O2-  O247  1  0.97434080  0.86523591  0.75299618  1
  O2-  O248  1  0.02954492  0.11288896  0.24438954  1
  O2-  O249  1  0.03372676  0.11356027  0.74267295  1
  O2-  O250  1  0.02381088  0.63439023  0.24840540  1
  O2-  O251  1  0.01390651  0.62800680  0.73395823  1
  O2-  O252  1  0.51797829  0.13161676  0.23460926  1
  O2-  O253  1  0.51801819  0.11808379  0.72950044  1
  O2-  O254  1  0.52439939  0.61623316  0.23137223  1
  O2-  O255  1  0.51456083  0.61412780  0.71478271  1
  O2-  O256  1  0.13401496  0.48714430  -0.03087155  1
  O2-  O257  1  0.11531092  0.48451288  0.48886836  1
  O2-  O258  1  0.13264310  0.96329851  -0.02052538  1
  O2-  O259  1  0.11407139  0.97761336  0.47990905  1
  O2-  O260  1  0.63767354  0.48989014  -0.03402614  1
  O2-  O261  1  0.62444329  0.49072009  0.49002365  1
  O2-  O262  1  0.63534770  0.96963148  -0.02579037  1
  O2-  O263  1  0.63494794  0.96865119  0.47862840  1
  O2-  O264  1  0.36066851  0.00778038  0.02597676  1
  O2-  O265  1  0.36649852  0.02500688  0.53185698  1
  O2-  O266  1  0.36274583  0.53459345  0.01092785  1
  O2-  O267  1  0.37301493  0.52311207  0.51811196  1
  O2-  O268  1  0.86445930  0.01259834  0.03056830  1
  O2-  O269  1  0.87704958  0.01513123  0.51980292  1
  O2-  O270  1  0.86110799  0.53742339  0.00418799  1
  O2-  O271  1  0.87362866  0.52102464  0.52189125  1
  O2-  O272  1  0.47258012  0.36699091  -0.01669902  1
  O2-  O273  1  0.47468772  0.38674432  0.48177443  1
  O2-  O274  1  0.48463659  0.86350143  -0.02477141  1
  O2-  O275  1  0.48356069  0.86365553  0.47597264  1
  O2-  O276  1  0.97502005  0.36907214  0.00573701  1
  O2-  O277  1  0.97524865  0.38196709  0.49761288  1
  O2-  O278  1  0.96734760  0.86122665  -0.00442109  1
  O2-  O279  1  0.97568613  0.87274827  0.49269326  1
  O2-  O280  1  0.02682145  0.13092578  -0.00204297  1
  O2-  O281  1  0.01786878  0.12147908  0.50265719  1
  O2-  O282  1  0.01172697  0.63802479  0.01705657  1
  O2-  O283  1  0.01053694  0.62918465  0.51132810  1
  O2-  O284  1  0.52560512  0.13455063  0.02326296  1
  O2-  O285  1  0.53249614  0.13687284  0.51411120  1
  O2-  O286  1  0.51280216  0.63339082  0.02945984  1
  O2-  O287  1  0.51329149  0.62100058  0.51979459  1
  O2-  O288  1  0.11864676  0.27039304  0.02522701  1
  O2-  O289  1  0.11306941  0.27120969  0.52488767  1
  O2-  O290  1  0.12123559  0.76997235  0.00840915  1
  O2-  O291  1  0.11058191  0.77023920  0.51738720  1
  O2-  O292  1  0.61647237  0.28268710  0.02433556  1
  O2-  O293  1  0.61138621  0.29211269  0.50777808  1
  O2-  O294  1  0.62583830  0.76628783  0.01879687  1
  O2-  O295  1  0.63363253  0.76113275  0.52117955  1
  O2-  O296  1  0.38733708  0.22406831  -0.01663828  1
  O2-  O297  1  0.38771480  0.23781256  0.46956016  1
  O2-  O298  1  0.37153412  0.72993042  -0.01230431  1
  O2-  O299  1  0.38373012  0.72442847  0.47301671  1
  O2-  O300  1  0.88232696  0.22826892  -0.02313101  1
  O2-  O301  1  0.88259670  0.23384331  0.47501704  1
  O2-  O302  1  0.87018205  0.72819704  -0.01496607  1
  O2-  O303  1  0.87362100  0.73176516  0.49148314  1
  O2-  O304  1  0.27297381  0.38855801  0.01108504  1
  O2-  O305  1  0.25525823  0.38950334  0.52614572  1
  O2-  O306  1  0.26519428  0.86274620  0.01578706  1
  O2-  O307  1  0.27014652  0.88251422  0.52326615  1
  O2-  O308  1  0.77623236  0.38781312  0.01304636  1
  O2-  O309  1  0.76451533  0.38918826  0.52822959  1
  O2-  O310  1  0.76465102  0.86345009  0.02380340  1
  O2-  O311  1  0.76980545  0.86569447  0.52044767  1
  O2-  O312  1  0.22877822  0.11623401  -0.02623841  1
  O2-  O313  1  0.22350668  0.11728578  0.48784719  1
  O2-  O314  1  0.22427833  0.62994350  -0.01646832  1
  O2-  O315  1  0.21875446  0.61414596  0.48937191  1
  O2-  O316  1  0.72938883  0.11536899  -0.02643515  1
  O2-  O317  1  0.72931136  0.11321260  0.48686168  1
  O2-  O318  1  0.72390022  0.63422983  -0.01121944  1
  O2-  O319  1  0.73675654  0.62769362  0.48894310  1
