# generated using pymatgen
data_Sr64Ca21Nb43O192
_symmetry_space_group_name_H-M   'P 1'
_cell_length_a   16.59936735
_cell_length_b   16.59548560
_cell_length_c   16.72856510
_cell_angle_alpha   89.96645858
_cell_angle_beta   90.03067931
_cell_angle_gamma   89.94295755
_symmetry_Int_Tables_number   1
_chemical_formula_structural   Sr64Ca21Nb43O192
_chemical_formula_sum   'Sr64 Ca21 Nb43 O192'
_cell_volume   4608.29040499
_cell_formula_units_Z   1
loop_
 _symmetry_equiv_pos_site_id
 _symmetry_equiv_pos_as_xyz
  1  'x, y, z'
loop_
 _atom_type_symbol
 _atom_type_oxidation_number
  Sr2+  2.0
  Ca2+  2.0
  Nb5+  5.0
  O2-  -2.0
loop_
 _atom_site_type_symbol
 _atom_site_label
 _atom_site_symmetry_multiplicity
 _atom_site_fract_x
 _atom_site_fract_y
 _atom_site_fract_z
 _atom_site_occupancy
  Sr2+  Sr0  1  0.11931706  0.11416937  0.12022689  1
  Sr2+  Sr1  1  0.11496841  0.11665300  0.62338470  1
  Sr2+  Sr2  1  0.11511022  0.61399380  0.12696325  1
  Sr2+  Sr3  1  0.11872734  0.60899757  0.61847470  1
  Sr2+  Sr4  1  0.61813231  0.11867399  0.12500638  1
  Sr2+  Sr5  1  0.62272741  0.11427655  0.63191109  1
  Sr2+  Sr6  1  0.61898417  0.61053982  0.12332890  1
  Sr2+  Sr7  1  0.61665625  0.61451473  0.62068612  1
  Sr2+  Sr8  1  0.36967381  0.36402209  0.12380053  1
  Sr2+  Sr9  1  0.36851500  0.37724954  0.62923601  1
  Sr2+  Sr10  1  0.37069907  0.86841019  0.13116440  1
  Sr2+  Sr11  1  0.37131134  0.86088811  0.62882705  1
  Sr2+  Sr12  1  0.86899308  0.37646356  0.12872277  1
  Sr2+  Sr13  1  0.87117069  0.36883274  0.62907292  1
  Sr2+  Sr14  1  0.87007014  0.86017036  0.11668120  1
  Sr2+  Sr15  1  0.86148277  0.86568170  0.62489158  1
  Sr2+  Sr16  1  0.13728125  0.38390682  0.36973937  1
  Sr2+  Sr17  1  0.13825427  0.37946131  0.87157591  1
  Sr2+  Sr18  1  0.13082071  0.88604218  0.37766688  1
  Sr2+  Sr19  1  0.13334208  0.88123397  0.87292592  1
  Sr2+  Sr20  1  0.63959376  0.37893591  0.36849156  1
  Sr2+  Sr21  1  0.63490618  0.38743741  0.87716770  1
  Sr2+  Sr22  1  0.63350685  0.87853668  0.37952438  1
  Sr2+  Sr23  1  0.64011776  0.88116279  0.87534141  1
  Sr2+  Sr24  1  0.38310033  0.12757644  0.37968343  1
  Sr2+  Sr25  1  0.36337937  0.13184177  0.87532856  1
  Sr2+  Sr26  1  0.37678504  0.63369206  0.37111873  1
  Sr2+  Sr27  1  0.38523679  0.62186155  0.87267979  1
  Sr2+  Sr28  1  0.88699242  0.12807042  0.37362364  1
  Sr2+  Sr29  1  0.88609533  0.12914331  0.86373191  1
  Sr2+  Sr30  1  0.88215376  0.63143122  0.37551743  1
  Sr2+  Sr31  1  0.88924212  0.63384008  0.87682621  1
  Sr2+  Sr32  1  0.13051540  0.12435568  0.36765046  1
  Sr2+  Sr33  1  0.13070083  0.13700939  0.86933150  1
  Sr2+  Sr34  1  0.13121459  0.63816019  0.38160069  1
  Sr2+  Sr35  1  0.13208354  0.63451181  0.87948421  1
  Sr2+  Sr36  1  0.63174568  0.13894831  0.37147354  1
  Sr2+  Sr37  1  0.63521022  0.12973469  0.87627179  1
  Sr2+  Sr38  1  0.63107800  0.63934365  0.37224110  1
  Sr2+  Sr39  1  0.62797673  0.61989736  0.87984565  1
  Sr2+  Sr40  1  0.38471189  0.38555278  0.36900716  1
  Sr2+  Sr41  1  0.37660234  0.38795359  0.87364284  1
  Sr2+  Sr42  1  0.38341447  0.88299977  0.38207052  1
  Sr2+  Sr43  1  0.38184369  0.88752056  0.87297722  1
  Sr2+  Sr44  1  0.88195563  0.38418732  0.36998516  1
  Sr2+  Sr45  1  0.88583425  0.38805912  0.87242882  1
  Sr2+  Sr46  1  0.87985628  0.88479414  0.37866147  1
  Sr2+  Sr47  1  0.88306013  0.88297890  0.87388106  1
  Sr2+  Sr48  1  0.11389178  0.36677810  0.12581628  1
  Sr2+  Sr49  1  0.10837288  0.37493670  0.61515284  1
  Sr2+  Sr50  1  0.10647702  0.86923920  0.12051719  1
  Sr2+  Sr51  1  0.11660370  0.85835534  0.62625611  1
  Sr2+  Sr52  1  0.62076140  0.36734181  0.11986681  1
  Sr2+  Sr53  1  0.62701341  0.37169146  0.63250978  1
  Sr2+  Sr54  1  0.61531820  0.86983142  0.11776481  1
  Sr2+  Sr55  1  0.61812445  0.87017671  0.63015439  1
  Sr2+  Sr56  1  0.36561361  0.12072569  0.12374942  1
  Sr2+  Sr57  1  0.36536118  0.11518586  0.62508300  1
  Sr2+  Sr58  1  0.36700991  0.61768810  0.12939875  1
  Sr2+  Sr59  1  0.35444531  0.62164218  0.62076945  1
  Sr2+  Sr60  1  0.86990312  0.11322398  0.13186475  1
  Sr2+  Sr61  1  0.85851644  0.12248734  0.62726884  1
  Sr2+  Sr62  1  0.87239533  0.61605605  0.12565631  1
  Sr2+  Sr63  1  0.86492483  0.61207764  0.62051432  1
  Ca2+  Ca64  1  0.50057570  0.50082388  0.49764129  1
  Ca2+  Ca65  1  -0.00358224  0.49868477  0.49762621  1
  Ca2+  Ca66  1  0.00238685  0.49662919  0.00074745  1
  Ca2+  Ca67  1  0.00025959  0.00270480  -0.00256234  1
  Ca2+  Ca68  1  -0.00126515  0.00198965  0.50348725  1
  Ca2+  Ca69  1  0.74824091  0.74802486  -0.00051263  1
  Ca2+  Ca70  1  0.25091932  0.75225071  0.00392249  1
  Ca2+  Ca71  1  0.75141759  0.24841459  -0.00042631  1
  Ca2+  Ca72  1  0.75192248  0.24698878  0.49815077  1
  Ca2+  Ca73  1  0.24931505  0.24875614  0.49738342  1
  Ca2+  Ca74  1  0.00005405  0.75084177  0.25219764  1
  Ca2+  Ca75  1  0.24907047  0.50091765  0.24817164  1
  Ca2+  Ca76  1  0.74713577  0.50305409  0.25243862  1
  Ca2+  Ca77  1  0.49872246  0.24946785  0.75129632  1
  Ca2+  Ca78  1  0.75181827  0.50142600  0.75126627  1
  Ca2+  Ca79  1  -0.00015684  0.74918272  0.74723905  1
  Ca2+  Ca80  1  0.24684868  0.50192700  0.74983407  1
  Ca2+  Ca81  1  0.50102639  0.74918915  0.75124298  1
  Ca2+  Ca82  1  0.25077675  -0.00083356  0.74734238  1
  Ca2+  Ca83  1  0.25119324  -0.00226716  0.24761678  1
  Ca2+  Ca84  1  0.74751203  -0.00288505  0.24946849  1
  Nb5+  Nb85  1  0.49757347  -0.00330193  0.00543560  1
  Nb5+  Nb86  1  0.50276950  0.00229480  0.50619244  1
  Nb5+  Nb87  1  0.49781309  0.49175235  0.00310610  1
  Nb5+  Nb88  1  0.24497349  0.75376679  0.49908492  1
  Nb5+  Nb89  1  0.74409661  0.74888928  0.50109413  1
  Nb5+  Nb90  1  0.24612542  0.25326795  0.00229462  1
  Nb5+  Nb91  1  0.75121596  -0.00199365  0.74937959  1
  Nb5+  Nb92  1  0.50282372  0.25428030  0.24926363  1
  Nb5+  Nb93  1  0.00637204  0.24823446  0.24548826  1
  Nb5+  Nb94  1  0.50129830  0.75656292  0.24943214  1
  Nb5+  Nb95  1  0.00152728  0.24880707  0.74274862  1
  Nb5+  Nb96  1  -0.00378335  -0.00617245  0.24823716  1
  Nb5+  Nb97  1  0.00114763  -0.00394116  0.74317571  1
  Nb5+  Nb98  1  0.00140058  0.50274710  0.25491476  1
  Nb5+  Nb99  1  0.00364523  0.50357196  0.75450160  1
  Nb5+  Nb100  1  0.50346963  0.00461745  0.25589180  1
  Nb5+  Nb101  1  0.50246089  0.00242506  0.75940328  1
  Nb5+  Nb102  1  0.50351573  0.50600592  0.25239860  1
  Nb5+  Nb103  1  0.49748162  0.50161631  0.74484785  1
  Nb5+  Nb104  1  0.25667931  0.24547698  0.25088858  1
  Nb5+  Nb105  1  0.24764620  0.25368351  0.74092273  1
  Nb5+  Nb106  1  0.24575736  0.75788685  0.24901844  1
  Nb5+  Nb107  1  0.25256727  0.74701520  0.75670506  1
  Nb5+  Nb108  1  0.75998720  0.24639452  0.24773849  1
  Nb5+  Nb109  1  0.75007477  0.25300982  0.75523134  1
  Nb5+  Nb110  1  0.75037112  0.75158756  0.24813130  1
  Nb5+  Nb111  1  0.74777053  0.74356847  0.74974539  1
  Nb5+  Nb112  1  0.00007012  0.25060568  0.48842945  1
  Nb5+  Nb113  1  -0.00565682  0.24618410  0.99668676  1
  Nb5+  Nb114  1  -0.00966581  0.75021983  0.50320836  1
  Nb5+  Nb115  1  0.00107944  0.74932401  0.99936483  1
  Nb5+  Nb116  1  0.50135413  0.25267544  0.50383952  1
  Nb5+  Nb117  1  0.49547486  0.24436888  0.99617712  1
  Nb5+  Nb118  1  0.49812799  0.74874529  0.49977013  1
  Nb5+  Nb119  1  0.49570007  0.74468234  0.99828376  1
  Nb5+  Nb120  1  0.25004334  -0.00294757  -0.00166035  1
  Nb5+  Nb121  1  0.24698775  -0.00205169  0.50544027  1
  Nb5+  Nb122  1  0.24778962  0.50209733  0.00713854  1
  Nb5+  Nb123  1  0.25343121  0.49590744  0.49409743  1
  Nb5+  Nb124  1  0.75510998  0.00199903  -0.00134454  1
  Nb5+  Nb125  1  0.74709494  0.00197164  0.49701679  1
  Nb5+  Nb126  1  0.75608865  0.50367592  -0.00140630  1
  Nb5+  Nb127  1  0.74840901  0.49413939  0.49892233  1
  O2-  O128  1  -0.00997709  0.02781387  0.13387354  1
  O2-  O129  1  -0.01912842  0.03793628  0.63498086  1
  O2-  O130  1  -0.02033607  0.51120448  0.13705795  1
  O2-  O131  1  -0.01847494  0.51074681  0.63690373  1
  O2-  O132  1  0.48440361  0.01877516  0.11768494  1
  O2-  O133  1  0.49159199  0.02073402  0.61897002  1
  O2-  O134  1  0.48439000  0.51784409  0.12301436  1
  O2-  O135  1  0.48113091  0.52569847  0.63384630  1
  O2-  O136  1  0.01415345  -0.01551299  0.36694838  1
  O2-  O137  1  0.01047138  -0.01707066  0.86137275  1
  O2-  O138  1  0.01183587  0.46485396  0.36638510  1
  O2-  O139  1  0.01739608  0.46752620  0.86860392  1
  O2-  O140  1  0.51859605  -0.01562693  0.36825614  1
  O2-  O141  1  0.51744068  -0.01782539  0.87286367  1
  O2-  O142  1  0.51900821  0.47480627  0.36243497  1
  O2-  O143  1  0.51445714  0.48428889  0.88652699  1
  O2-  O144  1  0.23889163  0.27325822  0.12596157  1
  O2-  O145  1  0.23483039  0.28405392  0.63186694  1
  O2-  O146  1  0.23684555  0.78962548  0.13767900  1
  O2-  O147  1  0.24482519  0.77480360  0.61527844  1
  O2-  O148  1  0.73870104  0.27459831  0.13388850  1
  O2-  O149  1  0.74402181  0.26592598  0.63607229  1
  O2-  O150  1  0.73611917  0.78196303  0.13775192  1
  O2-  O151  1  0.73525596  0.77417563  0.61806031  1
  O2-  O152  1  0.25864042  0.21607977  0.36324534  1
  O2-  O153  1  0.25394766  0.23360829  0.88504871  1
  O2-  O154  1  0.26462233  0.73246781  0.37920168  1
  O2-  O155  1  0.26392393  0.71729901  0.86758931  1
  O2-  O156  1  0.76281078  0.21890864  0.36382069  1
  O2-  O157  1  0.76648704  0.21712792  0.86622236  1
  O2-  O158  1  0.76162104  0.72759544  0.38385926  1
  O2-  O159  1  0.76339661  0.72703063  0.86254398  1
  O2-  O160  1  0.02055414  0.23307422  0.13144671  1
  O2-  O161  1  0.02299437  0.23883764  0.63091153  1
  O2-  O162  1  0.02734669  0.73684177  0.11879715  1
  O2-  O163  1  0.02890789  0.73132634  0.61361891  1
  O2-  O164  1  0.51262035  0.23673278  0.12799832  1
  O2-  O165  1  0.53235240  0.23992656  0.61309788  1
  O2-  O166  1  0.52617964  0.74120600  0.13422596  1
  O2-  O167  1  0.52255822  0.74288766  0.61205239  1
  O2-  O168  1  0.23638568  0.01261613  0.38740003  1
  O2-  O169  1  0.23780409  0.02855538  0.88412227  1
  O2-  O170  1  0.22662357  0.52331386  0.38137565  1
  O2-  O171  1  0.23319549  0.51309493  0.88970551  1
  O2-  O172  1  0.71707364  0.01110354  0.38592246  1
  O2-  O173  1  0.72839937  0.01121588  0.86686155  1
  O2-  O174  1  0.71451554  0.51708026  0.38724935  1
  O2-  O175  1  0.72241923  0.50982229  0.88399913  1
  O2-  O176  1  -0.02217775  0.25967678  0.37353195  1
  O2-  O177  1  -0.01685577  0.26130617  0.88208450  1
  O2-  O178  1  -0.01611151  0.77324403  0.38681569  1
  O2-  O179  1  -0.02720498  0.76228435  0.88210191  1
  O2-  O180  1  0.47318510  0.25461142  0.36353881  1
  O2-  O181  1  0.46502502  0.25635106  0.88682212  1
  O2-  O182  1  0.48419084  0.76385602  0.37240822  1
  O2-  O183  1  0.46630073  0.76049888  0.88891367  1
  O2-  O184  1  0.28609919  -0.00748476  0.11000579  1
  O2-  O185  1  0.28878357  -0.01701773  0.61531291  1
  O2-  O186  1  0.28462957  0.48246568  0.11730768  1
  O2-  O187  1  0.27497267  0.49136121  0.61331823  1
  O2-  O188  1  0.77395513  -0.01569024  0.11117738  1
  O2-  O189  1  0.76197416  -0.01575762  0.62633042  1
  O2-  O190  1  0.77039767  0.49342262  0.11704248  1
  O2-  O191  1  0.77544069  0.48587618  0.61737574  1
  O2-  O192  1  0.12023663  0.26720616  0.26624960  1
  O2-  O193  1  0.11966948  0.26635103  0.77039467  1
  O2-  O194  1  0.13574025  0.77424135  0.27614176  1
  O2-  O195  1  0.13623533  0.77989496  0.76241905  1
  O2-  O196  1  0.61697751  0.26511814  0.26459153  1
  O2-  O197  1  0.63615341  0.26920177  0.77217446  1
  O2-  O198  1  0.61860491  0.76834618  0.27442548  1
  O2-  O199  1  0.63544656  0.78202916  0.76016785  1
  O2-  O200  1  0.37252372  0.23066517  0.23106293  1
  O2-  O201  1  0.36164541  0.22810407  0.73229136  1
  O2-  O202  1  0.38532084  0.73009415  0.23748137  1
  O2-  O203  1  0.36734824  0.72926066  0.72592743  1
  O2-  O204  1  0.87535238  0.22913283  0.23210766  1
  O2-  O205  1  0.88126415  0.22671428  0.73713960  1
  O2-  O206  1  0.86290789  0.72444662  0.23852187  1
  O2-  O207  1  0.86249330  0.73464943  0.71995993  1
  O2-  O208  1  0.26510378  0.36171886  0.27284165  1
  O2-  O209  1  0.26374025  0.36432655  0.77870148  1
  O2-  O210  1  0.28653855  0.86616889  0.27370536  1
  O2-  O211  1  0.27793515  0.86604185  0.76913200  1
  O2-  O212  1  0.76296269  0.36332111  0.27445484  1
  O2-  O213  1  0.77693417  0.36384190  0.77141824  1
  O2-  O214  1  0.76040304  0.86375189  0.28614295  1
  O2-  O215  1  0.77129049  0.87977322  0.76325233  1
  O2-  O216  1  0.22631261  0.13409969  0.22344794  1
  O2-  O217  1  0.22237915  0.13726077  0.73514723  1
  O2-  O218  1  0.23940937  0.64077786  0.22614376  1
  O2-  O219  1  0.22460506  0.63660664  0.72113825  1
  O2-  O220  1  0.72641742  0.13370579  0.22623105  1
  O2-  O221  1  0.73612490  0.11963754  0.73147497  1
  O2-  O222  1  0.71528063  0.63894631  0.23914491  1
  O2-  O223  1  0.72078067  0.63468020  0.72540473  1
  O2-  O224  1  0.11538664  0.47476095  0.22995167  1
  O2-  O225  1  0.11584367  0.47120992  0.73014814  1
  O2-  O226  1  0.11576863  0.97690579  0.23405581  1
  O2-  O227  1  0.11502631  0.98297761  0.72399379  1
  O2-  O228  1  0.61328613  0.47697810  0.22150224  1
  O2-  O229  1  0.61438515  0.47365555  0.74071403  1
  O2-  O230  1  0.61243419  0.98523088  0.21595815  1
  O2-  O231  1  0.62890859  0.98152624  0.73351429  1
  O2-  O232  1  0.38820628  0.02092443  0.25887496  1
  O2-  O233  1  0.38939278  0.02850210  0.76557666  1
  O2-  O234  1  0.38639226  0.51204077  0.26675049  1
  O2-  O235  1  0.38218848  0.51333413  0.77597194  1
  O2-  O236  1  0.88061091  0.02363031  0.26809704  1
  O2-  O237  1  0.86930415  0.01792815  0.76338043  1
  O2-  O238  1  0.88169465  0.51461103  0.27382072  1
  O2-  O239  1  0.88517225  0.51618755  0.77756184  1
  O2-  O240  1  0.48051920  0.36812269  0.23344992  1
  O2-  O241  1  0.47496558  0.38251123  0.73623696  1
  O2-  O242  1  0.48499390  0.87451868  0.23625060  1
  O2-  O243  1  0.48454118  0.88905095  0.72981503  1
  O2-  O244  1  0.97650495  0.36315530  0.23585285  1
  O2-  O245  1  0.97695051  0.36434648  0.73942261  1
  O2-  O246  1  0.96890755  0.88313739  0.22844048  1
  O2-  O247  1  0.97410877  0.88596295  0.72477690  1
  O2-  O248  1  0.01364076  0.13107579  0.27037166  1
  O2-  O249  1  0.01528638  0.13019882  0.77140785  1
  O2-  O250  1  0.02393040  0.61505206  0.27264051  1
  O2-  O251  1  0.02597294  0.61527369  0.77348160  1
  O2-  O252  1  0.51977961  0.12355824  0.26021352  1
  O2-  O253  1  0.53504707  0.11570704  0.75883720  1
  O2-  O254  1  0.51860576  0.62284916  0.26413819  1
  O2-  O255  1  0.52067979  0.61537090  0.77601698  1
  O2-  O256  1  0.13687611  0.47846210  0.02819262  1
  O2-  O257  1  0.13498738  0.48924770  0.51829487  1
  O2-  O258  1  0.13818661  0.98330935  0.02071186  1
  O2-  O259  1  0.13692256  0.97290301  0.52466445  1
  O2-  O260  1  0.61590660  0.48228542  0.02011536  1
  O2-  O261  1  0.63260435  0.48666707  0.53409703  1
  O2-  O262  1  0.61608784  0.98136824  0.00838765  1
  O2-  O263  1  0.62167318  0.97467558  0.51683312  1
  O2-  O264  1  0.38456279  0.01818712  -0.02787813  1
  O2-  O265  1  0.38720987  0.01114931  0.47858734  1
  O2-  O266  1  0.38030995  0.51577006  -0.01712678  1
  O2-  O267  1  0.36721818  0.52951899  0.47737182  1
  O2-  O268  1  0.86431475  0.02611701  -0.02613758  1
  O2-  O269  1  0.86121231  0.01425474  0.47895587  1
  O2-  O270  1  0.86738030  0.52724717  -0.01956024  1
  O2-  O271  1  0.86095709  0.52898385  0.48024873  1
  O2-  O272  1  0.48043040  0.37573525  0.01809381  1
  O2-  O273  1  0.47181142  0.36365395  0.51091498  1
  O2-  O274  1  0.47766112  0.88154001  0.01705543  1
  O2-  O275  1  0.48930308  0.87644815  0.50617865  1
  O2-  O276  1  0.98270944  0.35995227  0.02646347  1
  O2-  O277  1  0.97311677  0.36258865  0.52031593  1
  O2-  O278  1  0.97890783  0.86922832  0.01820656  1
  O2-  O279  1  0.98238960  0.86717869  0.52690887  1
  O2-  O280  1  0.03749982  0.13658207  -0.01123474  1
  O2-  O281  1  0.03597666  0.13590836  0.48564647  1
  O2-  O282  1  0.02429646  0.63148929  -0.01661671  1
  O2-  O283  1  0.01492135  0.63543956  0.47733357  1
  O2-  O284  1  0.51390405  0.12729922  -0.01098963  1
  O2-  O285  1  0.52467200  0.11509918  0.47975780  1
  O2-  O286  1  0.51346296  0.62823111  -0.01002657  1
  O2-  O287  1  0.52044610  0.63757820  0.47771385  1
  O2-  O288  1  0.13025812  0.27402404  -0.00561618  1
  O2-  O289  1  0.11567004  0.28323672  0.48255274  1
  O2-  O290  1  0.11783289  0.77579936  -0.02279015  1
  O2-  O291  1  0.13137238  0.77236494  0.48251187  1
  O2-  O292  1  0.60833412  0.27093522  -0.01648385  1
  O2-  O293  1  0.61179486  0.26299136  0.46302612  1
  O2-  O294  1  0.60834292  0.77748262  -0.01073901  1
  O2-  O295  1  0.62786719  0.76786578  0.48128121  1
  O2-  O296  1  0.37453573  0.23841627  0.02486108  1
  O2-  O297  1  0.38983285  0.21321262  0.50948835  1
  O2-  O298  1  0.38640320  0.74130928  0.04056048  1
  O2-  O299  1  0.38123166  0.73815748  0.51122849  1
  O2-  O300  1  0.88657010  0.21545262  0.01890146  1
  O2-  O301  1  0.88801418  0.21684720  0.51444712  1
  O2-  O302  1  0.88228581  0.72742898  0.02518691  1
  O2-  O303  1  0.87341731  0.73339960  0.51756480  1
  O2-  O304  1  0.27221379  0.37102908  -0.01333949  1
  O2-  O305  1  0.27385308  0.38403115  0.47281854  1
  O2-  O306  1  0.27047110  0.88670479  -0.02866693  1
  O2-  O307  1  0.27263988  0.87321113  0.48178943  1
  O2-  O308  1  0.76552354  0.38472483  -0.01617720  1
  O2-  O309  1  0.76546838  0.38216706  0.47626252  1
  O2-  O310  1  0.76065984  0.88540128  -0.02713543  1
  O2-  O311  1  0.76557946  0.87279891  0.48537306  1
  O2-  O312  1  0.24214457  0.13266123  0.02040796  1
  O2-  O313  1  0.23771017  0.11298400  0.52696248  1
  O2-  O314  1  0.23682960  0.61659120  0.02857851  1
  O2-  O315  1  0.23471025  0.63641026  0.51639346  1
  O2-  O316  1  0.71592406  0.11297472  0.00981525  1
  O2-  O317  1  0.72703797  0.11256415  0.52351160  1
  O2-  O318  1  0.71734085  0.61710449  0.01327046  1
  O2-  O319  1  0.73090998  0.63376147  0.52289998  1
