# generated using pymatgen
data_Sr64Ca21Nb43O192
_symmetry_space_group_name_H-M   'P 1'
_cell_length_a   16.53548171
_cell_length_b   16.59104141
_cell_length_c   16.70883018
_cell_angle_alpha   89.96062926
_cell_angle_beta   89.97742934
_cell_angle_gamma   89.94988346
_symmetry_Int_Tables_number   1
_chemical_formula_structural   Sr64Ca21Nb43O192
_chemical_formula_sum   'Sr64 Ca21 Nb43 O192'
_cell_volume   4583.91167983
_cell_formula_units_Z   1
loop_
 _symmetry_equiv_pos_site_id
 _symmetry_equiv_pos_as_xyz
  1  'x, y, z'
loop_
 _atom_type_symbol
 _atom_type_oxidation_number
  Sr2+  2.0
  Ca2+  2.0
  Nb5+  5.0
  O2-  -2.0
loop_
 _atom_site_type_symbol
 _atom_site_label
 _atom_site_symmetry_multiplicity
 _atom_site_fract_x
 _atom_site_fract_y
 _atom_site_fract_z
 _atom_site_occupancy
  Sr2+  Sr0  1  0.11884908  0.13695091  0.12141904  1
  Sr2+  Sr1  1  0.11265257  0.13182516  0.62467870  1
  Sr2+  Sr2  1  0.11757261  0.63505909  0.13036077  1
  Sr2+  Sr3  1  0.11807201  0.63285235  0.62582774  1
  Sr2+  Sr4  1  0.61552156  0.13925582  0.13147404  1
  Sr2+  Sr5  1  0.62306813  0.13871675  0.62170551  1
  Sr2+  Sr6  1  0.62023700  0.63808498  0.11868311  1
  Sr2+  Sr7  1  0.61998070  0.62983207  0.63176522  1
  Sr2+  Sr8  1  0.36125024  0.38028603  0.13191833  1
  Sr2+  Sr9  1  0.36761688  0.38101094  0.62310273  1
  Sr2+  Sr10  1  0.37411406  0.89101291  0.12214936  1
  Sr2+  Sr11  1  0.36308235  0.88760468  0.62584888  1
  Sr2+  Sr12  1  0.87020133  0.37232946  0.12585233  1
  Sr2+  Sr13  1  0.86608864  0.37555278  0.62096685  1
  Sr2+  Sr14  1  0.86893440  0.88117865  0.12819099  1
  Sr2+  Sr15  1  0.87035286  0.89406408  0.62219504  1
  Sr2+  Sr16  1  0.12972617  0.37308727  0.38307458  1
  Sr2+  Sr17  1  0.13981853  0.36725692  0.87502157  1
  Sr2+  Sr18  1  0.13707702  0.86555134  0.37928390  1
  Sr2+  Sr19  1  0.12749807  0.86727291  0.87712602  1
  Sr2+  Sr20  1  0.63459697  0.36632207  0.37425156  1
  Sr2+  Sr21  1  0.63466694  0.36724047  0.86914457  1
  Sr2+  Sr22  1  0.62195073  0.86799863  0.37404422  1
  Sr2+  Sr23  1  0.63532536  0.87189255  0.88041732  1
  Sr2+  Sr24  1  0.38828613  0.11729409  0.37520435  1
  Sr2+  Sr25  1  0.39182045  0.12513005  0.87109545  1
  Sr2+  Sr26  1  0.38146485  0.62166589  0.37331195  1
  Sr2+  Sr27  1  0.38740677  0.61349890  0.87766410  1
  Sr2+  Sr28  1  0.87695185  0.11838817  0.38117479  1
  Sr2+  Sr29  1  0.88191590  0.11410617  0.87215045  1
  Sr2+  Sr30  1  0.88247055  0.61526866  0.37249873  1
  Sr2+  Sr31  1  0.87725265  0.62259986  0.87953464  1
  Sr2+  Sr32  1  0.13486129  0.10331249  0.37107003  1
  Sr2+  Sr33  1  0.13704461  0.12458236  0.88110427  1
  Sr2+  Sr34  1  0.12588321  0.61960617  0.37521278  1
  Sr2+  Sr35  1  0.12440111  0.61091498  0.87240171  1
  Sr2+  Sr36  1  0.64477368  0.11439887  0.37200769  1
  Sr2+  Sr37  1  0.63223953  0.11295515  0.87539241  1
  Sr2+  Sr38  1  0.62022051  0.61368139  0.37608720  1
  Sr2+  Sr39  1  0.63636122  0.61597314  0.87617432  1
  Sr2+  Sr40  1  0.38519435  0.36471960  0.37550322  1
  Sr2+  Sr41  1  0.37627843  0.35846041  0.87475812  1
  Sr2+  Sr42  1  0.37725880  0.87033185  0.38068669  1
  Sr2+  Sr43  1  0.38421539  0.87944037  0.86827975  1
  Sr2+  Sr44  1  0.88101152  0.35836768  0.37450057  1
  Sr2+  Sr45  1  0.88316087  0.36170333  0.87156099  1
  Sr2+  Sr46  1  0.87670919  0.88122787  0.37285501  1
  Sr2+  Sr47  1  0.87981633  0.87033427  0.87953759  1
  Sr2+  Sr48  1  0.11265931  0.37532251  0.11371835  1
  Sr2+  Sr49  1  0.11560867  0.38502516  0.62686318  1
  Sr2+  Sr50  1  0.12328766  0.88447211  0.13723261  1
  Sr2+  Sr51  1  0.11719636  0.87864881  0.62822552  1
  Sr2+  Sr52  1  0.61758744  0.38209983  0.13041092  1
  Sr2+  Sr53  1  0.61354711  0.38275811  0.62259555  1
  Sr2+  Sr54  1  0.61130804  0.88052438  0.12112698  1
  Sr2+  Sr55  1  0.62111655  0.88371138  0.62126408  1
  Sr2+  Sr56  1  0.35892772  0.12659372  0.12828712  1
  Sr2+  Sr57  1  0.36730459  0.13265312  0.62462369  1
  Sr2+  Sr58  1  0.36372239  0.63106701  0.12323859  1
  Sr2+  Sr59  1  0.36371684  0.62954280  0.62647567  1
  Sr2+  Sr60  1  0.86974554  0.13351012  0.13496445  1
  Sr2+  Sr61  1  0.86620137  0.13191693  0.62300047  1
  Sr2+  Sr62  1  0.86245749  0.63171839  0.12625932  1
  Sr2+  Sr63  1  0.86567055  0.63254074  0.62779543  1
  Ca2+  Ca64  1  0.00185891  -0.00054281  0.49827697  1
  Ca2+  Ca65  1  0.50157413  0.49908953  -0.00059404  1
  Ca2+  Ca66  1  0.00104507  0.00044425  0.00108350  1
  Ca2+  Ca67  1  -0.00260459  0.50095767  -0.00153209  1
  Ca2+  Ca68  1  0.50216732  -0.00175563  0.49937191  1
  Ca2+  Ca69  1  0.74826068  0.24863332  0.00095715  1
  Ca2+  Ca70  1  0.24873275  0.25193990  0.49953020  1
  Ca2+  Ca71  1  0.24712775  0.75063888  -0.00251222  1
  Ca2+  Ca72  1  0.74975121  0.25109331  0.50041358  1
  Ca2+  Ca73  1  0.75162465  0.75023338  0.49992886  1
  Ca2+  Ca74  1  0.50249350  0.25147969  0.74835545  1
  Ca2+  Ca75  1  0.75033394  -0.00428198  0.24474818  1
  Ca2+  Ca76  1  0.49795206  0.24979936  0.25020930  1
  Ca2+  Ca77  1  0.00425090  0.25084867  0.25227490  1
  Ca2+  Ca78  1  0.00147965  0.25203387  0.75052939  1
  Ca2+  Ca79  1  0.75115300  0.50116956  0.25190904  1
  Ca2+  Ca80  1  0.25218613  -0.00182911  0.25103659  1
  Ca2+  Ca81  1  0.49739107  0.75194802  0.74967274  1
  Ca2+  Ca82  1  0.24832290  0.00078821  0.75142055  1
  Ca2+  Ca83  1  0.74939216  -0.00232529  0.75068144  1
  Ca2+  Ca84  1  0.24812461  0.49862989  0.25434136  1
  Nb5+  Nb85  1  -0.00869947  0.50220618  0.50307829  1
  Nb5+  Nb86  1  0.49143101  0.50118466  0.50217771  1
  Nb5+  Nb87  1  0.50181321  0.00638484  -0.00015046  1
  Nb5+  Nb88  1  0.25024101  0.74733191  0.50111200  1
  Nb5+  Nb89  1  0.74991049  0.74993140  -0.00032625  1
  Nb5+  Nb90  1  0.25294977  0.24960437  0.00176147  1
  Nb5+  Nb91  1  0.75677523  0.49961527  0.74891194  1
  Nb5+  Nb92  1  -0.00253684  0.75101889  0.75447374  1
  Nb5+  Nb93  1  -0.00489413  0.74876579  0.25808133  1
  Nb5+  Nb94  1  0.49187228  0.74828950  0.24779913  1
  Nb5+  Nb95  1  0.25531534  0.50246099  0.75102615  1
  Nb5+  Nb96  1  0.00449748  0.00478642  0.24920766  1
  Nb5+  Nb97  1  0.00432549  0.00531353  0.75153376  1
  Nb5+  Nb98  1  0.00168562  0.49825196  0.24597267  1
  Nb5+  Nb99  1  0.00051188  0.49981762  0.74878713  1
  Nb5+  Nb100  1  0.50336487  0.00079020  0.25180455  1
  Nb5+  Nb101  1  0.50391288  0.00265585  0.74321173  1
  Nb5+  Nb102  1  0.50021990  0.50153440  0.24532106  1
  Nb5+  Nb103  1  0.50418136  0.49786615  0.75300170  1
  Nb5+  Nb104  1  0.24518507  0.24791314  0.25758158  1
  Nb5+  Nb105  1  0.24822441  0.24768769  0.74697881  1
  Nb5+  Nb106  1  0.24670536  0.75129006  0.24575280  1
  Nb5+  Nb107  1  0.24833794  0.74678438  0.75406153  1
  Nb5+  Nb108  1  0.75135392  0.24958525  0.24979000  1
  Nb5+  Nb109  1  0.74720315  0.24444025  0.75135500  1
  Nb5+  Nb110  1  0.73905936  0.74860879  0.25166825  1
  Nb5+  Nb111  1  0.75083659  0.75281833  0.74812817  1
  Nb5+  Nb112  1  0.00592320  0.24550584  0.49757767  1
  Nb5+  Nb113  1  -0.00546369  0.24780339  0.99624181  1
  Nb5+  Nb114  1  -0.00349142  0.74636919  0.50435819  1
  Nb5+  Nb115  1  -0.00092155  0.75189531  1.01011560  1
  Nb5+  Nb116  1  0.50373357  0.24223739  0.49405776  1
  Nb5+  Nb117  1  0.49919791  0.25859075  1.00726293  1
  Nb5+  Nb118  1  0.49748062  0.74790978  0.50513922  1
  Nb5+  Nb119  1  0.49768872  0.75170574  0.99413885  1
  Nb5+  Nb120  1  0.25091793  -0.00438149  -0.00682891  1
  Nb5+  Nb121  1  0.24892652  0.00644963  0.50491559  1
  Nb5+  Nb122  1  0.24593402  0.50136337  0.00587061  1
  Nb5+  Nb123  1  0.24550664  0.50285716  0.50015043  1
  Nb5+  Nb124  1  0.75044694  0.00471090  0.00618532  1
  Nb5+  Nb125  1  0.75022966  -0.00326605  0.49969954  1
  Nb5+  Nb126  1  0.75167314  0.49568260  0.00073041  1
  Nb5+  Nb127  1  0.74244329  0.50450772  0.50024170  1
  O2-  O128  1  0.03584539  0.00444738  0.13261643  1
  O2-  O129  1  0.02682868  0.00454595  0.63284062  1
  O2-  O130  1  0.02895659  0.51322732  0.13505245  1
  O2-  O131  1  0.01378228  0.52089445  0.62408104  1
  O2-  O132  1  0.52201560  0.00998603  0.12203690  1
  O2-  O133  1  0.53343847  0.01464080  0.63269431  1
  O2-  O134  1  0.52737728  0.51871646  0.13468732  1
  O2-  O135  1  0.51390562  0.52262490  0.62032700  1
  O2-  O136  1  -0.02699721  -0.00735711  0.36416018  1
  O2-  O137  1  -0.02611136  -0.01488441  0.86499746  1
  O2-  O138  1  -0.02056522  0.49275904  0.38559588  1
  O2-  O139  1  -0.02511241  0.49322619  0.86070730  1
  O2-  O140  1  0.48134137  -0.02299632  0.36374846  1
  O2-  O141  1  0.48163832  -0.01212268  0.88430770  1
  O2-  O142  1  0.47867212  0.49302212  0.38316109  1
  O2-  O143  1  0.47961027  0.47557269  0.86281765  1
  O2-  O144  1  0.27458938  0.26153668  0.11638560  1
  O2-  O145  1  0.27349279  0.26542976  0.63494690  1
  O2-  O146  1  0.26640856  0.77435175  0.13510953  1
  O2-  O147  1  0.26280624  0.75901886  0.62455930  1
  O2-  O148  1  0.77966868  0.25846429  0.13206080  1
  O2-  O149  1  0.77466742  0.25892395  0.63536125  1
  O2-  O150  1  0.76588389  0.76141178  0.11697913  1
  O2-  O151  1  0.77978322  0.76378453  0.63678788  1
  O2-  O152  1  0.21304857  0.23614564  0.36693940  1
  O2-  O153  1  0.23481262  0.24318808  0.87597694  1
  O2-  O154  1  0.23567476  0.72714188  0.38219755  1
  O2-  O155  1  0.21329120  0.73245133  0.86357610  1
  O2-  O156  1  0.72584291  0.24113754  0.36728732  1
  O2-  O157  1  0.71950904  0.24102207  0.86830050  1
  O2-  O158  1  0.72287657  0.73061906  0.36332735  1
  O2-  O159  1  0.73902395  0.72982439  0.87435590  1
  O2-  O160  1  -0.01065238  0.22964748  0.11518031  1
  O2-  O161  1  -0.01220299  0.22801537  0.61601014  1
  O2-  O162  1  -0.01377192  0.73100374  0.12513984  1
  O2-  O163  1  -0.01069825  0.72944023  0.61991001  1
  O2-  O164  1  0.47927375  0.21549753  0.11561726  1
  O2-  O165  1  0.48794025  0.22225842  0.61216442  1
  O2-  O166  1  0.48929429  0.72720059  0.12853305  1
  O2-  O167  1  0.48626800  0.72090391  0.61578354  1
  O2-  O168  1  0.27462965  0.01803284  0.38725295  1
  O2-  O169  1  0.27729027  0.03007623  0.88329616  1
  O2-  O170  1  0.25779002  0.53227943  0.38981850  1
  O2-  O171  1  0.25979835  0.52511971  0.86692738  1
  O2-  O172  1  0.76666855  0.01333064  0.37993211  1
  O2-  O173  1  0.76048466  0.01635883  0.88756236  1
  O2-  O174  1  0.75607123  0.53348405  0.38947542  1
  O2-  O175  1  0.76205424  0.52165920  0.86619587  1
  O2-  O176  1  0.01399654  0.28491961  0.38518603  1
  O2-  O177  1  0.01880713  0.27971733  0.88366581  1
  O2-  O178  1  0.01707854  0.75877213  0.37289669  1
  O2-  O179  1  0.00834553  0.76735915  0.86891980  1
  O2-  O180  1  0.51234128  0.28466841  0.38246019  1
  O2-  O181  1  0.51025757  0.27424429  0.88913361  1
  O2-  O182  1  0.50344865  0.76502198  0.36974358  1
  O2-  O183  1  0.50955239  0.77952467  0.88377534  1
  O2-  O184  1  0.24288317  -0.02018697  0.11128231  1
  O2-  O185  1  0.23481273  -0.03043784  0.61716615  1
  O2-  O186  1  0.23438971  0.47281335  0.11644925  1
  O2-  O187  1  0.24172788  0.48304300  0.62816597  1
  O2-  O188  1  0.73658217  -0.04089276  0.11254732  1
  O2-  O189  1  0.73698692  -0.02574742  0.61793927  1
  O2-  O190  1  0.73529696  0.48084724  0.11378325  1
  O2-  O191  1  0.73770670  0.47897027  0.63045272  1
  O2-  O192  1  0.13676853  0.27714462  0.21845860  1
  O2-  O193  1  0.13655284  0.28606733  0.73925932  1
  O2-  O194  1  0.12744869  0.76420102  0.23773679  1
  O2-  O195  1  0.11729068  0.75967490  0.72820398  1
  O2-  O196  1  0.63273940  0.27376377  0.22659951  1
  O2-  O197  1  0.63554415  0.28417874  0.73118567  1
  O2-  O198  1  0.62435811  0.76596953  0.23064742  1
  O2-  O199  1  0.63609528  0.76344082  0.72946286  1
  O2-  O200  1  0.36373505  0.22155461  0.26951645  1
  O2-  O201  1  0.36573757  0.24055264  0.77142130  1
  O2-  O202  1  0.37540215  0.72975573  0.26065900  1
  O2-  O203  1  0.35970775  0.71903279  0.76858783  1
  O2-  O204  1  0.86914196  0.22360548  0.27273600  1
  O2-  O205  1  0.86491484  0.23548394  0.77759182  1
  O2-  O206  1  0.88062534  0.72832426  0.26616232  1
  O2-  O207  1  0.87974436  0.72297676  0.76323173  1
  O2-  O208  1  0.27806810  0.36510773  0.26662465  1
  O2-  O209  1  0.26756749  0.38615255  0.76739957  1
  O2-  O210  1  0.26454013  0.86121562  0.28255230  1
  O2-  O211  1  0.26643673  0.86056099  0.76493393  1
  O2-  O212  1  0.77493750  0.36895491  0.26452549  1
  O2-  O213  1  0.77052086  0.38399430  0.76870300  1
  O2-  O214  1  0.77764909  0.85784695  0.25940830  1
  O2-  O215  1  0.77128359  0.86227567  0.77497944  1
  O2-  O216  1  0.22773345  0.13231145  0.22763166  1
  O2-  O217  1  0.22180657  0.13624258  0.73379912  1
  O2-  O218  1  0.23532819  0.63440726  0.22921674  1
  O2-  O219  1  0.22780046  0.62085552  0.72923187  1
  O2-  O220  1  0.72816154  0.13034532  0.23365986  1
  O2-  O221  1  0.72370721  0.13243717  0.73616252  1
  O2-  O222  1  0.74016300  0.63569627  0.21881450  1
  O2-  O223  1  0.73497577  0.62220492  0.73423590  1
  O2-  O224  1  0.11318957  0.48919570  0.28588232  1
  O2-  O225  1  0.12044470  0.48747745  0.76131817  1
  O2-  O226  1  0.11792245  0.96919189  0.27449842  1
  O2-  O227  1  0.11499843  0.96217566  0.76785055  1
  O2-  O228  1  0.61410645  0.48760073  0.28015738  1
  O2-  O229  1  0.62361203  0.48576959  0.76023718  1
  O2-  O230  1  0.61592964  0.96365029  0.25812703  1
  O2-  O231  1  0.61482080  0.97117374  0.77452802  1
  O2-  O232  1  0.38743549  0.00880202  0.22505002  1
  O2-  O233  1  0.38466118  0.02690170  0.73153276  1
  O2-  O234  1  0.38513414  0.53183910  0.23945940  1
  O2-  O235  1  0.37164631  0.52047596  0.73574822  1
  O2-  O236  1  0.88856906  0.00727715  0.21915379  1
  O2-  O237  1  0.88628002  0.01978600  0.72694048  1
  O2-  O238  1  0.88863568  0.53397736  0.24368495  1
  O2-  O239  1  0.87233376  0.51984171  0.72941891  1
  O2-  O240  1  0.47805524  0.38844248  0.23243316  1
  O2-  O241  1  0.48368537  0.38795394  0.71632893  1
  O2-  O242  1  0.48266320  0.86448772  0.22963190  1
  O2-  O243  1  0.47022788  0.88546065  0.73547401  1
  O2-  O244  1  0.97598461  0.38703667  0.23584142  1
  O2-  O245  1  0.98035030  0.38869121  0.72455168  1
  O2-  O246  1  0.98723844  0.86323735  0.23396344  1
  O2-  O247  1  0.97636107  0.86307491  0.73033763  1
  O2-  O248  1  0.02769833  0.11654226  0.26215189  1
  O2-  O249  1  0.03057552  0.11649069  0.76742274  1
  O2-  O250  1  0.02532891  0.63193499  0.25987614  1
  O2-  O251  1  0.01530079  0.62569317  0.75890175  1
  O2-  O252  1  0.52499440  0.11241653  0.27002774  1
  O2-  O253  1  0.52154333  0.11678417  0.77529032  1
  O2-  O254  1  0.51997236  0.63133241  0.26684485  1
  O2-  O255  1  0.51345336  0.61494534  0.77018506  1
  O2-  O256  1  0.13387064  0.48332086  -0.02907469  1
  O2-  O257  1  0.12728458  0.48718304  0.49437837  1
  O2-  O258  1  0.13772039  0.98793463  -0.02894079  1
  O2-  O259  1  0.13684237  0.97819490  0.47491646  1
  O2-  O260  1  0.63642754  0.48476097  -0.02938936  1
  O2-  O261  1  0.62400198  0.48771761  0.48982142  1
  O2-  O262  1  0.61984851  0.97805722  -0.01396803  1
  O2-  O263  1  0.63366574  0.96516999  0.48218679  1
  O2-  O264  1  0.38278741  0.01280745  0.02108235  1
  O2-  O265  1  0.36830822  0.01372795  0.52583910  1
  O2-  O266  1  0.36395672  0.52218950  0.00681240  1
  O2-  O267  1  0.37503264  0.52127066  0.51885089  1
  O2-  O268  1  0.86435710  0.02180969  0.02173779  1
  O2-  O269  1  0.86856370  0.02533762  0.51940887  1
  O2-  O270  1  0.86389797  0.53430850  0.00982135  1
  O2-  O271  1  0.87714159  0.52475108  0.51796630  1
  O2-  O272  1  0.47606467  0.36798888  0.03405480  1
  O2-  O273  1  0.48091605  0.38645088  0.51982120  1
  O2-  O274  1  0.48653467  0.87133646  0.02238053  1
  O2-  O275  1  0.46951553  0.86030594  0.51459669  1
  O2-  O276  1  0.98361737  0.36723629  0.02301036  1
  O2-  O277  1  0.98386291  0.38762682  0.52273379  1
  O2-  O278  1  0.96549660  0.86436024  0.00738214  1
  O2-  O279  1  0.98404172  0.86056591  0.50943978  1
  O2-  O280  1  0.02764216  0.13460478  -0.01960807  1
  O2-  O281  1  0.03253942  0.13559001  0.47765255  1
  O2-  O282  1  0.01791946  0.63952733  -0.02063385  1
  O2-  O283  1  0.02440014  0.62239870  0.48756401  1
  O2-  O284  1  0.51803804  0.12087418  -0.01793245  1
  O2-  O285  1  0.52385771  0.13236211  0.46657642  1
  O2-  O286  1  0.52317801  0.63653239  -0.01976620  1
  O2-  O287  1  0.51068376  0.62492523  0.47859306  1
  O2-  O288  1  0.13433949  0.26696939  0.01225839  1
  O2-  O289  1  0.11709200  0.28337171  0.52095733  1
  O2-  O290  1  0.11168954  0.78043938  0.01946164  1
  O2-  O291  1  0.12694052  0.75846375  0.51220528  1
  O2-  O292  1  0.61372902  0.27048894  0.02684433  1
  O2-  O293  1  0.61534333  0.27746043  0.51778768  1
  O2-  O294  1  0.62687403  0.76642199  0.01396438  1
  O2-  O295  1  0.61218135  0.76676551  0.51070682  1
  O2-  O296  1  0.37339180  0.23544227  -0.02136671  1
  O2-  O297  1  0.38392828  0.23679041  0.47787357  1
  O2-  O298  1  0.38354618  0.72817920  -0.01075353  1
  O2-  O299  1  0.36956979  0.72479518  0.48770390  1
  O2-  O300  1  0.88291465  0.22742495  -0.02598450  1
  O2-  O301  1  0.88669275  0.23810200  0.48165258  1
  O2-  O302  1  0.87042540  0.72941887  -0.01169252  1
  O2-  O303  1  0.88724629  0.72027204  0.47994706  1
  O2-  O304  1  0.26801963  0.37433981  -0.01757484  1
  O2-  O305  1  0.27158640  0.39057982  0.48296092  1
  O2-  O306  1  0.27234700  0.88362283  -0.02920229  1
  O2-  O307  1  0.26624454  0.86281338  0.48586367  1
  O2-  O308  1  0.78031661  0.38571363  -0.01994786  1
  O2-  O309  1  0.77422470  0.39162138  0.48821083  1
  O2-  O310  1  0.76197442  0.86630443  -0.02417986  1
  O2-  O311  1  0.78372595  0.87974104  0.48536100  1
  O2-  O312  1  0.23808227  0.12963487  0.01475178  1
  O2-  O313  1  0.22816805  0.11758599  0.52637712  1
  O2-  O314  1  0.22573325  0.61621524  0.02405100  1
  O2-  O315  1  0.23651264  0.62416499  0.52826939  1
  O2-  O316  1  0.71903450  0.11312075  0.02510293  1
  O2-  O317  1  0.72224328  0.11476411  0.51238530  1
  O2-  O318  1  0.72687956  0.62919159  0.00937451  1
  O2-  O319  1  0.73495337  0.61667874  0.53636514  1
