# generated using pymatgen
data_Sr64Ca21Nb43O192
_symmetry_space_group_name_H-M   'P 1'
_cell_length_a   16.60962286
_cell_length_b   16.57700283
_cell_length_c   16.73787949
_cell_angle_alpha   90.00802385
_cell_angle_beta   90.07194122
_cell_angle_gamma   89.88805973
_symmetry_Int_Tables_number   1
_chemical_formula_structural   Sr64Ca21Nb43O192
_chemical_formula_sum   'Sr64 Ca21 Nb43 O192'
_cell_volume   4608.55786094
_cell_formula_units_Z   1
loop_
 _symmetry_equiv_pos_site_id
 _symmetry_equiv_pos_as_xyz
  1  'x, y, z'
loop_
 _atom_type_symbol
 _atom_type_oxidation_number
  Sr2+  2.0
  Ca2+  2.0
  Nb5+  5.0
  O2-  -2.0
loop_
 _atom_site_type_symbol
 _atom_site_label
 _atom_site_symmetry_multiplicity
 _atom_site_fract_x
 _atom_site_fract_y
 _atom_site_fract_z
 _atom_site_occupancy
  Sr2+  Sr0  1  0.13375388  0.13868860  0.12563760  1
  Sr2+  Sr1  1  0.13139922  0.12894620  0.62067904  1
  Sr2+  Sr2  1  0.12595290  0.60626283  0.12107563  1
  Sr2+  Sr3  1  0.13346039  0.61513968  0.62310839  1
  Sr2+  Sr4  1  0.62590349  0.13149258  0.12798871  1
  Sr2+  Sr5  1  0.63154566  0.14083710  0.62097570  1
  Sr2+  Sr6  1  0.64060750  0.61673880  0.12245014  1
  Sr2+  Sr7  1  0.62547977  0.60991760  0.61845818  1
  Sr2+  Sr8  1  0.37492393  0.36676630  0.12188722  1
  Sr2+  Sr9  1  0.38095531  0.37914908  0.63272212  1
  Sr2+  Sr10  1  0.38570498  0.87700180  0.11976312  1
  Sr2+  Sr11  1  0.38258995  0.87207568  0.61735915  1
  Sr2+  Sr12  1  0.88539965  0.38088002  0.12315133  1
  Sr2+  Sr13  1  0.87568666  0.36922643  0.62746983  1
  Sr2+  Sr14  1  0.88239000  0.86943580  0.12005196  1
  Sr2+  Sr15  1  0.88456130  0.88595139  0.63394240  1
  Sr2+  Sr16  1  0.11494228  0.37303366  0.37837732  1
  Sr2+  Sr17  1  0.11839213  0.37703103  0.86446347  1
  Sr2+  Sr18  1  0.11143924  0.86894807  0.37456141  1
  Sr2+  Sr19  1  0.10166875  0.87406971  0.87043066  1
  Sr2+  Sr20  1  0.62257379  0.37611180  0.37727263  1
  Sr2+  Sr21  1  0.62085393  0.37339411  0.85782455  1
  Sr2+  Sr22  1  0.63455754  0.88322105  0.37634133  1
  Sr2+  Sr23  1  0.63637514  0.87351835  0.88064579  1
  Sr2+  Sr24  1  0.36694353  0.11823374  0.36620417  1
  Sr2+  Sr25  1  0.36467874  0.12241217  0.87484218  1
  Sr2+  Sr26  1  0.36345146  0.62842832  0.37492094  1
  Sr2+  Sr27  1  0.37255550  0.63131386  0.86328428  1
  Sr2+  Sr28  1  0.86698776  0.11524079  0.37365846  1
  Sr2+  Sr29  1  0.85856893  0.11590799  0.86730576  1
  Sr2+  Sr30  1  0.86274477  0.63654352  0.37147658  1
  Sr2+  Sr31  1  0.85477943  0.63397770  0.87575014  1
  Sr2+  Sr32  1  0.11211169  0.11100429  0.37364116  1
  Sr2+  Sr33  1  0.11961291  0.10821309  0.87655635  1
  Sr2+  Sr34  1  0.12343390  0.63629237  0.37849571  1
  Sr2+  Sr35  1  0.12183887  0.63304270  0.85934833  1
  Sr2+  Sr36  1  0.61752039  0.12052990  0.37361402  1
  Sr2+  Sr37  1  0.61594853  0.10811096  0.86677346  1
  Sr2+  Sr38  1  0.61374736  0.63182035  0.37117015  1
  Sr2+  Sr39  1  0.61991816  0.63982308  0.88258973  1
  Sr2+  Sr40  1  0.36991992  0.38183006  0.36915140  1
  Sr2+  Sr41  1  0.36697369  0.37179306  0.86771216  1
  Sr2+  Sr42  1  0.36644327  0.86579840  0.37818697  1
  Sr2+  Sr43  1  0.38166626  0.87665826  0.87911209  1
  Sr2+  Sr44  1  0.86813268  0.36680852  0.37942128  1
  Sr2+  Sr45  1  0.85912905  0.37388406  0.86597468  1
  Sr2+  Sr46  1  0.87256996  0.87643024  0.36959780  1
  Sr2+  Sr47  1  0.86956346  0.87571962  0.86940417  1
  Sr2+  Sr48  1  0.12121933  0.37487901  0.12316340  1
  Sr2+  Sr49  1  0.10717508  0.37579662  0.62662563  1
  Sr2+  Sr50  1  0.12731968  0.86770730  0.12763541  1
  Sr2+  Sr51  1  0.13481693  0.87734062  0.62300200  1
  Sr2+  Sr52  1  0.64215681  0.37435055  0.12655468  1
  Sr2+  Sr53  1  0.64968905  0.37487647  0.62106186  1
  Sr2+  Sr54  1  0.63281752  0.87695040  0.11685093  1
  Sr2+  Sr55  1  0.63518444  0.87957412  0.62297420  1
  Sr2+  Sr56  1  0.37781915  0.13104775  0.12060280  1
  Sr2+  Sr57  1  0.37884413  0.12455830  0.61584374  1
  Sr2+  Sr58  1  0.38109953  0.61758974  0.12080761  1
  Sr2+  Sr59  1  0.38636365  0.62452022  0.61916370  1
  Sr2+  Sr60  1  0.89291448  0.12980616  0.12754163  1
  Sr2+  Sr61  1  0.88394365  0.13553456  0.63237693  1
  Sr2+  Sr62  1  0.88051736  0.62127707  0.11891003  1
  Sr2+  Sr63  1  0.88237879  0.61493890  0.62871473  1
  Ca2+  Ca64  1  0.00180209  0.50203027  -0.00586363  1
  Ca2+  Ca65  1  0.50031886  0.49893085  0.00063255  1
  Ca2+  Ca66  1  0.00007161  -0.00163208  0.50139778  1
  Ca2+  Ca67  1  0.00298035  0.50178608  0.49775265  1
  Ca2+  Ca68  1  -0.00237536  0.00129774  0.00123074  1
  Ca2+  Ca69  1  0.75056687  0.74824307  0.50071831  1
  Ca2+  Ca70  1  0.74956703  0.24640607  -0.00011396  1
  Ca2+  Ca71  1  0.25148320  0.25332685  0.49573286  1
  Ca2+  Ca72  1  0.75122377  0.24729649  0.49572754  1
  Ca2+  Ca73  1  0.24737091  0.74815169  -0.00040729  1
  Ca2+  Ca74  1  0.74518446  -0.00139187  0.74776134  1
  Ca2+  Ca75  1  0.25333403  0.00026240  0.75144874  1
  Ca2+  Ca76  1  0.25013551  -0.00042669  0.24798826  1
  Ca2+  Ca77  1  0.74897861  0.00168790  0.24837933  1
  Ca2+  Ca78  1  0.50083608  0.75453768  0.74661623  1
  Ca2+  Ca79  1  0.75230123  0.49790967  0.25163721  1
  Ca2+  Ca80  1  0.74730663  0.50455441  0.75114690  1
  Ca2+  Ca81  1  0.49812036  0.75125972  0.24826624  1
  Ca2+  Ca82  1  0.49896090  0.24715402  0.74834668  1
  Ca2+  Ca83  1  -0.00308330  0.74776761  0.74624677  1
  Ca2+  Ca84  1  0.00285937  0.24741845  0.75577894  1
  Nb5+  Nb85  1  0.49821335  0.00379468  0.49484079  1
  Nb5+  Nb86  1  0.49708044  0.00193683  -0.00364732  1
  Nb5+  Nb87  1  0.49974454  0.50325805  0.49810933  1
  Nb5+  Nb88  1  0.24813550  0.74886530  0.50182338  1
  Nb5+  Nb89  1  0.24911148  0.25295559  -0.00386701  1
  Nb5+  Nb90  1  0.75060446  0.75152790  0.00255514  1
  Nb5+  Nb91  1  0.50639692  0.25147784  0.24971560  1
  Nb5+  Nb92  1  0.25353380  0.50073825  0.74033204  1
  Nb5+  Nb93  1  0.00003597  0.74068255  0.24760802  1
  Nb5+  Nb94  1  0.25093224  0.50035390  0.24337858  1
  Nb5+  Nb95  1  0.00741418  0.24705899  0.25047628  1
  Nb5+  Nb96  1  -0.00152514  -0.00985041  0.24991997  1
  Nb5+  Nb97  1  0.00175779  0.00209470  0.74835975  1
  Nb5+  Nb98  1  0.00028582  0.49650315  0.25612737  1
  Nb5+  Nb99  1  -0.00524215  0.50223092  0.75411155  1
  Nb5+  Nb100  1  0.49627055  -0.00297639  0.24560906  1
  Nb5+  Nb101  1  0.49747981  -0.00080806  0.73729658  1
  Nb5+  Nb102  1  0.50007601  0.49847297  0.24736044  1
  Nb5+  Nb103  1  0.50301197  0.50311484  0.75263317  1
  Nb5+  Nb104  1  0.25408320  0.25194165  0.25273080  1
  Nb5+  Nb105  1  0.24963388  0.24687679  0.74754955  1
  Nb5+  Nb106  1  0.24922235  0.74579083  0.24407943  1
  Nb5+  Nb107  1  0.25486682  0.75566262  0.74990915  1
  Nb5+  Nb108  1  0.76126680  0.24742669  0.25034278  1
  Nb5+  Nb109  1  0.74900827  0.24957141  0.75260714  1
  Nb5+  Nb110  1  0.74587565  0.75345105  0.25088633  1
  Nb5+  Nb111  1  0.74482250  0.74630045  0.74090713  1
  Nb5+  Nb112  1  0.00177255  0.24969126  0.50058034  1
  Nb5+  Nb113  1  -0.00050684  0.24672559  0.99385015  1
  Nb5+  Nb114  1  -0.00324390  0.74891673  0.50492347  1
  Nb5+  Nb115  1  0.00025901  0.74875064  0.99650508  1
  Nb5+  Nb116  1  0.49304397  0.25819740  0.49863929  1
  Nb5+  Nb117  1  0.50168354  0.24998859  0.99799070  1
  Nb5+  Nb118  1  0.50190898  0.75685852  0.49312968  1
  Nb5+  Nb119  1  0.49841224  0.74790950  1.00794824  1
  Nb5+  Nb120  1  0.24772641  -0.00536885  0.00338671  1
  Nb5+  Nb121  1  0.24768845  0.00131901  0.49572003  1
  Nb5+  Nb122  1  0.24864353  0.50170739  -0.01447397  1
  Nb5+  Nb123  1  0.25298254  0.49563367  0.49502014  1
  Nb5+  Nb124  1  0.74952268  0.00539590  0.00385860  1
  Nb5+  Nb125  1  0.75335919  0.00196913  0.50725854  1
  Nb5+  Nb126  1  0.75185914  0.49353994  0.00154172  1
  Nb5+  Nb127  1  0.75841896  0.50351357  0.49488900  1
  O2-  O128  1  0.01572205  -0.02394888  0.13483441  1
  O2-  O129  1  0.01828408  -0.02830397  0.63298860  1
  O2-  O130  1  -0.00405405  0.48826669  0.13791168  1
  O2-  O131  1  -0.01678136  0.47943003  0.63461588  1
  O2-  O132  1  0.51372993  -0.01599260  0.13178919  1
  O2-  O133  1  0.50803144  -0.02289006  0.62338915  1
  O2-  O134  1  0.46935208  0.48541211  0.13739006  1
  O2-  O135  1  0.47947410  0.49004989  0.61414072  1
  O2-  O136  1  -0.01734678  0.01724865  0.36672485  1
  O2-  O137  1  -0.01790412  0.02641319  0.86720302  1
  O2-  O138  1  0.03932319  0.51116458  0.36454440  1
  O2-  O139  1  0.03806556  0.51288709  0.86373019  1
  O2-  O140  1  0.48235272  0.01809345  0.38112030  1
  O2-  O141  1  0.48022252  0.01890741  0.88423566  1
  O2-  O142  1  0.50814291  0.50654602  0.37577186  1
  O2-  O143  1  0.51857522  0.52240471  0.86484897  1
  O2-  O144  1  0.26217842  0.24278183  0.12884718  1
  O2-  O145  1  0.26380204  0.22729748  0.63513267  1
  O2-  O146  1  0.22224986  0.72243583  0.13516408  1
  O2-  O147  1  0.23158668  0.73291807  0.61848042  1
  O2-  O148  1  0.76124233  0.21268347  0.13616230  1
  O2-  O149  1  0.76416114  0.22999860  0.63276963  1
  O2-  O150  1  0.73717512  0.73577596  0.12695390  1
  O2-  O151  1  0.72183977  0.72496259  0.63194945  1
  O2-  O152  1  0.24185213  0.28773500  0.36152830  1
  O2-  O153  1  0.23957876  0.27655971  0.88381191  1
  O2-  O154  1  0.25808051  0.75415152  0.37460738  1
  O2-  O155  1  0.27737798  0.76364764  0.86366935  1
  O2-  O156  1  0.74085728  0.28178846  0.36241357  1
  O2-  O157  1  0.73606154  0.28017103  0.86862966  1
  O2-  O158  1  0.77510550  0.76486637  0.36490980  1
  O2-  O159  1  0.76342889  0.76870602  0.88674066  1
  O2-  O160  1  -0.01431788  0.26638371  0.13378891  1
  O2-  O161  1  -0.01476684  0.26236232  0.61541799  1
  O2-  O162  1  0.00847385  0.77269786  0.13253473  1
  O2-  O163  1  0.01233487  0.77830412  0.61372105  1
  O2-  O164  1  0.48020203  0.25668546  0.13273153  1
  O2-  O165  1  0.46920497  0.25605736  0.61173929  1
  O2-  O166  1  0.51298073  0.78517723  0.11900644  1
  O2-  O167  1  0.50844935  0.76693564  0.60897020  1
  O2-  O168  1  0.28078125  -0.01590123  0.38309427  1
  O2-  O169  1  0.28343826  -0.00727917  0.89050501  1
  O2-  O170  1  0.23915407  0.48287253  0.38025094  1
  O2-  O171  1  0.24268117  0.47825625  0.87270473  1
  O2-  O172  1  0.75914626  -0.02473798  0.38905938  1
  O2-  O173  1  0.75851596  -0.02470507  0.88799462  1
  O2-  O174  1  0.74263879  0.46798985  0.38329016  1
  O2-  O175  1  0.73103301  0.47645234  0.88649881  1
  O2-  O176  1  0.02278037  0.23961468  0.36697850  1
  O2-  O177  1  0.03787773  0.23652860  0.88800072  1
  O2-  O178  1  -0.00884168  0.73086584  0.36718856  1
  O2-  O179  1  -0.01192889  0.72258652  0.88557392  1
  O2-  O180  1  0.51706299  0.24177511  0.37070993  1
  O2-  O181  1  0.51969084  0.22807155  0.88786111  1
  O2-  O182  1  0.47753744  0.72632079  0.38124445  1
  O2-  O183  1  0.48889304  0.73886261  0.88888672  1
  O2-  O184  1  0.23524079  0.03098830  0.11449192  1
  O2-  O185  1  0.23676116  0.01634924  0.61370230  1
  O2-  O186  1  0.26497702  0.52056738  0.13122994  1
  O2-  O187  1  0.27218154  0.51904930  0.62659409  1
  O2-  O188  1  0.71461256  0.00972267  0.11589454  1
  O2-  O189  1  0.71242062  0.01443657  0.61771640  1
  O2-  O190  1  0.76755142  0.52482471  0.11893130  1
  O2-  O191  1  0.75562436  0.52724183  0.61435436  1
  O2-  O192  1  0.12441893  0.26976509  0.23451918  1
  O2-  O193  1  0.13846943  0.28443165  0.74181618  1
  O2-  O194  1  0.12189171  0.76397629  0.26393695  1
  O2-  O195  1  0.13648519  0.75910185  0.76697384  1
  O2-  O196  1  0.62109173  0.26576530  0.23437929  1
  O2-  O197  1  0.63209812  0.27444942  0.73191554  1
  O2-  O198  1  0.63389390  0.77658776  0.26577171  1
  O2-  O199  1  0.63262379  0.77608973  0.76891151  1
  O2-  O200  1  0.37165883  0.23756082  0.26186998  1
  O2-  O201  1  0.36391002  0.24414183  0.77887650  1
  O2-  O202  1  0.36177981  0.72011113  0.23661953  1
  O2-  O203  1  0.36517734  0.72171565  0.72891094  1
  O2-  O204  1  0.87990379  0.23564348  0.26648456  1
  O2-  O205  1  0.86905224  0.23101388  0.76989067  1
  O2-  O206  1  0.88267206  0.72624460  0.23537442  1
  O2-  O207  1  0.86316908  0.71995528  0.73861633  1
  O2-  O208  1  0.26978032  0.38107742  0.23121162  1
  O2-  O209  1  0.27530094  0.38212705  0.73913463  1
  O2-  O210  1  0.26394801  0.86036873  0.22937415  1
  O2-  O211  1  0.26606771  0.86552504  0.71921259  1
  O2-  O212  1  0.76769605  0.36257977  0.21665594  1
  O2-  O213  1  0.77405575  0.37055440  0.73279938  1
  O2-  O214  1  0.77808018  0.86606492  0.23002106  1
  O2-  O215  1  0.77332062  0.86282434  0.73413789  1
  O2-  O216  1  0.23011081  0.14061629  0.27128193  1
  O2-  O217  1  0.22725949  0.13814408  0.77656736  1
  O2-  O218  1  0.23181939  0.61699743  0.27141237  1
  O2-  O219  1  0.23744151  0.61825296  0.76571908  1
  O2-  O220  1  0.73504950  0.13569978  0.28188865  1
  O2-  O221  1  0.72986858  0.13321142  0.77481088  1
  O2-  O222  1  0.73230839  0.63485987  0.26666297  1
  O2-  O223  1  0.72697062  0.63568517  0.78437698  1
  O2-  O224  1  0.13430859  0.48125253  0.23447648  1
  O2-  O225  1  0.13743219  0.48422793  0.72946750  1
  O2-  O226  1  0.11587653  0.98759813  0.27296282  1
  O2-  O227  1  0.11935403  0.98277979  0.77460387  1
  O2-  O228  1  0.61260124  0.47189704  0.24134959  1
  O2-  O229  1  0.61385339  0.47939198  0.72606346  1
  O2-  O230  1  0.61028550  0.99390154  0.27577899  1
  O2-  O231  1  0.60720778  0.97468764  0.77462235  1
  O2-  O232  1  0.38416872  0.03342513  0.23776521  1
  O2-  O233  1  0.38502168  0.04018304  0.74026049  1
  O2-  O234  1  0.37083740  0.51151891  0.27316675  1
  O2-  O235  1  0.37505984  0.51840615  0.76208661  1
  O2-  O236  1  0.88506481  0.02456037  0.23489277  1
  O2-  O237  1  0.88177804  0.01938841  0.72837641  1
  O2-  O238  1  0.88982318  0.52003698  0.27281341  1
  O2-  O239  1  0.88406890  0.52370238  0.77433621  1
  O2-  O240  1  0.48050695  0.37012321  0.26561724  1
  O2-  O241  1  0.47800800  0.38614630  0.76217983  1
  O2-  O242  1  0.46838755  0.88721704  0.26720793  1
  O2-  O243  1  0.45882757  0.88716300  0.75660771  1
  O2-  O244  1  0.98821848  0.37684033  0.26787612  1
  O2-  O245  1  0.98844434  0.38354207  0.77157522  1
  O2-  O246  1  0.98337962  0.87321649  0.26637237  1
  O2-  O247  1  0.98043183  0.88184211  0.77222188  1
  O2-  O248  1  0.01975461  0.13119806  0.23465690  1
  O2-  O249  1  0.02588501  0.11730509  0.72431255  1
  O2-  O250  1  0.02342666  0.62573170  0.23505158  1
  O2-  O251  1  0.02417471  0.61450465  0.72457694  1
  O2-  O252  1  0.51570839  0.13165292  0.24234202  1
  O2-  O253  1  0.53092937  0.11481202  0.73107785  1
  O2-  O254  1  0.51963151  0.61259111  0.23656698  1
  O2-  O255  1  0.51083562  0.61694984  0.72106561  1
  O2-  O256  1  0.13913527  0.47890880  0.02151673  1
  O2-  O257  1  0.14194423  0.48528638  0.52484262  1
  O2-  O258  1  0.13536964  0.98686707  -0.02424762  1
  O2-  O259  1  0.13674587  0.97339628  0.48092545  1
  O2-  O260  1  0.63405701  0.49282187  0.02731974  1
  O2-  O261  1  0.61447918  0.47791736  0.50842953  1
  O2-  O262  1  0.61445066  0.98443587  -0.01254848  1
  O2-  O263  1  0.61106705  0.97465197  0.48951259  1
  O2-  O264  1  0.37958686  0.00970484  0.02753669  1
  O2-  O265  1  0.37865395  0.00330154  0.52167822  1
  O2-  O266  1  0.36353794  0.52830474  -0.00990738  1
  O2-  O267  1  0.37654416  0.52239318  0.48400568  1
  O2-  O268  1  0.86157571  0.01981705  0.02470032  1
  O2-  O269  1  0.86487222  0.02452215  0.52459047  1
  O2-  O270  1  0.86623052  0.52295131  -0.01819745  1
  O2-  O271  1  0.86946754  0.52929145  0.48332254  1
  O2-  O272  1  0.47933739  0.36295852  -0.01548864  1
  O2-  O273  1  0.47683838  0.37379468  0.48279027  1
  O2-  O274  1  0.48243136  0.88167067  -0.01004544  1
  O2-  O275  1  0.47809721  0.87191168  0.47976481  1
  O2-  O276  1  0.98857221  0.36410494  -0.00308126  1
  O2-  O277  1  0.98273715  0.36721352  0.47567839  1
  O2-  O278  1  0.96996274  0.86486328  -0.01425256  1
  O2-  O279  1  0.98400271  0.86165125  0.46976380  1
  O2-  O280  1  0.02099806  0.13579520  0.03169392  1
  O2-  O281  1  0.03373783  0.13381450  0.50630625  1
  O2-  O282  1  0.00931767  0.63670313  0.03232713  1
  O2-  O283  1  0.03510031  0.63649383  0.50952017  1
  O2-  O284  1  0.50858137  0.12101250  0.02412138  1
  O2-  O285  1  0.51347074  0.11756775  0.51547956  1
  O2-  O286  1  0.51903764  0.63602763  0.02832077  1
  O2-  O287  1  0.51507106  0.62107436  0.50916224  1
  O2-  O288  1  0.13484961  0.26400421  0.02332418  1
  O2-  O289  1  0.11950991  0.27977895  0.50900600  1
  O2-  O290  1  0.11238444  0.77600582  -0.00896951  1
  O2-  O291  1  0.13088723  0.76723949  0.48472705  1
  O2-  O292  1  0.61242349  0.26037870  0.03030896  1
  O2-  O293  1  0.61065033  0.26293133  0.51247728  1
  O2-  O294  1  0.62712245  0.76698849  -0.00633316  1
  O2-  O295  1  0.61430207  0.76447663  0.47171756  1
  O2-  O296  1  0.37442345  0.23183165  -0.00297321  1
  O2-  O297  1  0.38485175  0.22097235  0.47272368  1
  O2-  O298  1  0.38264203  0.73983320  0.02475766  1
  O2-  O299  1  0.37019982  0.73601256  0.50942476  1
  O2-  O300  1  0.88757263  0.22565812  -0.02162054  1
  O2-  O301  1  0.88713923  0.22551572  0.47640731  1
  O2-  O302  1  0.86960032  0.73646192  0.01868705  1
  O2-  O303  1  0.88572253  0.71777686  0.51276217  1
  O2-  O304  1  0.27437127  0.37542345  0.01147628  1
  O2-  O305  1  0.28510445  0.38699994  0.51519166  1
  O2-  O306  1  0.26084302  0.88357658  0.03118135  1
  O2-  O307  1  0.26670034  0.86745260  0.51378994  1
  O2-  O308  1  0.77101226  0.38149148  0.02528435  1
  O2-  O309  1  0.76802090  0.38522984  0.52377830  1
  O2-  O310  1  0.75788763  0.87261511  0.02296595  1
  O2-  O311  1  0.76078826  0.88219965  0.53033822  1
  O2-  O312  1  0.23966043  0.13443667  -0.01824415  1
  O2-  O313  1  0.23489759  0.11517541  0.47605561  1
  O2-  O314  1  0.21973081  0.61483354  -0.02340724  1
  O2-  O315  1  0.23960316  0.62459372  0.48679661  1
  O2-  O316  1  0.72624728  0.11420837  -0.02577878  1
  O2-  O317  1  0.72161549  0.11362878  0.48015886  1
  O2-  O318  1  0.73261175  0.63323126  -0.01361063  1
  O2-  O319  1  0.71860037  0.61317320  0.47230752  1
