# generated using pymatgen
data_Sr64Ca21Nb43O192
_symmetry_space_group_name_H-M   'P 1'
_cell_length_a   16.54382035
_cell_length_b   16.53606391
_cell_length_c   16.68368175
_cell_angle_alpha   89.98012733
_cell_angle_beta   89.97300602
_cell_angle_gamma   89.98260188
_symmetry_Int_Tables_number   1
_chemical_formula_structural   Sr64Ca21Nb43O192
_chemical_formula_sum   'Sr64 Ca21 Nb43 O192'
_cell_volume   4564.14832803
_cell_formula_units_Z   1
loop_
 _symmetry_equiv_pos_site_id
 _symmetry_equiv_pos_as_xyz
  1  'x, y, z'
loop_
 _atom_type_symbol
 _atom_type_oxidation_number
  Sr2+  2.0
  Ca2+  2.0
  Nb5+  5.0
  O2-  -2.0
loop_
 _atom_site_type_symbol
 _atom_site_label
 _atom_site_symmetry_multiplicity
 _atom_site_fract_x
 _atom_site_fract_y
 _atom_site_fract_z
 _atom_site_occupancy
  Sr2+  Sr0  1  0.11603819  0.11633760  0.12891134  1
  Sr2+  Sr1  1  0.12057396  0.12840373  0.62267034  1
  Sr2+  Sr2  1  0.13314991  0.63181120  0.12613969  1
  Sr2+  Sr3  1  0.12713699  0.64004620  0.62377829  1
  Sr2+  Sr4  1  0.62411087  0.10638672  0.12894898  1
  Sr2+  Sr5  1  0.62356136  0.12566659  0.62173539  1
  Sr2+  Sr6  1  0.62014205  0.62138905  0.12633834  1
  Sr2+  Sr7  1  0.61775343  0.62693593  0.62288991  1
  Sr2+  Sr8  1  0.37021772  0.37094939  0.12507563  1
  Sr2+  Sr9  1  0.37245933  0.38691636  0.62199312  1
  Sr2+  Sr10  1  0.37523280  0.88443716  0.13554770  1
  Sr2+  Sr11  1  0.36876199  0.90420322  0.62585113  1
  Sr2+  Sr12  1  0.87264071  0.37635203  0.13272804  1
  Sr2+  Sr13  1  0.87573012  0.37618657  0.62829225  1
  Sr2+  Sr14  1  0.87916767  0.86664117  0.12081468  1
  Sr2+  Sr15  1  0.88035720  0.86376610  0.62295542  1
  Sr2+  Sr16  1  0.12533359  0.36565941  0.36908870  1
  Sr2+  Sr17  1  0.12989817  0.37269742  0.87147437  1
  Sr2+  Sr18  1  0.12401826  0.86782306  0.38222229  1
  Sr2+  Sr19  1  0.13021165  0.88260544  0.87762408  1
  Sr2+  Sr20  1  0.62865847  0.37877550  0.37523777  1
  Sr2+  Sr21  1  0.62491729  0.37997667  0.88161635  1
  Sr2+  Sr22  1  0.60484591  0.87206253  0.37147871  1
  Sr2+  Sr23  1  0.63961208  0.86337455  0.87355513  1
  Sr2+  Sr24  1  0.37809400  0.10997537  0.37472156  1
  Sr2+  Sr25  1  0.37886640  0.11944934  0.86911551  1
  Sr2+  Sr26  1  0.37136771  0.63137251  0.37478701  1
  Sr2+  Sr27  1  0.37349473  0.62431735  0.86687612  1
  Sr2+  Sr28  1  0.87724973  0.12619513  0.38341486  1
  Sr2+  Sr29  1  0.87864162  0.12306621  0.87590757  1
  Sr2+  Sr30  1  0.88325387  0.62283837  0.37239315  1
  Sr2+  Sr31  1  0.86557052  0.63061116  0.87424289  1
  Sr2+  Sr32  1  0.12447109  0.12812457  0.37364568  1
  Sr2+  Sr33  1  0.12353385  0.12182606  0.87745034  1
  Sr2+  Sr34  1  0.13023435  0.64100640  0.37793748  1
  Sr2+  Sr35  1  0.13695532  0.62609262  0.87451691  1
  Sr2+  Sr36  1  0.63677355  0.11009071  0.37573479  1
  Sr2+  Sr37  1  0.63492906  0.12491653  0.87254024  1
  Sr2+  Sr38  1  0.63147717  0.63543705  0.37581175  1
  Sr2+  Sr39  1  0.62472340  0.62998179  0.87279913  1
  Sr2+  Sr40  1  0.37769584  0.37736653  0.37370237  1
  Sr2+  Sr41  1  0.38400472  0.38326427  0.87368409  1
  Sr2+  Sr42  1  0.37385387  0.87163093  0.37619228  1
  Sr2+  Sr43  1  0.37880401  0.88487694  0.87030441  1
  Sr2+  Sr44  1  0.87789669  0.37859654  0.37220927  1
  Sr2+  Sr45  1  0.88466711  0.37080217  0.87486314  1
  Sr2+  Sr46  1  0.88159291  0.85406671  0.37854853  1
  Sr2+  Sr47  1  0.87829349  0.86251449  0.87547266  1
  Sr2+  Sr48  1  0.12874247  0.36455024  0.12794025  1
  Sr2+  Sr49  1  0.12379522  0.37596637  0.62879600  1
  Sr2+  Sr50  1  0.12799049  0.87021208  0.12168083  1
  Sr2+  Sr51  1  0.12389734  0.87591910  0.62272390  1
  Sr2+  Sr52  1  0.60985564  0.37450337  0.12589261  1
  Sr2+  Sr53  1  0.61609420  0.37441581  0.61759872  1
  Sr2+  Sr54  1  0.61495000  0.86629314  0.13495951  1
  Sr2+  Sr55  1  0.62770331  0.87668480  0.61972212  1
  Sr2+  Sr56  1  0.38726411  0.12612303  0.12891973  1
  Sr2+  Sr57  1  0.38987689  0.13256174  0.62760866  1
  Sr2+  Sr58  1  0.36263933  0.62357358  0.12101774  1
  Sr2+  Sr59  1  0.37109013  0.63083346  0.62579677  1
  Sr2+  Sr60  1  0.87389369  0.12034864  0.12676998  1
  Sr2+  Sr61  1  0.85986523  0.13274750  0.62727858  1
  Sr2+  Sr62  1  0.86772749  0.61414350  0.12697494  1
  Sr2+  Sr63  1  0.88911744  0.62764265  0.62235205  1
  Ca2+  Ca64  1  -0.00069380  0.49653203  0.00082319  1
  Ca2+  Ca65  1  0.00265110  0.49668718  0.49851141  1
  Ca2+  Ca66  1  0.49997590  0.00303784  0.50075099  1
  Ca2+  Ca67  1  0.50226523  -0.00119424  -0.00273394  1
  Ca2+  Ca68  1  -0.00027245  -0.00008779  0.50107902  1
  Ca2+  Ca69  1  0.24935205  0.24944154  0.49987133  1
  Ca2+  Ca70  1  0.75000109  0.74675350  0.49830964  1
  Ca2+  Ca71  1  0.25103471  0.24574046  -0.00117898  1
  Ca2+  Ca72  1  0.25522741  0.75281249  0.50454936  1
  Ca2+  Ca73  1  0.25375894  0.75233573  -0.00521193  1
  Ca2+  Ca74  1  0.24862655  0.50011391  0.25186014  1
  Ca2+  Ca75  1  0.49953315  0.75435024  0.74874087  1
  Ca2+  Ca76  1  0.00252620  0.74861686  0.24565487  1
  Ca2+  Ca77  1  0.50234354  0.25500530  0.75183670  1
  Ca2+  Ca78  1  0.00133173  0.74827112  0.75574448  1
  Ca2+  Ca79  1  0.50336426  0.24950298  0.25517089  1
  Ca2+  Ca80  1  0.24569453  -0.00194578  0.24623200  1
  Ca2+  Ca81  1  0.75042604  0.50140401  0.74901121  1
  Ca2+  Ca82  1  0.49782488  0.74258653  0.24927205  1
  Ca2+  Ca83  1  0.75704334  -0.00270431  0.25254351  1
  Ca2+  Ca84  1  0.75316378  0.00009086  0.74933865  1
  Nb5+  Nb85  1  0.50051134  0.50080747  0.49365093  1
  Nb5+  Nb86  1  0.49927514  0.50292004  -0.00190558  1
  Nb5+  Nb87  1  -0.00428405  -0.00238639  -0.00141595  1
  Nb5+  Nb88  1  0.74769529  0.74343694  0.00463135  1
  Nb5+  Nb89  1  0.74852159  0.24672234  0.00650247  1
  Nb5+  Nb90  1  0.74839034  0.25384877  0.50302576  1
  Nb5+  Nb91  1  0.24772537  0.50262218  0.74798027  1
  Nb5+  Nb92  1  -0.00071560  0.24885742  0.75335831  1
  Nb5+  Nb93  1  0.74699390  0.50030992  0.25132449  1
  Nb5+  Nb94  1  -0.00205698  0.24940986  0.25244691  1
  Nb5+  Nb95  1  0.24499262  0.01183339  0.74834805  1
  Nb5+  Nb96  1  -0.00310445  -0.00432892  0.25323882  1
  Nb5+  Nb97  1  -0.00152819  0.00120894  0.74885719  1
  Nb5+  Nb98  1  0.00450022  0.49852380  0.24741760  1
  Nb5+  Nb99  1  0.00208999  0.50215317  0.75248735  1
  Nb5+  Nb100  1  0.49907982  -0.00045275  0.25101037  1
  Nb5+  Nb101  1  0.50783869  0.00067600  0.75307425  1
  Nb5+  Nb102  1  0.49518727  0.50358154  0.24515604  1
  Nb5+  Nb103  1  0.50464849  0.49885410  0.74452842  1
  Nb5+  Nb104  1  0.25508721  0.24497325  0.25219230  1
  Nb5+  Nb105  1  0.25211862  0.25355999  0.75106641  1
  Nb5+  Nb106  1  0.25012917  0.75104671  0.24960098  1
  Nb5+  Nb107  1  0.25197008  0.76213531  0.75386116  1
  Nb5+  Nb108  1  0.74812143  0.25063220  0.25343918  1
  Nb5+  Nb109  1  0.74841927  0.25742954  0.75605779  1
  Nb5+  Nb110  1  0.75598153  0.75132080  0.25097013  1
  Nb5+  Nb111  1  0.75029891  0.75091831  0.74247848  1
  Nb5+  Nb112  1  -0.00134629  0.25346579  0.50459528  1
  Nb5+  Nb113  1  -0.00162782  0.25037601  1.00425084  1
  Nb5+  Nb114  1  0.00110229  0.74708245  0.50130782  1
  Nb5+  Nb115  1  0.00400054  0.74427437  0.99944662  1
  Nb5+  Nb116  1  0.49934370  0.24980788  0.49524962  1
  Nb5+  Nb117  1  0.50100996  0.24618710  0.99819599  1
  Nb5+  Nb118  1  0.49598907  0.75435349  0.50518062  1
  Nb5+  Nb119  1  0.49638149  0.75140781  0.99959944  1
  Nb5+  Nb120  1  0.25338929  0.00293178  0.00119500  1
  Nb5+  Nb121  1  0.24688308  0.00148374  0.49628039  1
  Nb5+  Nb122  1  0.24719575  0.49295886  0.00133649  1
  Nb5+  Nb123  1  0.24822867  0.49550304  0.49676850  1
  Nb5+  Nb124  1  0.75185491  -0.00892273  -0.00109836  1
  Nb5+  Nb125  1  0.75482805  -0.00601389  0.49828036  1
  Nb5+  Nb126  1  0.75016185  0.49430344  -0.00103501  1
  Nb5+  Nb127  1  0.74864741  0.50057953  0.50263299  1
  O2-  O128  1  -0.01825311  0.00298359  0.11586956  1
  O2-  O129  1  0.02240565  0.00258809  0.63640002  1
  O2-  O130  1  -0.02418531  0.49547448  0.13342575  1
  O2-  O131  1  0.00233329  0.48659008  0.63534508  1
  O2-  O132  1  0.50418641  0.01259670  0.12988721  1
  O2-  O133  1  0.50898609  0.02154634  0.63551015  1
  O2-  O134  1  0.49881019  0.51736228  0.12603327  1
  O2-  O135  1  0.50805665  0.51358394  0.62839942  1
  O2-  O136  1  0.02166943  -0.00238853  0.36475222  1
  O2-  O137  1  0.00000087  0.01143160  0.87540941  1
  O2-  O138  1  -0.01107093  0.49005877  0.36346586  1
  O2-  O139  1  0.00910640  0.47564988  0.86721809  1
  O2-  O140  1  0.47779218  -0.01593447  0.36894878  1
  O2-  O141  1  0.47205851  -0.00089004  0.86687117  1
  O2-  O142  1  0.49402427  0.48458507  0.37712637  1
  O2-  O143  1  0.50511865  0.48536469  0.88087898  1
  O2-  O144  1  0.25184398  0.26637435  0.13378969  1
  O2-  O145  1  0.23654151  0.25791294  0.63533679  1
  O2-  O146  1  0.24217798  0.75158798  0.12798207  1
  O2-  O147  1  0.23881927  0.75037230  0.63888356  1
  O2-  O148  1  0.75888684  0.26430532  0.12106935  1
  O2-  O149  1  0.75542517  0.26879666  0.62092386  1
  O2-  O150  1  0.74612334  0.75835259  0.12423763  1
  O2-  O151  1  0.75674110  0.76915745  0.62989701  1
  O2-  O152  1  0.22431039  0.24578603  0.36689737  1
  O2-  O153  1  0.22878993  0.23552221  0.86460227  1
  O2-  O154  1  0.24969152  0.74035541  0.37006015  1
  O2-  O155  1  0.25156732  0.72156932  0.86493378  1
  O2-  O156  1  0.75206737  0.24163847  0.37092183  1
  O2-  O157  1  0.74729282  0.24346934  0.87440413  1
  O2-  O158  1  0.76225309  0.73052233  0.36533105  1
  O2-  O159  1  0.75074942  0.74055055  0.88331240  1
  O2-  O160  1  -0.00577293  0.24339126  0.12291926  1
  O2-  O161  1  -0.00590319  0.24459138  0.62452824  1
  O2-  O162  1  0.00214774  0.77212939  0.11303895  1
  O2-  O163  1  -0.00232496  0.74761731  0.62235179  1
  O2-  O164  1  0.49829247  0.24588134  0.11678682  1
  O2-  O165  1  0.51069668  0.23865039  0.61526574  1
  O2-  O166  1  0.51927370  0.73735013  0.11390402  1
  O2-  O167  1  0.50341187  0.71942163  0.61800408  1
  O2-  O168  1  0.25925650  0.00756466  0.38160470  1
  O2-  O169  1  0.25408823  0.02123811  0.86962803  1
  O2-  O170  1  0.26788295  0.51246285  0.38543671  1
  O2-  O171  1  0.24842206  0.50538210  0.87181163  1
  O2-  O172  1  0.76342679  0.02670027  0.38413331  1
  O2-  O173  1  0.74909692  0.02472372  0.88553483  1
  O2-  O174  1  0.73910788  0.50739340  0.37076773  1
  O2-  O175  1  0.73243021  0.51163190  0.88560871  1
  O2-  O176  1  -0.00334612  0.25579478  0.37159205  1
  O2-  O177  1  -0.00374159  0.24916370  0.87428960  1
  O2-  O178  1  0.00043831  0.74820125  0.38016651  1
  O2-  O179  1  -0.02758500  0.74353562  0.88689473  1
  O2-  O180  1  0.50386178  0.28887034  0.38517233  1
  O2-  O181  1  0.50659396  0.28260814  0.88644584  1
  O2-  O182  1  0.49606346  0.75821700  0.38467529  1
  O2-  O183  1  0.52165351  0.75654617  0.88543869  1
  O2-  O184  1  0.24974910  -0.02864017  0.11127423  1
  O2-  O185  1  0.23201249  -0.01240251  0.63347344  1
  O2-  O186  1  0.26728193  0.49107880  0.11591241  1
  O2-  O187  1  0.24955278  0.48095411  0.63041767  1
  O2-  O188  1  0.76325674  0.00505630  0.11429047  1
  O2-  O189  1  0.72928326  -0.00377628  0.61549798  1
  O2-  O190  1  0.75563706  0.49249711  0.12389152  1
  O2-  O191  1  0.74737769  0.47511612  0.61443743  1
  O2-  O192  1  0.11396552  0.27377054  0.24403644  1
  O2-  O193  1  0.11629257  0.27470091  0.74813204  1
  O2-  O194  1  0.13332896  0.78787796  0.25209138  1
  O2-  O195  1  0.13265735  0.77699421  0.76521560  1
  O2-  O196  1  0.63784389  0.28279876  0.24692970  1
  O2-  O197  1  0.63756775  0.28737876  0.75045666  1
  O2-  O198  1  0.63818656  0.76885658  0.25579989  1
  O2-  O199  1  0.63400557  0.78384905  0.74519387  1
  O2-  O200  1  0.36683970  0.21505176  0.26129208  1
  O2-  O201  1  0.36362499  0.22299806  0.75317075  1
  O2-  O202  1  0.36574054  0.71321295  0.24282528  1
  O2-  O203  1  0.36528611  0.72643355  0.75030102  1
  O2-  O204  1  0.87428382  0.23339504  0.24600217  1
  O2-  O205  1  0.87868019  0.22635094  0.75159850  1
  O2-  O206  1  0.86880166  0.71251225  0.23855734  1
  O2-  O207  1  0.86533807  0.71659670  0.74827034  1
  O2-  O208  1  0.27597057  0.36534338  0.26281455  1
  O2-  O209  1  0.27066466  0.36997688  0.76359421  1
  O2-  O210  1  0.28665684  0.86559411  0.25624909  1
  O2-  O211  1  0.27083241  0.87888474  0.76248753  1
  O2-  O212  1  0.77487571  0.37733346  0.25570382  1
  O2-  O213  1  0.78993191  0.36758570  0.75821167  1
  O2-  O214  1  0.78644453  0.86278671  0.25341191  1
  O2-  O215  1  0.77828810  0.86619439  0.76905035  1
  O2-  O216  1  0.21590985  0.13310828  0.24003211  1
  O2-  O217  1  0.21968121  0.12535942  0.73855964  1
  O2-  O218  1  0.21326810  0.63214085  0.24757363  1
  O2-  O219  1  0.22478384  0.61504721  0.74047379  1
  O2-  O220  1  0.72825379  0.13838043  0.23534563  1
  O2-  O221  1  0.73087209  0.14138199  0.73288907  1
  O2-  O222  1  0.72733989  0.61718854  0.23635327  1
  O2-  O223  1  0.71443258  0.63573729  0.74490231  1
  O2-  O224  1  0.11483204  0.46306382  0.24234215  1
  O2-  O225  1  0.13133487  0.46767252  0.75150239  1
  O2-  O226  1  0.10940227  0.98699212  0.21753969  1
  O2-  O227  1  0.12593845  0.98411966  0.76646454  1
  O2-  O228  1  0.62899608  0.47198047  0.24355302  1
  O2-  O229  1  0.61542896  0.47026568  0.75038465  1
  O2-  O230  1  0.62067273  0.97418713  0.25516647  1
  O2-  O231  1  0.61767946  0.97355565  0.76748406  1
  O2-  O232  1  0.38140758  0.02661177  0.23808013  1
  O2-  O233  1  0.36299783  0.02731242  0.73643085  1
  O2-  O234  1  0.38511576  0.53234798  0.25104902  1
  O2-  O235  1  0.36834544  0.51893213  0.74905956  1
  O2-  O236  1  0.88812151  0.04027638  0.25303101  1
  O2-  O237  1  0.88733689  0.03477332  0.74411479  1
  O2-  O238  1  0.86648411  0.51841786  0.25492409  1
  O2-  O239  1  0.88773998  0.52806084  0.75573181  1
  O2-  O240  1  0.47889762  0.38668241  0.23486585  1
  O2-  O241  1  0.46480034  0.38721673  0.74246912  1
  O2-  O242  1  0.48387837  0.87914328  0.23641572  1
  O2-  O243  1  0.46701153  0.88917646  0.73943372  1
  O2-  O244  1  0.97373871  0.36884225  0.24448458  1
  O2-  O245  1  0.97702515  0.36673268  0.74669724  1
  O2-  O246  1  0.96512109  0.88510184  0.25041626  1
  O2-  O247  1  0.97543774  0.88738728  0.75490397  1
  O2-  O248  1  0.02066813  0.13238426  0.25046570  1
  O2-  O249  1  0.02688483  0.13050272  0.75237928  1
  O2-  O250  1  0.02821260  0.61231138  0.24736069  1
  O2-  O251  1  0.03799635  0.61194221  0.75380931  1
  O2-  O252  1  0.53117199  0.11600146  0.26452092  1
  O2-  O253  1  0.52201957  0.12111246  0.76854734  1
  O2-  O254  1  0.53902659  0.61086838  0.26414007  1
  O2-  O255  1  0.51090184  0.61283504  0.77159871  1
  O2-  O256  1  0.13575209  0.46287600  0.00523923  1
  O2-  O257  1  0.13782553  0.46333119  0.49165453  1
  O2-  O258  1  0.11399483  0.98069643  -0.00004645  1
  O2-  O259  1  0.13467938  0.96373763  0.49921073  1
  O2-  O260  1  0.62578165  0.48110607  0.01206863  1
  O2-  O261  1  0.62153904  0.47223205  0.49737860  1
  O2-  O262  1  0.63684609  0.97249389  0.00379772  1
  O2-  O263  1  0.63483827  0.97966090  0.47866494  1
  O2-  O264  1  0.36457748  0.03255880  0.00461086  1
  O2-  O265  1  0.36252009  0.03209819  0.52284197  1
  O2-  O266  1  0.38339369  0.52369453  -0.00742454  1
  O2-  O267  1  0.38502571  0.51937178  0.51365246  1
  O2-  O268  1  0.87492722  0.02282965  -0.00971884  1
  O2-  O269  1  0.86603626  0.03470757  0.51546863  1
  O2-  O270  1  0.86171134  0.52877163  -0.00750240  1
  O2-  O271  1  0.86205743  0.52427054  0.49683849  1
  O2-  O272  1  0.48564268  0.38332381  0.01933480  1
  O2-  O273  1  0.48608501  0.37975908  0.52343941  1
  O2-  O274  1  0.46579782  0.86375740  0.00812484  1
  O2-  O275  1  0.47416654  0.86661572  0.52216155  1
  O2-  O276  1  0.96358495  0.36138786  0.00416512  1
  O2-  O277  1  0.96043180  0.36467835  0.49981245  1
  O2-  O278  1  0.97484485  0.88173966  -0.00949800  1
  O2-  O279  1  0.97016481  0.86575972  0.50215747  1
  O2-  O280  1  0.01047346  0.12718176  -0.00156250  1
  O2-  O281  1  0.01624568  0.13732876  0.48804155  1
  O2-  O282  1  0.02763400  0.63186889  0.00846105  1
  O2-  O283  1  0.03100315  0.62882511  0.50292958  1
  O2-  O284  1  0.53840574  0.13707097  -0.01200281  1
  O2-  O285  1  0.52989701  0.13859642  0.47745576  1
  O2-  O286  1  0.53029805  0.61878683  -0.00791541  1
  O2-  O287  1  0.52923314  0.61435189  0.48742735  1
  O2-  O288  1  0.11079952  0.27401203  -0.00004772  1
  O2-  O289  1  0.10997159  0.28245401  0.50272365  1
  O2-  O290  1  0.11441383  0.77480839  -0.01488974  1
  O2-  O291  1  0.11906446  0.77421208  0.50130781  1
  O2-  O292  1  0.63361266  0.28020655  0.00133886  1
  O2-  O293  1  0.63127920  0.27831583  0.49809125  1
  O2-  O294  1  0.63413675  0.77878712  0.00289324  1
  O2-  O295  1  0.61640827  0.77403973  0.50076164  1
  O2-  O296  1  0.38795126  0.22005324  -0.00918869  1
  O2-  O297  1  0.38608119  0.22423897  0.49362481  1
  O2-  O298  1  0.38798686  0.71299887  -0.00431719  1
  O2-  O299  1  0.38499068  0.71291465  0.50014609  1
  O2-  O300  1  0.86747392  0.22790310  -0.00774279  1
  O2-  O301  1  0.86805592  0.22941595  0.49908584  1
  O2-  O302  1  0.86888739  0.73136439  0.01315255  1
  O2-  O303  1  0.88323534  0.71586573  0.50006166  1
  O2-  O304  1  0.28630811  0.38123687  -0.01374824  1
  O2-  O305  1  0.28930893  0.38278440  0.49669897  1
  O2-  O306  1  0.25946263  0.88822994  -0.03502333  1
  O2-  O307  1  0.28489591  0.88541174  0.49980125  1
  O2-  O308  1  0.77119008  0.37862421  -0.01037903  1
  O2-  O309  1  0.76630334  0.37487526  0.47797673  1
  O2-  O310  1  0.77722944  0.87640040  -0.00917393  1
  O2-  O311  1  0.78419351  0.88324200  0.49174174  1
  O2-  O312  1  0.21114894  0.11298049  0.00903101  1
  O2-  O313  1  0.21169757  0.11596248  0.50505941  1
  O2-  O314  1  0.22805010  0.61104630  0.00442400  1
  O2-  O315  1  0.23242482  0.61076378  0.51905663  1
  O2-  O316  1  0.72549977  0.13358290  0.01131646  1
  O2-  O317  1  0.72461603  0.13807940  0.50967058  1
  O2-  O318  1  0.72623903  0.62828261  0.01203665  1
  O2-  O319  1  0.71586512  0.61189398  0.50941453  1
