# generated using pymatgen
data_Sr64Ca21Nb43O192
_symmetry_space_group_name_H-M   'P 1'
_cell_length_a   16.57490708
_cell_length_b   16.58700438
_cell_length_c   16.74167913
_cell_angle_alpha   89.98775080
_cell_angle_beta   90.06063935
_cell_angle_gamma   89.96113774
_symmetry_Int_Tables_number   1
_chemical_formula_structural   Sr64Ca21Nb43O192
_chemical_formula_sum   'Sr64 Ca21 Nb43 O192'
_cell_volume   4602.75356004
_cell_formula_units_Z   1
loop_
 _symmetry_equiv_pos_site_id
 _symmetry_equiv_pos_as_xyz
  1  'x, y, z'
loop_
 _atom_type_symbol
 _atom_type_oxidation_number
  Sr2+  2.0
  Ca2+  2.0
  Nb5+  5.0
  O2-  -2.0
loop_
 _atom_site_type_symbol
 _atom_site_label
 _atom_site_symmetry_multiplicity
 _atom_site_fract_x
 _atom_site_fract_y
 _atom_site_fract_z
 _atom_site_occupancy
  Sr2+  Sr0  1  0.12078472  0.13898222  0.12937081  1
  Sr2+  Sr1  1  0.11942186  0.14226892  0.62627474  1
  Sr2+  Sr2  1  0.11730212  0.61817236  0.12485669  1
  Sr2+  Sr3  1  0.12110239  0.62882922  0.62282752  1
  Sr2+  Sr4  1  0.62525255  0.13693694  0.11595266  1
  Sr2+  Sr5  1  0.62898517  0.12796855  0.62362769  1
  Sr2+  Sr6  1  0.62986296  0.63365035  0.14478229  1
  Sr2+  Sr7  1  0.62425133  0.62952947  0.62265355  1
  Sr2+  Sr8  1  0.36901039  0.37544994  0.12827277  1
  Sr2+  Sr9  1  0.37042443  0.37361959  0.62316842  1
  Sr2+  Sr10  1  0.36750239  0.88949109  0.12438489  1
  Sr2+  Sr11  1  0.36958898  0.88354696  0.62278779  1
  Sr2+  Sr12  1  0.88382439  0.37752532  0.12549541  1
  Sr2+  Sr13  1  0.87179027  0.37095418  0.62325325  1
  Sr2+  Sr14  1  0.87438531  0.89020186  0.11894281  1
  Sr2+  Sr15  1  0.87288497  0.89094566  0.63104340  1
  Sr2+  Sr16  1  0.12952305  0.36152412  0.37478798  1
  Sr2+  Sr17  1  0.13809720  0.37206537  0.87813657  1
  Sr2+  Sr18  1  0.13579708  0.87118549  0.36819689  1
  Sr2+  Sr19  1  0.13086684  0.86628847  0.87585309  1
  Sr2+  Sr20  1  0.62694550  0.37338130  0.38216036  1
  Sr2+  Sr21  1  0.62436820  0.37930896  0.86376665  1
  Sr2+  Sr22  1  0.62364111  0.87254199  0.38230847  1
  Sr2+  Sr23  1  0.62936955  0.86865544  0.87440622  1
  Sr2+  Sr24  1  0.38259046  0.11204944  0.37639362  1
  Sr2+  Sr25  1  0.38863417  0.12129286  0.87835691  1
  Sr2+  Sr26  1  0.39017425  0.62211450  0.37282285  1
  Sr2+  Sr27  1  0.37833388  0.62116605  0.87210021  1
  Sr2+  Sr28  1  0.86808205  0.11921443  0.36751704  1
  Sr2+  Sr29  1  0.87158396  0.11696284  0.87636338  1
  Sr2+  Sr30  1  0.86142531  0.61607101  0.36501504  1
  Sr2+  Sr31  1  0.87420375  0.61478091  0.87592068  1
  Sr2+  Sr32  1  0.12085793  0.11563088  0.36945939  1
  Sr2+  Sr33  1  0.13613372  0.11934711  0.86829024  1
  Sr2+  Sr34  1  0.13322942  0.61868623  0.37389596  1
  Sr2+  Sr35  1  0.12587308  0.61715458  0.87571696  1
  Sr2+  Sr36  1  0.62683889  0.10764448  0.37827847  1
  Sr2+  Sr37  1  0.62174589  0.15827127  0.87492068  1
  Sr2+  Sr38  1  0.62304752  0.60044052  0.37472816  1
  Sr2+  Sr39  1  0.62913065  0.62276631  0.87234962  1
  Sr2+  Sr40  1  0.39178946  0.36097009  0.37372330  1
  Sr2+  Sr41  1  0.38299883  0.35491177  0.87564103  1
  Sr2+  Sr42  1  0.37762537  0.87066523  0.36979633  1
  Sr2+  Sr43  1  0.38077588  0.86449950  0.88239334  1
  Sr2+  Sr44  1  0.87426246  0.35688223  0.37152588  1
  Sr2+  Sr45  1  0.87228578  0.36720520  0.87676047  1
  Sr2+  Sr46  1  0.87238311  0.87936903  0.39326242  1
  Sr2+  Sr47  1  0.87642099  0.86930860  0.87454850  1
  Sr2+  Sr48  1  0.11678831  0.38155145  0.13554676  1
  Sr2+  Sr49  1  0.12869199  0.38220473  0.62395691  1
  Sr2+  Sr50  1  0.11991011  0.88395974  0.12330162  1
  Sr2+  Sr51  1  0.10661426  0.87898130  0.62922297  1
  Sr2+  Sr52  1  0.61370856  0.37783856  0.12323303  1
  Sr2+  Sr53  1  0.62797939  0.38186055  0.62515523  1
  Sr2+  Sr54  1  0.64187420  0.87924786  0.11949424  1
  Sr2+  Sr55  1  0.62026509  0.88563043  0.62504479  1
  Sr2+  Sr56  1  0.36335645  0.12750807  0.12598407  1
  Sr2+  Sr57  1  0.35924455  0.13062210  0.62927073  1
  Sr2+  Sr58  1  0.36109673  0.62980526  0.12816597  1
  Sr2+  Sr59  1  0.36511660  0.63118844  0.61803247  1
  Sr2+  Sr60  1  0.88271698  0.13106053  0.12238959  1
  Sr2+  Sr61  1  0.87510805  0.12890164  0.62395057  1
  Sr2+  Sr62  1  0.87413643  0.62620424  0.12475827  1
  Sr2+  Sr63  1  0.87965004  0.62785640  0.62950510  1
  Ca2+  Ca64  1  0.49933415  0.50165530  -0.00207079  1
  Ca2+  Ca65  1  -0.00054894  0.49969998  0.49842281  1
  Ca2+  Ca66  1  0.00158941  0.00024473  -0.00204369  1
  Ca2+  Ca67  1  0.00378674  0.00419492  0.50134417  1
  Ca2+  Ca68  1  0.50289579  -0.00267036  -0.00145106  1
  Ca2+  Ca69  1  0.24914581  0.24905467  0.49626528  1
  Ca2+  Ca70  1  0.75014975  0.74796552  0.50254287  1
  Ca2+  Ca71  1  0.75249329  0.25457216  0.00288152  1
  Ca2+  Ca72  1  0.74793783  0.25059565  0.49965149  1
  Ca2+  Ca73  1  0.24706413  0.25059510  0.00066226  1
  Ca2+  Ca74  1  0.49980001  0.24433872  0.25268664  1
  Ca2+  Ca75  1  0.49821608  0.25244216  0.74348866  1
  Ca2+  Ca76  1  0.00083789  0.25537344  0.75297140  1
  Ca2+  Ca77  1  0.49911602  0.75198227  0.24868716  1
  Ca2+  Ca78  1  0.25013185  0.50097406  0.25421152  1
  Ca2+  Ca79  1  0.74721176  -0.00226742  0.75413172  1
  Ca2+  Ca80  1  0.74847730  -0.00000274  0.24741315  1
  Ca2+  Ca81  1  0.25298955  0.50076868  0.75116461  1
  Ca2+  Ca82  1  0.25007090  -0.00317875  0.74914612  1
  Ca2+  Ca83  1  -0.00123654  0.75045170  0.25115859  1
  Ca2+  Ca84  1  0.74978281  0.49308030  0.24628983  1
  Nb5+  Nb85  1  0.49752733  -0.00644944  0.50397904  1
  Nb5+  Nb86  1  0.49727094  0.49458170  0.50167991  1
  Nb5+  Nb87  1  -0.00062121  0.49847853  -0.00215139  1
  Nb5+  Nb88  1  0.25236260  0.74764385  -0.00521968  1
  Nb5+  Nb89  1  0.75737877  0.74483591  -0.00143362  1
  Nb5+  Nb90  1  0.24752657  0.75276125  0.49475586  1
  Nb5+  Nb91  1  0.75405607  0.50202116  0.74986355  1
  Nb5+  Nb92  1  0.49427279  0.74919225  0.74692760  1
  Nb5+  Nb93  1  0.24934122  0.00094922  0.25111390  1
  Nb5+  Nb94  1  -0.00046197  0.24973063  0.25036421  1
  Nb5+  Nb95  1  -0.00404078  0.74777410  0.75197155  1
  Nb5+  Nb96  1  -0.00366825  -0.00145019  0.24578387  1
  Nb5+  Nb97  1  0.00218609  0.00756553  0.75400193  1
  Nb5+  Nb98  1  -0.00309863  0.50035730  0.25876306  1
  Nb5+  Nb99  1  0.00178924  0.49752458  0.75121091  1
  Nb5+  Nb100  1  0.50393132  -0.00212544  0.24653614  1
  Nb5+  Nb101  1  0.50103691  0.00122627  0.75122346  1
  Nb5+  Nb102  1  0.50063042  0.50059215  0.24265200  1
  Nb5+  Nb103  1  0.49758729  0.50406512  0.74582960  1
  Nb5+  Nb104  1  0.25329080  0.24981982  0.25580276  1
  Nb5+  Nb105  1  0.24976208  0.25139254  0.74991710  1
  Nb5+  Nb106  1  0.24779217  0.75207320  0.24050255  1
  Nb5+  Nb107  1  0.24595465  0.75298642  0.74270201  1
  Nb5+  Nb108  1  0.74377828  0.24899032  0.24622885  1
  Nb5+  Nb109  1  0.75181716  0.24738198  0.75177906  1
  Nb5+  Nb110  1  0.74983859  0.75367386  0.25580531  1
  Nb5+  Nb111  1  0.74663233  0.74812911  0.74857588  1
  Nb5+  Nb112  1  -0.00269609  0.25116986  0.50167118  1
  Nb5+  Nb113  1  0.00757595  0.24837414  0.99449168  1
  Nb5+  Nb114  1  -0.00092645  0.74954081  0.49549579  1
  Nb5+  Nb115  1  0.00486719  0.74782563  1.00165914  1
  Nb5+  Nb116  1  0.49867325  0.23859418  0.50099854  1
  Nb5+  Nb117  1  0.49643361  0.25032598  1.00415133  1
  Nb5+  Nb118  1  0.50048996  0.74724207  0.50089447  1
  Nb5+  Nb119  1  0.50513616  0.74203915  1.00342528  1
  Nb5+  Nb120  1  0.24849152  0.00320340  -0.00162195  1
  Nb5+  Nb121  1  0.24516561  -0.00304762  0.50236674  1
  Nb5+  Nb122  1  0.25357279  0.50051389  0.00095535  1
  Nb5+  Nb123  1  0.25210390  0.49714890  0.49319236  1
  Nb5+  Nb124  1  0.74510065  0.00665654  -0.00360594  1
  Nb5+  Nb125  1  0.75272098  0.00117302  0.50495440  1
  Nb5+  Nb126  1  0.74903888  0.50026761  -0.00008123  1
  Nb5+  Nb127  1  0.75485944  0.50309213  0.50121264  1
  O2-  O128  1  0.03076825  0.01514440  0.13313489  1
  O2-  O129  1  0.03026049  0.01087462  0.63650998  1
  O2-  O130  1  0.01677460  0.50402822  0.11636458  1
  O2-  O131  1  0.01782132  0.51176473  0.63628454  1
  O2-  O132  1  0.52028412  0.01520399  0.13590727  1
  O2-  O133  1  0.52365451  0.01121337  0.62073374  1
  O2-  O134  1  0.52952344  0.51329223  0.13233053  1
  O2-  O135  1  0.51925614  0.52096707  0.61895582  1
  O2-  O136  1  -0.02051621  -0.00219122  0.36369113  1
  O2-  O137  1  -0.03231375  -0.01081748  0.86653697  1
  O2-  O138  1  -0.03669912  0.49523614  0.36666165  1
  O2-  O139  1  -0.01920389  0.49916275  0.87511542  1
  O2-  O140  1  0.48091379  -0.01709759  0.38655680  1
  O2-  O141  1  0.47361132  -0.02042312  0.86149409  1
  O2-  O142  1  0.48310074  0.49146044  0.38340863  1
  O2-  O143  1  0.48480649  0.48400901  0.85881165  1
  O2-  O144  1  0.26826005  0.25446719  0.13743181  1
  O2-  O145  1  0.27072342  0.26342217  0.63029028  1
  O2-  O146  1  0.26694965  0.76776383  0.12645795  1
  O2-  O147  1  0.26543471  0.76851906  0.63048110  1
  O2-  O148  1  0.76478863  0.21525183  0.13358346  1
  O2-  O149  1  0.78043032  0.24523454  0.63668832  1
  O2-  O150  1  0.75453671  0.72096978  0.11200921  1
  O2-  O151  1  0.76582367  0.72707610  0.63758454  1
  O2-  O152  1  0.21534043  0.23067160  0.36527819  1
  O2-  O153  1  0.21950314  0.24153007  0.86652013  1
  O2-  O154  1  0.23062036  0.74147375  0.38125307  1
  O2-  O155  1  0.23535193  0.73356860  0.88087773  1
  O2-  O156  1  0.74011270  0.27808136  0.36467918  1
  O2-  O157  1  0.73110329  0.27699752  0.86715919  1
  O2-  O158  1  0.74547645  0.78060126  0.36651437  1
  O2-  O159  1  0.73791926  0.75886111  0.87622785  1
  O2-  O160  1  -0.01482976  0.24684560  0.12739287  1
  O2-  O161  1  -0.01896153  0.23887060  0.61645562  1
  O2-  O162  1  -0.00517803  0.72534186  0.11347826  1
  O2-  O163  1  -0.00142111  0.73030617  0.63320412  1
  O2-  O164  1  0.47840710  0.22289685  0.11828016  1
  O2-  O165  1  0.46350273  0.23914496  0.61315034  1
  O2-  O166  1  0.49145256  0.71159108  0.11173065  1
  O2-  O167  1  0.48700249  0.72742410  0.62518424  1
  O2-  O168  1  0.26871610  0.00912575  0.37392731  1
  O2-  O169  1  0.26763471  0.01992531  0.88669643  1
  O2-  O170  1  0.26550336  0.54278555  0.38545902  1
  O2-  O171  1  0.25491787  0.53491161  0.88772777  1
  O2-  O172  1  0.76367190  -0.01362630  0.38583604  1
  O2-  O173  1  0.77367123  -0.02252736  0.88545942  1
  O2-  O174  1  0.76652089  0.48720505  0.38680266  1
  O2-  O175  1  0.77184837  0.49027175  0.87027300  1
  O2-  O176  1  0.01394693  0.26363802  0.36742662  1
  O2-  O177  1  0.02534190  0.27254692  0.88515681  1
  O2-  O178  1  0.01616603  0.77654665  0.38634512  1
  O2-  O179  1  0.01516858  0.75945858  0.87262148  1
  O2-  O180  1  0.52185029  0.27060277  0.38789619  1
  O2-  O181  1  0.51673690  0.27551678  0.88188101  1
  O2-  O182  1  0.50401342  0.77337864  0.38807776  1
  O2-  O183  1  0.50863415  0.77023351  0.86255796  1
  O2-  O184  1  0.23691733  -0.02070839  0.13353246  1
  O2-  O185  1  0.23517759  -0.03381809  0.61304946  1
  O2-  O186  1  0.22613288  0.48803723  0.11570047  1
  O2-  O187  1  0.24116711  0.48842972  0.61185797  1
  O2-  O188  1  0.72061327  0.01063030  0.11420371  1
  O2-  O189  1  0.72377292  0.00348226  0.61997834  1
  O2-  O190  1  0.73229747  0.52181296  0.11098996  1
  O2-  O191  1  0.73623817  0.52133527  0.63331516  1
  O2-  O192  1  0.12168374  0.26481744  0.23210889  1
  O2-  O193  1  0.13288377  0.27707522  0.72498485  1
  O2-  O194  1  0.13424362  0.78189476  0.24176953  1
  O2-  O195  1  0.12904417  0.77003893  0.74146881  1
  O2-  O196  1  0.63138313  0.26359134  0.22245986  1
  O2-  O197  1  0.63478844  0.26977897  0.72919309  1
  O2-  O198  1  0.63337285  0.76680235  0.22633092  1
  O2-  O199  1  0.63017891  0.76234351  0.73598213  1
  O2-  O200  1  0.36381395  0.22349912  0.27520517  1
  O2-  O201  1  0.36663520  0.22376371  0.77315429  1
  O2-  O202  1  0.36129239  0.73368979  0.26993065  1
  O2-  O203  1  0.37824934  0.72898294  0.76012543  1
  O2-  O204  1  0.88199749  0.23250582  0.26419585  1
  O2-  O205  1  0.86752532  0.23787253  0.78261091  1
  O2-  O206  1  0.86504049  0.72205632  0.25366468  1
  O2-  O207  1  0.88169403  0.72834434  0.76591922  1
  O2-  O208  1  0.26839046  0.36442657  0.26996786  1
  O2-  O209  1  0.27956395  0.36903126  0.76559542  1
  O2-  O210  1  0.26682104  0.87783965  0.26514591  1
  O2-  O211  1  0.27155391  0.86146685  0.77936040  1
  O2-  O212  1  0.77557979  0.36218315  0.22455999  1
  O2-  O213  1  0.76677298  0.38631312  0.73669772  1
  O2-  O214  1  0.76834951  0.86367928  0.21616116  1
  O2-  O215  1  0.77695981  0.85965957  0.74671435  1
  O2-  O216  1  0.22985354  0.11842661  0.23694350  1
  O2-  O217  1  0.22724777  0.13129237  0.73149285  1
  O2-  O218  1  0.22369629  0.63857636  0.23210193  1
  O2-  O219  1  0.23344332  0.63693922  0.73703420  1
  O2-  O220  1  0.73855260  0.13337264  0.28036760  1
  O2-  O221  1  0.73108253  0.13387802  0.76365937  1
  O2-  O222  1  0.72799727  0.63264726  0.26835467  1
  O2-  O223  1  0.74237361  0.62739432  0.77195974  1
  O2-  O224  1  0.11348719  0.47412299  0.26868781  1
  O2-  O225  1  0.11488225  0.47882618  0.77071385  1
  O2-  O226  1  0.12892228  0.98667123  0.27165895  1
  O2-  O227  1  0.11513834  0.97505192  0.77839294  1
  O2-  O228  1  0.61565240  0.47476627  0.27250459  1
  O2-  O229  1  0.63135325  0.49520769  0.76314749  1
  O2-  O230  1  0.61387049  0.97387153  0.27395353  1
  O2-  O231  1  0.61254651  0.96129972  0.75797413  1
  O2-  O232  1  0.36864826  0.01881531  0.23638683  1
  O2-  O233  1  0.38684473  0.00708672  0.71782925  1
  O2-  O234  1  0.38325981  0.52475826  0.23273152  1
  O2-  O235  1  0.38754077  0.53382606  0.73203274  1
  O2-  O236  1  0.88431638  0.02104926  0.22491705  1
  O2-  O237  1  0.88497187  0.01407777  0.72244612  1
  O2-  O238  1  0.88488623  0.51516707  0.22105244  1
  O2-  O239  1  0.87395930  0.52833665  0.73951502  1
  O2-  O240  1  0.47361146  0.38289262  0.23828142  1
  O2-  O241  1  0.49221720  0.39150455  0.71879222  1
  O2-  O242  1  0.46688593  0.88557204  0.24073537  1
  O2-  O243  1  0.48523984  0.86311780  0.72206195  1
  O2-  O244  1  0.98393662  0.37343969  0.24049568  1
  O2-  O245  1  0.96668199  0.38869594  0.74401237  1
  O2-  O246  1  0.98632281  0.88514622  0.22807469  1
  O2-  O247  1  0.98450326  0.86520369  0.73850172  1
  O2-  O248  1  0.01843668  0.13002429  0.25490296  1
  O2-  O249  1  0.01994201  0.12011805  0.76952175  1
  O2-  O250  1  0.02482168  0.61419512  0.26033972  1
  O2-  O251  1  0.02117189  0.62717561  0.76329420  1
  O2-  O252  1  0.50763144  0.10998190  0.28251246  1
  O2-  O253  1  0.52333761  0.11335702  0.76414456  1
  O2-  O254  1  0.51854440  0.61649329  0.27187396  1
  O2-  O255  1  0.52699663  0.62959399  0.75642863  1
  O2-  O256  1  0.11960199  0.49215824  -0.01986444  1
  O2-  O257  1  0.13677281  0.48571609  0.47648754  1
  O2-  O258  1  0.13651800  0.96708629  -0.01135107  1
  O2-  O259  1  0.13633022  0.97919785  0.47236191  1
  O2-  O260  1  0.63716260  0.48456304  -0.02649803  1
  O2-  O261  1  0.61699164  0.48531823  0.48810162  1
  O2-  O262  1  0.63409007  0.96327756  -0.01531952  1
  O2-  O263  1  0.61764519  0.97952117  0.48496044  1
  O2-  O264  1  0.36453291  0.00666060  0.02715298  1
  O2-  O265  1  0.37812062  0.01386206  0.51832835  1
  O2-  O266  1  0.36456056  0.52607104  0.02117819  1
  O2-  O267  1  0.37925033  0.52263985  0.51526369  1
  O2-  O268  1  0.86351122  0.01306443  0.02524623  1
  O2-  O269  1  0.86713546  0.02093665  0.51959977  1
  O2-  O270  1  0.88058104  0.52508296  0.00968128  1
  O2-  O271  1  0.86503989  0.52758627  0.52060481  1
  O2-  O272  1  0.47842124  0.36862290  0.02566052  1
  O2-  O273  1  0.48033539  0.38117866  0.51480907  1
  O2-  O274  1  0.47669805  0.85538289  0.00973144  1
  O2-  O275  1  0.48295902  0.87607025  0.52283969  1
  O2-  O276  1  0.97972577  0.38335932  0.00241070  1
  O2-  O277  1  0.96301948  0.36777068  0.50090680  1
  O2-  O278  1  0.98065487  0.86148726  0.00979913  1
  O2-  O279  1  0.98101933  0.86389669  0.52723962  1
  O2-  O280  1  0.03163574  0.13545093  -0.01052622  1
  O2-  O281  1  0.03405715  0.13747855  0.49019103  1
  O2-  O282  1  0.01577371  0.62601385  -0.01683106  1
  O2-  O283  1  0.03912069  0.63851440  0.49363033  1
  O2-  O284  1  0.51584966  0.13158583  -0.02387228  1
  O2-  O285  1  0.51456252  0.12162472  0.48917644  1
  O2-  O286  1  0.50402993  0.63444743  -0.04303065  1
  O2-  O287  1  0.51108632  0.63074164  0.48373634  1
  O2-  O288  1  0.11609972  0.28112559  0.02886499  1
  O2-  O289  1  0.11344614  0.28762353  0.51096975  1
  O2-  O290  1  0.12407707  0.76600528  0.00893966  1
  O2-  O291  1  0.13422488  0.77724777  0.51896869  1
  O2-  O292  1  0.61647967  0.26343183  0.02404755  1
  O2-  O293  1  0.61134679  0.26205148  0.53278395  1
  O2-  O294  1  0.62314496  0.75460938  0.00459244  1
  O2-  O295  1  0.61291051  0.76854046  0.52070855  1
  O2-  O296  1  0.37973467  0.23437603  -0.02389803  1
  O2-  O297  1  0.38289848  0.23531910  0.46800022  1
  O2-  O298  1  0.36876226  0.72879652  -0.01398069  1
  O2-  O299  1  0.37290500  0.73762487  0.49512730  1
  O2-  O300  1  0.88914048  0.23251472  -0.01440902  1
  O2-  O301  1  0.88343888  0.22314651  0.47345938  1
  O2-  O302  1  0.87537318  0.73163807  -0.01633417  1
  O2-  O303  1  0.88784528  0.72058946  0.48353419  1
  O2-  O304  1  0.26890991  0.38873790  -0.02112721  1
  O2-  O305  1  0.27774414  0.38800720  0.47229456  1
  O2-  O306  1  0.26762814  0.86654696  -0.00964548  1
  O2-  O307  1  0.27555700  0.87204856  0.48361022  1
  O2-  O308  1  0.77997991  0.38912064  0.01139344  1
  O2-  O309  1  0.75160845  0.38868734  0.52816229  1
  O2-  O310  1  0.76543762  0.86056365  0.01478722  1
  O2-  O311  1  0.77002576  0.88116938  0.51597120  1
  O2-  O312  1  0.22619932  0.11368525  0.02124870  1
  O2-  O313  1  0.23692831  0.11106303  0.52172460  1
  O2-  O314  1  0.23061511  0.63477371  0.02642372  1
  O2-  O315  1  0.23748641  0.63777316  0.52264142  1
  O2-  O316  1  0.72921181  0.11766736  -0.02651304  1
  O2-  O317  1  0.72163034  0.11618996  0.49607201  1
  O2-  O318  1  0.74524375  0.62311864  -0.02675945  1
  O2-  O319  1  0.71810185  0.61571420  0.49123167  1
