# generated using pymatgen
data_Sr64Ca21Nb43O192
_symmetry_space_group_name_H-M   'P 1'
_cell_length_a   16.57723093
_cell_length_b   16.57435767
_cell_length_c   16.71560607
_cell_angle_alpha   89.97904446
_cell_angle_beta   90.00617497
_cell_angle_gamma   89.95221955
_symmetry_Int_Tables_number   1
_chemical_formula_structural   Sr64Ca21Nb43O192
_chemical_formula_sum   'Sr64 Ca21 Nb43 O192'
_cell_volume   4592.72708905
_cell_formula_units_Z   1
loop_
 _symmetry_equiv_pos_site_id
 _symmetry_equiv_pos_as_xyz
  1  'x, y, z'
loop_
 _atom_type_symbol
 _atom_type_oxidation_number
  Sr2+  2.0
  Ca2+  2.0
  Nb5+  5.0
  O2-  -2.0
loop_
 _atom_site_type_symbol
 _atom_site_label
 _atom_site_symmetry_multiplicity
 _atom_site_fract_x
 _atom_site_fract_y
 _atom_site_fract_z
 _atom_site_occupancy
  Sr2+  Sr0  1  0.11738868  0.12077669  0.13256434  1
  Sr2+  Sr1  1  0.11780264  0.13591403  0.63234868  1
  Sr2+  Sr2  1  0.11947696  0.61027745  0.12052747  1
  Sr2+  Sr3  1  0.12050109  0.61899179  0.62331250  1
  Sr2+  Sr4  1  0.61813018  0.11541108  0.11898268  1
  Sr2+  Sr5  1  0.62297691  0.11233292  0.61567222  1
  Sr2+  Sr6  1  0.61756457  0.61404316  0.13350405  1
  Sr2+  Sr7  1  0.61351874  0.61801035  0.62459035  1
  Sr2+  Sr8  1  0.37435757  0.36640031  0.13190613  1
  Sr2+  Sr9  1  0.36473330  0.36847940  0.62293988  1
  Sr2+  Sr10  1  0.36758589  0.87093380  0.12618804  1
  Sr2+  Sr11  1  0.36937525  0.86840502  0.62707902  1
  Sr2+  Sr12  1  0.86908909  0.36627270  0.12469448  1
  Sr2+  Sr13  1  0.87350397  0.36296237  0.61878329  1
  Sr2+  Sr14  1  0.86417028  0.86732924  0.12766008  1
  Sr2+  Sr15  1  0.86554693  0.87056998  0.63112647  1
  Sr2+  Sr16  1  0.12719290  0.38271663  0.36433257  1
  Sr2+  Sr17  1  0.13448080  0.38400573  0.87269446  1
  Sr2+  Sr18  1  0.13902364  0.87575860  0.38238956  1
  Sr2+  Sr19  1  0.13169464  0.88144934  0.87595400  1
  Sr2+  Sr20  1  0.63095637  0.38063974  0.37511587  1
  Sr2+  Sr21  1  0.62419419  0.37844390  0.88301684  1
  Sr2+  Sr22  1  0.63839013  0.88618774  0.37290010  1
  Sr2+  Sr23  1  0.62693277  0.88106094  0.87124722  1
  Sr2+  Sr24  1  0.39034679  0.12807806  0.37198703  1
  Sr2+  Sr25  1  0.38770694  0.13160255  0.87443451  1
  Sr2+  Sr26  1  0.38809023  0.63488146  0.37327429  1
  Sr2+  Sr27  1  0.39137923  0.63094221  0.87805568  1
  Sr2+  Sr28  1  0.87964318  0.13482629  0.36996594  1
  Sr2+  Sr29  1  0.87375924  0.13007045  0.87410085  1
  Sr2+  Sr30  1  0.87864166  0.63219114  0.36968418  1
  Sr2+  Sr31  1  0.88072815  0.63259357  0.87911313  1
  Sr2+  Sr32  1  0.13400340  0.13841805  0.37017213  1
  Sr2+  Sr33  1  0.13431656  0.14002994  0.87915618  1
  Sr2+  Sr34  1  0.12511766  0.64005114  0.37606032  1
  Sr2+  Sr35  1  0.12998989  0.63408296  0.87496241  1
  Sr2+  Sr36  1  0.63032199  0.13633302  0.37236543  1
  Sr2+  Sr37  1  0.63227770  0.14222651  0.87132766  1
  Sr2+  Sr38  1  0.63205001  0.62214060  0.36915063  1
  Sr2+  Sr39  1  0.62900414  0.62873676  0.87359815  1
  Sr2+  Sr40  1  0.39187630  0.38956796  0.37570836  1
  Sr2+  Sr41  1  0.38411647  0.38564710  0.87642938  1
  Sr2+  Sr42  1  0.37945154  0.88705864  0.37151461  1
  Sr2+  Sr43  1  0.38033555  0.88027623  0.87739144  1
  Sr2+  Sr44  1  0.87822429  0.39032128  0.37235568  1
  Sr2+  Sr45  1  0.87419567  0.38616847  0.87606591  1
  Sr2+  Sr46  1  0.87795281  0.87144914  0.36802336  1
  Sr2+  Sr47  1  0.88405313  0.88567066  0.87471694  1
  Sr2+  Sr48  1  0.11572390  0.36507907  0.12599585  1
  Sr2+  Sr49  1  0.11602170  0.37385045  0.62289530  1
  Sr2+  Sr50  1  0.11341821  0.87873445  0.12339604  1
  Sr2+  Sr51  1  0.11804799  0.86595323  0.62448521  1
  Sr2+  Sr52  1  0.60846146  0.36424254  0.12866633  1
  Sr2+  Sr53  1  0.61548640  0.36056602  0.62194449  1
  Sr2+  Sr54  1  0.62196019  0.86131575  0.12756167  1
  Sr2+  Sr55  1  0.61125341  0.86988942  0.62265907  1
  Sr2+  Sr56  1  0.36352446  0.11771656  0.13391405  1
  Sr2+  Sr57  1  0.36558860  0.11928663  0.63178980  1
  Sr2+  Sr58  1  0.37040246  0.62110579  0.13470072  1
  Sr2+  Sr59  1  0.36286256  0.62216083  0.62298669  1
  Sr2+  Sr60  1  0.87180357  0.11877796  0.12118843  1
  Sr2+  Sr61  1  0.86933775  0.12088253  0.61368135  1
  Sr2+  Sr62  1  0.85877143  0.62261576  0.12322879  1
  Sr2+  Sr63  1  0.86229094  0.61642809  0.62680965  1
  Ca2+  Ca64  1  0.49882846  0.50161815  0.50357281  1
  Ca2+  Ca65  1  0.00091122  -0.00125901  0.49851223  1
  Ca2+  Ca66  1  0.49975317  -0.00168661  0.49922305  1
  Ca2+  Ca67  1  0.49893993  0.50091106  0.00275042  1
  Ca2+  Ca68  1  0.49730051  -0.00153559  0.00101792  1
  Ca2+  Ca69  1  0.74979448  0.75045818  0.50202712  1
  Ca2+  Ca70  1  0.24942065  0.25068887  0.49776566  1
  Ca2+  Ca71  1  0.25046956  0.74768094  -0.00234821  1
  Ca2+  Ca72  1  0.74719107  0.74892008  -0.00441837  1
  Ca2+  Ca73  1  0.24885101  0.24998757  0.00096905  1
  Ca2+  Ca74  1  -0.00550496  0.25000113  0.75291239  1
  Ca2+  Ca75  1  0.50114491  0.75442394  0.25343253  1
  Ca2+  Ca76  1  -0.00351578  0.24845974  0.24984402  1
  Ca2+  Ca77  1  0.50187091  0.24807212  0.25325044  1
  Ca2+  Ca78  1  0.75195523  0.49595960  0.74755711  1
  Ca2+  Ca79  1  0.75169079  0.49596296  0.24790779  1
  Ca2+  Ca80  1  0.75066910  0.00324742  0.75016125  1
  Ca2+  Ca81  1  0.24955363  0.50227210  0.25173827  1
  Ca2+  Ca82  1  0.00313871  0.74911393  0.24615129  1
  Ca2+  Ca83  1  0.75180841  0.00408972  0.24848137  1
  Ca2+  Ca84  1  0.50213268  0.25116715  0.74916407  1
  Nb5+  Nb85  1  0.00164137  0.50290623  0.49366360  1
  Nb5+  Nb86  1  0.00096891  0.50319441  -0.00779267  1
  Nb5+  Nb87  1  0.00202940  0.00810948  -0.00380458  1
  Nb5+  Nb88  1  0.75141624  0.25084427  0.49264351  1
  Nb5+  Nb89  1  0.25340182  0.74820066  0.49916683  1
  Nb5+  Nb90  1  0.75071083  0.24968020  -0.00314520  1
  Nb5+  Nb91  1  0.49301241  0.74892965  0.74868833  1
  Nb5+  Nb92  1  -0.00568330  0.74861202  0.74847882  1
  Nb5+  Nb93  1  0.25008802  0.50771246  0.75043315  1
  Nb5+  Nb94  1  0.24617183  0.00155508  0.25854264  1
  Nb5+  Nb95  1  0.24665612  0.00415231  0.75529227  1
  Nb5+  Nb96  1  0.00077599  -0.00448275  0.25571684  1
  Nb5+  Nb97  1  0.00384810  0.00414595  0.75070106  1
  Nb5+  Nb98  1  -0.00130616  0.50234023  0.23712714  1
  Nb5+  Nb99  1  -0.00141210  0.50267197  0.74419148  1
  Nb5+  Nb100  1  0.50564772  -0.00363047  0.24760581  1
  Nb5+  Nb101  1  0.50301427  0.00041610  0.75117079  1
  Nb5+  Nb102  1  0.50026225  0.50116661  0.25135875  1
  Nb5+  Nb103  1  0.50184380  0.49650577  0.74557992  1
  Nb5+  Nb104  1  0.25427476  0.25628894  0.25545349  1
  Nb5+  Nb105  1  0.25058558  0.25962280  0.75246014  1
  Nb5+  Nb106  1  0.24490817  0.75121560  0.24139711  1
  Nb5+  Nb107  1  0.24742675  0.75358890  0.75069998  1
  Nb5+  Nb108  1  0.74809742  0.25031115  0.24032538  1
  Nb5+  Nb109  1  0.75009612  0.25064907  0.74000550  1
  Nb5+  Nb110  1  0.75048804  0.75047137  0.25045440  1
  Nb5+  Nb111  1  0.73911867  0.75096148  0.74960039  1
  Nb5+  Nb112  1  0.00321597  0.25040105  0.49502708  1
  Nb5+  Nb113  1  -0.00280390  0.25837234  0.99699618  1
  Nb5+  Nb114  1  -0.00359834  0.74954224  0.50454613  1
  Nb5+  Nb115  1  0.00282662  0.75523498  1.00144321  1
  Nb5+  Nb116  1  0.49433716  0.24672664  0.50544093  1
  Nb5+  Nb117  1  0.49405951  0.24478400  1.00331876  1
  Nb5+  Nb118  1  0.50367592  0.75505490  0.49662012  1
  Nb5+  Nb119  1  0.50074906  0.74846592  1.00550315  1
  Nb5+  Nb120  1  0.24910831  0.00113316  0.00481237  1
  Nb5+  Nb121  1  0.24654520  0.00212486  0.50973866  1
  Nb5+  Nb122  1  0.25364695  0.49868828  0.00046122  1
  Nb5+  Nb123  1  0.24761891  0.50261121  0.49548860  1
  Nb5+  Nb124  1  0.74799188  -0.00456539  -0.00038143  1
  Nb5+  Nb125  1  0.75636254  -0.00289078  0.49809504  1
  Nb5+  Nb126  1  0.74445687  0.49657020  0.00391828  1
  Nb5+  Nb127  1  0.74562562  0.49879047  0.50556656  1
  O2-  O128  1  -0.00422894  0.02019074  0.11360393  1
  O2-  O129  1  -0.00421479  0.02081163  0.63645291  1
  O2-  O130  1  -0.01565094  0.51989325  0.12131876  1
  O2-  O131  1  -0.00982541  0.52301569  0.63013224  1
  O2-  O132  1  0.48086085  0.02645740  0.13415924  1
  O2-  O133  1  0.47505441  0.01578510  0.63768009  1
  O2-  O134  1  0.47965430  0.52339907  0.13408117  1
  O2-  O135  1  0.47849563  0.53221960  0.63629622  1
  O2-  O136  1  0.01312793  -0.03831275  0.36420064  1
  O2-  O137  1  0.01709486  -0.02280308  0.87586491  1
  O2-  O138  1  0.01851844  0.48767838  0.38114466  1
  O2-  O139  1  0.01738299  0.48535035  0.87685452  1
  O2-  O140  1  0.50892158  -0.03142272  0.36575100  1
  O2-  O141  1  0.50191401  -0.03100972  0.86535352  1
  O2-  O142  1  0.52111826  0.48402864  0.37063560  1
  O2-  O143  1  0.50965862  0.48454995  0.86377688  1
  O2-  O144  1  0.23727922  0.27365556  0.13635423  1
  O2-  O145  1  0.22498004  0.26412537  0.63534305  1
  O2-  O146  1  0.23344682  0.78265934  0.13211021  1
  O2-  O147  1  0.24050796  0.76399810  0.62849360  1
  O2-  O148  1  0.73758408  0.27140031  0.12565969  1
  O2-  O149  1  0.74162013  0.26915083  0.62521773  1
  O2-  O150  1  0.73956242  0.76809749  0.12993584  1
  O2-  O151  1  0.73971179  0.78378521  0.63530569  1
  O2-  O152  1  0.26496789  0.21440861  0.36723583  1
  O2-  O153  1  0.26728869  0.22292556  0.86377927  1
  O2-  O154  1  0.26121795  0.72778893  0.38487124  1
  O2-  O155  1  0.26963422  0.72777085  0.86051571  1
  O2-  O156  1  0.76309757  0.23242766  0.37948019  1
  O2-  O157  1  0.76287911  0.23470619  0.88213965  1
  O2-  O158  1  0.77136398  0.73677385  0.36874085  1
  O2-  O159  1  0.75887662  0.71566236  0.86183408  1
  O2-  O160  1  0.01625675  0.23525966  0.11212665  1
  O2-  O161  1  0.01429705  0.24804837  0.61516403  1
  O2-  O162  1  0.03428082  0.73796526  0.11005616  1
  O2-  O163  1  0.02493787  0.73630123  0.63145234  1
  O2-  O164  1  0.52657553  0.23476629  0.11732400  1
  O2-  O165  1  0.53368200  0.23306065  0.61805211  1
  O2-  O166  1  0.52609889  0.73786547  0.11702986  1
  O2-  O167  1  0.51855771  0.73582847  0.63082679  1
  O2-  O168  1  0.22416663  0.01023042  0.37214993  1
  O2-  O169  1  0.22601014  0.01315353  0.86827322  1
  O2-  O170  1  0.21517514  0.51673257  0.38695284  1
  O2-  O171  1  0.22343347  0.51249625  0.86577933  1
  O2-  O172  1  0.72518016  0.01717476  0.38474333  1
  O2-  O173  1  0.73704934  0.02865125  0.88725149  1
  O2-  O174  1  0.73715079  0.50384563  0.38724928  1
  O2-  O175  1  0.73295807  0.49983405  0.88480332  1
  O2-  O176  1  -0.03061346  0.26968516  0.38443365  1
  O2-  O177  1  -0.03801045  0.25875486  0.88535975  1
  O2-  O178  1  -0.01588965  0.75588557  0.38937450  1
  O2-  O179  1  -0.02056581  0.75834804  0.86673498  1
  O2-  O180  1  0.48464641  0.26900046  0.38955170  1
  O2-  O181  1  0.48727608  0.26928240  0.88536106  1
  O2-  O182  1  0.47057718  0.76618586  0.38793565  1
  O2-  O183  1  0.47798617  0.76198497  0.86572764  1
  O2-  O184  1  0.26226845  -0.01486743  0.12009330  1
  O2-  O185  1  0.26666418  -0.01511689  0.62454075  1
  O2-  O186  1  0.27277977  0.48454133  0.11310015  1
  O2-  O187  1  0.26335945  0.48875259  0.63133099  1
  O2-  O188  1  0.78301581  -0.00385712  0.11211786  1
  O2-  O189  1  0.78153056  -0.00289345  0.61733943  1
  O2-  O190  1  0.78522040  0.48787673  0.11439200  1
  O2-  O191  1  0.78808995  0.48402177  0.61453709  1
  O2-  O192  1  0.13374687  0.26295428  0.27013146  1
  O2-  O193  1  0.13225859  0.26248949  0.77414315  1
  O2-  O194  1  0.13560044  0.76764230  0.28179813  1
  O2-  O195  1  0.13066116  0.76316707  0.76446513  1
  O2-  O196  1  0.63568838  0.27727330  0.27080786  1
  O2-  O197  1  0.63786177  0.28320140  0.77012628  1
  O2-  O198  1  0.63484785  0.77911848  0.26868656  1
  O2-  O199  1  0.62266675  0.76600080  0.76570461  1
  O2-  O200  1  0.36706826  0.22732469  0.23195137  1
  O2-  O201  1  0.36444654  0.23437071  0.72675502  1
  O2-  O202  1  0.36192339  0.73404791  0.24233720  1
  O2-  O203  1  0.37531247  0.73426165  0.72917568  1
  O2-  O204  1  0.86315980  0.21458512  0.23632985  1
  O2-  O205  1  0.86279301  0.20827771  0.73836941  1
  O2-  O206  1  0.87100067  0.72676794  0.23080111  1
  O2-  O207  1  0.88141952  0.73393980  0.72979485  1
  O2-  O208  1  0.27306807  0.36719043  0.28151734  1
  O2-  O209  1  0.26524258  0.37660035  0.76598119  1
  O2-  O210  1  0.26450068  0.87909359  0.26853623  1
  O2-  O211  1  0.26538332  0.87087972  0.76217180  1
  O2-  O212  1  0.78215047  0.36253907  0.26371427  1
  O2-  O213  1  0.78958715  0.36218281  0.75932575  1
  O2-  O214  1  0.77914730  0.86983627  0.26059497  1
  O2-  O215  1  0.76929411  0.86407448  0.77801116  1
  O2-  O216  1  0.23059974  0.11654645  0.23086513  1
  O2-  O217  1  0.23305240  0.11658022  0.72994702  1
  O2-  O218  1  0.22816388  0.63674717  0.22286356  1
  O2-  O219  1  0.23477403  0.62455496  0.73150352  1
  O2-  O220  1  0.71462487  0.13539747  0.23540956  1
  O2-  O221  1  0.71154497  0.13647881  0.73784512  1
  O2-  O222  1  0.72573874  0.63237941  0.23837586  1
  O2-  O223  1  0.73426057  0.63499688  0.71823207  1
  O2-  O224  1  0.11646528  0.47295207  0.22996350  1
  O2-  O225  1  0.12495873  0.48791779  0.73524246  1
  O2-  O226  1  0.12878229  0.98044462  0.23015693  1
  O2-  O227  1  0.13028573  0.97201723  0.73629230  1
  O2-  O228  1  0.61713396  0.48110405  0.22655054  1
  O2-  O229  1  0.61478450  0.48410273  0.72548787  1
  O2-  O230  1  0.61681319  0.97545753  0.22700998  1
  O2-  O231  1  0.61434824  0.97646686  0.73344858  1
  O2-  O232  1  0.36327622  0.01767094  0.26541647  1
  O2-  O233  1  0.36472865  0.00893050  0.76767071  1
  O2-  O234  1  0.38148025  0.52288658  0.27659625  1
  O2-  O235  1  0.36593584  0.51884613  0.76935600  1
  O2-  O236  1  0.88854121  0.02095477  0.26380697  1
  O2-  O237  1  0.89045599  0.00898895  0.77223700  1
  O2-  O238  1  0.88777584  0.52181892  0.27169647  1
  O2-  O239  1  0.88865366  0.52696560  0.77090339  1
  O2-  O240  1  0.47520468  0.38329449  0.23766016  1
  O2-  O241  1  0.47077358  0.38659037  0.72960436  1
  O2-  O242  1  0.46808647  0.88466512  0.22859503  1
  O2-  O243  1  0.48269740  0.86809847  0.73218642  1
  O2-  O244  1  0.97843964  0.38395936  0.23423757  1
  O2-  O245  1  0.98545021  0.38839712  0.73619095  1
  O2-  O246  1  0.98688774  0.88434648  0.21436318  1
  O2-  O247  1  0.99219687  0.86906106  0.73544278  1
  O2-  O248  1  0.02920799  0.11110049  0.26440266  1
  O2-  O249  1  0.03212239  0.11355217  0.77023918  1
  O2-  O250  1  0.03034121  0.61425300  0.26107950  1
  O2-  O251  1  0.02307515  0.62932848  0.76449168  1
  O2-  O252  1  0.51219196  0.11230568  0.27813859  1
  O2-  O253  1  0.50983623  0.11354777  0.77568422  1
  O2-  O254  1  0.52243208  0.62062707  0.26807618  1
  O2-  O255  1  0.51450756  0.62947126  0.76812153  1
  O2-  O256  1  0.11651326  0.47663719  0.01819359  1
  O2-  O257  1  0.12415917  0.49018666  0.52629648  1
  O2-  O258  1  0.11955169  0.97604571  0.00710044  1
  O2-  O259  1  0.13563700  0.96388293  0.50865629  1
  O2-  O260  1  0.63449643  0.46991961  0.02297195  1
  O2-  O261  1  0.63561773  0.47562610  0.52710353  1
  O2-  O262  1  0.63591964  0.97902416  0.02231553  1
  O2-  O263  1  0.63856055  0.98414669  0.52628535  1
  O2-  O264  1  0.35919276  0.02643359  -0.01880048  1
  O2-  O265  1  0.35856585  0.01346221  0.47549018  1
  O2-  O266  1  0.36304959  0.51728122  -0.02831700  1
  O2-  O267  1  0.36107668  0.52834467  0.48379884  1
  O2-  O268  1  0.88501659  0.01314017  -0.02191365  1
  O2-  O269  1  0.86952945  0.03361787  0.47913945  1
  O2-  O270  1  0.88273476  0.51262586  -0.02166953  1
  O2-  O271  1  0.88607022  0.52311388  0.48266075  1
  O2-  O272  1  0.47961461  0.36476503  0.02119378  1
  O2-  O273  1  0.48204510  0.36663225  0.52725389  1
  O2-  O274  1  0.46450765  0.86344800  0.01039831  1
  O2-  O275  1  0.47782909  0.86561947  0.53064463  1
  O2-  O276  1  0.98074698  0.37517716  0.01399086  1
  O2-  O277  1  0.98710522  0.38735693  0.51846120  1
  O2-  O278  1  0.98343869  0.87070322  0.01060335  1
  O2-  O279  1  0.98427087  0.86232708  0.52811859  1
  O2-  O280  1  0.01430965  0.12271119  -0.02177538  1
  O2-  O281  1  0.02263559  0.13702530  0.48225972  1
  O2-  O282  1  0.01916540  0.61864672  -0.01656089  1
  O2-  O283  1  0.02609678  0.62393091  0.49484135  1
  O2-  O284  1  0.52747391  0.13242270  -0.02190857  1
  O2-  O285  1  0.52398669  0.13307672  0.48144309  1
  O2-  O286  1  0.52362964  0.63403419  -0.02425288  1
  O2-  O287  1  0.52333803  0.63784425  0.48976152  1
  O2-  O288  1  0.11041846  0.26875200  -0.02649057  1
  O2-  O289  1  0.11465323  0.27973590  0.47658800  1
  O2-  O290  1  0.11415578  0.76000189  -0.03727474  1
  O2-  O291  1  0.12900064  0.76285200  0.49298644  1
  O2-  O292  1  0.63405348  0.26942906  -0.01204365  1
  O2-  O293  1  0.63515239  0.27393395  0.48655201  1
  O2-  O294  1  0.61308044  0.77983993  -0.02394945  1
  O2-  O295  1  0.61560062  0.78215109  0.48487263  1
  O2-  O296  1  0.38248139  0.21845341  0.01799989  1
  O2-  O297  1  0.38248058  0.22507821  0.52677373  1
  O2-  O298  1  0.38295156  0.71653863  0.01667210  1
  O2-  O299  1  0.37005762  0.73073945  0.52057041  1
  O2-  O300  1  0.87245420  0.23496348  0.02305731  1
  O2-  O301  1  0.87439867  0.23922602  0.51815227  1
  O2-  O302  1  0.88882173  0.72396606  0.00877963  1
  O2-  O303  1  0.88683552  0.72288150  0.52532060  1
  O2-  O304  1  0.25657540  0.38439861  -0.03159113  1
  O2-  O305  1  0.26960252  0.38833545  0.49020978  1
  O2-  O306  1  0.25913381  0.88596728  -0.02562318  1
  O2-  O307  1  0.26908055  0.86670635  0.48901562  1
  O2-  O308  1  0.77484986  0.37004693  -0.01006178  1
  O2-  O309  1  0.77510957  0.37234279  0.48789595  1
  O2-  O310  1  0.77337321  0.88488256  -0.02167856  1
  O2-  O311  1  0.78174002  0.88529170  0.48260494  1
  O2-  O312  1  0.21349287  0.11388712  0.01228413  1
  O2-  O313  1  0.22091575  0.11329922  0.52161850  1
  O2-  O314  1  0.21784092  0.61147673  0.00664137  1
  O2-  O315  1  0.23222680  0.62767528  0.52340745  1
  O2-  O316  1  0.73903584  0.13171802  0.02023819  1
  O2-  O317  1  0.73632585  0.13543092  0.51800172  1
  O2-  O318  1  0.73136582  0.61192014  0.01655879  1
  O2-  O319  1  0.73191512  0.61419856  0.51868708  1
