# generated using pymatgen
data_Sr64Ca21Nb43O192
_symmetry_space_group_name_H-M   'P 1'
_cell_length_a   16.56513454
_cell_length_b   16.56613432
_cell_length_c   16.69009689
_cell_angle_alpha   90.02559988
_cell_angle_beta   89.90426680
_cell_angle_gamma   90.00601047
_symmetry_Int_Tables_number   1
_chemical_formula_structural   Sr64Ca21Nb43O192
_chemical_formula_sum   'Sr64 Ca21 Nb43 O192'
_cell_volume   4580.09358272
_cell_formula_units_Z   1
loop_
 _symmetry_equiv_pos_site_id
 _symmetry_equiv_pos_as_xyz
  1  'x, y, z'
loop_
 _atom_type_symbol
 _atom_type_oxidation_number
  Sr2+  2.0
  Ca2+  2.0
  Nb5+  5.0
  O2-  -2.0
loop_
 _atom_site_type_symbol
 _atom_site_label
 _atom_site_symmetry_multiplicity
 _atom_site_fract_x
 _atom_site_fract_y
 _atom_site_fract_z
 _atom_site_occupancy
  Sr2+  Sr0  1  0.13547510  0.12774511  0.11755420  1
  Sr2+  Sr1  1  0.13244348  0.13320304  0.63260793  1
  Sr2+  Sr2  1  0.12948531  0.64083990  0.11754149  1
  Sr2+  Sr3  1  0.13026087  0.64180806  0.62498891  1
  Sr2+  Sr4  1  0.62789980  0.13648847  0.12634035  1
  Sr2+  Sr5  1  0.62263733  0.12826857  0.61458153  1
  Sr2+  Sr6  1  0.63267793  0.63301163  0.12986535  1
  Sr2+  Sr7  1  0.63225578  0.63722670  0.62695055  1
  Sr2+  Sr8  1  0.38483888  0.38103702  0.12721261  1
  Sr2+  Sr9  1  0.38146128  0.38594465  0.62639864  1
  Sr2+  Sr10  1  0.37960750  0.86709394  0.12379149  1
  Sr2+  Sr11  1  0.38769152  0.88719438  0.62401473  1
  Sr2+  Sr12  1  0.87633622  0.38692702  0.12046012  1
  Sr2+  Sr13  1  0.88395353  0.38452391  0.62486848  1
  Sr2+  Sr14  1  0.88435341  0.88444417  0.12741327  1
  Sr2+  Sr15  1  0.87730906  0.88023662  0.61946057  1
  Sr2+  Sr16  1  0.11886454  0.36727202  0.37296805  1
  Sr2+  Sr17  1  0.11187224  0.37095411  0.87720276  1
  Sr2+  Sr18  1  0.10719290  0.86970385  0.36920271  1
  Sr2+  Sr19  1  0.11514096  0.86489667  0.87248547  1
  Sr2+  Sr20  1  0.61445163  0.36761791  0.37706096  1
  Sr2+  Sr21  1  0.62679314  0.36296846  0.87045867  1
  Sr2+  Sr22  1  0.63246268  0.87039698  0.37420181  1
  Sr2+  Sr23  1  0.62291813  0.87432236  0.88555541  1
  Sr2+  Sr24  1  0.36914314  0.12276000  0.37432284  1
  Sr2+  Sr25  1  0.36313465  0.11638302  0.87585889  1
  Sr2+  Sr26  1  0.37051996  0.61571746  0.37048411  1
  Sr2+  Sr27  1  0.36135145  0.61995389  0.86927254  1
  Sr2+  Sr28  1  0.86201681  0.11269705  0.36890276  1
  Sr2+  Sr29  1  0.86325693  0.12139783  0.87364888  1
  Sr2+  Sr30  1  0.86694407  0.62419879  0.38918180  1
  Sr2+  Sr31  1  0.86467282  0.61181634  0.87110417  1
  Sr2+  Sr32  1  0.12578182  0.10999590  0.37112094  1
  Sr2+  Sr33  1  0.11191899  0.11577708  0.87262595  1
  Sr2+  Sr34  1  0.11199197  0.61866793  0.37162266  1
  Sr2+  Sr35  1  0.11705015  0.61365704  0.87647466  1
  Sr2+  Sr36  1  0.61296148  0.11724466  0.37174873  1
  Sr2+  Sr37  1  0.62568826  0.11624878  0.88090133  1
  Sr2+  Sr38  1  0.62732114  0.62846739  0.38275366  1
  Sr2+  Sr39  1  0.61917406  0.62866746  0.86392858  1
  Sr2+  Sr40  1  0.37355358  0.36812316  0.37291371  1
  Sr2+  Sr41  1  0.37568104  0.37691228  0.86323040  1
  Sr2+  Sr42  1  0.36823061  0.86235824  0.37356470  1
  Sr2+  Sr43  1  0.37701673  0.85506183  0.87734190  1
  Sr2+  Sr44  1  0.87167632  0.37169711  0.37925046  1
  Sr2+  Sr45  1  0.87113208  0.36142143  0.87475691  1
  Sr2+  Sr46  1  0.87007130  0.85764026  0.37193323  1
  Sr2+  Sr47  1  0.85879411  0.86690114  0.87048899  1
  Sr2+  Sr48  1  0.13354293  0.38375308  0.12410972  1
  Sr2+  Sr49  1  0.13545533  0.37351577  0.62115381  1
  Sr2+  Sr50  1  0.13780916  0.87807775  0.12581676  1
  Sr2+  Sr51  1  0.13035917  0.88557921  0.63053029  1
  Sr2+  Sr52  1  0.63596199  0.38018088  0.12598866  1
  Sr2+  Sr53  1  0.62377616  0.38391779  0.61789652  1
  Sr2+  Sr54  1  0.63282439  0.88414596  0.12808157  1
  Sr2+  Sr55  1  0.63001180  0.88084447  0.62518573  1
  Sr2+  Sr56  1  0.38263232  0.12844073  0.12221021  1
  Sr2+  Sr57  1  0.37278979  0.13043995  0.61873100  1
  Sr2+  Sr58  1  0.37919963  0.62970795  0.12895883  1
  Sr2+  Sr59  1  0.38942937  0.62845688  0.63371350  1
  Sr2+  Sr60  1  0.88550538  0.13973455  0.12344167  1
  Sr2+  Sr61  1  0.89653677  0.12756066  0.62907117  1
  Sr2+  Sr62  1  0.88603770  0.62739391  0.11588968  1
  Sr2+  Sr63  1  0.88330428  0.63813122  0.62645835  1
  Ca2+  Ca64  1  0.00067397  0.50025722  0.50393669  1
  Ca2+  Ca65  1  0.49896956  0.50034848  0.49836393  1
  Ca2+  Ca66  1  -0.00047560  0.00017964  -0.00009860  1
  Ca2+  Ca67  1  0.49823065  0.49745353  -0.00264077  1
  Ca2+  Ca68  1  0.00132020  0.00269585  0.49905788  1
  Ca2+  Ca69  1  0.25364155  0.25328464  -0.00031281  1
  Ca2+  Ca70  1  0.75207706  0.24688883  0.49812215  1
  Ca2+  Ca71  1  0.74990637  0.74761847  0.00030534  1
  Ca2+  Ca72  1  0.25164137  0.75004583  0.50042951  1
  Ca2+  Ca73  1  0.24898890  0.75012548  -0.00187310  1
  Ca2+  Ca74  1  0.50077165  0.75648144  0.74830526  1
  Ca2+  Ca75  1  0.74617083  0.00118452  0.74698081  1
  Ca2+  Ca76  1  0.75042217  0.49659091  0.74742081  1
  Ca2+  Ca77  1  0.50256072  0.75219961  0.25076885  1
  Ca2+  Ca78  1  0.74844045  -0.00041207  0.24824600  1
  Ca2+  Ca79  1  0.00400712  0.25006409  0.24846680  1
  Ca2+  Ca80  1  0.50229725  0.24460480  0.74851844  1
  Ca2+  Ca81  1  0.25336768  0.00189835  0.74973188  1
  Ca2+  Ca82  1  0.75084162  0.50112053  0.25259807  1
  Ca2+  Ca83  1  -0.00230080  0.74750461  0.24802998  1
  Ca2+  Ca84  1  -0.00106067  0.74680586  0.75282190  1
  Nb5+  Nb85  1  -0.00044360  0.49847665  0.00193352  1
  Nb5+  Nb86  1  0.49879523  -0.00096002  0.49928138  1
  Nb5+  Nb87  1  0.49877562  0.00056336  0.00627845  1
  Nb5+  Nb88  1  0.24985286  0.25126271  0.49889193  1
  Nb5+  Nb89  1  0.74999946  0.24951576  0.00177286  1
  Nb5+  Nb90  1  0.74889775  0.75097732  0.50288278  1
  Nb5+  Nb91  1  0.25370740  -0.00389675  0.24776182  1
  Nb5+  Nb92  1  0.24983695  0.49756900  0.24629658  1
  Nb5+  Nb93  1  0.24355102  0.50267915  0.74134598  1
  Nb5+  Nb94  1  0.00068849  0.25104136  0.74989672  1
  Nb5+  Nb95  1  0.50035518  0.25097834  0.24821337  1
  Nb5+  Nb96  1  -0.00319801  0.00547381  0.24592123  1
  Nb5+  Nb97  1  -0.00360914  -0.00637611  0.75527258  1
  Nb5+  Nb98  1  -0.00483972  0.50206730  0.25242721  1
  Nb5+  Nb99  1  0.00246342  0.49763171  0.74781243  1
  Nb5+  Nb100  1  0.49459132  -0.00091334  0.25359023  1
  Nb5+  Nb101  1  0.50015754  0.00436819  0.76041664  1
  Nb5+  Nb102  1  0.50551886  0.50003507  0.25145884  1
  Nb5+  Nb103  1  0.50447833  0.49735891  0.75308379  1
  Nb5+  Nb104  1  0.25164128  0.24682958  0.24951846  1
  Nb5+  Nb105  1  0.24960825  0.25382377  0.75683223  1
  Nb5+  Nb106  1  0.24830909  0.74179582  0.25552455  1
  Nb5+  Nb107  1  0.25275855  0.75803973  0.74379720  1
  Nb5+  Nb108  1  0.75410786  0.25137886  0.25278480  1
  Nb5+  Nb109  1  0.75103129  0.24653318  0.74048085  1
  Nb5+  Nb110  1  0.75250256  0.74553610  0.24439283  1
  Nb5+  Nb111  1  0.74897450  0.75114258  0.75127285  1
  Nb5+  Nb112  1  0.00000184  0.24409794  0.49125303  1
  Nb5+  Nb113  1  0.00377428  0.25248143  1.00372087  1
  Nb5+  Nb114  1  0.00585543  0.75573499  0.50406380  1
  Nb5+  Nb115  1  -0.00583399  0.75606080  0.99669930  1
  Nb5+  Nb116  1  0.49698913  0.24985313  0.50058755  1
  Nb5+  Nb117  1  0.49924549  0.24806317  0.99500144  1
  Nb5+  Nb118  1  0.49834035  0.74701836  0.49673206  1
  Nb5+  Nb119  1  0.50525143  0.74113175  1.00064569  1
  Nb5+  Nb120  1  0.25081762  -0.00422388  -0.00798026  1
  Nb5+  Nb121  1  0.25196114  -0.00146331  0.49708886  1
  Nb5+  Nb122  1  0.25157804  0.49938619  -0.00514320  1
  Nb5+  Nb123  1  0.24779553  0.50196223  0.49199898  1
  Nb5+  Nb124  1  0.75377031  0.00085378  0.00690980  1
  Nb5+  Nb125  1  0.75153195  0.00285443  0.49864519  1
  Nb5+  Nb126  1  0.74162063  0.49865499  -0.00583666  1
  Nb5+  Nb127  1  0.75081591  0.49543606  0.50396786  1
  O2-  O128  1  0.02056309  -0.02737991  0.13312290  1
  O2-  O129  1  0.01512427  -0.01739321  0.63691058  1
  O2-  O130  1  0.01239855  0.47199150  0.12083956  1
  O2-  O131  1  0.01817020  0.46613990  0.63876352  1
  O2-  O132  1  0.50614594  -0.00619780  0.12473441  1
  O2-  O133  1  0.51024319  -0.00670510  0.61506922  1
  O2-  O134  1  0.50591835  0.47598365  0.13532332  1
  O2-  O135  1  0.50715227  0.48173435  0.63367409  1
  O2-  O136  1  -0.00682560  0.03373912  0.36367495  1
  O2-  O137  1  -0.01456712  0.03275372  0.86767976  1
  O2-  O138  1  -0.01410695  0.52750752  0.36587458  1
  O2-  O139  1  -0.00743662  0.51360106  0.87984350  1
  O2-  O140  1  0.48089012  0.01619115  0.36971354  1
  O2-  O141  1  0.48875294  0.02130178  0.87677574  1
  O2-  O142  1  0.47068570  0.50176840  0.36423965  1
  O2-  O143  1  0.46522276  0.50949792  0.86472206  1
  O2-  O144  1  0.26846562  0.23271699  0.13633053  1
  O2-  O145  1  0.25666400  0.23330285  0.62047057  1
  O2-  O146  1  0.27134251  0.73472471  0.13771116  1
  O2-  O147  1  0.26571638  0.71280129  0.63317620  1
  O2-  O148  1  0.75802421  0.22628336  0.12341390  1
  O2-  O149  1  0.77016138  0.21592846  0.63219701  1
  O2-  O150  1  0.76536994  0.71740580  0.13291117  1
  O2-  O151  1  0.76614603  0.73380005  0.62093411  1
  O2-  O152  1  0.24426418  0.27201721  0.37638453  1
  O2-  O153  1  0.24027242  0.28568442  0.86683570  1
  O2-  O154  1  0.23105823  0.78022617  0.36602029  1
  O2-  O155  1  0.23697619  0.77560570  0.86228376  1
  O2-  O156  1  0.74045566  0.28355582  0.36389747  1
  O2-  O157  1  0.73926293  0.26663256  0.88391189  1
  O2-  O158  1  0.73516367  0.76259537  0.38292528  1
  O2-  O159  1  0.73084406  0.77137698  0.86555102  1
  O2-  O160  1  -0.02605167  0.27059257  0.11521328  1
  O2-  O161  1  -0.01524316  0.26840509  0.63409116  1
  O2-  O162  1  -0.03291505  0.75766017  0.11465330  1
  O2-  O163  1  -0.02661664  0.76665945  0.61872200  1
  O2-  O164  1  0.48307973  0.25469064  0.12850445  1
  O2-  O165  1  0.47449797  0.24970955  0.61366561  1
  O2-  O166  1  0.47318281  0.75083905  0.11580371  1
  O2-  O167  1  0.47748303  0.76685369  0.61145733  1
  O2-  O168  1  0.27550247  -0.00330854  0.37041314  1
  O2-  O169  1  0.28212616  -0.02057346  0.88305457  1
  O2-  O170  1  0.27270768  0.48673484  0.37837268  1
  O2-  O171  1  0.26516336  0.48243506  0.88052763  1
  O2-  O172  1  0.76724341  -0.02530225  0.38342390  1
  O2-  O173  1  0.75985570  -0.01093420  0.88828457  1
  O2-  O174  1  0.78420793  0.49349669  0.38691908  1
  O2-  O175  1  0.77712522  0.47595872  0.88385977  1
  O2-  O176  1  0.03229827  0.23013717  0.38334821  1
  O2-  O177  1  0.01682070  0.23965796  0.87826274  1
  O2-  O178  1  0.01900014  0.73506596  0.38571651  1
  O2-  O179  1  0.02994200  0.73202065  0.88577431  1
  O2-  O180  1  0.51295513  0.23864793  0.37059411  1
  O2-  O181  1  0.53046258  0.23976232  0.88465832  1
  O2-  O182  1  0.53201976  0.75709515  0.38417064  1
  O2-  O183  1  0.52895425  0.75540975  0.88350694  1
  O2-  O184  1  0.23914476  0.01885195  0.13131781  1
  O2-  O185  1  0.23801090  0.02285595  0.61055396  1
  O2-  O186  1  0.22836269  0.51943561  0.13544997  1
  O2-  O187  1  0.21995205  0.51173513  0.62904751  1
  O2-  O188  1  0.71407437  0.01484303  0.11719782  1
  O2-  O189  1  0.71273797  0.01020606  0.61066306  1
  O2-  O190  1  0.73046132  0.51249148  0.11203035  1
  O2-  O191  1  0.71161383  0.50826605  0.61678262  1
  O2-  O192  1  0.14037075  0.27671664  0.23797579  1
  O2-  O193  1  0.12344974  0.27126594  0.73796544  1
  O2-  O194  1  0.13505346  0.76751949  0.22900017  1
  O2-  O195  1  0.13399209  0.76567624  0.72650798  1
  O2-  O196  1  0.61749715  0.26836355  0.23609111  1
  O2-  O197  1  0.63909155  0.27571168  0.72752708  1
  O2-  O198  1  0.63609740  0.77933994  0.23609600  1
  O2-  O199  1  0.63419941  0.76545971  0.72040894  1
  O2-  O200  1  0.37541932  0.23938871  0.26785849  1
  O2-  O201  1  0.36380632  0.23470241  0.76498108  1
  O2-  O202  1  0.36675983  0.73541617  0.27657138  1
  O2-  O203  1  0.36634000  0.72780106  0.76825935  1
  O2-  O204  1  0.86690313  0.22707920  0.26413627  1
  O2-  O205  1  0.88330544  0.23096205  0.76856282  1
  O2-  O206  1  0.86468043  0.72625283  0.27943580  1
  O2-  O207  1  0.86563527  0.72119692  0.76581898  1
  O2-  O208  1  0.27220662  0.38122145  0.23820706  1
  O2-  O209  1  0.26287995  0.37581646  0.72610309  1
  O2-  O210  1  0.27179284  0.88293058  0.23477534  1
  O2-  O211  1  0.26929016  0.86860251  0.71483921  1
  O2-  O212  1  0.76232847  0.36464790  0.21867561  1
  O2-  O213  1  0.78413452  0.36016707  0.73923500  1
  O2-  O214  1  0.77755161  0.86468135  0.23137394  1
  O2-  O215  1  0.77831720  0.86638614  0.73191473  1
  O2-  O216  1  0.23715438  0.13215489  0.26871618  1
  O2-  O217  1  0.22496399  0.13958558  0.77042963  1
  O2-  O218  1  0.23553862  0.62478795  0.27572515  1
  O2-  O219  1  0.23053497  0.61504791  0.77244922  1
  O2-  O220  1  0.72201644  0.13710720  0.26865332  1
  O2-  O221  1  0.73821644  0.13657402  0.78114480  1
  O2-  O222  1  0.71689582  0.63271001  0.26734546  1
  O2-  O223  1  0.72674433  0.63104906  0.76098762  1
  O2-  O224  1  0.13446700  0.48280752  0.27326021  1
  O2-  O225  1  0.12924438  0.47646038  0.77403360  1
  O2-  O226  1  0.13749629  0.98769728  0.26818476  1
  O2-  O227  1  0.11798513  0.98482706  0.77072930  1
  O2-  O228  1  0.61528628  0.47198985  0.26944634  1
  O2-  O229  1  0.61524751  0.48157205  0.77915244  1
  O2-  O230  1  0.60916936  0.98344199  0.26536028  1
  O2-  O231  1  0.61225928  0.96393299  0.76400582  1
  O2-  O232  1  0.37244156  0.03035271  0.23681360  1
  O2-  O233  1  0.38716365  0.03979133  0.73508557  1
  O2-  O234  1  0.36841796  0.52047462  0.23565390  1
  O2-  O235  1  0.36158453  0.51212691  0.73253958  1
  O2-  O236  1  0.88389807  0.02726295  0.22848131  1
  O2-  O237  1  0.88292104  0.02361262  0.73304417  1
  O2-  O238  1  0.88560045  0.51439894  0.22251559  1
  O2-  O239  1  0.88883414  0.51585630  0.73619011  1
  O2-  O240  1  0.47816247  0.36797973  0.26026600  1
  O2-  O241  1  0.47749223  0.37895302  0.75762814  1
  O2-  O242  1  0.46580347  0.88806545  0.25275462  1
  O2-  O243  1  0.46240095  0.89077618  0.75581488  1
  O2-  O244  1  0.99164210  0.38492153  0.27746314  1
  O2-  O245  1  0.98848561  0.37232418  0.77613657  1
  O2-  O246  1  0.98638170  0.88777090  0.27258528  1
  O2-  O247  1  0.97896328  0.88236454  0.77922327  1
  O2-  O248  1  0.03178703  0.11809375  0.22137093  1
  O2-  O249  1  0.02220540  0.13474538  0.73666879  1
  O2-  O250  1  0.03168023  0.61124472  0.22663005  1
  O2-  O251  1  0.03029459  0.60950400  0.73635118  1
  O2-  O252  1  0.51105982  0.12793638  0.23865285  1
  O2-  O253  1  0.54206891  0.11372985  0.73769024  1
  O2-  O254  1  0.51972698  0.61426263  0.23922180  1
  O2-  O255  1  0.51324842  0.61617438  0.73607587  1
  O2-  O256  1  0.12181493  0.47710653  -0.01026282  1
  O2-  O257  1  0.13561183  0.46583093  0.48756399  1
  O2-  O258  1  0.13638562  0.97773904  -0.02025790  1
  O2-  O259  1  0.13923965  0.98389366  0.47420137  1
  O2-  O260  1  0.63222885  0.46533378  -0.02025545  1
  O2-  O261  1  0.63461464  0.48318419  0.47025430  1
  O2-  O262  1  0.61650771  0.98873076  -0.01495170  1
  O2-  O263  1  0.61413334  0.98761639  0.47356199  1
  O2-  O264  1  0.37949201  0.02463764  0.01169692  1
  O2-  O265  1  0.37793348  0.02631650  0.50631238  1
  O2-  O266  1  0.36198130  0.52467851  0.01994423  1
  O2-  O267  1  0.35940956  0.51655239  0.52771995  1
  O2-  O268  1  0.86454334  0.02413526  0.02783657  1
  O2-  O269  1  0.86289884  0.01778235  0.52365440  1
  O2-  O270  1  0.87912265  0.50835140  0.01615451  1
  O2-  O271  1  0.86543102  0.52088671  0.53347639  1
  O2-  O272  1  0.47190750  0.36115855  -0.00883783  1
  O2-  O273  1  0.48148443  0.36397742  0.48367271  1
  O2-  O274  1  0.47923527  0.88514102  -0.00730471  1
  O2-  O275  1  0.47731249  0.88374864  0.48694623  1
  O2-  O276  1  0.98260772  0.37386404  -0.02032021  1
  O2-  O277  1  0.98073983  0.36136964  0.48829041  1
  O2-  O278  1  0.97073523  0.86705386  -0.02383675  1
  O2-  O279  1  0.97940799  0.86998611  0.47825776  1
  O2-  O280  1  0.01607990  0.13679106  0.01858078  1
  O2-  O281  1  0.02140807  0.13671612  0.53510136  1
  O2-  O282  1  0.01619535  0.61358789  0.01913325  1
  O2-  O283  1  0.01429487  0.63536199  0.52210808  1
  O2-  O284  1  0.52079630  0.12480867  0.01639023  1
  O2-  O285  1  0.51401124  0.12455704  0.50013737  1
  O2-  O286  1  0.53331162  0.62977696  0.00616055  1
  O2-  O287  1  0.51998645  0.63441482  0.50842056  1
  O2-  O288  1  0.11688169  0.27180602  0.01954819  1
  O2-  O289  1  0.13174665  0.26720515  0.51100808  1
  O2-  O290  1  0.11195613  0.76740613  0.02641593  1
  O2-  O291  1  0.11826425  0.77677789  0.52598414  1
  O2-  O292  1  0.62582218  0.26445610  0.02105288  1
  O2-  O293  1  0.61383045  0.26302857  0.51528908  1
  O2-  O294  1  0.61603760  0.77773514  0.02719591  1
  O2-  O295  1  0.62708373  0.76606236  0.52108334  1
  O2-  O296  1  0.38719627  0.21881901  -0.01599989  1
  O2-  O297  1  0.37259682  0.23146352  0.48241304  1
  O2-  O298  1  0.38690314  0.73221550  -0.02663274  1
  O2-  O299  1  0.38568890  0.73298427  0.46876993  1
  O2-  O300  1  0.87021827  0.23328873  -0.01307968  1
  O2-  O301  1  0.88735590  0.22159215  0.47404435  1
  O2-  O302  1  0.88295480  0.71702391  -0.02460396  1
  O2-  O303  1  0.86851422  0.74084147  0.48654201  1
  O2-  O304  1  0.26128088  0.38814438  0.03419280  1
  O2-  O305  1  0.27222302  0.36934125  0.51544628  1
  O2-  O306  1  0.26931395  0.88535512  0.02893875  1
  O2-  O307  1  0.27933068  0.88784591  0.51265335  1
  O2-  O308  1  0.76478168  0.36744812  0.02044546  1
  O2-  O309  1  0.77000912  0.38081471  0.52090380  1
  O2-  O310  1  0.76575652  0.88501099  0.02111107  1
  O2-  O311  1  0.75601607  0.87416627  0.51731503  1
  O2-  O312  1  0.23277031  0.11502075  -0.01591196  1
  O2-  O313  1  0.23869665  0.13095873  0.47842169  1
  O2-  O314  1  0.22129576  0.61398300  -0.01147241  1
  O2-  O315  1  0.22228766  0.61363937  0.47919170  1
  O2-  O316  1  0.73165599  0.12831695  -0.01239315  1
  O2-  O317  1  0.72928363  0.11392880  0.46966621  1
  O2-  O318  1  0.72945034  0.61152127  -0.02854971  1
  O2-  O319  1  0.73350567  0.62979567  0.49017048  1
