# generated using pymatgen
data_Sr64Ca21Nb43O192
_symmetry_space_group_name_H-M   'P 1'
_cell_length_a   16.59203023
_cell_length_b   16.62027438
_cell_length_c   16.72041727
_cell_angle_alpha   89.93186880
_cell_angle_beta   89.95347662
_cell_angle_gamma   90.00319153
_symmetry_Int_Tables_number   1
_chemical_formula_structural   Sr64Ca21Nb43O192
_chemical_formula_sum   'Sr64 Ca21 Nb43 O192'
_cell_volume   4610.88594636
_cell_formula_units_Z   1
loop_
 _symmetry_equiv_pos_site_id
 _symmetry_equiv_pos_as_xyz
  1  'x, y, z'
loop_
 _atom_type_symbol
 _atom_type_oxidation_number
  Sr2+  2.0
  Ca2+  2.0
  Nb5+  5.0
  O2-  -2.0
loop_
 _atom_site_type_symbol
 _atom_site_label
 _atom_site_symmetry_multiplicity
 _atom_site_fract_x
 _atom_site_fract_y
 _atom_site_fract_z
 _atom_site_occupancy
  Sr2+  Sr0  1  0.11296311  0.12811085  0.13563045  1
  Sr2+  Sr1  1  0.11986291  0.13399205  0.62624672  1
  Sr2+  Sr2  1  0.12582043  0.63907508  0.11835914  1
  Sr2+  Sr3  1  0.11652488  0.63321054  0.62516881  1
  Sr2+  Sr4  1  0.62131498  0.13460720  0.12592561  1
  Sr2+  Sr5  1  0.61279466  0.12734914  0.63748623  1
  Sr2+  Sr6  1  0.62003718  0.63501889  0.12527932  1
  Sr2+  Sr7  1  0.62437350  0.63499781  0.62596130  1
  Sr2+  Sr8  1  0.37154899  0.37951245  0.12025219  1
  Sr2+  Sr9  1  0.37132734  0.38124114  0.62680862  1
  Sr2+  Sr10  1  0.35724518  0.88636006  0.12253342  1
  Sr2+  Sr11  1  0.36972915  0.90049495  0.62777393  1
  Sr2+  Sr12  1  0.87088874  0.38019522  0.13497582  1
  Sr2+  Sr13  1  0.87285954  0.38569704  0.62665705  1
  Sr2+  Sr14  1  0.86833084  0.88606766  0.11170228  1
  Sr2+  Sr15  1  0.85905507  0.88915525  0.62343984  1
  Sr2+  Sr16  1  0.13554154  0.37411580  0.37828012  1
  Sr2+  Sr17  1  0.13097398  0.36916779  0.88186788  1
  Sr2+  Sr18  1  0.12471961  0.87185225  0.37568507  1
  Sr2+  Sr19  1  0.14076262  0.86832684  0.87180501  1
  Sr2+  Sr20  1  0.63940654  0.36343150  0.37666021  1
  Sr2+  Sr21  1  0.64088295  0.37201179  0.87532424  1
  Sr2+  Sr22  1  0.64066710  0.86814512  0.37263047  1
  Sr2+  Sr23  1  0.63238153  0.86843222  0.87903795  1
  Sr2+  Sr24  1  0.38515903  0.11891153  0.37346493  1
  Sr2+  Sr25  1  0.38914997  0.10975483  0.87352420  1
  Sr2+  Sr26  1  0.38492308  0.61564661  0.37144783  1
  Sr2+  Sr27  1  0.38728121  0.62475495  0.88016921  1
  Sr2+  Sr28  1  0.88641492  0.11077051  0.37396340  1
  Sr2+  Sr29  1  0.87533258  0.11832218  0.86947957  1
  Sr2+  Sr30  1  0.88513467  0.62370722  0.37799463  1
  Sr2+  Sr31  1  0.88470253  0.61209241  0.87261982  1
  Sr2+  Sr32  1  0.13482485  0.11337938  0.37678862  1
  Sr2+  Sr33  1  0.12164591  0.10697223  0.87371209  1
  Sr2+  Sr34  1  0.13246421  0.61531516  0.37568500  1
  Sr2+  Sr35  1  0.13443364  0.63033097  0.86841282  1
  Sr2+  Sr36  1  0.63212501  0.10921216  0.36752928  1
  Sr2+  Sr37  1  0.63448366  0.11177957  0.87968930  1
  Sr2+  Sr38  1  0.63310523  0.62862217  0.37405274  1
  Sr2+  Sr39  1  0.62988771  0.61427354  0.87601259  1
  Sr2+  Sr40  1  0.37473461  0.36904819  0.37575064  1
  Sr2+  Sr41  1  0.38149332  0.36412337  0.88125905  1
  Sr2+  Sr42  1  0.38710489  0.86242831  0.37071522  1
  Sr2+  Sr43  1  0.38385253  0.85991903  0.87039592  1
  Sr2+  Sr44  1  0.88177746  0.36894902  0.37983344  1
  Sr2+  Sr45  1  0.87628616  0.35707874  0.87945197  1
  Sr2+  Sr46  1  0.87959566  0.86138801  0.37671978  1
  Sr2+  Sr47  1  0.88863784  0.87282149  0.87726859  1
  Sr2+  Sr48  1  0.12874626  0.38396999  0.13122108  1
  Sr2+  Sr49  1  0.11905630  0.37907413  0.62640080  1
  Sr2+  Sr50  1  0.11158350  0.87752805  0.11241140  1
  Sr2+  Sr51  1  0.11907696  0.88725303  0.62808864  1
  Sr2+  Sr52  1  0.62086139  0.37657712  0.12838443  1
  Sr2+  Sr53  1  0.62045575  0.38670344  0.62767909  1
  Sr2+  Sr54  1  0.61759278  0.88599131  0.12464411  1
  Sr2+  Sr55  1  0.61038223  0.88194916  0.62217038  1
  Sr2+  Sr56  1  0.38149139  0.12808277  0.12023991  1
  Sr2+  Sr57  1  0.35655800  0.13075436  0.62834229  1
  Sr2+  Sr58  1  0.36192886  0.62928889  0.12578053  1
  Sr2+  Sr59  1  0.37106922  0.63242259  0.62694111  1
  Sr2+  Sr60  1  0.86209627  0.12545781  0.12245864  1
  Sr2+  Sr61  1  0.87163695  0.13498938  0.62946021  1
  Sr2+  Sr62  1  0.86936227  0.63290495  0.13116820  1
  Sr2+  Sr63  1  0.86611104  0.62916547  0.62718493  1
  Ca2+  Ca64  1  0.49893892  -0.00372669  0.00149250  1
  Ca2+  Ca65  1  -0.00142107  0.00154681  0.50200134  1
  Ca2+  Ca66  1  0.00106630  0.49853317  0.00142259  1
  Ca2+  Ca67  1  0.49927569  0.00343695  0.49810231  1
  Ca2+  Ca68  1  0.00073853  0.00366416  -0.00033233  1
  Ca2+  Ca69  1  0.24494336  0.25049598  0.00484747  1
  Ca2+  Ca70  1  0.75066477  0.24870203  0.00201438  1
  Ca2+  Ca71  1  0.25000026  0.75197186  0.49842180  1
  Ca2+  Ca72  1  0.74898295  0.24968731  0.50271782  1
  Ca2+  Ca73  1  0.74930377  0.74863852  -0.00422228  1
  Ca2+  Ca74  1  -0.00128189  0.74867123  0.74765105  1
  Ca2+  Ca75  1  0.24809431  0.00142383  0.24988469  1
  Ca2+  Ca76  1  0.00069819  0.74666686  0.24750051  1
  Ca2+  Ca77  1  0.74901038  -0.00303493  0.74968895  1
  Ca2+  Ca78  1  0.25056847  0.50163389  0.74934112  1
  Ca2+  Ca79  1  0.50385329  0.74751073  0.74670120  1
  Ca2+  Ca80  1  0.49933013  0.24814180  0.75012675  1
  Ca2+  Ca81  1  0.24935690  0.00365167  0.75365195  1
  Ca2+  Ca82  1  0.74966301  0.50077543  0.25258653  1
  Ca2+  Ca83  1  0.75137052  -0.00211682  0.25087834  1
  Ca2+  Ca84  1  0.50029826  0.74599387  0.24590814  1
  Nb5+  Nb85  1  0.50297879  0.49920262  0.00813947  1
  Nb5+  Nb86  1  0.00631867  0.50020145  0.49876021  1
  Nb5+  Nb87  1  0.50697138  0.49931145  0.50093928  1
  Nb5+  Nb88  1  0.25371701  0.75325348  -0.00151702  1
  Nb5+  Nb89  1  0.75158945  0.75242095  0.50099098  1
  Nb5+  Nb90  1  0.24883542  0.25289244  0.50111493  1
  Nb5+  Nb91  1  0.50373575  0.25253092  0.25172934  1
  Nb5+  Nb92  1  0.75064036  0.49973816  0.75003350  1
  Nb5+  Nb93  1  0.25110972  0.50120028  0.25005154  1
  Nb5+  Nb94  1  0.00312993  0.25292293  0.75742162  1
  Nb5+  Nb95  1  0.00623759  0.25285366  0.25960682  1
  Nb5+  Nb96  1  -0.00556257  -0.00951100  0.24926187  1
  Nb5+  Nb97  1  -0.00314511  -0.00447863  0.74668101  1
  Nb5+  Nb98  1  0.00291017  0.50212104  0.24881623  1
  Nb5+  Nb99  1  0.00164136  0.49454598  0.75443245  1
  Nb5+  Nb100  1  0.49380416  -0.00732637  0.24825470  1
  Nb5+  Nb101  1  0.50096461  -0.00414954  0.75175073  1
  Nb5+  Nb102  1  0.50251004  0.49357620  0.25843623  1
  Nb5+  Nb103  1  0.49791722  0.49770593  0.75583755  1
  Nb5+  Nb104  1  0.25315542  0.25094471  0.25252324  1
  Nb5+  Nb105  1  0.24809392  0.24887157  0.76215875  1
  Nb5+  Nb106  1  0.24853294  0.75389772  0.25232021  1
  Nb5+  Nb107  1  0.25573453  0.75293004  0.74085076  1
  Nb5+  Nb108  1  0.76030466  0.24748146  0.25606602  1
  Nb5+  Nb109  1  0.74643666  0.24995921  0.74420904  1
  Nb5+  Nb110  1  0.75353155  0.75165911  0.24336421  1
  Nb5+  Nb111  1  0.75207948  0.75122266  0.75153088  1
  Nb5+  Nb112  1  0.00091804  0.25074658  0.50273563  1
  Nb5+  Nb113  1  -0.00172796  0.25180353  1.01473790  1
  Nb5+  Nb114  1  -0.00113022  0.75611497  0.50606341  1
  Nb5+  Nb115  1  -0.00419924  0.74351190  0.99338197  1
  Nb5+  Nb116  1  0.49915902  0.25217831  0.49845509  1
  Nb5+  Nb117  1  0.50314441  0.25011210  0.99458616  1
  Nb5+  Nb118  1  0.49584117  0.75065851  0.49795444  1
  Nb5+  Nb119  1  0.50005498  0.75229001  1.00643011  1
  Nb5+  Nb120  1  0.24525261  0.01089379  0.00619360  1
  Nb5+  Nb121  1  0.25340790  -0.00499239  0.49471166  1
  Nb5+  Nb122  1  0.25350741  0.50244245  -0.00598241  1
  Nb5+  Nb123  1  0.25616860  0.50182203  0.50255047  1
  Nb5+  Nb124  1  0.74922236  -0.00252014  -0.00076818  1
  Nb5+  Nb125  1  0.74362488  0.01076309  0.50516013  1
  Nb5+  Nb126  1  0.75243765  0.50014971  0.00519861  1
  Nb5+  Nb127  1  0.75783694  0.50297136  0.49936865  1
  O2-  O128  1  0.01922068  0.01655039  0.13602319  1
  O2-  O129  1  0.02994846  0.01673922  0.63437645  1
  O2-  O130  1  0.03160908  0.51074731  0.13776046  1
  O2-  O131  1  0.01527594  0.50756890  0.61926971  1
  O2-  O132  1  0.52214305  0.02223194  0.13615419  1
  O2-  O133  1  0.52312805  0.01186578  0.63241011  1
  O2-  O134  1  0.52007660  0.50689408  0.12322971  1
  O2-  O135  1  0.51959298  0.51242883  0.61410743  1
  O2-  O136  1  -0.02792957  -0.01704671  0.36852768  1
  O2-  O137  1  -0.02649872  0.00329878  0.86466235  1
  O2-  O138  1  -0.01620096  0.48111644  0.38023439  1
  O2-  O139  1  -0.02756297  0.47707279  0.86369406  1
  O2-  O140  1  0.46781311  -0.01020540  0.36526368  1
  O2-  O141  1  0.47337851  -0.01903447  0.86831184  1
  O2-  O142  1  0.47783606  0.48314425  0.37195593  1
  O2-  O143  1  0.48132525  0.48279525  0.86972804  1
  O2-  O144  1  0.25864735  0.27828894  0.14030091  1
  O2-  O145  1  0.26674858  0.27033298  0.61550974  1
  O2-  O146  1  0.27206812  0.75604616  0.12130776  1
  O2-  O147  1  0.28410742  0.76855648  0.63048326  1
  O2-  O148  1  0.76878995  0.26920280  0.13881674  1
  O2-  O149  1  0.78657878  0.26593579  0.63357361  1
  O2-  O150  1  0.78022206  0.76217735  0.13129923  1
  O2-  O151  1  0.77657349  0.75442752  0.61928931  1
  O2-  O152  1  0.22719377  0.24889219  0.37404543  1
  O2-  O153  1  0.21372812  0.23658218  0.86966813  1
  O2-  O154  1  0.21824150  0.73930808  0.36346339  1
  O2-  O155  1  0.23862970  0.73503114  0.88160427  1
  O2-  O156  1  0.72410247  0.23308412  0.36846566  1
  O2-  O157  1  0.73323701  0.24285870  0.86236337  1
  O2-  O158  1  0.73692853  0.73268006  0.38381747  1
  O2-  O159  1  0.71815942  0.73607670  0.86082082  1
  O2-  O160  1  -0.01538556  0.23512972  0.13121742  1
  O2-  O161  1  -0.00693618  0.23833409  0.61822422  1
  O2-  O162  1  -0.00752654  0.71493091  0.11100106  1
  O2-  O163  1  -0.01182809  0.71237028  0.61469901  1
  O2-  O164  1  0.48331330  0.24076451  0.13413137  1
  O2-  O165  1  0.47539425  0.23227730  0.60966285  1
  O2-  O166  1  0.48722508  0.70686944  0.11459200  1
  O2-  O167  1  0.49436367  0.71266795  0.60879848  1
  O2-  O168  1  0.26370765  0.03363121  0.38345897  1
  O2-  O169  1  0.26052254  0.03423199  0.88913277  1
  O2-  O170  1  0.26162674  0.51741745  0.37530262  1
  O2-  O171  1  0.26989212  0.52538638  0.88346871  1
  O2-  O172  1  0.76372445  0.02387486  0.38811029  1
  O2-  O173  1  0.75942080  0.02563463  0.88226634  1
  O2-  O174  1  0.75981254  0.52674881  0.38661206  1
  O2-  O175  1  0.75923354  0.51818073  0.86686992  1
  O2-  O176  1  0.01384069  0.27765314  0.37343758  1
  O2-  O177  1  0.01512717  0.27322158  0.86917691  1
  O2-  O178  1  0.01003298  0.76859771  0.38736272  1
  O2-  O179  1  0.02102262  0.77448415  0.88058230  1
  O2-  O180  1  0.50226082  0.28207803  0.36999425  1
  O2-  O181  1  0.51801729  0.27838052  0.88428877  1
  O2-  O182  1  0.52453352  0.76247833  0.38318905  1
  O2-  O183  1  0.51151845  0.76165403  0.88757789  1
  O2-  O184  1  0.22995737  -0.03161357  0.11813997  1
  O2-  O185  1  0.23347419  -0.01410933  0.61361201  1
  O2-  O186  1  0.24490514  0.48470026  0.13171850  1
  O2-  O187  1  0.24081963  0.47549020  0.61355611  1
  O2-  O188  1  0.73883231  -0.03089369  0.11792091  1
  O2-  O189  1  0.73099916  -0.03101887  0.61615876  1
  O2-  O190  1  0.73649978  0.47559613  0.11618199  1
  O2-  O191  1  0.73860059  0.48406099  0.62327074  1
  O2-  O192  1  0.11965132  0.27299929  0.23745699  1
  O2-  O193  1  0.12210398  0.27248716  0.73079127  1
  O2-  O194  1  0.13547762  0.76462717  0.21809963  1
  O2-  O195  1  0.13643911  0.77372445  0.73205007  1
  O2-  O196  1  0.61703943  0.27247466  0.23929333  1
  O2-  O197  1  0.63536011  0.26939667  0.71913115  1
  O2-  O198  1  0.63493091  0.77321852  0.23139943  1
  O2-  O199  1  0.63985475  0.76279322  0.71449726  1
  O2-  O200  1  0.36845961  0.23943264  0.26889700  1
  O2-  O201  1  0.36314344  0.23030006  0.77808108  1
  O2-  O202  1  0.36239452  0.71863336  0.26418071  1
  O2-  O203  1  0.36846077  0.72091354  0.76887836  1
  O2-  O204  1  0.87726122  0.23530400  0.27218403  1
  O2-  O205  1  0.88343453  0.23802477  0.76705774  1
  O2-  O206  1  0.86704398  0.72075715  0.26890111  1
  O2-  O207  1  0.86359540  0.71053909  0.76218954  1
  O2-  O208  1  0.25957464  0.38047750  0.27107937  1
  O2-  O209  1  0.26872112  0.36549575  0.76409795  1
  O2-  O210  1  0.27478916  0.86501165  0.26625147  1
  O2-  O211  1  0.27117461  0.86701192  0.77316782  1
  O2-  O212  1  0.76586108  0.36607051  0.27704551  1
  O2-  O213  1  0.76818706  0.37836119  0.76215057  1
  O2-  O214  1  0.76890629  0.86358275  0.27915570  1
  O2-  O215  1  0.78358822  0.86116191  0.76246979  1
  O2-  O216  1  0.22508284  0.14081992  0.23979873  1
  O2-  O217  1  0.23084680  0.13992294  0.72202787  1
  O2-  O218  1  0.22780767  0.61702602  0.23799738  1
  O2-  O219  1  0.22543612  0.63516611  0.73080756  1
  O2-  O220  1  0.72857242  0.13607077  0.23195983  1
  O2-  O221  1  0.73709166  0.13525004  0.73028856  1
  O2-  O222  1  0.72458916  0.63346934  0.23490856  1
  O2-  O223  1  0.73116100  0.61506641  0.73168338  1
  O2-  O224  1  0.12828107  0.48115531  0.27043219  1
  O2-  O225  1  0.11441126  0.47136148  0.76475587  1
  O2-  O226  1  0.11132807  0.98721683  0.27598820  1
  O2-  O227  1  0.11400715  0.98514159  0.77611164  1
  O2-  O228  1  0.61340815  0.46694472  0.26571339  1
  O2-  O229  1  0.62975565  0.47557079  0.75996627  1
  O2-  O230  1  0.61121165  0.98544180  0.27413571  1
  O2-  O231  1  0.61683632  0.96828326  0.77033096  1
  O2-  O232  1  0.38142684  0.03094290  0.22912234  1
  O2-  O233  1  0.38338856  0.02654923  0.73161307  1
  O2-  O234  1  0.37153505  0.51414088  0.24035015  1
  O2-  O235  1  0.38772433  0.51866272  0.72658235  1
  O2-  O236  1  0.88458361  0.03564094  0.23777745  1
  O2-  O237  1  0.88381381  0.02813012  0.72675182  1
  O2-  O238  1  0.88765049  0.51309270  0.22959293  1
  O2-  O239  1  0.87217529  0.51062298  0.72972616  1
  O2-  O240  1  0.47336245  0.37717680  0.23190511  1
  O2-  O241  1  0.49069129  0.38414570  0.72202040  1
  O2-  O242  1  0.47194590  0.88128990  0.22912490  1
  O2-  O243  1  0.47573059  0.87936411  0.72821506  1
  O2-  O244  1  0.98362604  0.37445887  0.23910566  1
  O2-  O245  1  0.98383796  0.37239286  0.72500862  1
  O2-  O246  1  0.97310683  0.88046926  0.22672155  1
  O2-  O247  1  0.97555260  0.88360235  0.73068602  1
  O2-  O248  1  0.01982218  0.13827675  0.27258873  1
  O2-  O249  1  0.02102872  0.13758389  0.75772175  1
  O2-  O250  1  0.01711616  0.61190929  0.27931829  1
  O2-  O251  1  0.01831244  0.60888406  0.76316435  1
  O2-  O252  1  0.51248357  0.13869657  0.27080564  1
  O2-  O253  1  0.52810010  0.11579896  0.77190006  1
  O2-  O254  1  0.51854348  0.60811283  0.26492897  1
  O2-  O255  1  0.52961470  0.61000208  0.76012740  1
  O2-  O256  1  0.13953673  0.48291453  -0.01287482  1
  O2-  O257  1  0.12257714  0.48455657  0.48488625  1
  O2-  O258  1  0.13454080  0.97417057  -0.02017793  1
  O2-  O259  1  0.13439382  0.98292068  0.47714741  1
  O2-  O260  1  0.61747696  0.47732176  -0.01770852  1
  O2-  O261  1  0.62115664  0.48110425  0.48295277  1
  O2-  O262  1  0.63114928  0.97210648  -0.01547504  1
  O2-  O263  1  0.63220308  0.97532271  0.47758327  1
  O2-  O264  1  0.36370507  0.01383390  0.02346810  1
  O2-  O265  1  0.36498923  0.03081283  0.52090380  1
  O2-  O266  1  0.38093764  0.51627348  0.01867368  1
  O2-  O267  1  0.37255080  0.51882244  0.51166243  1
  O2-  O268  1  0.86710529  0.01769579  0.02011364  1
  O2-  O269  1  0.86289144  0.02302732  0.52461902  1
  O2-  O270  1  0.86369971  0.52928886  0.01499438  1
  O2-  O271  1  0.87484745  0.51447868  0.51524140  1
  O2-  O272  1  0.47966946  0.37979733  0.01252087  1
  O2-  O273  1  0.47183672  0.38288715  0.50834896  1
  O2-  O274  1  0.47501134  0.86105653  0.02946900  1
  O2-  O275  1  0.47905611  0.86213021  0.51966530  1
  O2-  O276  1  0.96181254  0.36734545  0.01692610  1
  O2-  O277  1  0.98547303  0.37787568  0.51321573  1
  O2-  O278  1  0.98584240  0.86160850  0.01957990  1
  O2-  O279  1  0.97433059  0.86534028  0.52826357  1
  O2-  O280  1  0.03580562  0.14152247  -0.00633900  1
  O2-  O281  1  0.02585870  0.14032003  0.48074924  1
  O2-  O282  1  0.02645111  0.62983857  -0.03110799  1
  O2-  O283  1  0.01510972  0.61611782  0.47978663  1
  O2-  O284  1  0.51749985  0.13542481  -0.01612916  1
  O2-  O285  1  0.51557542  0.14299009  0.46821379  1
  O2-  O286  1  0.51467916  0.61301192  -0.02244416  1
  O2-  O287  1  0.51280469  0.61303210  0.47136922  1
  O2-  O288  1  0.11089861  0.29219726  0.01497772  1
  O2-  O289  1  0.12653341  0.27893721  0.50993605  1
  O2-  O290  1  0.13559492  0.76025469  0.01495568  1
  O2-  O291  1  0.11497388  0.77002489  0.52186262  1
  O2-  O292  1  0.61435773  0.26862358  0.02969223  1
  O2-  O293  1  0.60926358  0.28280927  0.51266063  1
  O2-  O294  1  0.61485726  0.76559593  0.02444006  1
  O2-  O295  1  0.63165659  0.76033893  0.51593021  1
  O2-  O296  1  0.38398300  0.23719542  -0.00897673  1
  O2-  O297  1  0.36678649  0.24414890  0.47620323  1
  O2-  O298  1  0.37454185  0.72723325  -0.01284610  1
  O2-  O299  1  0.38513159  0.72637927  0.47347986  1
  O2-  O300  1  0.88741436  0.22467807  -0.02163340  1
  O2-  O301  1  0.88815223  0.23900331  0.47803613  1
  O2-  O302  1  0.88364465  0.72562960  -0.02698887  1
  O2-  O303  1  0.87450091  0.72754382  0.48519167  1
  O2-  O304  1  0.27704758  0.38708541  -0.01286284  1
  O2-  O305  1  0.26121227  0.38072186  0.47834646  1
  O2-  O306  1  0.27304836  0.86665133  -0.01663819  1
  O2-  O307  1  0.28007509  0.88532271  0.47492331  1
  O2-  O308  1  0.76112808  0.38697860  -0.02735793  1
  O2-  O309  1  0.76490304  0.38704731  0.48379180  1
  O2-  O310  1  0.77542821  0.88054943  -0.02730080  1
  O2-  O311  1  0.77087314  0.86586858  0.48521380  1
  O2-  O312  1  0.22690689  0.11936432  0.03781568  1
  O2-  O313  1  0.22732575  0.14000539  0.51285071  1
  O2-  O314  1  0.24234524  0.62168222  0.02020243  1
  O2-  O315  1  0.22778418  0.61433533  0.51474934  1
  O2-  O316  1  0.72518501  0.11535426  0.02177889  1
  O2-  O317  1  0.71660989  0.11948181  0.52888121  1
  O2-  O318  1  0.71474659  0.61186190  0.00691679  1
  O2-  O319  1  0.73422660  0.62116017  0.52020923  1
