# generated using pymatgen
data_Sr64Ca21Nb43O192
_symmetry_space_group_name_H-M   'P 1'
_cell_length_a   16.57809418
_cell_length_b   16.57462742
_cell_length_c   16.72320104
_cell_angle_alpha   89.98121532
_cell_angle_beta   89.95894929
_cell_angle_gamma   90.03563735
_symmetry_Int_Tables_number   1
_chemical_formula_structural   Sr64Ca21Nb43O192
_chemical_formula_sum   'Sr64 Ca21 Nb43 O192'
_cell_volume   4595.12753120
_cell_formula_units_Z   1
loop_
 _symmetry_equiv_pos_site_id
 _symmetry_equiv_pos_as_xyz
  1  'x, y, z'
loop_
 _atom_type_symbol
 _atom_type_oxidation_number
  Sr2+  2.0
  Ca2+  2.0
  Nb5+  5.0
  O2-  -2.0
loop_
 _atom_site_type_symbol
 _atom_site_label
 _atom_site_symmetry_multiplicity
 _atom_site_fract_x
 _atom_site_fract_y
 _atom_site_fract_z
 _atom_site_occupancy
  Sr2+  Sr0  1  0.12996906  0.12513148  0.13561248  1
  Sr2+  Sr1  1  0.12544319  0.13684308  0.62479450  1
  Sr2+  Sr2  1  0.11398549  0.63806930  0.12544460  1
  Sr2+  Sr3  1  0.12596580  0.63120809  0.63281540  1
  Sr2+  Sr4  1  0.61640792  0.13444414  0.12419701  1
  Sr2+  Sr5  1  0.61498295  0.12263507  0.63294682  1
  Sr2+  Sr6  1  0.61671682  0.64661014  0.13066399  1
  Sr2+  Sr7  1  0.61959571  0.63211899  0.62210425  1
  Sr2+  Sr8  1  0.37904110  0.36851844  0.12742892  1
  Sr2+  Sr9  1  0.37634217  0.37358378  0.62411723  1
  Sr2+  Sr10  1  0.37452312  0.85245915  0.12656997  1
  Sr2+  Sr11  1  0.37618508  0.85199566  0.62045461  1
  Sr2+  Sr12  1  0.86378353  0.38564533  0.12367934  1
  Sr2+  Sr13  1  0.87580693  0.38626006  0.62599149  1
  Sr2+  Sr14  1  0.87624847  0.88178442  0.13097805  1
  Sr2+  Sr15  1  0.86484531  0.86988664  0.62577656  1
  Sr2+  Sr16  1  0.12270414  0.36890287  0.36918993  1
  Sr2+  Sr17  1  0.12058017  0.37749419  0.87639152  1
  Sr2+  Sr18  1  0.11509317  0.87134478  0.36157681  1
  Sr2+  Sr19  1  0.11913297  0.87268538  0.87711560  1
  Sr2+  Sr20  1  0.63843669  0.36800156  0.37685651  1
  Sr2+  Sr21  1  0.63969793  0.36312631  0.87559729  1
  Sr2+  Sr22  1  0.64252707  0.86992138  0.37324630  1
  Sr2+  Sr23  1  0.63467561  0.87655082  0.87670770  1
  Sr2+  Sr24  1  0.37136898  0.12109154  0.37900125  1
  Sr2+  Sr25  1  0.38490012  0.11816341  0.87509197  1
  Sr2+  Sr26  1  0.37775086  0.61449970  0.37294253  1
  Sr2+  Sr27  1  0.36074102  0.61783688  0.88334534  1
  Sr2+  Sr28  1  0.87901805  0.11362476  0.37074094  1
  Sr2+  Sr29  1  0.88546062  0.11534915  0.87273360  1
  Sr2+  Sr30  1  0.88873675  0.62119469  0.38130386  1
  Sr2+  Sr31  1  0.89225402  0.61688035  0.87952264  1
  Sr2+  Sr32  1  0.12820205  0.10956256  0.37598022  1
  Sr2+  Sr33  1  0.12507693  0.10769770  0.87158493  1
  Sr2+  Sr34  1  0.12106644  0.60734335  0.37533314  1
  Sr2+  Sr35  1  0.12277262  0.64672154  0.87597212  1
  Sr2+  Sr36  1  0.62454106  0.10983644  0.37936092  1
  Sr2+  Sr37  1  0.62913941  0.12155667  0.87917760  1
  Sr2+  Sr38  1  0.63419819  0.61488669  0.37331503  1
  Sr2+  Sr39  1  0.63276096  0.60626570  0.86851304  1
  Sr2+  Sr40  1  0.37843140  0.36530665  0.37793593  1
  Sr2+  Sr41  1  0.37649599  0.36883446  0.88632859  1
  Sr2+  Sr42  1  0.37187494  0.85986335  0.37210675  1
  Sr2+  Sr43  1  0.37634375  0.85799928  0.88271783  1
  Sr2+  Sr44  1  0.88572758  0.37156403  0.36815063  1
  Sr2+  Sr45  1  0.88063080  0.36981757  0.88124303  1
  Sr2+  Sr46  1  0.88347728  0.86078653  0.38050365  1
  Sr2+  Sr47  1  0.88450624  0.86056725  0.87619023  1
  Sr2+  Sr48  1  0.12394517  0.38582453  0.13378263  1
  Sr2+  Sr49  1  0.12228453  0.38061418  0.62734324  1
  Sr2+  Sr50  1  0.12976091  0.88232013  0.12273577  1
  Sr2+  Sr51  1  0.12454390  0.88542906  0.63758004  1
  Sr2+  Sr52  1  0.62582807  0.37346334  0.10940202  1
  Sr2+  Sr53  1  0.62009015  0.38236763  0.63080351  1
  Sr2+  Sr54  1  0.61429927  0.88589017  0.12938860  1
  Sr2+  Sr55  1  0.62497394  0.87362991  0.61818244  1
  Sr2+  Sr56  1  0.37524145  0.12025787  0.12418627  1
  Sr2+  Sr57  1  0.37292742  0.13062890  0.61866466  1
  Sr2+  Sr58  1  0.37696380  0.62739904  0.12838827  1
  Sr2+  Sr59  1  0.38312019  0.62071275  0.63059354  1
  Sr2+  Sr60  1  0.85441100  0.13473148  0.12585683  1
  Sr2+  Sr61  1  0.88230628  0.12895184  0.62877132  1
  Sr2+  Sr62  1  0.86488404  0.63309992  0.11651615  1
  Sr2+  Sr63  1  0.85274914  0.63327172  0.62925329  1
  Ca2+  Ca64  1  0.00019676  0.00231679  0.00216847  1
  Ca2+  Ca65  1  0.00406628  0.49928466  0.50302064  1
  Ca2+  Ca66  1  0.00378541  -0.00101110  0.50257128  1
  Ca2+  Ca67  1  0.00362189  0.49622224  0.00133059  1
  Ca2+  Ca68  1  0.50173201  0.50245463  0.00019165  1
  Ca2+  Ca69  1  0.74710386  0.75369014  -0.00000714  1
  Ca2+  Ca70  1  0.24895187  0.25156179  0.00044614  1
  Ca2+  Ca71  1  0.24773379  0.74888691  0.00228514  1
  Ca2+  Ca72  1  0.74914678  0.24751650  0.50405783  1
  Ca2+  Ca73  1  0.24757801  0.74611611  0.49800119  1
  Ca2+  Ca74  1  0.74831004  -0.00079647  0.24831533  1
  Ca2+  Ca75  1  0.25448545  0.00294275  0.74681059  1
  Ca2+  Ca76  1  -0.00612753  0.74625830  0.74658911  1
  Ca2+  Ca77  1  0.50042588  0.75003505  0.75410682  1
  Ca2+  Ca78  1  -0.00220035  0.74832226  0.25147700  1
  Ca2+  Ca79  1  0.74823787  0.50077837  0.24798831  1
  Ca2+  Ca80  1  0.75002331  -0.00050257  0.74915403  1
  Ca2+  Ca81  1  0.50134647  0.75286964  0.25502580  1
  Ca2+  Ca82  1  0.75045711  0.49941042  0.75074853  1
  Ca2+  Ca83  1  0.50327845  0.25240187  0.25292451  1
  Ca2+  Ca84  1  -0.00125081  0.24720444  0.24717402  1
  Nb5+  Nb85  1  0.50047337  0.49301469  0.49782594  1
  Nb5+  Nb86  1  0.49816136  -0.00088026  0.00557391  1
  Nb5+  Nb87  1  0.49636392  -0.00582691  0.50509946  1
  Nb5+  Nb88  1  0.74849286  0.74768643  0.49733445  1
  Nb5+  Nb89  1  0.75334625  0.24685879  -0.00309321  1
  Nb5+  Nb90  1  0.24901284  0.25304878  0.49868493  1
  Nb5+  Nb91  1  0.00716507  0.25159038  0.75124515  1
  Nb5+  Nb92  1  0.25524053  0.49366508  0.25637936  1
  Nb5+  Nb93  1  0.25649947  -0.00520105  0.25014441  1
  Nb5+  Nb94  1  0.24958590  0.49593620  0.75462912  1
  Nb5+  Nb95  1  0.50556422  0.25177216  0.75081876  1
  Nb5+  Nb96  1  -0.00244163  0.00450846  0.24598065  1
  Nb5+  Nb97  1  -0.00149767  -0.00451706  0.74749830  1
  Nb5+  Nb98  1  -0.00506053  0.50338660  0.24359368  1
  Nb5+  Nb99  1  0.00037228  0.50090259  0.74697099  1
  Nb5+  Nb100  1  0.49746636  0.00087215  0.26097111  1
  Nb5+  Nb101  1  0.49180093  -0.00558999  0.75529990  1
  Nb5+  Nb102  1  0.50549317  0.49950748  0.25074747  1
  Nb5+  Nb103  1  0.49633799  0.49642828  0.75449402  1
  Nb5+  Nb104  1  0.25417587  0.24532503  0.25039873  1
  Nb5+  Nb105  1  0.25424888  0.25402856  0.75266521  1
  Nb5+  Nb106  1  0.24638393  0.73878406  0.25462764  1
  Nb5+  Nb107  1  0.25154718  0.75360961  0.74625475  1
  Nb5+  Nb108  1  0.74547804  0.24765049  0.25605947  1
  Nb5+  Nb109  1  0.76039884  0.24994946  0.74878327  1
  Nb5+  Nb110  1  0.75297659  0.75156112  0.24728875  1
  Nb5+  Nb111  1  0.74196320  0.74828223  0.75819570  1
  Nb5+  Nb112  1  -0.00400682  0.24742162  0.49864250  1
  Nb5+  Nb113  1  0.00276869  0.24603090  1.00602680  1
  Nb5+  Nb114  1  0.00671741  0.75225743  0.50812269  1
  Nb5+  Nb115  1  -0.00473767  0.75131110  1.00293377  1
  Nb5+  Nb116  1  0.50480748  0.24694029  0.50097559  1
  Nb5+  Nb117  1  0.49714624  0.24822590  0.99987178  1
  Nb5+  Nb118  1  0.50067488  0.74122417  0.49408124  1
  Nb5+  Nb119  1  0.50505033  0.74645434  0.99526206  1
  Nb5+  Nb120  1  0.25235107  -0.00049093  -0.00598883  1
  Nb5+  Nb121  1  0.25265681  -0.00502745  0.49786989  1
  Nb5+  Nb122  1  0.24998198  0.50039517  0.01378982  1
  Nb5+  Nb123  1  0.25104548  0.49858117  0.50340013  1
  Nb5+  Nb124  1  0.75428167  0.00003257  -0.00189426  1
  Nb5+  Nb125  1  0.75338626  0.00468277  0.50406280  1
  Nb5+  Nb126  1  0.74697374  0.50745411  0.00199916  1
  Nb5+  Nb127  1  0.75597453  0.49865772  0.49840624  1
  O2-  O128  1  0.03785547  0.00749434  0.13375255  1
  O2-  O129  1  0.02801553  0.02278336  0.63513263  1
  O2-  O130  1  0.03599398  0.50850669  0.13326771  1
  O2-  O131  1  0.03699566  0.50624738  0.63476682  1
  O2-  O132  1  0.50860930  0.01513448  0.12174673  1
  O2-  O133  1  0.50649276  0.00850562  0.62097891  1
  O2-  O134  1  0.52489863  0.51415766  0.13793400  1
  O2-  O135  1  0.51489509  0.50299996  0.61841956  1
  O2-  O136  1  -0.01592244  -0.00510381  0.36594114  1
  O2-  O137  1  -0.01975665  -0.01434584  0.86524086  1
  O2-  O138  1  -0.01521382  0.48930292  0.36453077  1
  O2-  O139  1  -0.00937417  0.47479457  0.86246147  1
  O2-  O140  1  0.48036876  -0.00083822  0.37724185  1
  O2-  O141  1  0.48506290  -0.00560423  0.87310379  1
  O2-  O142  1  0.47258774  0.49057800  0.38326919  1
  O2-  O143  1  0.46576222  0.49471904  0.86393401  1
  O2-  O144  1  0.27754614  0.23870625  0.13741965  1
  O2-  O145  1  0.26462954  0.23997864  0.61923749  1
  O2-  O146  1  0.27075476  0.73341343  0.13685230  1
  O2-  O147  1  0.27638388  0.72439276  0.63164726  1
  O2-  O148  1  0.76463980  0.26573325  0.11388281  1
  O2-  O149  1  0.77038996  0.27670709  0.63668353  1
  O2-  O150  1  0.78086311  0.76454756  0.13557225  1
  O2-  O151  1  0.76090936  0.76101019  0.61760217  1
  O2-  O152  1  0.24003499  0.27069711  0.37969314  1
  O2-  O153  1  0.23933139  0.27960405  0.86274769  1
  O2-  O154  1  0.22712547  0.77290005  0.36628143  1
  O2-  O155  1  0.22861522  0.76635613  0.86411947  1
  O2-  O156  1  0.71967692  0.22973401  0.36739726  1
  O2-  O157  1  0.73388437  0.23168322  0.87469896  1
  O2-  O158  1  0.72048416  0.73792570  0.38205908  1
  O2-  O159  1  0.71145079  0.73628012  0.86806898  1
  O2-  O160  1  -0.01411264  0.21303149  0.11343309  1
  O2-  O161  1  -0.00651763  0.23116748  0.62943779  1
  O2-  O162  1  -0.02211438  0.72976470  0.11827173  1
  O2-  O163  1  -0.03366826  0.72750509  0.61550951  1
  O2-  O164  1  0.48375059  0.23307111  0.11436405  1
  O2-  O165  1  0.48211774  0.23946738  0.63085034  1
  O2-  O166  1  0.48168581  0.73664382  0.11627010  1
  O2-  O167  1  0.48138161  0.74211555  0.61294948  1
  O2-  O168  1  0.27633547  -0.00106024  0.37352504  1
  O2-  O169  1  0.27764086  -0.00979829  0.88266853  1
  O2-  O170  1  0.27708410  0.48370344  0.37030171  1
  O2-  O171  1  0.27130671  0.48025413  0.86486945  1
  O2-  O172  1  0.75295778  0.02185982  0.38545509  1
  O2-  O173  1  0.74686755  0.02984932  0.88310832  1
  O2-  O174  1  0.76435591  0.52827358  0.38455722  1
  O2-  O175  1  0.76842678  0.52677644  0.88436813  1
  O2-  O176  1  0.00876311  0.27058573  0.38575763  1
  O2-  O177  1  0.00705124  0.27501723  0.86684623  1
  O2-  O178  1  0.00951893  0.76777911  0.38864029  1
  O2-  O179  1  0.01379577  0.76870196  0.88045624  1
  O2-  O180  1  0.52366201  0.26193148  0.38939492  1
  O2-  O181  1  0.51040843  0.26674795  0.86878778  1
  O2-  O182  1  0.52221242  0.77812580  0.38669190  1
  O2-  O183  1  0.51524138  0.78609677  0.88511309  1
  O2-  O184  1  0.24443950  0.01714475  0.13443675  1
  O2-  O185  1  0.23432744  0.02000769  0.60913848  1
  O2-  O186  1  0.23453127  0.51543571  0.12833575  1
  O2-  O187  1  0.23337715  0.51033911  0.61686970  1
  O2-  O188  1  0.73647220  -0.02608875  0.11269206  1
  O2-  O189  1  0.73743039  -0.03067637  0.61468915  1
  O2-  O190  1  0.73467311  0.46862318  0.11458469  1
  O2-  O191  1  0.72662894  0.48440922  0.61284207  1
  O2-  O192  1  0.13949636  0.27320747  0.23909434  1
  O2-  O193  1  0.12343578  0.26831345  0.73485540  1
  O2-  O194  1  0.13551600  0.77076702  0.22660542  1
  O2-  O195  1  0.13300404  0.75176375  0.72510130  1
  O2-  O196  1  0.63445230  0.27971932  0.22501551  1
  O2-  O197  1  0.61975783  0.27103925  0.73693692  1
  O2-  O198  1  0.63424884  0.77759555  0.23116063  1
  O2-  O199  1  0.63008090  0.77968459  0.72751673  1
  O2-  O200  1  0.36807394  0.24253200  0.28210864  1
  O2-  O201  1  0.37144521  0.24118064  0.76219678  1
  O2-  O202  1  0.36450418  0.73829930  0.27556031  1
  O2-  O203  1  0.36451603  0.72844110  0.77585039  1
  O2-  O204  1  0.86380164  0.22095477  0.26402850  1
  O2-  O205  1  0.87585811  0.23166082  0.76236568  1
  O2-  O206  1  0.86403475  0.72599080  0.28179164  1
  O2-  O207  1  0.85895033  0.71742382  0.76699915  1
  O2-  O208  1  0.27003995  0.37980817  0.23446824  1
  O2-  O209  1  0.25817262  0.37358458  0.71942454  1
  O2-  O210  1  0.27305811  0.88171791  0.24058734  1
  O2-  O211  1  0.26213168  0.86678851  0.72284703  1
  O2-  O212  1  0.77653092  0.36417242  0.26777995  1
  O2-  O213  1  0.76159498  0.36512474  0.77899032  1
  O2-  O214  1  0.77204850  0.86697618  0.27704744  1
  O2-  O215  1  0.77599619  0.86361144  0.76585755  1
  O2-  O216  1  0.23532752  0.13087906  0.26548328  1
  O2-  O217  1  0.22794013  0.14129504  0.75691459  1
  O2-  O218  1  0.23306685  0.62285896  0.26847082  1
  O2-  O219  1  0.23402312  0.61234907  0.75925478  1
  O2-  O220  1  0.72755550  0.13399706  0.22114666  1
  O2-  O221  1  0.72802902  0.13869755  0.73001636  1
  O2-  O222  1  0.72090563  0.63545122  0.23686742  1
  O2-  O223  1  0.71874551  0.63196916  0.72986236  1
  O2-  O224  1  0.13771529  0.48145548  0.26933505  1
  O2-  O225  1  0.13328573  0.47281104  0.76109909  1
  O2-  O226  1  0.14048200  0.98745775  0.26963683  1
  O2-  O227  1  0.11903656  0.98531133  0.77230234  1
  O2-  O228  1  0.61403264  0.47955789  0.28269130  1
  O2-  O229  1  0.60986919  0.47471456  0.76918560  1
  O2-  O230  1  0.61127853  0.97575137  0.26500377  1
  O2-  O231  1  0.60859260  0.98679679  0.75133286  1
  O2-  O232  1  0.37420500  0.03307371  0.24472585  1
  O2-  O233  1  0.38600907  0.04333470  0.73809250  1
  O2-  O234  1  0.37033510  0.52398185  0.23541609  1
  O2-  O235  1  0.36982902  0.50289839  0.72315013  1
  O2-  O236  1  0.88570678  0.02379715  0.22429216  1
  O2-  O237  1  0.88457076  0.02714946  0.73349242  1
  O2-  O238  1  0.88408058  0.52335418  0.22177699  1
  O2-  O239  1  0.88698974  0.51170312  0.72267078  1
  O2-  O240  1  0.46940832  0.38737544  0.24669048  1
  O2-  O241  1  0.48014158  0.37266420  0.73550074  1
  O2-  O242  1  0.46722946  0.88957315  0.23829523  1
  O2-  O243  1  0.45947287  0.88627014  0.74189638  1
  O2-  O244  1  0.98744479  0.38304764  0.23308703  1
  O2-  O245  1  0.98575760  0.36991689  0.72811373  1
  O2-  O246  1  0.99138776  0.88526827  0.24090144  1
  O2-  O247  1  0.98534136  0.88269163  0.72392710  1
  O2-  O248  1  0.03318780  0.11722744  0.26325085  1
  O2-  O249  1  0.01618743  0.13366740  0.76769953  1
  O2-  O250  1  0.02924554  0.61600914  0.26175451  1
  O2-  O251  1  0.02196448  0.61203868  0.76874052  1
  O2-  O252  1  0.52228635  0.11737596  0.25788474  1
  O2-  O253  1  0.51860023  0.13461980  0.76281218  1
  O2-  O254  1  0.50884179  0.61624807  0.27625921  1
  O2-  O255  1  0.51147312  0.61179337  0.74667277  1
  O2-  O256  1  0.13951324  0.46495759  -0.00805445  1
  O2-  O257  1  0.14078982  0.47358958  0.47672419  1
  O2-  O258  1  0.13736168  0.97905219  -0.01862135  1
  O2-  O259  1  0.14089181  0.98049157  0.47156918  1
  O2-  O260  1  0.63416748  0.47774137  -0.02798195  1
  O2-  O261  1  0.61767173  0.48609046  0.47778906  1
  O2-  O262  1  0.61524928  0.98591199  -0.01161960  1
  O2-  O263  1  0.61261641  0.98615582  0.48352565  1
  O2-  O264  1  0.37946173  0.02935117  0.00678181  1
  O2-  O265  1  0.37854075  0.02737671  0.50653515  1
  O2-  O266  1  0.36814324  0.53007012  0.01441759  1
  O2-  O267  1  0.37776410  0.51417194  0.51771032  1
  O2-  O268  1  0.86439071  0.02813874  0.01346817  1
  O2-  O269  1  0.86605379  0.02432224  0.51443812  1
  O2-  O270  1  0.86587936  0.51113089  0.01935186  1
  O2-  O271  1  0.86694858  0.51613396  0.52429656  1
  O2-  O272  1  0.48573934  0.36529386  0.01171141  1
  O2-  O273  1  0.48464286  0.37570209  0.51005761  1
  O2-  O274  1  0.47357471  0.88621868  0.01328500  1
  O2-  O275  1  0.47981728  0.88052982  0.51172737  1
  O2-  O276  1  0.96480314  0.35772802  0.01117220  1
  O2-  O277  1  0.98457829  0.36295199  0.52410085  1
  O2-  O278  1  0.96943050  0.86864141  0.01487758  1
  O2-  O279  1  0.97025890  0.86694242  0.51670527  1
  O2-  O280  1  0.01260777  0.13703147  -0.03779261  1
  O2-  O281  1  0.03792305  0.13712382  0.49436553  1
  O2-  O282  1  0.01913470  0.63114272  -0.01645323  1
  O2-  O283  1  0.02119337  0.63383760  0.48564238  1
  O2-  O284  1  0.51605873  0.12521097  -0.01642460  1
  O2-  O285  1  0.51472564  0.12860180  0.49735671  1
  O2-  O286  1  0.53144446  0.63644284  -0.02181948  1
  O2-  O287  1  0.51422911  0.62374668  0.48725117  1
  O2-  O288  1  0.11405508  0.27290371  0.01931764  1
  O2-  O289  1  0.13514897  0.27285387  0.51508673  1
  O2-  O290  1  0.11448932  0.77040102  0.02030821  1
  O2-  O291  1  0.11656405  0.77256133  0.53654635  1
  O2-  O292  1  0.62178559  0.26013501  0.00361606  1
  O2-  O293  1  0.61458631  0.26843337  0.53183809  1
  O2-  O294  1  0.61448034  0.78149096  0.02593113  1
  O2-  O295  1  0.62129506  0.76002174  0.52005302  1
  O2-  O296  1  0.38444722  0.23268966  -0.02726839  1
  O2-  O297  1  0.38042206  0.24056216  0.49005230  1
  O2-  O298  1  0.38460964  0.73733306  -0.02064757  1
  O2-  O299  1  0.38501031  0.73788727  0.47272682  1
  O2-  O300  1  0.86698371  0.22360750  -0.01845825  1
  O2-  O301  1  0.88451453  0.21750034  0.48910629  1
  O2-  O302  1  0.87848665  0.72693526  -0.02344007  1
  O2-  O303  1  0.86298212  0.73248100  0.48050737  1
  O2-  O304  1  0.28538621  0.38588101  0.01220649  1
  O2-  O305  1  0.27814627  0.37474451  0.50663364  1
  O2-  O306  1  0.27155286  0.88708092  0.02471520  1
  O2-  O307  1  0.28057209  0.88496999  0.50925418  1
  O2-  O308  1  0.76133076  0.36473473  -0.02172804  1
  O2-  O309  1  0.76463240  0.38413816  0.47308837  1
  O2-  O310  1  0.76508582  0.88817334  -0.03217453  1
  O2-  O311  1  0.75707804  0.87217760  0.48180095  1
  O2-  O312  1  0.22904131  0.11649332  -0.00148346  1
  O2-  O313  1  0.24410081  0.13445832  0.48221900  1
  O2-  O314  1  0.23033027  0.61137781  -0.02518481  1
  O2-  O315  1  0.24188655  0.61022373  0.47377248  1
  O2-  O316  1  0.72520048  0.12784553  0.01881961  1
  O2-  O317  1  0.71912885  0.11360741  0.52486220  1
  O2-  O318  1  0.72514579  0.61752857  0.02865645  1
  O2-  O319  1  0.72954192  0.62680706  0.51516088  1
