# generated using pymatgen
data_Sr64Ca21Nb43O192
_symmetry_space_group_name_H-M   'P 1'
_cell_length_a   16.52127264
_cell_length_b   16.53424256
_cell_length_c   16.70535977
_cell_angle_alpha   89.97370492
_cell_angle_beta   90.00935093
_cell_angle_gamma   90.00826927
_symmetry_Int_Tables_number   1
_chemical_formula_structural   Sr64Ca21Nb43O192
_chemical_formula_sum   'Sr64 Ca21 Nb43 O192'
_cell_volume   4563.34789988
_cell_formula_units_Z   1
loop_
 _symmetry_equiv_pos_site_id
 _symmetry_equiv_pos_as_xyz
  1  'x, y, z'
loop_
 _atom_type_symbol
 _atom_type_oxidation_number
  Sr2+  2.0
  Ca2+  2.0
  Nb5+  5.0
  O2-  -2.0
loop_
 _atom_site_type_symbol
 _atom_site_label
 _atom_site_symmetry_multiplicity
 _atom_site_fract_x
 _atom_site_fract_y
 _atom_site_fract_z
 _atom_site_occupancy
  Sr2+  Sr0  1  0.13644793  0.11532926  0.12115603  1
  Sr2+  Sr1  1  0.14049376  0.12417998  0.62990761  1
  Sr2+  Sr2  1  0.13035066  0.60181571  0.12488582  1
  Sr2+  Sr3  1  0.12716611  0.63155305  0.62924101  1
  Sr2+  Sr4  1  0.62139512  0.12864321  0.12642298  1
  Sr2+  Sr5  1  0.61438393  0.12221913  0.63052408  1
  Sr2+  Sr6  1  0.61561650  0.63686842  0.11786002  1
  Sr2+  Sr7  1  0.62112440  0.62844650  0.63111704  1
  Sr2+  Sr8  1  0.37174486  0.38413062  0.12778541  1
  Sr2+  Sr9  1  0.37057675  0.39385244  0.62472043  1
  Sr2+  Sr10  1  0.37661691  0.86124952  0.13165688  1
  Sr2+  Sr11  1  0.36961964  0.89870120  0.62283564  1
  Sr2+  Sr12  1  0.87876778  0.37830013  0.11577590  1
  Sr2+  Sr13  1  0.87264736  0.37865446  0.62833786  1
  Sr2+  Sr14  1  0.87071096  0.88422915  0.11784534  1
  Sr2+  Sr15  1  0.87800101  0.88282755  0.63058779  1
  Sr2+  Sr16  1  0.09895721  0.37987344  0.37040959  1
  Sr2+  Sr17  1  0.12015170  0.36564674  0.88439010  1
  Sr2+  Sr18  1  0.11603152  0.86944789  0.36700476  1
  Sr2+  Sr19  1  0.10794031  0.87505774  0.87944989  1
  Sr2+  Sr20  1  0.62322878  0.37202141  0.37338020  1
  Sr2+  Sr21  1  0.63850114  0.37532311  0.87287033  1
  Sr2+  Sr22  1  0.62977054  0.87155363  0.37332856  1
  Sr2+  Sr23  1  0.62969863  0.87143245  0.87837992  1
  Sr2+  Sr24  1  0.37450412  0.12790230  0.37409687  1
  Sr2+  Sr25  1  0.36497511  0.12830661  0.87470446  1
  Sr2+  Sr26  1  0.35369281  0.62228400  0.37633327  1
  Sr2+  Sr27  1  0.40153797  0.62143302  0.87419932  1
  Sr2+  Sr28  1  0.87025186  0.12283408  0.37517197  1
  Sr2+  Sr29  1  0.87821061  0.12073327  0.87467854  1
  Sr2+  Sr30  1  0.86776407  0.62280281  0.37655039  1
  Sr2+  Sr31  1  0.87358142  0.62190782  0.86906731  1
  Sr2+  Sr32  1  0.11732735  0.13283140  0.36125019  1
  Sr2+  Sr33  1  0.12202414  0.11977245  0.88275017  1
  Sr2+  Sr34  1  0.12179094  0.62264723  0.37428390  1
  Sr2+  Sr35  1  0.12284093  0.63391866  0.87636555  1
  Sr2+  Sr36  1  0.62829922  0.13578704  0.37396157  1
  Sr2+  Sr37  1  0.62945183  0.12025880  0.87995835  1
  Sr2+  Sr38  1  0.63115768  0.63188787  0.37760794  1
  Sr2+  Sr39  1  0.63259111  0.62325114  0.87910614  1
  Sr2+  Sr40  1  0.37883346  0.38265481  0.37233730  1
  Sr2+  Sr41  1  0.36663818  0.37537103  0.88513286  1
  Sr2+  Sr42  1  0.37032175  0.87422208  0.37479326  1
  Sr2+  Sr43  1  0.38118622  0.86019977  0.88722860  1
  Sr2+  Sr44  1  0.87406100  0.34921892  0.38194439  1
  Sr2+  Sr45  1  0.87059176  0.35647901  0.87053432  1
  Sr2+  Sr46  1  0.86805104  0.86749558  0.37323140  1
  Sr2+  Sr47  1  0.87560460  0.88148401  0.87566013  1
  Sr2+  Sr48  1  0.12734639  0.36884844  0.12443184  1
  Sr2+  Sr49  1  0.10661758  0.37615575  0.62426971  1
  Sr2+  Sr50  1  0.11452354  0.87692557  0.12566248  1
  Sr2+  Sr51  1  0.12703506  0.87904284  0.63115149  1
  Sr2+  Sr52  1  0.61626122  0.36677976  0.12361073  1
  Sr2+  Sr53  1  0.61919352  0.37920358  0.62511892  1
  Sr2+  Sr54  1  0.62115873  0.88483141  0.12165987  1
  Sr2+  Sr55  1  0.60817005  0.88394135  0.62644575  1
  Sr2+  Sr56  1  0.37259903  0.12682945  0.12311147  1
  Sr2+  Sr57  1  0.37797073  0.12844216  0.62780346  1
  Sr2+  Sr58  1  0.37496730  0.62083246  0.09813976  1
  Sr2+  Sr59  1  0.37024592  0.62469804  0.62500655  1
  Sr2+  Sr60  1  0.85811506  0.12401556  0.12428822  1
  Sr2+  Sr61  1  0.88579233  0.14173498  0.63074091  1
  Sr2+  Sr62  1  0.87928791  0.62085219  0.11341982  1
  Sr2+  Sr63  1  0.87520307  0.63004215  0.62846510  1
  Ca2+  Ca64  1  -0.00037037  0.00262104  0.00398649  1
  Ca2+  Ca65  1  0.49797149  0.00114742  0.00284212  1
  Ca2+  Ca66  1  -0.00001349  0.50001956  -0.00725679  1
  Ca2+  Ca67  1  0.50475905  0.49249513  -0.00213586  1
  Ca2+  Ca68  1  0.00170002  0.00137110  0.49860831  1
  Ca2+  Ca69  1  0.24677371  0.75042039  -0.00100870  1
  Ca2+  Ca70  1  0.74782954  0.24754650  0.50459424  1
  Ca2+  Ca71  1  0.74708786  0.25110536  0.00080562  1
  Ca2+  Ca72  1  0.75287611  0.74804675  -0.00026926  1
  Ca2+  Ca73  1  0.24815828  0.25257317  0.49745946  1
  Ca2+  Ca74  1  0.49980003  0.74827851  0.25453477  1
  Ca2+  Ca75  1  0.49840557  0.25126168  0.74892011  1
  Ca2+  Ca76  1  0.24816235  0.49894921  0.75284510  1
  Ca2+  Ca77  1  -0.00095353  0.74782425  0.25291319  1
  Ca2+  Ca78  1  -0.00194804  0.24987207  0.24312221  1
  Ca2+  Ca79  1  0.24819427  -0.00060208  0.75241625  1
  Ca2+  Ca80  1  0.50185608  0.75112771  0.74694713  1
  Ca2+  Ca81  1  0.75046875  0.50086093  0.25105453  1
  Ca2+  Ca82  1  0.00502336  0.25345725  0.75248504  1
  Ca2+  Ca83  1  0.74804127  -0.00091133  0.74634230  1
  Ca2+  Ca84  1  0.24985949  0.49628381  0.25043028  1
  Nb5+  Nb85  1  -0.00994632  0.50494787  0.50004519  1
  Nb5+  Nb86  1  0.50179955  0.00615025  0.49602694  1
  Nb5+  Nb87  1  0.49866885  0.50896236  0.49628886  1
  Nb5+  Nb88  1  0.24130624  0.75250434  0.50250008  1
  Nb5+  Nb89  1  0.74372357  0.75307315  0.50562493  1
  Nb5+  Nb90  1  0.25070914  0.24827408  0.00102113  1
  Nb5+  Nb91  1  0.24887625  -0.00217894  0.24952668  1
  Nb5+  Nb92  1  -0.00235801  0.75141328  0.74899075  1
  Nb5+  Nb93  1  0.75175205  0.50127614  0.74858318  1
  Nb5+  Nb94  1  0.74290680  -0.00174477  0.25219205  1
  Nb5+  Nb95  1  0.49751644  0.24874461  0.25048392  1
  Nb5+  Nb96  1  -0.00939782  0.00396300  0.25094546  1
  Nb5+  Nb97  1  0.00192283  0.00722786  0.74419634  1
  Nb5+  Nb98  1  -0.00494022  0.50250585  0.24475752  1
  Nb5+  Nb99  1  0.00017916  0.50360205  0.74906064  1
  Nb5+  Nb100  1  0.49528151  0.00100251  0.25175005  1
  Nb5+  Nb101  1  0.49676965  -0.00405312  0.75954540  1
  Nb5+  Nb102  1  0.50438726  0.50378964  0.24983279  1
  Nb5+  Nb103  1  0.50151903  0.49657573  0.75053293  1
  Nb5+  Nb104  1  0.25148686  0.25092385  0.25189961  1
  Nb5+  Nb105  1  0.25188991  0.25216547  0.74643057  1
  Nb5+  Nb106  1  0.25035388  0.74663018  0.24901898  1
  Nb5+  Nb107  1  0.25197264  0.75135335  0.75274770  1
  Nb5+  Nb108  1  0.75161082  0.25167993  0.25179767  1
  Nb5+  Nb109  1  0.74652552  0.24407622  0.74860396  1
  Nb5+  Nb110  1  0.75189769  0.74809818  0.24385312  1
  Nb5+  Nb111  1  0.75054101  0.75322122  0.74807103  1
  Nb5+  Nb112  1  0.00542929  0.24457462  0.50117022  1
  Nb5+  Nb113  1  -0.00270539  0.24689363  1.00093066  1
  Nb5+  Nb114  1  -0.00823979  0.75147031  0.50019850  1
  Nb5+  Nb115  1  -0.00222335  0.75165238  1.00746222  1
  Nb5+  Nb116  1  0.49472887  0.25669753  0.50205648  1
  Nb5+  Nb117  1  0.49963553  0.25245260  0.99419114  1
  Nb5+  Nb118  1  0.49182332  0.75384807  0.49998616  1
  Nb5+  Nb119  1  0.50162369  0.75105741  1.00120825  1
  Nb5+  Nb120  1  0.25673609  -0.00683290  -0.00102748  1
  Nb5+  Nb121  1  0.24412758  0.00178907  0.49372548  1
  Nb5+  Nb122  1  0.24698193  0.49936479  -0.00401982  1
  Nb5+  Nb123  1  0.24018366  0.49736559  0.50089093  1
  Nb5+  Nb124  1  0.74974905  0.00098386  -0.00404326  1
  Nb5+  Nb125  1  0.74811160  0.00208394  0.50362199  1
  Nb5+  Nb126  1  0.75321655  0.49843678  0.00606990  1
  Nb5+  Nb127  1  0.74593786  0.50062173  0.50056189  1
  O2-  O128  1  -0.00304862  -0.02817448  0.13770205  1
  O2-  O129  1  0.00731888  -0.02632499  0.63058444  1
  O2-  O130  1  -0.01733674  0.48968239  0.13078064  1
  O2-  O131  1  -0.01275348  0.48958078  0.61990395  1
  O2-  O132  1  0.51752214  0.01271316  0.13886632  1
  O2-  O133  1  0.50773190  0.01303191  0.61438681  1
  O2-  O134  1  0.48820388  0.51190319  0.13584313  1
  O2-  O135  1  0.50359119  0.51777991  0.61430215  1
  O2-  O136  1  0.00076667  0.03438082  0.36704240  1
  O2-  O137  1  -0.01023858  0.01357719  0.86470428  1
  O2-  O138  1  0.00765254  0.51885741  0.38329705  1
  O2-  O139  1  0.00747716  0.53287452  0.85987725  1
  O2-  O140  1  0.49370053  -0.01400783  0.37619468  1
  O2-  O141  1  0.48164744  -0.02381015  0.86993008  1
  O2-  O142  1  0.51327265  0.47644500  0.38282715  1
  O2-  O143  1  0.50527755  0.46690685  0.86098108  1
  O2-  O144  1  0.25132891  0.23315409  0.12860978  1
  O2-  O145  1  0.24817933  0.23314625  0.63190693  1
  O2-  O146  1  0.27568944  0.73889381  0.13680565  1
  O2-  O147  1  0.26225810  0.73144681  0.61867988  1
  O2-  O148  1  0.73118302  0.25030631  0.13616444  1
  O2-  O149  1  0.77486880  0.25647332  0.63421188  1
  O2-  O150  1  0.78297547  0.75042644  0.13460703  1
  O2-  O151  1  0.77919768  0.75576322  0.61957362  1
  O2-  O152  1  0.26623995  0.24140078  0.36487899  1
  O2-  O153  1  0.25551534  0.25948838  0.88330954  1
  O2-  O154  1  0.22827405  0.75916207  0.38390762  1
  O2-  O155  1  0.22849909  0.77642232  0.86231583  1
  O2-  O156  1  0.74842532  0.23527917  0.36944046  1
  O2-  O157  1  0.73765047  0.25389536  0.86695867  1
  O2-  O158  1  0.73275127  0.74652070  0.38601029  1
  O2-  O159  1  0.72804553  0.74518397  0.86198157  1
  O2-  O160  1  -0.00023044  0.28444463  0.11402723  1
  O2-  O161  1  -0.01276654  0.27294329  0.61613514  1
  O2-  O162  1  -0.02200084  0.76916134  0.11924243  1
  O2-  O163  1  -0.01823362  0.76197726  0.62167633  1
  O2-  O164  1  0.51073922  0.23541202  0.13361385  1
  O2-  O165  1  0.50315543  0.22561189  0.61298222  1
  O2-  O166  1  0.48021556  0.72749121  0.11984259  1
  O2-  O167  1  0.49273723  0.71974218  0.61116895  1
  O2-  O168  1  0.26726660  -0.00876491  0.37269079  1
  O2-  O169  1  0.25009556  -0.01317145  0.88561858  1
  O2-  O170  1  0.24233451  0.50357088  0.38475391  1
  O2-  O171  1  0.23300314  0.46903856  0.88351269  1
  O2-  O172  1  0.75551522  0.00098801  0.37493215  1
  O2-  O173  1  0.76291552  0.01209518  0.88146065  1
  O2-  O174  1  0.74415264  0.52246484  0.38661239  1
  O2-  O175  1  0.74251286  0.50895723  0.86606410  1
  O2-  O176  1  0.00760519  0.24231776  0.38075369  1
  O2-  O177  1  0.01823648  0.22936242  0.88385541  1
  O2-  O178  1  0.02461081  0.73717629  0.38974453  1
  O2-  O179  1  0.01429661  0.73760776  0.86396372  1
  O2-  O180  1  0.49064150  0.25924592  0.37469749  1
  O2-  O181  1  0.48176324  0.26567811  0.88264142  1
  O2-  O182  1  0.53053342  0.75864241  0.38995208  1
  O2-  O183  1  0.51719617  0.77178007  0.88221491  1
  O2-  O184  1  0.26056700  0.00801086  0.13331220  1
  O2-  O185  1  0.24970846  0.01269878  0.61054645  1
  O2-  O186  1  0.26926569  0.50755851  0.11661682  1
  O2-  O187  1  0.26178169  0.51467319  0.61519255  1
  O2-  O188  1  0.74254030  -0.00618611  0.13290060  1
  O2-  O189  1  0.73145820  -0.02069079  0.61365984  1
  O2-  O190  1  0.77030714  0.49182661  0.11877505  1
  O2-  O191  1  0.75540960  0.49776582  0.62221073  1
  O2-  O192  1  0.13708915  0.27013885  0.25490944  1
  O2-  O193  1  0.13783702  0.29349199  0.75007510  1
  O2-  O194  1  0.13806384  0.78246922  0.24111275  1
  O2-  O195  1  0.11449169  0.76463796  0.72873187  1
  O2-  O196  1  0.62077266  0.26289660  0.26294639  1
  O2-  O197  1  0.63483801  0.28320747  0.73809208  1
  O2-  O198  1  0.63851791  0.78512442  0.23795546  1
  O2-  O199  1  0.63909556  0.76489132  0.71639265  1
  O2-  O200  1  0.38126118  0.21981117  0.24478037  1
  O2-  O201  1  0.36651836  0.21362178  0.75178637  1
  O2-  O202  1  0.36432231  0.74476966  0.28720362  1
  O2-  O203  1  0.36449867  0.72714760  0.76598156  1
  O2-  O204  1  0.86414635  0.21852621  0.24720004  1
  O2-  O205  1  0.86779254  0.22834006  0.76799768  1
  O2-  O206  1  0.86342881  0.74170855  0.28566426  1
  O2-  O207  1  0.87483296  0.72560396  0.75597977  1
  O2-  O208  1  0.28298744  0.36188349  0.24745066  1
  O2-  O209  1  0.29394174  0.36456070  0.74828284  1
  O2-  O210  1  0.27678260  0.88090628  0.24869477  1
  O2-  O211  1  0.25790155  0.86370356  0.71703887  1
  O2-  O212  1  0.77465161  0.36416397  0.26072923  1
  O2-  O213  1  0.77349703  0.38422064  0.75180947  1
  O2-  O214  1  0.77375055  0.88155295  0.25430987  1
  O2-  O215  1  0.77971124  0.86496961  0.75438794  1
  O2-  O216  1  0.23436816  0.11921895  0.25702622  1
  O2-  O217  1  0.21667102  0.13641912  0.76891145  1
  O2-  O218  1  0.23014429  0.63403045  0.26347105  1
  O2-  O219  1  0.21727396  0.63679467  0.75557964  1
  O2-  O220  1  0.72768307  0.11766619  0.24778100  1
  O2-  O221  1  0.71739405  0.13260637  0.74339885  1
  O2-  O222  1  0.71915262  0.63720438  0.24448319  1
  O2-  O223  1  0.73643281  0.62525449  0.73746726  1
  O2-  O224  1  0.11523834  0.46949087  0.24103206  1
  O2-  O225  1  0.11247135  0.48750605  0.72953500  1
  O2-  O226  1  0.13363556  0.98023692  0.25174487  1
  O2-  O227  1  0.11440635  0.96998039  0.75867933  1
  O2-  O228  1  0.61527358  0.46053106  0.24665127  1
  O2-  O229  1  0.63139762  0.48441155  0.73665780  1
  O2-  O230  1  0.62673086  0.97962932  0.26299500  1
  O2-  O231  1  0.61500644  0.96578781  0.75833839  1
  O2-  O232  1  0.38060092  0.02569827  0.25051026  1
  O2-  O233  1  0.38259605  0.02400993  0.73711115  1
  O2-  O234  1  0.38924003  0.50806334  0.27812647  1
  O2-  O235  1  0.38793133  0.52436618  0.74549798  1
  O2-  O236  1  0.87325928  0.02356732  0.24819961  1
  O2-  O237  1  0.88256162  0.02314858  0.73170171  1
  O2-  O238  1  0.88360805  0.54366707  0.25301605  1
  O2-  O239  1  0.87136592  0.52560563  0.74474308  1
  O2-  O240  1  0.47827130  0.36520641  0.24313928  1
  O2-  O241  1  0.49221681  0.38576037  0.71026765  1
  O2-  O242  1  0.47899931  0.88546538  0.24423670  1
  O2-  O243  1  0.47706116  0.88225242  0.72139150  1
  O2-  O244  1  0.97104951  0.38882628  0.27571475  1
  O2-  O245  1  0.97250743  0.39076946  0.76023972  1
  O2-  O246  1  0.98948844  0.88814629  0.28210312  1
  O2-  O247  1  0.97337076  0.86742579  0.75930069  1
  O2-  O248  1  0.02855337  0.11506674  0.22693936  1
  O2-  O249  1  0.02535835  0.11918506  0.72542838  1
  O2-  O250  1  0.03735059  0.61612809  0.24308692  1
  O2-  O251  1  0.00732362  0.62882633  0.72313531  1
  O2-  O252  1  0.52068109  0.12346969  0.26882751  1
  O2-  O253  1  0.53032993  0.11176141  0.76217553  1
  O2-  O254  1  0.53319712  0.61357135  0.26493375  1
  O2-  O255  1  0.52901038  0.61359495  0.76589317  1
  O2-  O256  1  0.13252528  0.47293359  0.01994987  1
  O2-  O257  1  0.12346570  0.48619307  0.51006236  1
  O2-  O258  1  0.13875637  0.98521406  0.01836487  1
  O2-  O259  1  0.13703418  0.96073615  0.48965922  1
  O2-  O260  1  0.63785892  0.46405405  0.00108659  1
  O2-  O261  1  0.62759545  0.48280926  0.50554884  1
  O2-  O262  1  0.63282968  0.97203467  -0.00920747  1
  O2-  O263  1  0.61760591  0.97076383  0.48875238  1
  O2-  O264  1  0.36625580  0.03650232  0.00347086  1
  O2-  O265  1  0.37891679  0.01001691  0.49958607  1
  O2-  O266  1  0.36720827  0.51454630  -0.02176790  1
  O2-  O267  1  0.38206774  0.52099982  0.49274040  1
  O2-  O268  1  0.86602133  0.02490335  0.01674495  1
  O2-  O269  1  0.86156192  0.02684663  0.50881334  1
  O2-  O270  1  0.86715540  0.53352681  -0.01172102  1
  O2-  O271  1  0.87418907  0.52832519  0.49940097  1
  O2-  O272  1  0.47239131  0.36317188  0.02687395  1
  O2-  O273  1  0.47617188  0.37330873  0.51188496  1
  O2-  O274  1  0.47501909  0.86627818  0.01957249  1
  O2-  O275  1  0.48248008  0.86978622  0.51472539  1
  O2-  O276  1  0.98367547  0.36538981  -0.02978973  1
  O2-  O277  1  0.97749106  0.38725654  0.48614566  1
  O2-  O278  1  0.97847733  0.86835554  -0.02201060  1
  O2-  O279  1  0.97683626  0.86540198  0.48565150  1
  O2-  O280  1  0.03076506  0.13508513  0.02100151  1
  O2-  O281  1  0.03435891  0.13540323  0.52220881  1
  O2-  O282  1  0.03067664  0.63655345  0.01671018  1
  O2-  O283  1  0.01681581  0.62506369  0.51764243  1
  O2-  O284  1  0.52537882  0.13602712  -0.00544959  1
  O2-  O285  1  0.52019106  0.11940622  0.48191786  1
  O2-  O286  1  0.52134832  0.62900034  -0.01690087  1
  O2-  O287  1  0.51987180  0.62156084  0.48034286  1
  O2-  O288  1  0.13344061  0.27170193  0.00545573  1
  O2-  O289  1  0.11570355  0.29035571  0.49911080  1
  O2-  O290  1  0.11524150  0.78280035  0.00504238  1
  O2-  O291  1  0.12650422  0.76461849  0.52351838  1
  O2-  O292  1  0.61281669  0.28082648  -0.00578123  1
  O2-  O293  1  0.61307074  0.27167581  0.49202085  1
  O2-  O294  1  0.61822219  0.76818762  0.02583315  1
  O2-  O295  1  0.62972831  0.76610261  0.52456572  1
  O2-  O296  1  0.37251564  0.22539433  0.00640574  1
  O2-  O297  1  0.38324546  0.21861701  0.49810139  1
  O2-  O298  1  0.38215896  0.72658657  -0.02341260  1
  O2-  O299  1  0.37835053  0.73374387  0.48197313  1
  O2-  O300  1  0.88336523  0.21996344  -0.00235682  1
  O2-  O301  1  0.88563197  0.22757323  0.48851012  1
  O2-  O302  1  0.88612031  0.72257202  -0.02154490  1
  O2-  O303  1  0.87688504  0.72855711  0.48624179  1
  O2-  O304  1  0.27297040  0.36731522  0.01557088  1
  O2-  O305  1  0.27781745  0.38796047  0.50214606  1
  O2-  O306  1  0.28597813  0.88266335  0.01364219  1
  O2-  O307  1  0.27520477  0.86767851  0.50542685  1
  O2-  O308  1  0.78685121  0.38292956  -0.00925391  1
  O2-  O309  1  0.77253720  0.38782482  0.49243018  1
  O2-  O310  1  0.77557417  0.88314421  -0.00150943  1
  O2-  O311  1  0.76761609  0.87161585  0.49086423  1
  O2-  O312  1  0.22929044  0.12845132  -0.00655641  1
  O2-  O313  1  0.21939270  0.11294987  0.48103811  1
  O2-  O314  1  0.22415314  0.61422433  -0.01041041  1
  O2-  O315  1  0.23904566  0.62912776  0.48981566  1
  O2-  O316  1  0.72059907  0.11629661  0.01232699  1
  O2-  O317  1  0.71195886  0.11171125  0.50565422  1
  O2-  O318  1  0.71814160  0.61416979  0.00725692  1
  O2-  O319  1  0.73225514  0.63008954  0.51382624  1
