# generated using pymatgen
data_Sr64Ca21Nb43O192
_symmetry_space_group_name_H-M   'P 1'
_cell_length_a   16.57687309
_cell_length_b   16.59449484
_cell_length_c   16.76713798
_cell_angle_alpha   90.00961414
_cell_angle_beta   90.04452792
_cell_angle_gamma   90.07357641
_symmetry_Int_Tables_number   1
_chemical_formula_structural   Sr64Ca21Nb43O192
_chemical_formula_sum   'Sr64 Ca21 Nb43 O192'
_cell_volume   4612.38012307
_cell_formula_units_Z   1
loop_
 _symmetry_equiv_pos_site_id
 _symmetry_equiv_pos_as_xyz
  1  'x, y, z'
loop_
 _atom_type_symbol
 _atom_type_oxidation_number
  Sr2+  2.0
  Ca2+  2.0
  Nb5+  5.0
  O2-  -2.0
loop_
 _atom_site_type_symbol
 _atom_site_label
 _atom_site_symmetry_multiplicity
 _atom_site_fract_x
 _atom_site_fract_y
 _atom_site_fract_z
 _atom_site_occupancy
  Sr2+  Sr0  1  0.13219483  0.10914135  0.12502823  1
  Sr2+  Sr1  1  0.11845460  0.12502590  0.62311583  1
  Sr2+  Sr2  1  0.12376805  0.62709931  0.12440464  1
  Sr2+  Sr3  1  0.12739416  0.63116153  0.62645170  1
  Sr2+  Sr4  1  0.62644059  0.11863076  0.12301914  1
  Sr2+  Sr5  1  0.62071462  0.11479137  0.62801730  1
  Sr2+  Sr6  1  0.62682015  0.62377619  0.11880169  1
  Sr2+  Sr7  1  0.61492607  0.62920983  0.62315848  1
  Sr2+  Sr8  1  0.36931232  0.36983544  0.12455870  1
  Sr2+  Sr9  1  0.37457837  0.37042884  0.63106783  1
  Sr2+  Sr10  1  0.37283990  0.88712345  0.12723104  1
  Sr2+  Sr11  1  0.36788690  0.85983998  0.62186438  1
  Sr2+  Sr12  1  0.87274629  0.37259349  0.11646912  1
  Sr2+  Sr13  1  0.86991120  0.37262371  0.61348408  1
  Sr2+  Sr14  1  0.87608035  0.86782939  0.13109369  1
  Sr2+  Sr15  1  0.86729571  0.87788051  0.63365514  1
  Sr2+  Sr16  1  0.10570772  0.37686898  0.36918960  1
  Sr2+  Sr17  1  0.13958092  0.37676759  0.87808672  1
  Sr2+  Sr18  1  0.12570545  0.87618989  0.37637361  1
  Sr2+  Sr19  1  0.11998157  0.87174110  0.87720364  1
  Sr2+  Sr20  1  0.61015706  0.37178391  0.37905625  1
  Sr2+  Sr21  1  0.63275364  0.36993563  0.86905406  1
  Sr2+  Sr22  1  0.62663372  0.87899487  0.38761457  1
  Sr2+  Sr23  1  0.63796998  0.88024358  0.87445486  1
  Sr2+  Sr24  1  0.38586836  0.12401929  0.36889735  1
  Sr2+  Sr25  1  0.38240865  0.13414810  0.87387038  1
  Sr2+  Sr26  1  0.38177688  0.62754930  0.37473320  1
  Sr2+  Sr27  1  0.38918127  0.63639407  0.88082187  1
  Sr2+  Sr28  1  0.87846625  0.13446976  0.37609388  1
  Sr2+  Sr29  1  0.87865429  0.13331198  0.86740365  1
  Sr2+  Sr30  1  0.87239517  0.62913625  0.36974058  1
  Sr2+  Sr31  1  0.88010871  0.62785129  0.86379821  1
  Sr2+  Sr32  1  0.12599545  0.11810574  0.37374678  1
  Sr2+  Sr33  1  0.12655512  0.12302635  0.87110655  1
  Sr2+  Sr34  1  0.12186811  0.62866012  0.37240733  1
  Sr2+  Sr35  1  0.11817009  0.62360183  0.87303013  1
  Sr2+  Sr36  1  0.62448526  0.11736129  0.37341477  1
  Sr2+  Sr37  1  0.63024049  0.12793973  0.87220397  1
  Sr2+  Sr38  1  0.63122149  0.61995317  0.37416075  1
  Sr2+  Sr39  1  0.62940217  0.64693523  0.87648198  1
  Sr2+  Sr40  1  0.37087099  0.38123467  0.36946311  1
  Sr2+  Sr41  1  0.37524387  0.36802107  0.87076847  1
  Sr2+  Sr42  1  0.38137688  0.88149821  0.37287737  1
  Sr2+  Sr43  1  0.37745954  0.88344836  0.87912585  1
  Sr2+  Sr44  1  0.87502384  0.37346573  0.37380880  1
  Sr2+  Sr45  1  0.88136053  0.38385115  0.87459463  1
  Sr2+  Sr46  1  0.87612434  0.87667381  0.37337922  1
  Sr2+  Sr47  1  0.87719673  0.89463920  0.86936001  1
  Sr2+  Sr48  1  0.12736894  0.37214118  0.11976519  1
  Sr2+  Sr49  1  0.12080031  0.37735025  0.60809646  1
  Sr2+  Sr50  1  0.11958626  0.86876157  0.12935088  1
  Sr2+  Sr51  1  0.13549518  0.86327097  0.62070371  1
  Sr2+  Sr52  1  0.63489707  0.37119632  0.12952345  1
  Sr2+  Sr53  1  0.61140949  0.37672753  0.62590984  1
  Sr2+  Sr54  1  0.61849393  0.86444332  0.11482555  1
  Sr2+  Sr55  1  0.62751290  0.87517067  0.63290384  1
  Sr2+  Sr56  1  0.37116305  0.12107273  0.12413542  1
  Sr2+  Sr57  1  0.37504113  0.12740312  0.63755051  1
  Sr2+  Sr58  1  0.39509345  0.62458341  0.12978638  1
  Sr2+  Sr59  1  0.36894185  0.62563469  0.62154230  1
  Sr2+  Sr60  1  0.88342525  0.11835038  0.11581323  1
  Sr2+  Sr61  1  0.86960452  0.11606321  0.62469019  1
  Sr2+  Sr62  1  0.85421429  0.62494280  0.12626215  1
  Sr2+  Sr63  1  0.85284439  0.62216876  0.62584906  1
  Ca2+  Ca64  1  0.49734355  -0.00077237  0.50341227  1
  Ca2+  Ca65  1  0.50073039  0.00177139  -0.00162048  1
  Ca2+  Ca66  1  0.00025247  -0.00249802  -0.00046901  1
  Ca2+  Ca67  1  0.49851031  0.49703576  -0.00245842  1
  Ca2+  Ca68  1  -0.00110268  -0.00327721  0.49973670  1
  Ca2+  Ca69  1  0.25139001  0.25139885  0.49822289  1
  Ca2+  Ca70  1  0.75607970  0.75132457  -0.00343941  1
  Ca2+  Ca71  1  0.25100760  0.74798153  0.00686067  1
  Ca2+  Ca72  1  0.75266365  0.75136863  0.50208480  1
  Ca2+  Ca73  1  0.74634526  0.25128572  0.50299708  1
  Ca2+  Ca74  1  0.00242486  0.75112333  0.74524660  1
  Ca2+  Ca75  1  0.49583793  0.75228350  0.74962621  1
  Ca2+  Ca76  1  0.75329881  0.49678728  0.25228129  1
  Ca2+  Ca77  1  0.25343128  -0.00562488  0.74944040  1
  Ca2+  Ca78  1  -0.00365881  0.25106981  0.24631031  1
  Ca2+  Ca79  1  0.24962699  0.50086979  0.74819213  1
  Ca2+  Ca80  1  0.75214111  0.00091280  0.24780402  1
  Ca2+  Ca81  1  -0.00087976  0.25609184  0.74899917  1
  Ca2+  Ca82  1  0.50104163  0.75197834  0.25022011  1
  Ca2+  Ca83  1  0.50000118  0.25137544  0.24740652  1
  Ca2+  Ca84  1  0.74972515  0.49786776  0.75124781  1
  Nb5+  Nb85  1  0.00040943  0.50148710  -0.00383770  1
  Nb5+  Nb86  1  0.49316772  0.50164904  0.50124687  1
  Nb5+  Nb87  1  -0.00592202  0.50677991  0.49515243  1
  Nb5+  Nb88  1  0.25240393  0.24577173  0.00385435  1
  Nb5+  Nb89  1  0.75584430  0.24683685  0.00032053  1
  Nb5+  Nb90  1  0.25134155  0.74860477  0.49399908  1
  Nb5+  Nb91  1  -0.00037401  0.74794584  0.25069101  1
  Nb5+  Nb92  1  0.24838279  0.49845928  0.24989152  1
  Nb5+  Nb93  1  0.50257600  0.24822131  0.75086484  1
  Nb5+  Nb94  1  0.75014505  0.00389767  0.75190728  1
  Nb5+  Nb95  1  0.24941923  -0.00568166  0.25184422  1
  Nb5+  Nb96  1  -0.00034381  0.00346447  0.25230652  1
  Nb5+  Nb97  1  0.00838060  -0.00130235  0.74418485  1
  Nb5+  Nb98  1  0.00094394  0.50429652  0.24355073  1
  Nb5+  Nb99  1  0.00190879  0.50059654  0.73684683  1
  Nb5+  Nb100  1  0.50681021  -0.00286554  0.24663368  1
  Nb5+  Nb101  1  0.49734860  -0.00422173  0.74974771  1
  Nb5+  Nb102  1  0.50501041  0.49767609  0.24984202  1
  Nb5+  Nb103  1  0.49798971  0.50202472  0.75400009  1
  Nb5+  Nb104  1  0.24881118  0.24365808  0.25229826  1
  Nb5+  Nb105  1  0.24418747  0.24880953  0.75069495  1
  Nb5+  Nb106  1  0.24916327  0.74449758  0.24996069  1
  Nb5+  Nb107  1  0.25224828  0.74759450  0.76118976  1
  Nb5+  Nb108  1  0.75119090  0.24765803  0.25344936  1
  Nb5+  Nb109  1  0.75141388  0.25197088  0.74753899  1
  Nb5+  Nb110  1  0.74256066  0.75618026  0.25107963  1
  Nb5+  Nb111  1  0.74896783  0.74650113  0.74770606  1
  Nb5+  Nb112  1  0.00419461  0.24670646  0.50068497  1
  Nb5+  Nb113  1  0.00648310  0.25125189  0.99963543  1
  Nb5+  Nb114  1  -0.00088591  0.74758534  0.49945148  1
  Nb5+  Nb115  1  -0.00280840  0.74999761  0.99664172  1
  Nb5+  Nb116  1  0.49661990  0.24877522  0.49929548  1
  Nb5+  Nb117  1  0.50990007  0.25200165  1.00012868  1
  Nb5+  Nb118  1  0.49979266  0.75276196  0.49931911  1
  Nb5+  Nb119  1  0.49834218  0.75110670  0.99956598  1
  Nb5+  Nb120  1  0.24782337  -0.00433212  -0.00381404  1
  Nb5+  Nb121  1  0.25218168  0.00244509  0.50216965  1
  Nb5+  Nb122  1  0.24837113  0.50097423  0.00231940  1
  Nb5+  Nb123  1  0.24421049  0.50102694  0.49589610  1
  Nb5+  Nb124  1  0.75572722  -0.00010578  0.00220385  1
  Nb5+  Nb125  1  0.74841452  0.00164372  0.49620990  1
  Nb5+  Nb126  1  0.74569605  0.49789288  -0.00240024  1
  Nb5+  Nb127  1  0.74060334  0.49758290  0.50050349  1
  O2-  O128  1  -0.01914837  -0.01626697  0.13732189  1
  O2-  O129  1  -0.02888709  0.00458163  0.63186608  1
  O2-  O130  1  0.02009488  0.49425000  0.13059634  1
  O2-  O131  1  0.01869605  0.50042282  0.62069481  1
  O2-  O132  1  0.47756443  0.02115326  0.13352892  1
  O2-  O133  1  0.49097452  0.03529034  0.63660166  1
  O2-  O134  1  0.51577088  0.51686910  0.13608617  1
  O2-  O135  1  0.51933472  0.51378325  0.61644772  1
  O2-  O136  1  0.03043901  -0.00478832  0.36573054  1
  O2-  O137  1  0.02616282  -0.00552697  0.86497219  1
  O2-  O138  1  -0.00968538  0.51206180  0.37860145  1
  O2-  O139  1  -0.00753746  0.50960261  0.88126606  1
  O2-  O140  1  0.52064833  -0.01910793  0.36595535  1
  O2-  O141  1  0.52013063  -0.02677653  0.86393731  1
  O2-  O142  1  0.49013315  0.47948609  0.38153662  1
  O2-  O143  1  0.46670658  0.48793450  0.86319300  1
  O2-  O144  1  0.22312818  0.24304012  0.12208095  1
  O2-  O145  1  0.22730155  0.24212958  0.63763896  1
  O2-  O146  1  0.22345767  0.75259490  0.13854236  1
  O2-  O147  1  0.24266995  0.74439998  0.61346397  1
  O2-  O148  1  0.73233282  0.25844743  0.11629820  1
  O2-  O149  1  0.73400339  0.27629418  0.63818477  1
  O2-  O150  1  0.74676004  0.76372664  0.13130436  1
  O2-  O151  1  0.74300412  0.77929824  0.63407143  1
  O2-  O152  1  0.28060551  0.24700287  0.36294603  1
  O2-  O153  1  0.26605950  0.25649412  0.88661165  1
  O2-  O154  1  0.26113825  0.75697103  0.37125713  1
  O2-  O155  1  0.26118014  0.75150460  0.87325384  1
  O2-  O156  1  0.76754887  0.24042430  0.36717674  1
  O2-  O157  1  0.75489393  0.22949485  0.88106945  1
  O2-  O158  1  0.76146347  0.73665700  0.36670496  1
  O2-  O159  1  0.76667599  0.73449239  0.86398302  1
  O2-  O160  1  0.00272963  0.27707463  0.11415095  1
  O2-  O161  1  0.03146454  0.25706322  0.61679929  1
  O2-  O162  1  0.01121462  0.75381954  0.13172836  1
  O2-  O163  1  0.02713613  0.75377241  0.61062090  1
  O2-  O164  1  0.52203106  0.23462359  0.11298566  1
  O2-  O165  1  0.51922740  0.23521047  0.63376670  1
  O2-  O166  1  0.52323561  0.72790255  0.11761888  1
  O2-  O167  1  0.49343553  0.72226036  0.61364108  1
  O2-  O168  1  0.22415906  -0.00240353  0.36767091  1
  O2-  O169  1  0.22046206  -0.01057844  0.88471354  1
  O2-  O170  1  0.26561857  0.50055549  0.37262699  1
  O2-  O171  1  0.26101894  0.48604471  0.88939209  1
  O2-  O172  1  0.72342643  0.00215266  0.38285646  1
  O2-  O173  1  0.73044125  0.01284000  0.87189831  1
  O2-  O174  1  0.76024639  0.52544494  0.38621845  1
  O2-  O175  1  0.77979418  0.50810184  0.88689567  1
  O2-  O176  1  -0.02397304  0.25592604  0.38385590  1
  O2-  O177  1  -0.02522885  0.25227000  0.88723931  1
  O2-  O178  1  -0.00661807  0.73324188  0.37319990  1
  O2-  O179  1  -0.00028667  0.73327400  0.88306757  1
  O2-  O180  1  0.47711990  0.27170734  0.38753437  1
  O2-  O181  1  0.48937851  0.26840396  0.87208544  1
  O2-  O182  1  0.48328755  0.75836328  0.38391868  1
  O2-  O183  1  0.47128107  0.76719287  0.88294699  1
  O2-  O184  1  0.26633750  0.00866035  0.13116948  1
  O2-  O185  1  0.28450298  -0.00040429  0.61247283  1
  O2-  O186  1  0.22339581  0.50122931  0.13449320  1
  O2-  O187  1  0.23431607  0.51647935  0.60987781  1
  O2-  O188  1  0.78524962  -0.00189219  0.11410928  1
  O2-  O189  1  0.76628309  -0.00395742  0.63253581  1
  O2-  O190  1  0.74773059  0.48145961  0.11552334  1
  O2-  O191  1  0.75093595  0.47516144  0.61681422  1
  O2-  O192  1  0.13512706  0.27084112  0.26458710  1
  O2-  O193  1  0.13440892  0.25881600  0.78291399  1
  O2-  O194  1  0.12332440  0.76580412  0.26872231  1
  O2-  O195  1  0.13807035  0.78721731  0.75349087  1
  O2-  O196  1  0.63506840  0.28705934  0.25727112  1
  O2-  O197  1  0.62368402  0.25793918  0.76857615  1
  O2-  O198  1  0.63343080  0.78875555  0.26267829  1
  O2-  O199  1  0.63167781  0.77278538  0.76668756  1
  O2-  O200  1  0.36169483  0.24227066  0.21534544  1
  O2-  O201  1  0.38046372  0.23509187  0.74318367  1
  O2-  O202  1  0.36289074  0.73152926  0.23641641  1
  O2-  O203  1  0.36378743  0.71026227  0.74155646  1
  O2-  O204  1  0.86310961  0.21177790  0.22824541  1
  O2-  O205  1  0.86296031  0.22486311  0.73707901  1
  O2-  O206  1  0.88405482  0.72457657  0.24243480  1
  O2-  O207  1  0.86751572  0.73264555  0.73174955  1
  O2-  O208  1  0.26151798  0.38048330  0.24696430  1
  O2-  O209  1  0.27380320  0.36317538  0.75333803  1
  O2-  O210  1  0.26304777  0.87645086  0.24934322  1
  O2-  O211  1  0.28932955  0.86220624  0.74580218  1
  O2-  O212  1  0.78909174  0.36346117  0.24723718  1
  O2-  O213  1  0.76266949  0.36209393  0.78144066  1
  O2-  O214  1  0.78789139  0.86652662  0.25572156  1
  O2-  O215  1  0.76402471  0.88464711  0.76495908  1
  O2-  O216  1  0.23171079  0.12615603  0.25221005  1
  O2-  O217  1  0.24876012  0.13153827  0.76826748  1
  O2-  O218  1  0.22943112  0.62739475  0.25733847  1
  O2-  O219  1  0.21427869  0.63370710  0.75387495  1
  O2-  O220  1  0.71050953  0.13446161  0.24428037  1
  O2-  O221  1  0.72849054  0.12645409  0.74187162  1
  O2-  O222  1  0.72480393  0.63599360  0.23502955  1
  O2-  O223  1  0.72431862  0.63384002  0.72923712  1
  O2-  O224  1  0.12649808  0.49420365  0.27351154  1
  O2-  O225  1  0.11316671  0.46331905  0.75930042  1
  O2-  O226  1  0.12892692  0.98337187  0.22901350  1
  O2-  O227  1  0.11932932  0.98377720  0.71458491  1
  O2-  O228  1  0.61667543  0.47683245  0.26630779  1
  O2-  O229  1  0.61264475  0.47012434  0.75544611  1
  O2-  O230  1  0.61698087  0.98032167  0.21854104  1
  O2-  O231  1  0.62755746  0.99165582  0.73461265  1
  O2-  O232  1  0.36505581  0.01449867  0.26858122  1
  O2-  O233  1  0.38650393  0.01521591  0.77671018  1
  O2-  O234  1  0.36464233  0.52072834  0.24034987  1
  O2-  O235  1  0.38638642  0.50479077  0.71391595  1
  O2-  O236  1  0.88775268  0.01723738  0.27972022  1
  O2-  O237  1  0.86770539  0.02205522  0.76795902  1
  O2-  O238  1  0.88896597  0.53141309  0.24244749  1
  O2-  O239  1  0.88632237  0.53459048  0.74268066  1
  O2-  O240  1  0.46651826  0.38685439  0.24232304  1
  O2-  O241  1  0.48777813  0.36780355  0.73378096  1
  O2-  O242  1  0.46925732  0.88512697  0.23793944  1
  O2-  O243  1  0.48812061  0.88591560  0.71444549  1
  O2-  O244  1  0.98816869  0.39086079  0.26336507  1
  O2-  O245  1  0.96018126  0.38810756  0.74329960  1
  O2-  O246  1  0.98656138  0.86666241  0.25912849  1
  O2-  O247  1  0.97112906  0.88534464  0.75209802  1
  O2-  O248  1  0.02592669  0.11575731  0.24177427  1
  O2-  O249  1  0.01733197  0.11787604  0.75205739  1
  O2-  O250  1  0.02909483  0.62650258  0.24693593  1
  O2-  O251  1  0.03269301  0.61516313  0.74907523  1
  O2-  O252  1  0.50690137  0.11655384  0.27298499  1
  O2-  O253  1  0.51293135  0.12917453  0.77232118  1
  O2-  O254  1  0.50555194  0.61310516  0.27712854  1
  O2-  O255  1  0.52171821  0.61443921  0.76637962  1
  O2-  O256  1  0.12243421  0.47294328  -0.00254185  1
  O2-  O257  1  0.12919640  0.48268383  0.48147374  1
  O2-  O258  1  0.13418298  0.98471598  0.03088002  1
  O2-  O259  1  0.13820377  0.97087083  0.51502102  1
  O2-  O260  1  0.63480686  0.46935102  -0.01479284  1
  O2-  O261  1  0.62536615  0.48050151  0.48773795  1
  O2-  O262  1  0.63785837  0.98894245  0.02096078  1
  O2-  O263  1  0.63286553  0.97199012  0.52205218  1
  O2-  O264  1  0.36103878  0.02934746  -0.01472844  1
  O2-  O265  1  0.36304094  0.00819516  0.46047059  1
  O2-  O266  1  0.35942828  0.50966998  0.03251822  1
  O2-  O267  1  0.37819193  0.52490137  0.50385950  1
  O2-  O268  1  0.86782426  0.03052866  -0.02760372  1
  O2-  O269  1  0.86401592  0.03518478  0.48657040  1
  O2-  O270  1  0.88535620  0.51130024  0.02214044  1
  O2-  O271  1  0.88217896  0.52336432  0.51204992  1
  O2-  O272  1  0.47001215  0.36217336  0.00869161  1
  O2-  O273  1  0.48191871  0.38339356  0.52125711  1
  O2-  O274  1  0.48015347  0.86667960  0.02488784  1
  O2-  O275  1  0.47206014  0.86392273  0.51432804  1
  O2-  O276  1  0.98337081  0.38086705  -0.00602322  1
  O2-  O277  1  0.98666482  0.38754243  0.50016567  1
  O2-  O278  1  0.96615922  0.86164688  -0.00495817  1
  O2-  O279  1  0.98186399  0.86051074  0.48531524  1
  O2-  O280  1  0.01586041  0.13637690  0.01591690  1
  O2-  O281  1  0.02878501  0.13374979  0.49552784  1
  O2-  O282  1  0.02894204  0.61783138  0.00795623  1
  O2-  O283  1  0.03245764  0.62064835  0.50112220  1
  O2-  O284  1  0.50821509  0.13792562  -0.02809203  1
  O2-  O285  1  0.51261969  0.13626278  0.47982241  1
  O2-  O286  1  0.51993741  0.63008377  -0.02525324  1
  O2-  O287  1  0.52026784  0.61897408  0.48035577  1
  O2-  O288  1  0.12112953  0.26737015  -0.01650869  1
  O2-  O289  1  0.11849172  0.28175354  0.47986653  1
  O2-  O290  1  0.11422277  0.77503144  -0.00099724  1
  O2-  O291  1  0.13038413  0.76150870  0.48010701  1
  O2-  O292  1  0.62415017  0.27034350  -0.01545100  1
  O2-  O293  1  0.61067707  0.28070344  0.49854071  1
  O2-  O294  1  0.61799565  0.77049619  -0.02068200  1
  O2-  O295  1  0.61460560  0.76969366  0.49766347  1
  O2-  O296  1  0.36662721  0.23194330  0.01840598  1
  O2-  O297  1  0.38469187  0.24077399  0.53685700  1
  O2-  O298  1  0.38323054  0.71758554  0.01744755  1
  O2-  O299  1  0.36889791  0.72438148  0.50068784  1
  O2-  O300  1  0.87065629  0.23365545  0.01571530  1
  O2-  O301  1  0.88742647  0.24017023  0.52839308  1
  O2-  O302  1  0.88757104  0.71138460  0.01379466  1
  O2-  O303  1  0.88917850  0.71569218  0.50903015  1
  O2-  O304  1  0.25410698  0.36895534  0.01639254  1
  O2-  O305  1  0.27470054  0.38949962  0.50436481  1
  O2-  O306  1  0.27753649  0.88468028  0.00567121  1
  O2-  O307  1  0.26899252  0.86760329  0.49737555  1
  O2-  O308  1  0.77168872  0.36782985  -0.01153093  1
  O2-  O309  1  0.77670376  0.38613640  0.48185418  1
  O2-  O310  1  0.77102683  0.88717732  -0.01867739  1
  O2-  O311  1  0.78220660  0.88638081  0.49416998  1
  O2-  O312  1  0.22330935  0.12925061  -0.00283859  1
  O2-  O313  1  0.22561259  0.11501279  0.49754389  1
  O2-  O314  1  0.22002853  0.61171691  -0.00091992  1
  O2-  O315  1  0.23529728  0.62595818  0.48167065  1
  O2-  O316  1  0.72991557  0.12903426  0.00998978  1
  O2-  O317  1  0.71901236  0.11793145  0.51311167  1
  O2-  O318  1  0.72903743  0.61251025  0.01045815  1
  O2-  O319  1  0.73064544  0.61533310  0.52615118  1
