# generated using pymatgen
data_Sr64Ca21Nb43O192
_symmetry_space_group_name_H-M   'P 1'
_cell_length_a   16.57626750
_cell_length_b   16.57335863
_cell_length_c   16.71898898
_cell_angle_alpha   89.94714310
_cell_angle_beta   90.04698404
_cell_angle_gamma   89.98648329
_symmetry_Int_Tables_number   1
_chemical_formula_structural   Sr64Ca21Nb43O192
_chemical_formula_sum   'Sr64 Ca21 Nb43 O192'
_cell_volume   4593.11102340
_cell_formula_units_Z   1
loop_
 _symmetry_equiv_pos_site_id
 _symmetry_equiv_pos_as_xyz
  1  'x, y, z'
loop_
 _atom_type_symbol
 _atom_type_oxidation_number
  Sr2+  2.0
  Ca2+  2.0
  Nb5+  5.0
  O2-  -2.0
loop_
 _atom_site_type_symbol
 _atom_site_label
 _atom_site_symmetry_multiplicity
 _atom_site_fract_x
 _atom_site_fract_y
 _atom_site_fract_z
 _atom_site_occupancy
  Sr2+  Sr0  1  0.11446086  0.11903442  0.12736778  1
  Sr2+  Sr1  1  0.12475771  0.11852477  0.63305897  1
  Sr2+  Sr2  1  0.11717278  0.63844434  0.12971012  1
  Sr2+  Sr3  1  0.11820374  0.63770512  0.62629474  1
  Sr2+  Sr4  1  0.62134671  0.12057168  0.12365989  1
  Sr2+  Sr5  1  0.61950033  0.11912689  0.62306078  1
  Sr2+  Sr6  1  0.62222219  0.65269474  0.12961702  1
  Sr2+  Sr7  1  0.62257015  0.63828161  0.62786022  1
  Sr2+  Sr8  1  0.37456998  0.37383107  0.13707954  1
  Sr2+  Sr9  1  0.36788830  0.37167308  0.63155940  1
  Sr2+  Sr10  1  0.37481624  0.86742714  0.11398507  1
  Sr2+  Sr11  1  0.37467951  0.87490509  0.61841903  1
  Sr2+  Sr12  1  0.86994409  0.36538921  0.12379608  1
  Sr2+  Sr13  1  0.86645081  0.37533316  0.62782169  1
  Sr2+  Sr14  1  0.86621215  0.88259152  0.12914380  1
  Sr2+  Sr15  1  0.86557627  0.87735416  0.62630767  1
  Sr2+  Sr16  1  0.13505072  0.38354319  0.37378789  1
  Sr2+  Sr17  1  0.13033946  0.38382492  0.87725341  1
  Sr2+  Sr18  1  0.12434250  0.87452961  0.36442326  1
  Sr2+  Sr19  1  0.13196147  0.86799280  0.87525351  1
  Sr2+  Sr20  1  0.61543480  0.37582022  0.37560866  1
  Sr2+  Sr21  1  0.61270484  0.37752875  0.87835950  1
  Sr2+  Sr22  1  0.64068699  0.87720343  0.36978388  1
  Sr2+  Sr23  1  0.63158909  0.87860520  0.88701584  1
  Sr2+  Sr24  1  0.38016120  0.12732883  0.37874097  1
  Sr2+  Sr25  1  0.38038932  0.12032445  0.87417251  1
  Sr2+  Sr26  1  0.36484486  0.61629128  0.37626271  1
  Sr2+  Sr27  1  0.37627379  0.62144175  0.87725997  1
  Sr2+  Sr28  1  0.89016117  0.12975036  0.37550365  1
  Sr2+  Sr29  1  0.88547700  0.13809561  0.87629759  1
  Sr2+  Sr30  1  0.88323568  0.61784537  0.38113105  1
  Sr2+  Sr31  1  0.88606036  0.61841790  0.87353414  1
  Sr2+  Sr32  1  0.13234777  0.13467762  0.37427561  1
  Sr2+  Sr33  1  0.13721622  0.12713588  0.87119069  1
  Sr2+  Sr34  1  0.12800863  0.62286077  0.37654863  1
  Sr2+  Sr35  1  0.12548426  0.62777025  0.88560936  1
  Sr2+  Sr36  1  0.62913323  0.12768112  0.37312945  1
  Sr2+  Sr37  1  0.62462788  0.13294424  0.88169347  1
  Sr2+  Sr38  1  0.62911285  0.63641206  0.37071169  1
  Sr2+  Sr39  1  0.62357466  0.62025725  0.86865281  1
  Sr2+  Sr40  1  0.38090585  0.36974434  0.37279826  1
  Sr2+  Sr41  1  0.37826199  0.36569490  0.87449783  1
  Sr2+  Sr42  1  0.38602671  0.86173706  0.37748536  1
  Sr2+  Sr43  1  0.38568946  0.85929197  0.87421146  1
  Sr2+  Sr44  1  0.87034441  0.37883221  0.38499321  1
  Sr2+  Sr45  1  0.87438605  0.38497158  0.87847670  1
  Sr2+  Sr46  1  0.88520771  0.86357683  0.37221965  1
  Sr2+  Sr47  1  0.88939121  0.86208576  0.87266093  1
  Sr2+  Sr48  1  0.11952660  0.37646642  0.12506683  1
  Sr2+  Sr49  1  0.11001684  0.37532651  0.62600728  1
  Sr2+  Sr50  1  0.10142544  0.87805633  0.12756884  1
  Sr2+  Sr51  1  0.10965411  0.88487648  0.62966407  1
  Sr2+  Sr52  1  0.61745088  0.37002662  0.13019493  1
  Sr2+  Sr53  1  0.62039959  0.38051223  0.63179692  1
  Sr2+  Sr54  1  0.62272100  0.88815772  0.12758937  1
  Sr2+  Sr55  1  0.61938808  0.87871972  0.61814168  1
  Sr2+  Sr56  1  0.36242625  0.11791093  0.12522155  1
  Sr2+  Sr57  1  0.36641712  0.11499591  0.62641894  1
  Sr2+  Sr58  1  0.37216379  0.63111528  0.14056925  1
  Sr2+  Sr59  1  0.37107687  0.63239556  0.62676778  1
  Sr2+  Sr60  1  0.87957424  0.12083426  0.12415866  1
  Sr2+  Sr61  1  0.89515449  0.12822824  0.62382023  1
  Sr2+  Sr62  1  0.87351704  0.61929612  0.11612681  1
  Sr2+  Sr63  1  0.86705222  0.62717447  0.62622802  1
  Ca2+  Ca64  1  0.00170556  0.49880246  0.50225372  1
  Ca2+  Ca65  1  0.49878008  0.50164881  0.00507467  1
  Ca2+  Ca66  1  0.49759463  0.49970250  0.50086557  1
  Ca2+  Ca67  1  0.00059580  -0.00348363  0.49824669  1
  Ca2+  Ca68  1  0.00023625  0.00134547  -0.00519197  1
  Ca2+  Ca69  1  0.24946514  0.75193749  0.50004327  1
  Ca2+  Ca70  1  0.25317251  0.25174870  0.50377108  1
  Ca2+  Ca71  1  0.75050181  0.75053144  -0.00218835  1
  Ca2+  Ca72  1  0.25140645  0.25178276  -0.00079660  1
  Ca2+  Ca73  1  0.24981168  0.74951242  0.00158806  1
  Ca2+  Ca74  1  -0.00181334  0.25263265  0.24945702  1
  Ca2+  Ca75  1  0.74720901  0.00169417  0.75251116  1
  Ca2+  Ca76  1  0.49994064  0.75529820  0.25173880  1
  Ca2+  Ca77  1  -0.00280133  0.74648155  0.24980925  1
  Ca2+  Ca78  1  0.00057143  0.74862884  0.74700681  1
  Ca2+  Ca79  1  0.50111523  0.24892841  0.74705344  1
  Ca2+  Ca80  1  0.75076814  0.00403501  0.25208351  1
  Ca2+  Ca81  1  0.50265133  0.75385082  0.74945019  1
  Ca2+  Ca82  1  0.00189289  0.25279504  0.75173859  1
  Ca2+  Ca83  1  0.25193158  0.00079686  0.25048242  1
  Ca2+  Ca84  1  0.74894312  0.50068810  0.24871843  1
  Nb5+  Nb85  1  0.49997639  -0.00160696  0.49376794  1
  Nb5+  Nb86  1  0.49846313  0.00064345  -0.00370522  1
  Nb5+  Nb87  1  0.00035789  0.49858386  0.00006464  1
  Nb5+  Nb88  1  0.74808660  0.25137068  0.50652266  1
  Nb5+  Nb89  1  0.74783080  0.25153301  0.00689557  1
  Nb5+  Nb90  1  0.75195853  0.75607644  0.49978469  1
  Nb5+  Nb91  1  0.24628136  0.49972057  0.75483430  1
  Nb5+  Nb92  1  0.50130030  0.24620750  0.24942019  1
  Nb5+  Nb93  1  0.24892536  0.49966789  0.25413216  1
  Nb5+  Nb94  1  0.74300346  0.49796386  0.75190426  1
  Nb5+  Nb95  1  0.25490784  -0.00865957  0.75403263  1
  Nb5+  Nb96  1  -0.00108282  0.00073206  0.25213801  1
  Nb5+  Nb97  1  -0.00502104  0.00195928  0.75385584  1
  Nb5+  Nb98  1  -0.00286971  0.49817625  0.24980984  1
  Nb5+  Nb99  1  -0.00416989  0.50374962  0.74700886  1
  Nb5+  Nb100  1  0.49339171  -0.00030358  0.24579223  1
  Nb5+  Nb101  1  0.50300413  -0.00364565  0.74746159  1
  Nb5+  Nb102  1  0.50369791  0.50188378  0.25074729  1
  Nb5+  Nb103  1  0.49025351  0.50272852  0.75029507  1
  Nb5+  Nb104  1  0.24664056  0.25168675  0.24723058  1
  Nb5+  Nb105  1  0.25103843  0.24561849  0.74810024  1
  Nb5+  Nb106  1  0.25199804  0.75649699  0.25282769  1
  Nb5+  Nb107  1  0.25072486  0.74314378  0.74933139  1
  Nb5+  Nb108  1  0.75203555  0.24800048  0.25829858  1
  Nb5+  Nb109  1  0.74645804  0.24753196  0.75623969  1
  Nb5+  Nb110  1  0.75561211  0.74980112  0.24659915  1
  Nb5+  Nb111  1  0.74990972  0.75241823  0.75377295  1
  Nb5+  Nb112  1  0.00657555  0.25093082  0.49422656  1
  Nb5+  Nb113  1  0.00405021  0.25123107  0.99522073  1
  Nb5+  Nb114  1  0.00367764  0.75084958  0.50094216  1
  Nb5+  Nb115  1  -0.00526927  0.75380683  1.00140896  1
  Nb5+  Nb116  1  0.50305022  0.24654477  0.50231743  1
  Nb5+  Nb117  1  0.49586734  0.24777893  1.00276684  1
  Nb5+  Nb118  1  0.50240975  0.74430443  0.49647176  1
  Nb5+  Nb119  1  0.50565957  0.74625958  0.99895512  1
  Nb5+  Nb120  1  0.24797072  -0.00408136  0.00196581  1
  Nb5+  Nb121  1  0.24916162  0.00000246  0.49717841  1
  Nb5+  Nb122  1  0.25260890  0.50258788  0.00946492  1
  Nb5+  Nb123  1  0.25004971  0.49881113  0.51176643  1
  Nb5+  Nb124  1  0.75433694  0.00340544  -0.00537175  1
  Nb5+  Nb125  1  0.75086909  0.00818017  0.50270988  1
  Nb5+  Nb126  1  0.74556958  0.49796483  0.00302245  1
  Nb5+  Nb127  1  0.74512747  0.50587093  0.50089243  1
  O2-  O128  1  -0.00036658  0.02185752  0.12901358  1
  O2-  O129  1  0.01210349  0.02024573  0.63478997  1
  O2-  O130  1  0.00132647  0.52128910  0.11531781  1
  O2-  O131  1  0.01035673  0.52797252  0.63542497  1
  O2-  O132  1  0.49767701  0.01001244  0.12682485  1
  O2-  O133  1  0.50326248  0.00853760  0.62726325  1
  O2-  O134  1  0.48233862  0.49482223  0.13680275  1
  O2-  O135  1  0.50715643  0.49345072  0.63488927  1
  O2-  O136  1  -0.00204853  -0.02973826  0.36643337  1
  O2-  O137  1  0.00591483  -0.03522677  0.86452832  1
  O2-  O138  1  -0.00277295  0.47164182  0.36264891  1
  O2-  O139  1  0.00009765  0.47688474  0.87393409  1
  O2-  O140  1  0.49203140  -0.00692289  0.37707081  1
  O2-  O141  1  0.49912170  -0.00555661  0.87797624  1
  O2-  O142  1  0.48751018  0.48422190  0.36586614  1
  O2-  O143  1  0.49663409  0.50094173  0.86975643  1
  O2-  O144  1  0.24802675  0.28320749  0.13304290  1
  O2-  O145  1  0.22509153  0.27965788  0.63674694  1
  O2-  O146  1  0.27928860  0.75290232  0.13565990  1
  O2-  O147  1  0.28239571  0.75721022  0.63404453  1
  O2-  O148  1  0.73385492  0.26869786  0.12056543  1
  O2-  O149  1  0.72877340  0.26227257  0.61938167  1
  O2-  O150  1  0.78121563  0.75129894  0.13378960  1
  O2-  O151  1  0.77223882  0.75110564  0.61950258  1
  O2-  O152  1  0.27213869  0.23615699  0.36323889  1
  O2-  O153  1  0.28549616  0.24025638  0.86314335  1
  O2-  O154  1  0.22514309  0.73202923  0.36659426  1
  O2-  O155  1  0.22472041  0.73921107  0.86507573  1
  O2-  O156  1  0.76353551  0.23213363  0.37340920  1
  O2-  O157  1  0.76045759  0.23647701  0.87179614  1
  O2-  O158  1  0.72701685  0.74625824  0.38324404  1
  O2-  O159  1  0.71910599  0.74013606  0.86380148  1
  O2-  O160  1  0.00603676  0.22861561  0.11148745  1
  O2-  O161  1  0.01685535  0.22538903  0.61239927  1
  O2-  O162  1  -0.01868065  0.71883667  0.11438468  1
  O2-  O163  1  -0.01569393  0.71657746  0.61403742  1
  O2-  O164  1  0.52414737  0.24349280  0.12645834  1
  O2-  O165  1  0.53449999  0.24502527  0.61253899  1
  O2-  O166  1  0.47984232  0.74276884  0.11671139  1
  O2-  O167  1  0.48312515  0.74542587  0.61294825  1
  O2-  O168  1  0.24981380  0.03075470  0.38674433  1
  O2-  O169  1  0.25289563  0.02262209  0.87258566  1
  O2-  O170  1  0.24274258  0.51047947  0.37178503  1
  O2-  O171  1  0.24825631  0.52512863  0.86871541  1
  O2-  O172  1  0.73879825  0.00616170  0.38758080  1
  O2-  O173  1  0.72299435  0.02080349  0.88382943  1
  O2-  O174  1  0.75606910  0.50809544  0.38643152  1
  O2-  O175  1  0.75073844  0.50865841  0.87333924  1
  O2-  O176  1  -0.03361477  0.26724711  0.38247388  1
  O2-  O177  1  -0.03333828  0.26992297  0.88407281  1
  O2-  O178  1  0.01215175  0.77633282  0.38322662  1
  O2-  O179  1  0.01691169  0.76773978  0.88297270  1
  O2-  O180  1  0.48987306  0.24636578  0.36998085  1
  O2-  O181  1  0.48984170  0.24828879  0.88581788  1
  O2-  O182  1  0.52866811  0.77411137  0.38471423  1
  O2-  O183  1  0.52679348  0.77020735  0.88373621  1
  O2-  O184  1  0.27018235  -0.01747999  0.11466485  1
  O2-  O185  1  0.25884882  -0.01598477  0.63440759  1
  O2-  O186  1  0.25271909  0.47851727  0.12351507  1
  O2-  O187  1  0.25484862  0.48739480  0.62885511  1
  O2-  O188  1  0.74827037  -0.00963939  0.11346564  1
  O2-  O189  1  0.73629280  -0.01945512  0.61704729  1
  O2-  O190  1  0.76414917  0.47845716  0.11398394  1
  O2-  O191  1  0.74429730  0.48840015  0.63132972  1
  O2-  O192  1  0.13505793  0.27532617  0.26514021  1
  O2-  O193  1  0.13809477  0.26596750  0.78251803  1
  O2-  O194  1  0.13515955  0.76600326  0.22583323  1
  O2-  O195  1  0.13720673  0.77088915  0.72330246  1
  O2-  O196  1  0.62350686  0.27395463  0.26178047  1
  O2-  O197  1  0.63595546  0.28869327  0.76021616  1
  O2-  O198  1  0.63567576  0.77695492  0.23152146  1
  O2-  O199  1  0.63822704  0.76279526  0.71566696  1
  O2-  O200  1  0.38363983  0.23305557  0.23142942  1
  O2-  O201  1  0.36740678  0.24279909  0.71445603  1
  O2-  O202  1  0.36746342  0.72347674  0.27405831  1
  O2-  O203  1  0.36731434  0.73068472  0.77576994  1
  O2-  O204  1  0.86225391  0.22730591  0.22903302  1
  O2-  O205  1  0.86089141  0.23723711  0.72648350  1
  O2-  O206  1  0.86511487  0.72374813  0.28278269  1
  O2-  O207  1  0.86397373  0.71881516  0.76088269  1
  O2-  O208  1  0.27506125  0.37854679  0.26561157  1
  O2-  O209  1  0.27399055  0.38636120  0.76537309  1
  O2-  O210  1  0.27062600  0.86760142  0.27597978  1
  O2-  O211  1  0.26903084  0.87769990  0.77045752  1
  O2-  O212  1  0.77160708  0.36487838  0.26287614  1
  O2-  O213  1  0.77581266  0.38103926  0.75753851  1
  O2-  O214  1  0.77400867  0.86716521  0.26465067  1
  O2-  O215  1  0.77861620  0.86449960  0.76214731  1
  O2-  O216  1  0.23016736  0.13862986  0.22448511  1
  O2-  O217  1  0.23642786  0.12957608  0.73622168  1
  O2-  O218  1  0.23412011  0.61526733  0.23394521  1
  O2-  O219  1  0.23419926  0.62487801  0.73084156  1
  O2-  O220  1  0.71687484  0.13703569  0.23782919  1
  O2-  O221  1  0.71512006  0.13800773  0.74026283  1
  O2-  O222  1  0.71838953  0.63464947  0.24622309  1
  O2-  O223  1  0.73101199  0.61679574  0.74020280  1
  O2-  O224  1  0.13185010  0.47373376  0.24439820  1
  O2-  O225  1  0.13157548  0.48110614  0.74968026  1
  O2-  O226  1  0.11901090  0.97470361  0.24405930  1
  O2-  O227  1  0.13589417  0.98738635  0.75230748  1
  O2-  O228  1  0.61467225  0.46929115  0.24815565  1
  O2-  O229  1  0.62849572  0.47798272  0.75866172  1
  O2-  O230  1  0.61036996  0.97958931  0.25474033  1
  O2-  O231  1  0.61221739  0.96133985  0.75319258  1
  O2-  O232  1  0.38463599  0.04263891  0.25561533  1
  O2-  O233  1  0.37216731  0.02707930  0.75346918  1
  O2-  O234  1  0.36916044  0.51701894  0.25171273  1
  O2-  O235  1  0.37381719  0.52804592  0.74559360  1
  O2-  O236  1  0.88279919  0.03233514  0.25287092  1
  O2-  O237  1  0.88225760  0.02975445  0.75533259  1
  O2-  O238  1  0.88559535  0.52610316  0.24482727  1
  O2-  O239  1  0.87777435  0.51734401  0.74918669  1
  O2-  O240  1  0.48164492  0.36580448  0.24543793  1
  O2-  O241  1  0.47578200  0.38387154  0.75480490  1
  O2-  O242  1  0.46151064  0.88870755  0.24089361  1
  O2-  O243  1  0.46102851  0.88650956  0.74291321  1
  O2-  O244  1  0.99059491  0.38596778  0.21131841  1
  O2-  O245  1  0.99108349  0.38639940  0.72450657  1
  O2-  O246  1  0.97538758  0.88201198  0.22508654  1
  O2-  O247  1  0.98048874  0.88423658  0.72368695  1
  O2-  O248  1  0.02820451  0.11796751  0.27148155  1
  O2-  O249  1  0.02296440  0.11704542  0.77438081  1
  O2-  O250  1  0.03347770  0.61011492  0.25961243  1
  O2-  O251  1  0.02350117  0.61400643  0.77742540  1
  O2-  O252  1  0.52657710  0.12831582  0.25521552  1
  O2-  O253  1  0.52144665  0.11365347  0.75962542  1
  O2-  O254  1  0.52358299  0.61619414  0.25460274  1
  O2-  O255  1  0.52583521  0.61711003  0.75120162  1
  O2-  O256  1  0.11857980  0.47774203  -0.00111163  1
  O2-  O257  1  0.13577994  0.46282289  0.50199086  1
  O2-  O258  1  0.13552633  0.96881831  0.00172040  1
  O2-  O259  1  0.13768286  0.97060448  0.50207298  1
  O2-  O260  1  0.63422144  0.46692012  0.00055662  1
  O2-  O261  1  0.63486849  0.46728512  0.50223569  1
  O2-  O262  1  0.61838853  0.98526712  0.00667510  1
  O2-  O263  1  0.61858513  0.98042641  0.49902770  1
  O2-  O264  1  0.38172282  0.02802989  -0.00257061  1
  O2-  O265  1  0.38272101  0.02323946  0.50592969  1
  O2-  O266  1  0.36276463  0.53356401  0.00389689  1
  O2-  O267  1  0.36438593  0.53741186  0.50575738  1
  O2-  O268  1  0.86475336  0.03557553  -0.01108390  1
  O2-  O269  1  0.86386979  0.02355925  0.50906421  1
  O2-  O270  1  0.87479394  0.51000567  -0.00988197  1
  O2-  O271  1  0.86328566  0.50690890  0.51594361  1
  O2-  O272  1  0.47908954  0.36321413  0.00899472  1
  O2-  O273  1  0.48681773  0.36023597  0.49601683  1
  O2-  O274  1  0.48104784  0.88409674  0.00790336  1
  O2-  O275  1  0.48471092  0.88062495  0.50998693  1
  O2-  O276  1  0.97834145  0.37736388  0.01680175  1
  O2-  O277  1  0.97698707  0.36214231  0.52439137  1
  O2-  O278  1  0.97074558  0.86598065  0.02115805  1
  O2-  O279  1  0.96723675  0.86240990  0.52160427  1
  O2-  O280  1  0.01842451  0.13721252  -0.03063699  1
  O2-  O281  1  0.00947000  0.13192336  0.47186429  1
  O2-  O282  1  0.00821627  0.61571938  -0.02251030  1
  O2-  O283  1  0.00948528  0.63277959  0.46821364  1
  O2-  O284  1  0.52398655  0.12335530  -0.00240229  1
  O2-  O285  1  0.52503925  0.11974591  0.48971860  1
  O2-  O286  1  0.53441463  0.63457992  -0.00625308  1
  O2-  O287  1  0.53120018  0.63307879  0.48937578  1
  O2-  O288  1  0.11522344  0.27861763  -0.01436310  1
  O2-  O289  1  0.11813474  0.26616224  0.46943299  1
  O2-  O290  1  0.11290361  0.76299770  0.01993664  1
  O2-  O291  1  0.11525523  0.77088923  0.52383216  1
  O2-  O292  1  0.62663049  0.26602519  -0.01405279  1
  O2-  O293  1  0.62975733  0.25589749  0.47043400  1
  O2-  O294  1  0.61902846  0.78020623  0.02743584  1
  O2-  O295  1  0.63077313  0.76446664  0.52196274  1
  O2-  O296  1  0.38545490  0.22279999  0.02001788  1
  O2-  O297  1  0.39091279  0.22104226  0.51338315  1
  O2-  O298  1  0.38836896  0.73651834  -0.02490013  1
  O2-  O299  1  0.38869661  0.73306189  0.47257031  1
  O2-  O300  1  0.86569807  0.23255414  0.01456402  1
  O2-  O301  1  0.86191556  0.22454521  0.51239299  1
  O2-  O302  1  0.88070285  0.72818230  -0.02854885  1
  O2-  O303  1  0.86547470  0.72797102  0.48179088  1
  O2-  O304  1  0.26220686  0.39151644  -0.02929837  1
  O2-  O305  1  0.28782192  0.38639362  0.49005210  1
  O2-  O306  1  0.27923341  0.88521496  -0.02505097  1
  O2-  O307  1  0.28651241  0.88810111  0.48863960  1
  O2-  O308  1  0.76784685  0.36835101  -0.01719986  1
  O2-  O309  1  0.76678960  0.36640774  0.49368050  1
  O2-  O310  1  0.77202988  0.88886245  -0.02246517  1
  O2-  O311  1  0.76643665  0.87225314  0.49219542  1
  O2-  O312  1  0.22562876  0.11501517  0.01426662  1
  O2-  O313  1  0.23760322  0.11479735  0.53235348  1
  O2-  O314  1  0.21425321  0.61316253  0.01246523  1
  O2-  O315  1  0.21594971  0.61374476  0.51083493  1
  O2-  O316  1  0.72622954  0.13262337  0.01080689  1
  O2-  O317  1  0.72322468  0.12284407  0.51223960  1
  O2-  O318  1  0.72790900  0.61178485  0.01354951  1
  O2-  O319  1  0.72778587  0.62144864  0.51081137  1
