# generated using pymatgen
data_Sr64Ca21Nb43O192
_symmetry_space_group_name_H-M   'P 1'
_cell_length_a   16.55003412
_cell_length_b   16.56692353
_cell_length_c   16.70784267
_cell_angle_alpha   90.01001215
_cell_angle_beta   90.03166412
_cell_angle_gamma   89.92500639
_symmetry_Int_Tables_number   1
_chemical_formula_structural   Sr64Ca21Nb43O192
_chemical_formula_sum   'Sr64 Ca21 Nb43 O192'
_cell_volume   4581.00423162
_cell_formula_units_Z   1
loop_
 _symmetry_equiv_pos_site_id
 _symmetry_equiv_pos_as_xyz
  1  'x, y, z'
loop_
 _atom_type_symbol
 _atom_type_oxidation_number
  Sr2+  2.0
  Ca2+  2.0
  Nb5+  5.0
  O2-  -2.0
loop_
 _atom_site_type_symbol
 _atom_site_label
 _atom_site_symmetry_multiplicity
 _atom_site_fract_x
 _atom_site_fract_y
 _atom_site_fract_z
 _atom_site_occupancy
  Sr2+  Sr0  1  0.12707314  0.12067521  0.12369064  1
  Sr2+  Sr1  1  0.12525442  0.11448604  0.62681959  1
  Sr2+  Sr2  1  0.12736063  0.62779192  0.12637019  1
  Sr2+  Sr3  1  0.13145339  0.62655673  0.61853802  1
  Sr2+  Sr4  1  0.60945647  0.11351011  0.12561205  1
  Sr2+  Sr5  1  0.62470247  0.11308064  0.62431434  1
  Sr2+  Sr6  1  0.61998547  0.61312049  0.12083851  1
  Sr2+  Sr7  1  0.61268937  0.60896499  0.62695907  1
  Sr2+  Sr8  1  0.36897643  0.38013792  0.12824716  1
  Sr2+  Sr9  1  0.37450277  0.39577778  0.62648154  1
  Sr2+  Sr10  1  0.36636386  0.86589629  0.12582518  1
  Sr2+  Sr11  1  0.36686153  0.86497891  0.62314162  1
  Sr2+  Sr12  1  0.87127883  0.36994629  0.12846602  1
  Sr2+  Sr13  1  0.87257574  0.36510181  0.61380646  1
  Sr2+  Sr14  1  0.87153980  0.86161851  0.12684776  1
  Sr2+  Sr15  1  0.86869787  0.86908108  0.62050519  1
  Sr2+  Sr16  1  0.11852723  0.38004972  0.36955566  1
  Sr2+  Sr17  1  0.12693292  0.37194936  0.87399141  1
  Sr2+  Sr18  1  0.12513295  0.87345572  0.38569900  1
  Sr2+  Sr19  1  0.12687561  0.88631396  0.87543145  1
  Sr2+  Sr20  1  0.64189487  0.38203668  0.37017568  1
  Sr2+  Sr21  1  0.63571602  0.38776186  0.87082783  1
  Sr2+  Sr22  1  0.63104831  0.88881306  0.36652184  1
  Sr2+  Sr23  1  0.63864356  0.87864293  0.87633534  1
  Sr2+  Sr24  1  0.39164217  0.13028205  0.38307408  1
  Sr2+  Sr25  1  0.38550762  0.13640885  0.87434073  1
  Sr2+  Sr26  1  0.38199829  0.63907929  0.37501618  1
  Sr2+  Sr27  1  0.39431515  0.62989255  0.87090933  1
  Sr2+  Sr28  1  0.87637592  0.13162339  0.37181270  1
  Sr2+  Sr29  1  0.88710660  0.12899249  0.87255108  1
  Sr2+  Sr30  1  0.88154574  0.62486823  0.37878695  1
  Sr2+  Sr31  1  0.86575127  0.62993106  0.87759670  1
  Sr2+  Sr32  1  0.12833637  0.12602062  0.36871016  1
  Sr2+  Sr33  1  0.12726718  0.12974509  0.87406012  1
  Sr2+  Sr34  1  0.12535699  0.63253170  0.37745697  1
  Sr2+  Sr35  1  0.11721498  0.63092959  0.87714222  1
  Sr2+  Sr36  1  0.62275596  0.13049035  0.36871691  1
  Sr2+  Sr37  1  0.63673296  0.13085042  0.87661529  1
  Sr2+  Sr38  1  0.63732160  0.63756802  0.37606141  1
  Sr2+  Sr39  1  0.62780266  0.64201712  0.87158605  1
  Sr2+  Sr40  1  0.38801559  0.38319588  0.37285715  1
  Sr2+  Sr41  1  0.37734426  0.39114549  0.87030773  1
  Sr2+  Sr42  1  0.37351414  0.88358415  0.37975577  1
  Sr2+  Sr43  1  0.38648271  0.87898359  0.87202782  1
  Sr2+  Sr44  1  0.88157473  0.38803103  0.37510337  1
  Sr2+  Sr45  1  0.88748970  0.38875912  0.87321773  1
  Sr2+  Sr46  1  0.87919367  0.86458322  0.37419078  1
  Sr2+  Sr47  1  0.87752336  0.88213073  0.87389143  1
  Sr2+  Sr48  1  0.13616656  0.36765101  0.12746539  1
  Sr2+  Sr49  1  0.12685880  0.36651172  0.61687673  1
  Sr2+  Sr50  1  0.12425242  0.87161205  0.12107635  1
  Sr2+  Sr51  1  0.13114092  0.86536857  0.63209917  1
  Sr2+  Sr52  1  0.60689475  0.36845808  0.12560730  1
  Sr2+  Sr53  1  0.62004748  0.36585158  0.62867657  1
  Sr2+  Sr54  1  0.61246384  0.86410042  0.12833255  1
  Sr2+  Sr55  1  0.60934947  0.86964429  0.62635652  1
  Sr2+  Sr56  1  0.37258332  0.12306943  0.12917468  1
  Sr2+  Sr57  1  0.37117232  0.11686295  0.62079600  1
  Sr2+  Sr58  1  0.36680068  0.61454847  0.13594344  1
  Sr2+  Sr59  1  0.37920463  0.62510909  0.62386785  1
  Sr2+  Sr60  1  0.86671034  0.11650250  0.12659438  1
  Sr2+  Sr61  1  0.85798974  0.12384334  0.61937088  1
  Sr2+  Sr62  1  0.86782229  0.62314123  0.11648997  1
  Sr2+  Sr63  1  0.86286572  0.61467468  0.62213037  1
  Ca2+  Ca64  1  0.49984498  -0.00260719  -0.00200270  1
  Ca2+  Ca65  1  -0.00118875  0.00173577  0.50167844  1
  Ca2+  Ca66  1  0.49902282  0.49961912  0.00073213  1
  Ca2+  Ca67  1  0.50115126  0.49826284  0.49463725  1
  Ca2+  Ca68  1  0.50207911  0.00029913  0.50241458  1
  Ca2+  Ca69  1  0.25076403  0.74852010  -0.00415229  1
  Ca2+  Ca70  1  0.74941207  0.75208755  0.50226963  1
  Ca2+  Ca71  1  0.74655265  0.24955417  0.49579902  1
  Ca2+  Ca72  1  0.25333298  0.25088753  0.50268981  1
  Ca2+  Ca73  1  0.75184512  0.25062807  0.00155383  1
  Ca2+  Ca74  1  0.50017478  0.74935714  0.25178771  1
  Ca2+  Ca75  1  0.75275188  0.50027678  0.75018260  1
  Ca2+  Ca76  1  0.24724782  0.50118254  0.25725492  1
  Ca2+  Ca77  1  0.24906477  -0.00100840  0.24907076  1
  Ca2+  Ca78  1  0.24428546  0.50122047  0.75203537  1
  Ca2+  Ca79  1  0.00038227  0.74748803  0.74952564  1
  Ca2+  Ca80  1  0.49980528  0.75284482  0.74781665  1
  Ca2+  Ca81  1  0.49859812  0.24840390  0.75164063  1
  Ca2+  Ca82  1  0.75232415  0.00135633  0.24426864  1
  Ca2+  Ca83  1  0.00240566  0.74904042  0.24806642  1
  Ca2+  Ca84  1  0.75219334  0.50146427  0.24845348  1
  Nb5+  Nb85  1  0.00233548  0.50129339  0.49816760  1
  Nb5+  Nb86  1  -0.00124420  0.00501502  -0.00125261  1
  Nb5+  Nb87  1  0.00345803  0.50262289  -0.00154227  1
  Nb5+  Nb88  1  0.25190535  0.24762518  0.00036626  1
  Nb5+  Nb89  1  0.25048976  0.74870886  0.49985263  1
  Nb5+  Nb90  1  0.74710732  0.75319351  0.00044430  1
  Nb5+  Nb91  1  -0.00170027  0.24934597  0.24322536  1
  Nb5+  Nb92  1  0.49283911  0.24957805  0.24742897  1
  Nb5+  Nb93  1  0.25703385  0.00189100  0.75349242  1
  Nb5+  Nb94  1  0.75692518  0.00030601  0.75037197  1
  Nb5+  Nb95  1  -0.00019615  0.24878104  0.74243054  1
  Nb5+  Nb96  1  0.00070517  -0.00259784  0.25148785  1
  Nb5+  Nb97  1  0.00070395  0.00002276  0.74734907  1
  Nb5+  Nb98  1  0.00126642  0.50137714  0.24097889  1
  Nb5+  Nb99  1  0.00306347  0.50026267  0.74093438  1
  Nb5+  Nb100  1  0.49447233  -0.00383112  0.24700967  1
  Nb5+  Nb101  1  0.51037226  0.00026352  0.75262670  1
  Nb5+  Nb102  1  0.50496451  0.50440294  0.25443900  1
  Nb5+  Nb103  1  0.50024652  0.49694351  0.75149946  1
  Nb5+  Nb104  1  0.24905996  0.24880665  0.25567048  1
  Nb5+  Nb105  1  0.25048885  0.24644109  0.74812530  1
  Nb5+  Nb106  1  0.24823015  0.75325097  0.24916407  1
  Nb5+  Nb107  1  0.25055861  0.74676633  0.75672949  1
  Nb5+  Nb108  1  0.74026190  0.25172076  0.24533724  1
  Nb5+  Nb109  1  0.75107211  0.25355946  0.75710981  1
  Nb5+  Nb110  1  0.75344128  0.74978808  0.25193385  1
  Nb5+  Nb111  1  0.74689389  0.75066694  0.74374661  1
  Nb5+  Nb112  1  0.00378717  0.24784559  0.49068914  1
  Nb5+  Nb113  1  -0.00062010  0.25453974  0.99861200  1
  Nb5+  Nb114  1  -0.00178526  0.74974804  0.50493294  1
  Nb5+  Nb115  1  0.00080322  0.75612113  0.99627453  1
  Nb5+  Nb116  1  0.50225695  0.25044905  0.50653283  1
  Nb5+  Nb117  1  0.50302328  0.25417767  0.99436006  1
  Nb5+  Nb118  1  0.50702817  0.75360278  0.49412229  1
  Nb5+  Nb119  1  0.49279223  0.74453519  1.00532315  1
  Nb5+  Nb120  1  0.25466165  0.00225945  -0.00414477  1
  Nb5+  Nb121  1  0.24227513  0.00210093  0.49797268  1
  Nb5+  Nb122  1  0.24664091  0.50492935  -0.00234006  1
  Nb5+  Nb123  1  0.25115086  0.50133558  0.50019692  1
  Nb5+  Nb124  1  0.74905968  -0.00224651  0.00278233  1
  Nb5+  Nb125  1  0.75033551  0.00176793  0.49267466  1
  Nb5+  Nb126  1  0.75033997  0.49570236  0.00016907  1
  Nb5+  Nb127  1  0.74570085  0.49803401  0.50472555  1
  O2-  O128  1  -0.02042265  0.00679072  0.11364478  1
  O2-  O129  1  -0.02200800  0.02419752  0.63767331  1
  O2-  O130  1  -0.02239622  0.49895806  0.12718682  1
  O2-  O131  1  -0.02318135  0.50022798  0.62874555  1
  O2-  O132  1  0.48233107  0.02479920  0.13058801  1
  O2-  O133  1  0.49282659  0.03446512  0.63878630  1
  O2-  O134  1  0.48133212  0.51824676  0.13658164  1
  O2-  O135  1  0.48159954  0.51528101  0.63090671  1
  O2-  O136  1  0.02728982  -0.00266024  0.36312202  1
  O2-  O137  1  0.01261955  -0.00343351  0.87379230  1
  O2-  O138  1  0.01890172  0.49694200  0.38251285  1
  O2-  O139  1  0.02289891  0.49130600  0.88435143  1
  O2-  O140  1  0.51472523  -0.01361034  0.36512655  1
  O2-  O141  1  0.51377095  -0.03511820  0.86590202  1
  O2-  O142  1  0.51780299  0.46215213  0.36431048  1
  O2-  O143  1  0.51280540  0.47261397  0.86848986  1
  O2-  O144  1  0.23472651  0.24569935  0.11848401  1
  O2-  O145  1  0.22046286  0.24101933  0.63766590  1
  O2-  O146  1  0.23151491  0.75831132  0.13224911  1
  O2-  O147  1  0.23033745  0.75123802  0.62141607  1
  O2-  O148  1  0.74109414  0.29027203  0.13233003  1
  O2-  O149  1  0.74557605  0.26671616  0.63901750  1
  O2-  O150  1  0.74031412  0.77582979  0.11680459  1
  O2-  O151  1  0.73695721  0.78533141  0.63475332  1
  O2-  O152  1  0.27028907  0.24483638  0.36682154  1
  O2-  O153  1  0.25162433  0.24099210  0.87746884  1
  O2-  O154  1  0.26372208  0.75107626  0.38031105  1
  O2-  O155  1  0.28702509  0.75019818  0.86529174  1
  O2-  O156  1  0.75386944  0.21526022  0.35961982  1
  O2-  O157  1  0.76915234  0.21611550  0.86817243  1
  O2-  O158  1  0.77380126  0.73078050  0.36560802  1
  O2-  O159  1  0.76152882  0.73848975  0.87820277  1
  O2-  O160  1  0.02478916  0.25016030  0.12797413  1
  O2-  O161  1  0.01938452  0.24528089  0.62824362  1
  O2-  O162  1  0.02634051  0.75060960  0.11138944  1
  O2-  O163  1  0.03051960  0.74924134  0.61773353  1
  O2-  O164  1  0.51106358  0.23293686  0.12367553  1
  O2-  O165  1  0.52990104  0.23719272  0.61739242  1
  O2-  O166  1  0.52999726  0.73344298  0.11803532  1
  O2-  O167  1  0.52463355  0.73204931  0.61205566  1
  O2-  O168  1  0.21918242  -0.00486095  0.38520392  1
  O2-  O169  1  0.22227735  0.00315729  0.87154491  1
  O2-  O170  1  0.21022932  0.49661935  0.39017562  1
  O2-  O171  1  0.21679711  0.48781104  0.88629035  1
  O2-  O172  1  0.72560415  0.01469257  0.38108141  1
  O2-  O173  1  0.73285966  0.00847507  0.87437451  1
  O2-  O174  1  0.73360846  0.52004071  0.38719058  1
  O2-  O175  1  0.73402077  0.52798656  0.88671385  1
  O2-  O176  1  -0.01429747  0.25501931  0.37378133  1
  O2-  O177  1  -0.01479799  0.25766897  0.88220570  1
  O2-  O178  1  -0.01529055  0.74021914  0.38446365  1
  O2-  O179  1  -0.01813502  0.72714575  0.88365964  1
  O2-  O180  1  0.47851497  0.25993586  0.36341045  1
  O2-  O181  1  0.46629272  0.26858495  0.88597929  1
  O2-  O182  1  0.46663352  0.76873500  0.38349203  1
  O2-  O183  1  0.48109751  0.76041930  0.88605437  1
  O2-  O184  1  0.26915700  0.00485784  0.11049348  1
  O2-  O185  1  0.26554320  0.00271220  0.63484267  1
  O2-  O186  1  0.26318632  0.49749691  0.11609244  1
  O2-  O187  1  0.26386135  0.52338658  0.61796022  1
  O2-  O188  1  0.78470625  -0.01668075  0.11073090  1
  O2-  O189  1  0.77498527  -0.01253458  0.63558854  1
  O2-  O190  1  0.78521447  0.49501701  0.11304065  1
  O2-  O191  1  0.78223549  0.48354241  0.61883438  1
  O2-  O192  1  0.12710473  0.26836725  0.26608269  1
  O2-  O193  1  0.11743018  0.25999049  0.77086232  1
  O2-  O194  1  0.13346451  0.78579797  0.26836433  1
  O2-  O195  1  0.13650685  0.78139951  0.76850722  1
  O2-  O196  1  0.62299197  0.26738081  0.25830956  1
  O2-  O197  1  0.63606268  0.26426929  0.77433740  1
  O2-  O198  1  0.63703131  0.77886204  0.26532260  1
  O2-  O199  1  0.63347043  0.77370807  0.77254416  1
  O2-  O200  1  0.37374233  0.23230000  0.23166057  1
  O2-  O201  1  0.36076695  0.21432263  0.73908880  1
  O2-  O202  1  0.36465382  0.71936614  0.23844149  1
  O2-  O203  1  0.36341846  0.74023930  0.71880467  1
  O2-  O204  1  0.88318869  0.23253551  0.23159280  1
  O2-  O205  1  0.88131196  0.22580785  0.73798285  1
  O2-  O206  1  0.86893225  0.72948521  0.22087305  1
  O2-  O207  1  0.86454525  0.73011202  0.73781985  1
  O2-  O208  1  0.26537416  0.36411697  0.23987589  1
  O2-  O209  1  0.26956506  0.36053456  0.75160088  1
  O2-  O210  1  0.28385894  0.86793774  0.25501439  1
  O2-  O211  1  0.26427840  0.88307875  0.75363177  1
  O2-  O212  1  0.77246803  0.36297118  0.27708079  1
  O2-  O213  1  0.77227550  0.36464166  0.78009853  1
  O2-  O214  1  0.78007173  0.86850809  0.26145395  1
  O2-  O215  1  0.76830112  0.88073514  0.76960506  1
  O2-  O216  1  0.22585251  0.13415884  0.24180713  1
  O2-  O217  1  0.22175652  0.11911898  0.75305607  1
  O2-  O218  1  0.21820005  0.63534796  0.25307755  1
  O2-  O219  1  0.22014892  0.63612879  0.75820870  1
  O2-  O220  1  0.73725259  0.13830402  0.20906371  1
  O2-  O221  1  0.73413585  0.11850479  0.73552658  1
  O2-  O222  1  0.72502215  0.63649401  0.22744099  1
  O2-  O223  1  0.72599327  0.63666803  0.72952075  1
  O2-  O224  1  0.11290917  0.46608877  0.23864215  1
  O2-  O225  1  0.11125842  0.45591936  0.73896549  1
  O2-  O226  1  0.11235132  0.99153651  0.21192847  1
  O2-  O227  1  0.11731094  0.98574763  0.73500835  1
  O2-  O228  1  0.61855690  0.47573193  0.22672319  1
  O2-  O229  1  0.61867835  0.47453093  0.73211461  1
  O2-  O230  1  0.61570515  0.98740539  0.22846078  1
  O2-  O231  1  0.62739157  0.98425453  0.73513926  1
  O2-  O232  1  0.38182825  0.02931463  0.27014752  1
  O2-  O233  1  0.36943994  0.01891902  0.77257531  1
  O2-  O234  1  0.38392608  0.51247425  0.27390581  1
  O2-  O235  1  0.37956220  0.51661463  0.77162910  1
  O2-  O236  1  0.88910536  0.03672851  0.25787598  1
  O2-  O237  1  0.87261033  0.01825230  0.77304430  1
  O2-  O238  1  0.88939452  0.51093505  0.27816462  1
  O2-  O239  1  0.89155128  0.51354694  0.77948856  1
  O2-  O240  1  0.48237205  0.36680329  0.22788213  1
  O2-  O241  1  0.47431360  0.37936942  0.73196866  1
  O2-  O242  1  0.47566676  0.88361032  0.22775089  1
  O2-  O243  1  0.47735850  0.88882798  0.72369789  1
  O2-  O244  1  0.98193913  0.36919444  0.24974691  1
  O2-  O245  1  0.97468048  0.36488935  0.74642423  1
  O2-  O246  1  0.97338341  0.88611960  0.24417298  1
  O2-  O247  1  0.97525287  0.88684497  0.74452116  1
  O2-  O248  1  0.02446802  0.13373740  0.25480619  1
  O2-  O249  1  0.01317086  0.12814570  0.76684888  1
  O2-  O250  1  0.02812020  0.61312529  0.24739187  1
  O2-  O251  1  0.03525566  0.60984955  0.74759630  1
  O2-  O252  1  0.51870577  0.13213167  0.25908129  1
  O2-  O253  1  0.51482827  0.11432608  0.78695649  1
  O2-  O254  1  0.52629038  0.61512599  0.27758850  1
  O2-  O255  1  0.51900499  0.61612233  0.76676403  1
  O2-  O256  1  0.11707060  0.47713054  0.02692969  1
  O2-  O257  1  0.11711137  0.49031962  0.53197742  1
  O2-  O258  1  0.11763659  0.98410984  0.01005974  1
  O2-  O259  1  0.13160389  0.97640154  0.53430351  1
  O2-  O260  1  0.63818011  0.48122381  0.02414535  1
  O2-  O261  1  0.63415662  0.47683595  0.52712717  1
  O2-  O262  1  0.63751307  0.97187920  0.01818279  1
  O2-  O263  1  0.63822389  0.97526734  0.52565500  1
  O2-  O264  1  0.36376870  0.01979389  -0.03273255  1
  O2-  O265  1  0.36085763  0.01390498  0.49017903  1
  O2-  O266  1  0.35986919  0.51739450  -0.02464452  1
  O2-  O267  1  0.36197073  0.51715153  0.47297897  1
  O2-  O268  1  0.87988274  0.01312180  -0.02615162  1
  O2-  O269  1  0.86768578  0.03209703  0.48436645  1
  O2-  O270  1  0.88472324  0.51602812  -0.01928501  1
  O2-  O271  1  0.88381833  0.52159581  0.48763117  1
  O2-  O272  1  0.47487359  0.36495328  0.02655602  1
  O2-  O273  1  0.46327929  0.36363032  0.50950828  1
  O2-  O274  1  0.47736276  0.86270983  0.02201825  1
  O2-  O275  1  0.47789794  0.86627895  0.52290667  1
  O2-  O276  1  0.98218819  0.37256118  0.00816510  1
  O2-  O277  1  0.98403766  0.38010060  0.50507570  1
  O2-  O278  1  0.98430190  0.87460934  -0.00514182  1
  O2-  O279  1  0.98154227  0.86566745  0.49856753  1
  O2-  O280  1  0.01614136  0.12425813  -0.00782374  1
  O2-  O281  1  0.03044764  0.13647985  0.48971191  1
  O2-  O282  1  0.01877321  0.61837859  0.00797443  1
  O2-  O283  1  0.02060331  0.62125641  0.50241340  1
  O2-  O284  1  0.51886356  0.13572329  -0.01655761  1
  O2-  O285  1  0.52286991  0.13523556  0.47550964  1
  O2-  O286  1  0.52823835  0.63137816  -0.01842506  1
  O2-  O287  1  0.51315904  0.63409074  0.47502385  1
  O2-  O288  1  0.12084587  0.26293613  -0.00948289  1
  O2-  O289  1  0.11604507  0.28274083  0.48600900  1
  O2-  O290  1  0.11571694  0.76655730  -0.03025809  1
  O2-  O291  1  0.12617390  0.76141779  0.48267047  1
  O2-  O292  1  0.61510786  0.27739533  -0.02187708  1
  O2-  O293  1  0.61342917  0.28292515  0.47685810  1
  O2-  O294  1  0.63246368  0.76987546  -0.01572812  1
  O2-  O295  1  0.61796796  0.77420251  0.46724415  1
  O2-  O296  1  0.36526434  0.22327264  0.01146822  1
  O2-  O297  1  0.38483069  0.21702066  0.51324440  1
  O2-  O298  1  0.38241497  0.71661287  0.02586461  1
  O2-  O299  1  0.36685753  0.73149866  0.51734107  1
  O2-  O300  1  0.88907665  0.23100295  0.02642621  1
  O2-  O301  1  0.88835424  0.23782335  0.51638624  1
  O2-  O302  1  0.87814356  0.73864079  0.01519495  1
  O2-  O303  1  0.88534925  0.72757858  0.52587168  1
  O2-  O304  1  0.26056977  0.36657425  -0.00006681  1
  O2-  O305  1  0.25903891  0.38710070  0.52100371  1
  O2-  O306  1  0.26038437  0.88574298  -0.00717770  1
  O2-  O307  1  0.26162928  0.87170407  0.50173920  1
  O2-  O308  1  0.77318294  0.38592564  -0.02647522  1
  O2-  O309  1  0.77573920  0.38419214  0.48065761  1
  O2-  O310  1  0.77285360  0.87319981  -0.02033356  1
  O2-  O311  1  0.78377541  0.88647836  0.48805119  1
  O2-  O312  1  0.22193223  0.12444058  -0.00205414  1
  O2-  O313  1  0.22138625  0.11572702  0.50503733  1
  O2-  O314  1  0.21441826  0.61543270  0.00011741  1
  O2-  O315  1  0.22764816  0.62956505  0.49534469  1
  O2-  O316  1  0.73246179  0.11261990  0.01417262  1
  O2-  O317  1  0.73292668  0.11648905  0.52641408  1
  O2-  O318  1  0.74345224  0.63329518  0.01699254  1
  O2-  O319  1  0.73504016  0.61727898  0.52644679  1
