# generated using pymatgen
data_Sr64Ca21Nb43O192
_symmetry_space_group_name_H-M   'P 1'
_cell_length_a   16.56359617
_cell_length_b   16.58150058
_cell_length_c   16.71421223
_cell_angle_alpha   89.93397731
_cell_angle_beta   90.04049296
_cell_angle_gamma   89.97689873
_symmetry_Int_Tables_number   1
_chemical_formula_structural   Sr64Ca21Nb43O192
_chemical_formula_sum   'Sr64 Ca21 Nb43 O192'
_cell_volume   4590.54177678
_cell_formula_units_Z   1
loop_
 _symmetry_equiv_pos_site_id
 _symmetry_equiv_pos_as_xyz
  1  'x, y, z'
loop_
 _atom_type_symbol
 _atom_type_oxidation_number
  Sr2+  2.0
  Ca2+  2.0
  Nb5+  5.0
  O2-  -2.0
loop_
 _atom_site_type_symbol
 _atom_site_label
 _atom_site_symmetry_multiplicity
 _atom_site_fract_x
 _atom_site_fract_y
 _atom_site_fract_z
 _atom_site_occupancy
  Sr2+  Sr0  1  0.11844392  0.10945755  0.12626888  1
  Sr2+  Sr1  1  0.12550201  0.11755309  0.62369769  1
  Sr2+  Sr2  1  0.11818982  0.61880024  0.12613304  1
  Sr2+  Sr3  1  0.11666119  0.61282017  0.62361012  1
  Sr2+  Sr4  1  0.62473560  0.11085204  0.12952467  1
  Sr2+  Sr5  1  0.62483334  0.11869413  0.62427873  1
  Sr2+  Sr6  1  0.61861886  0.62429493  0.13155442  1
  Sr2+  Sr7  1  0.61047508  0.61071482  0.61955961  1
  Sr2+  Sr8  1  0.36529605  0.37987892  0.12521231  1
  Sr2+  Sr9  1  0.37145603  0.36764818  0.63156833  1
  Sr2+  Sr10  1  0.37355662  0.86095592  0.12011071  1
  Sr2+  Sr11  1  0.36564545  0.85955144  0.62346628  1
  Sr2+  Sr12  1  0.86850775  0.36854284  0.12382269  1
  Sr2+  Sr13  1  0.86873421  0.36605227  0.62537184  1
  Sr2+  Sr14  1  0.86821511  0.87288860  0.13811664  1
  Sr2+  Sr15  1  0.86739639  0.86596560  0.62532556  1
  Sr2+  Sr16  1  0.13891787  0.38208518  0.37760894  1
  Sr2+  Sr17  1  0.13130078  0.38693500  0.87245154  1
  Sr2+  Sr18  1  0.12806141  0.87371049  0.36608117  1
  Sr2+  Sr19  1  0.14149614  0.88225955  0.87686407  1
  Sr2+  Sr20  1  0.62970534  0.38379649  0.38333244  1
  Sr2+  Sr21  1  0.63265005  0.37656717  0.87378739  1
  Sr2+  Sr22  1  0.62853993  0.87590339  0.37582121  1
  Sr2+  Sr23  1  0.63755399  0.88604077  0.87228182  1
  Sr2+  Sr24  1  0.38807581  0.13476371  0.37418807  1
  Sr2+  Sr25  1  0.38940330  0.13122418  0.87380766  1
  Sr2+  Sr26  1  0.39184228  0.62948519  0.37241973  1
  Sr2+  Sr27  1  0.38244774  0.63548664  0.87428123  1
  Sr2+  Sr28  1  0.88944305  0.13568512  0.37447896  1
  Sr2+  Sr29  1  0.88201365  0.13429727  0.87864135  1
  Sr2+  Sr30  1  0.88870701  0.62981292  0.37835538  1
  Sr2+  Sr31  1  0.88473417  0.62978505  0.87792729  1
  Sr2+  Sr32  1  0.13303638  0.14101543  0.37592811  1
  Sr2+  Sr33  1  0.13434920  0.13138592  0.87726015  1
  Sr2+  Sr34  1  0.12991546  0.63570477  0.37023715  1
  Sr2+  Sr35  1  0.13029196  0.64336824  0.87903170  1
  Sr2+  Sr36  1  0.63012434  0.13413378  0.37586979  1
  Sr2+  Sr37  1  0.63049937  0.13376811  0.87676487  1
  Sr2+  Sr38  1  0.62964366  0.63539960  0.37736211  1
  Sr2+  Sr39  1  0.63875188  0.64494022  0.87616108  1
  Sr2+  Sr40  1  0.37738987  0.38838695  0.36440863  1
  Sr2+  Sr41  1  0.38592041  0.38324742  0.87382946  1
  Sr2+  Sr42  1  0.38571269  0.88376665  0.38133976  1
  Sr2+  Sr43  1  0.38264331  0.88141440  0.87368355  1
  Sr2+  Sr44  1  0.87543123  0.38409712  0.38114725  1
  Sr2+  Sr45  1  0.87627009  0.39250194  0.87136211  1
  Sr2+  Sr46  1  0.88235540  0.86649355  0.37874913  1
  Sr2+  Sr47  1  0.88003419  0.87838947  0.86716708  1
  Sr2+  Sr48  1  0.12197213  0.38343776  0.12480146  1
  Sr2+  Sr49  1  0.11566480  0.36452554  0.62515695  1
  Sr2+  Sr50  1  0.11452524  0.86598113  0.12420443  1
  Sr2+  Sr51  1  0.11967016  0.87128921  0.63017249  1
  Sr2+  Sr52  1  0.61578215  0.36174682  0.12707644  1
  Sr2+  Sr53  1  0.61492255  0.36881098  0.62953390  1
  Sr2+  Sr54  1  0.62059871  0.87074700  0.11481878  1
  Sr2+  Sr55  1  0.61124934  0.86384249  0.62418243  1
  Sr2+  Sr56  1  0.37420969  0.11942059  0.13834908  1
  Sr2+  Sr57  1  0.36505324  0.12096158  0.62260110  1
  Sr2+  Sr58  1  0.35904898  0.61987395  0.12307353  1
  Sr2+  Sr59  1  0.36894518  0.62204441  0.62849096  1
  Sr2+  Sr60  1  0.87556847  0.11941170  0.12720184  1
  Sr2+  Sr61  1  0.87697585  0.12201691  0.61588077  1
  Sr2+  Sr62  1  0.86894277  0.61633033  0.13198022  1
  Sr2+  Sr63  1  0.86347207  0.61930887  0.62402815  1
  Ca2+  Ca64  1  -0.00016837  -0.00119796  0.50025704  1
  Ca2+  Ca65  1  0.50008607  0.00134733  0.50719045  1
  Ca2+  Ca66  1  0.50159886  0.49917716  0.00042428  1
  Ca2+  Ca67  1  0.49597952  0.49633914  0.49982179  1
  Ca2+  Ca68  1  0.00013453  0.49750342  0.49803970  1
  Ca2+  Ca69  1  0.75364097  0.75258805  0.00103677  1
  Ca2+  Ca70  1  0.24924079  0.74863735  0.49720232  1
  Ca2+  Ca71  1  0.24996057  0.24933424  -0.00050905  1
  Ca2+  Ca72  1  0.75060031  0.75045098  0.50057524  1
  Ca2+  Ca73  1  0.25032876  0.75156361  0.00126497  1
  Ca2+  Ca74  1  0.24920533  0.49906187  0.75017599  1
  Ca2+  Ca75  1  0.50316035  0.25327080  0.24992419  1
  Ca2+  Ca76  1  0.74812650  -0.00013572  0.25268371  1
  Ca2+  Ca77  1  0.00101009  0.25044171  0.24829209  1
  Ca2+  Ca78  1  0.25099253  -0.00098534  0.25095624  1
  Ca2+  Ca79  1  0.75065332  0.49850024  0.24965403  1
  Ca2+  Ca80  1  -0.00347412  0.24877866  0.75267626  1
  Ca2+  Ca81  1  0.74900271  0.50027111  0.74733914  1
  Ca2+  Ca82  1  0.49952791  0.75325675  0.24913736  1
  Ca2+  Ca83  1  -0.00011404  0.74884708  0.75127057  1
  Ca2+  Ca84  1  0.50068979  0.75199864  0.75134556  1
  Nb5+  Nb85  1  0.00041267  0.50582483  -0.00269161  1
  Nb5+  Nb86  1  0.50510625  0.00191672  -0.00003193  1
  Nb5+  Nb87  1  0.00537708  0.00155956  -0.00233944  1
  Nb5+  Nb88  1  0.25837203  0.25034149  0.49998603  1
  Nb5+  Nb89  1  0.74980358  0.24999722  0.00628283  1
  Nb5+  Nb90  1  0.75146422  0.24973531  0.50516508  1
  Nb5+  Nb91  1  0.75910813  0.00486125  0.75043222  1
  Nb5+  Nb92  1  0.00054770  0.74658074  0.24744575  1
  Nb5+  Nb93  1  0.49957908  0.24755242  0.74938923  1
  Nb5+  Nb94  1  0.25917800  0.00140218  0.75159950  1
  Nb5+  Nb95  1  0.24795107  0.50490775  0.25032950  1
  Nb5+  Nb96  1  0.00285097  -0.00183124  0.25471878  1
  Nb5+  Nb97  1  0.00652851  0.00208519  0.75102762  1
  Nb5+  Nb98  1  -0.00092476  0.49475916  0.24986427  1
  Nb5+  Nb99  1  -0.00215228  0.50132201  0.74537361  1
  Nb5+  Nb100  1  0.50158052  -0.00162284  0.25723193  1
  Nb5+  Nb101  1  0.50633187  0.00215967  0.74923730  1
  Nb5+  Nb102  1  0.50567752  0.49910787  0.24379911  1
  Nb5+  Nb103  1  0.50233690  0.50623923  0.75717898  1
  Nb5+  Nb104  1  0.24618385  0.25149155  0.24353763  1
  Nb5+  Nb105  1  0.25070610  0.24911911  0.75381653  1
  Nb5+  Nb106  1  0.25523219  0.75279313  0.25176795  1
  Nb5+  Nb107  1  0.24580269  0.74483191  0.74649142  1
  Nb5+  Nb108  1  0.75220640  0.25014352  0.25936670  1
  Nb5+  Nb109  1  0.75130364  0.24645077  0.75421052  1
  Nb5+  Nb110  1  0.74814809  0.75168093  0.25172353  1
  Nb5+  Nb111  1  0.74759111  0.74662345  0.74413366  1
  Nb5+  Nb112  1  0.00792528  0.25123302  0.49835418  1
  Nb5+  Nb113  1  0.00078915  0.25727300  0.99846437  1
  Nb5+  Nb114  1  0.00524636  0.74678402  0.50598315  1
  Nb5+  Nb115  1  -0.00599963  0.75801821  1.00075718  1
  Nb5+  Nb116  1  0.50331550  0.25322252  0.49836696  1
  Nb5+  Nb117  1  0.49722516  0.24629893  1.00372251  1
  Nb5+  Nb118  1  0.49868091  0.74833098  0.50093010  1
  Nb5+  Nb119  1  0.50453866  0.74529440  0.99782898  1
  Nb5+  Nb120  1  0.26162904  0.00322704  0.00041032  1
  Nb5+  Nb121  1  0.24723308  -0.00061901  0.49536972  1
  Nb5+  Nb122  1  0.24907033  0.50425698  -0.00648881  1
  Nb5+  Nb123  1  0.25066760  0.50176775  0.50413454  1
  Nb5+  Nb124  1  0.75853815  0.00288802  -0.00443628  1
  Nb5+  Nb125  1  0.74888627  -0.00066102  0.49638830  1
  Nb5+  Nb126  1  0.74386523  0.50047152  0.00267659  1
  Nb5+  Nb127  1  0.74631954  0.50385843  0.50110587  1
  O2-  O128  1  -0.01458427  0.01163658  0.11472926  1
  O2-  O129  1  -0.00886797  0.02708471  0.64014688  1
  O2-  O130  1  -0.00885866  0.51856774  0.11799829  1
  O2-  O131  1  -0.01293534  0.52795585  0.63323751  1
  O2-  O132  1  0.48990652  0.02547777  0.11383410  1
  O2-  O133  1  0.48820770  0.03517525  0.64079659  1
  O2-  O134  1  0.47448949  0.52633311  0.13163770  1
  O2-  O135  1  0.48052495  0.51977016  0.63927481  1
  O2-  O136  1  0.00888888  -0.03187896  0.36483869  1
  O2-  O137  1  0.00888161  -0.03171539  0.88251459  1
  O2-  O138  1  0.01369378  0.47144498  0.36134098  1
  O2-  O139  1  0.00948024  0.47304157  0.88306340  1
  O2-  O140  1  0.51439432  -0.02286419  0.36975646  1
  O2-  O141  1  0.50894712  -0.01548450  0.87467078  1
  O2-  O142  1  0.50753540  0.47229286  0.36113006  1
  O2-  O143  1  0.51330872  0.46422862  0.86854588  1
  O2-  O144  1  0.23330898  0.27879958  0.13313954  1
  O2-  O145  1  0.24242035  0.26592395  0.62361653  1
  O2-  O146  1  0.23378064  0.77554310  0.13620332  1
  O2-  O147  1  0.23368384  0.78004548  0.63293829  1
  O2-  O148  1  0.73658438  0.26157547  0.12066552  1
  O2-  O149  1  0.73290856  0.25934677  0.62275667  1
  O2-  O150  1  0.74131527  0.78161420  0.13415145  1
  O2-  O151  1  0.73607622  0.78667491  0.63321629  1
  O2-  O152  1  0.26577613  0.23124496  0.38340762  1
  O2-  O153  1  0.26673994  0.22253964  0.86455116  1
  O2-  O154  1  0.26101684  0.71282771  0.36306178  1
  O2-  O155  1  0.26440521  0.73033597  0.86508587  1
  O2-  O156  1  0.76006683  0.23527552  0.37707923  1
  O2-  O157  1  0.75768257  0.23351412  0.87088258  1
  O2-  O158  1  0.77620185  0.72816220  0.36542998  1
  O2-  O159  1  0.77294277  0.73435350  0.86210124  1
  O2-  O160  1  0.01214732  0.22031076  0.11003734  1
  O2-  O161  1  0.01319774  0.22351638  0.61548095  1
  O2-  O162  1  0.02266778  0.73795240  0.12430036  1
  O2-  O163  1  0.03199706  0.73666819  0.61708875  1
  O2-  O164  1  0.52878157  0.22748850  0.11338307  1
  O2-  O165  1  0.51747000  0.22838479  0.63310174  1
  O2-  O166  1  0.53259248  0.74830378  0.11497967  1
  O2-  O167  1  0.52570566  0.73297041  0.61873767  1
  O2-  O168  1  0.21576169  0.01375265  0.38578974  1
  O2-  O169  1  0.23439347  0.01839025  0.87091785  1
  O2-  O170  1  0.22283450  0.51053384  0.36690290  1
  O2-  O171  1  0.21912652  0.51828856  0.88321173  1
  O2-  O172  1  0.71383452  0.00781344  0.38746736  1
  O2-  O173  1  0.73297528  0.01987913  0.87377612  1
  O2-  O174  1  0.71869075  0.50589772  0.38273703  1
  O2-  O175  1  0.73900974  0.49942837  0.88460272  1
  O2-  O176  1  -0.02573589  0.26863093  0.38546663  1
  O2-  O177  1  -0.03765770  0.26174172  0.88757748  1
  O2-  O178  1  -0.01559619  0.75719131  0.36419496  1
  O2-  O179  1  -0.02836594  0.75871863  0.88694140  1
  O2-  O180  1  0.48150283  0.27343756  0.38795167  1
  O2-  O181  1  0.48633033  0.26041324  0.87484683  1
  O2-  O182  1  0.47369729  0.76633193  0.38344834  1
  O2-  O183  1  0.47114823  0.76467875  0.88509465  1
  O2-  O184  1  0.27872042  -0.01174464  0.11316296  1
  O2-  O185  1  0.27125337  -0.00836917  0.63377370  1
  O2-  O186  1  0.25694501  0.48428046  0.12690009  1
  O2-  O187  1  0.27875457  0.48568921  0.61445900  1
  O2-  O188  1  0.76420268  -0.00231170  0.11107892  1
  O2-  O189  1  0.77768299  0.00132454  0.63478618  1
  O2-  O190  1  0.78034132  0.48595136  0.11311372  1
  O2-  O191  1  0.78027631  0.48468029  0.61418334  1
  O2-  O192  1  0.13477349  0.26663137  0.28191429  1
  O2-  O193  1  0.13566210  0.26455989  0.76344456  1
  O2-  O194  1  0.12396652  0.75985041  0.26406887  1
  O2-  O195  1  0.13310212  0.77780295  0.77149772  1
  O2-  O196  1  0.63767461  0.28695481  0.26401798  1
  O2-  O197  1  0.62271726  0.26119077  0.76334222  1
  O2-  O198  1  0.63544210  0.76510640  0.27531052  1
  O2-  O199  1  0.63496204  0.77575983  0.77307685  1
  O2-  O200  1  0.36419037  0.23652405  0.24302799  1
  O2-  O201  1  0.37975114  0.22627135  0.73522232  1
  O2-  O202  1  0.36572955  0.72958273  0.22656315  1
  O2-  O203  1  0.36489885  0.73803933  0.72941919  1
  O2-  O204  1  0.86613602  0.21787976  0.23698904  1
  O2-  O205  1  0.86085726  0.21982640  0.73129095  1
  O2-  O206  1  0.88424743  0.73427396  0.22796533  1
  O2-  O207  1  0.86641891  0.74047585  0.72120688  1
  O2-  O208  1  0.26060789  0.38017288  0.26506003  1
  O2-  O209  1  0.27775503  0.36167557  0.76492565  1
  O2-  O210  1  0.26524748  0.86424921  0.28362984  1
  O2-  O211  1  0.26659037  0.88551671  0.76857891  1
  O2-  O212  1  0.78864239  0.36398907  0.25759500  1
  O2-  O213  1  0.76632211  0.36088889  0.75838056  1
  O2-  O214  1  0.77929331  0.86750895  0.27053726  1
  O2-  O215  1  0.76436800  0.88947819  0.76805450  1
  O2-  O216  1  0.22848933  0.13650613  0.22949035  1
  O2-  O217  1  0.23653502  0.12412743  0.73015681  1
  O2-  O218  1  0.23138216  0.62072356  0.22692283  1
  O2-  O219  1  0.22590867  0.63317481  0.72451592  1
  O2-  O220  1  0.71875698  0.13610617  0.24305957  1
  O2-  O221  1  0.72248615  0.12325665  0.74093549  1
  O2-  O222  1  0.73900838  0.63550497  0.22305976  1
  O2-  O223  1  0.72472786  0.63559614  0.72358491  1
  O2-  O224  1  0.12304448  0.49052285  0.23040154  1
  O2-  O225  1  0.11466557  0.46741144  0.73559194  1
  O2-  O226  1  0.11644802  0.98006669  0.21990281  1
  O2-  O227  1  0.12425479  0.98721554  0.74147454  1
  O2-  O228  1  0.61679142  0.48385848  0.21666032  1
  O2-  O229  1  0.61508651  0.47546871  0.73182160  1
  O2-  O230  1  0.61380832  0.97571442  0.22372926  1
  O2-  O231  1  0.62266431  0.98758997  0.73926558  1
  O2-  O232  1  0.38401718  0.03109803  0.26477134  1
  O2-  O233  1  0.37323016  0.02072248  0.77025255  1
  O2-  O234  1  0.36442852  0.51771714  0.26356592  1
  O2-  O235  1  0.38291488  0.51464971  0.77704830  1
  O2-  O236  1  0.88634384  0.01599716  0.25138488  1
  O2-  O237  1  0.87213929  0.02178338  0.77357692  1
  O2-  O238  1  0.88731927  0.52272912  0.26254515  1
  O2-  O239  1  0.88332731  0.52370805  0.77260926  1
  O2-  O240  1  0.47418551  0.38406017  0.22321831  1
  O2-  O241  1  0.48215039  0.36290178  0.73600842  1
  O2-  O242  1  0.46707410  0.88823725  0.23023434  1
  O2-  O243  1  0.47867024  0.89077671  0.73293282  1
  O2-  O244  1  0.98845078  0.38406365  0.21636031  1
  O2-  O245  1  0.96937085  0.38281828  0.73606125  1
  O2-  O246  1  0.99020639  0.86850952  0.23022766  1
  O2-  O247  1  0.97551251  0.88875031  0.73863724  1
  O2-  O248  1  0.02439860  0.11198767  0.26866711  1
  O2-  O249  1  0.01225030  0.11333081  0.78916521  1
  O2-  O250  1  0.01861599  0.62488595  0.25713363  1
  O2-  O251  1  0.02728496  0.61322154  0.77653019  1
  O2-  O252  1  0.52474818  0.11791749  0.26610502  1
  O2-  O253  1  0.51359870  0.12581314  0.77765565  1
  O2-  O254  1  0.51837965  0.61600608  0.27028447  1
  O2-  O255  1  0.52372127  0.61668225  0.78069901  1
  O2-  O256  1  0.11918150  0.47992678  0.01292530  1
  O2-  O257  1  0.13698779  0.46673014  0.51276159  1
  O2-  O258  1  0.11961196  0.97924043  0.01338305  1
  O2-  O259  1  0.13531947  0.99000270  0.53559843  1
  O2-  O260  1  0.63583739  0.46416605  0.01798719  1
  O2-  O261  1  0.63253166  0.47212726  0.52297204  1
  O2-  O262  1  0.62340539  0.99005512  0.00786593  1
  O2-  O263  1  0.63853208  0.98805243  0.53987845  1
  O2-  O264  1  0.37569480  0.02123263  -0.02115447  1
  O2-  O265  1  0.36166449  0.03197909  0.48686962  1
  O2-  O266  1  0.36354971  0.52319429  -0.01807957  1
  O2-  O267  1  0.36127972  0.50943536  0.46452724  1
  O2-  O268  1  0.87441452  0.01969857  -0.01918031  1
  O2-  O269  1  0.86172359  0.03568125  0.48767096  1
  O2-  O270  1  0.88064093  0.51033019  -0.01693611  1
  O2-  O271  1  0.86385601  0.51005526  0.47024811  1
  O2-  O272  1  0.47973232  0.36017510  0.01800411  1
  O2-  O273  1  0.48608464  0.36251792  0.53740516  1
  O2-  O274  1  0.48189540  0.88689526  0.01278473  1
  O2-  O275  1  0.47823820  0.86843135  0.52300380  1
  O2-  O276  1  0.98660229  0.36983041  0.02269150  1
  O2-  O277  1  0.98356843  0.36359162  0.52806977  1
  O2-  O278  1  0.97475920  0.87235805  0.01965128  1
  O2-  O279  1  0.97423338  0.86399105  0.51401822  1
  O2-  O280  1  0.01493750  0.11539310  -0.02180068  1
  O2-  O281  1  0.01319306  0.13369260  0.47253099  1
  O2-  O282  1  0.01799588  0.61938176  -0.01809829  1
  O2-  O283  1  0.02516239  0.63091334  0.47734498  1
  O2-  O284  1  0.51627419  0.12255673  -0.02513363  1
  O2-  O285  1  0.51526415  0.13622243  0.48375977  1
  O2-  O286  1  0.52733140  0.63344270  -0.01890650  1
  O2-  O287  1  0.52008345  0.63014835  0.47973990  1
  O2-  O288  1  0.11230308  0.26292711  -0.03067154  1
  O2-  O289  1  0.12547928  0.26724697  0.48631216  1
  O2-  O290  1  0.11160620  0.76677098  -0.01770741  1
  O2-  O291  1  0.11622230  0.77446722  0.47119507  1
  O2-  O292  1  0.62958385  0.26342038  -0.01875378  1
  O2-  O293  1  0.62224646  0.26754385  0.48797688  1
  O2-  O294  1  0.61798445  0.77924545  -0.02560933  1
  O2-  O295  1  0.61733709  0.77337684  0.47880595  1
  O2-  O296  1  0.38536550  0.21914121  0.01746798  1
  O2-  O297  1  0.37459690  0.23382020  0.51885982  1
  O2-  O298  1  0.38720440  0.73670720  0.02717663  1
  O2-  O299  1  0.38177102  0.72611184  0.52377127  1
  O2-  O300  1  0.86845349  0.22687793  0.01668709  1
  O2-  O301  1  0.86747283  0.23443805  0.51536998  1
  O2-  O302  1  0.88557873  0.71867775  0.02411476  1
  O2-  O303  1  0.88747226  0.72020334  0.51226697  1
  O2-  O304  1  0.26406805  0.38519382  -0.01760144  1
  O2-  O305  1  0.26814582  0.36730075  0.48299481  1
  O2-  O306  1  0.26264139  0.88830415  -0.02538150  1
  O2-  O307  1  0.27293056  0.88739757  0.48685282  1
  O2-  O308  1  0.77257270  0.36412270  -0.01390598  1
  O2-  O309  1  0.76239403  0.36596583  0.48433436  1
  O2-  O310  1  0.76492099  0.88944897  -0.02370594  1
  O2-  O311  1  0.77752748  0.88807020  0.48984056  1
  O2-  O312  1  0.22035326  0.11312784  0.01224150  1
  O2-  O313  1  0.23020488  0.13287046  0.51711679  1
  O2-  O314  1  0.22745762  0.61721319  0.02346830  1
  O2-  O315  1  0.22648157  0.61308175  0.51889394  1
  O2-  O316  1  0.73211370  0.12725669  0.00505955  1
  O2-  O317  1  0.72519522  0.13239836  0.50842110  1
  O2-  O318  1  0.72296628  0.61414350  0.01175721  1
  O2-  O319  1  0.72685320  0.61619211  0.52010588  1
