# generated using pymatgen
data_Sr64Ca21Nb43O192
_symmetry_space_group_name_H-M   'P 1'
_cell_length_a   16.56739523
_cell_length_b   16.61601617
_cell_length_c   16.77258867
_cell_angle_alpha   90.01295944
_cell_angle_beta   90.01107309
_cell_angle_gamma   89.98467183
_symmetry_Int_Tables_number   1
_chemical_formula_structural   Sr64Ca21Nb43O192
_chemical_formula_sum   'Sr64 Ca21 Nb43 O192'
_cell_volume   4617.22672648
_cell_formula_units_Z   1
loop_
 _symmetry_equiv_pos_site_id
 _symmetry_equiv_pos_as_xyz
  1  'x, y, z'
loop_
 _atom_type_symbol
 _atom_type_oxidation_number
  Sr2+  2.0
  Ca2+  2.0
  Nb5+  5.0
  O2-  -2.0
loop_
 _atom_site_type_symbol
 _atom_site_label
 _atom_site_symmetry_multiplicity
 _atom_site_fract_x
 _atom_site_fract_y
 _atom_site_fract_z
 _atom_site_occupancy
  Sr2+  Sr0  1  0.12703936  0.11008775  0.13004665  1
  Sr2+  Sr1  1  0.11782355  0.11636873  0.62224791  1
  Sr2+  Sr2  1  0.12878134  0.59882445  0.12682584  1
  Sr2+  Sr3  1  0.12373615  0.61795190  0.62572444  1
  Sr2+  Sr4  1  0.61762116  0.10829246  0.12820849  1
  Sr2+  Sr5  1  0.61359363  0.11517573  0.62529644  1
  Sr2+  Sr6  1  0.61682561  0.60104417  0.12645627  1
  Sr2+  Sr7  1  0.62505680  0.61588406  0.62411987  1
  Sr2+  Sr8  1  0.36739307  0.38532641  0.13045826  1
  Sr2+  Sr9  1  0.37214336  0.36821724  0.63065182  1
  Sr2+  Sr10  1  0.37830647  0.88120149  0.12289490  1
  Sr2+  Sr11  1  0.37826404  0.87484866  0.63212972  1
  Sr2+  Sr12  1  0.87050759  0.35824078  0.12549089  1
  Sr2+  Sr13  1  0.86408930  0.36841627  0.62501027  1
  Sr2+  Sr14  1  0.87503573  0.87616922  0.12563025  1
  Sr2+  Sr15  1  0.87592491  0.86759781  0.61901959  1
  Sr2+  Sr16  1  0.13402619  0.37742997  0.37768671  1
  Sr2+  Sr17  1  0.11924551  0.38642757  0.88478680  1
  Sr2+  Sr18  1  0.13271560  0.87691481  0.36222777  1
  Sr2+  Sr19  1  0.13520757  0.87326982  0.88718444  1
  Sr2+  Sr20  1  0.63622425  0.38182847  0.36584692  1
  Sr2+  Sr21  1  0.63842367  0.38189947  0.87974504  1
  Sr2+  Sr22  1  0.64128148  0.87143516  0.36753822  1
  Sr2+  Sr23  1  0.62983989  0.87348754  0.88959549  1
  Sr2+  Sr24  1  0.36771614  0.13087306  0.37313195  1
  Sr2+  Sr25  1  0.37706947  0.12600942  0.87928911  1
  Sr2+  Sr26  1  0.39604829  0.62687500  0.37927069  1
  Sr2+  Sr27  1  0.37466327  0.62977522  0.87284314  1
  Sr2+  Sr28  1  0.88758906  0.12858525  0.37434466  1
  Sr2+  Sr29  1  0.88797205  0.13711126  0.87462196  1
  Sr2+  Sr30  1  0.89025287  0.62612460  0.37674503  1
  Sr2+  Sr31  1  0.88989454  0.62050749  0.87133009  1
  Sr2+  Sr32  1  0.13104088  0.13813108  0.37404964  1
  Sr2+  Sr33  1  0.13241017  0.13627816  0.87929377  1
  Sr2+  Sr34  1  0.13246717  0.62255740  0.37057501  1
  Sr2+  Sr35  1  0.12905258  0.62185244  0.88031941  1
  Sr2+  Sr36  1  0.63108548  0.13498730  0.37111276  1
  Sr2+  Sr37  1  0.62471871  0.13445062  0.88172690  1
  Sr2+  Sr38  1  0.62662036  0.62672781  0.35916528  1
  Sr2+  Sr39  1  0.62426291  0.62018916  0.88316755  1
  Sr2+  Sr40  1  0.37956324  0.37936625  0.37369679  1
  Sr2+  Sr41  1  0.37475469  0.38113729  0.88071953  1
  Sr2+  Sr42  1  0.38029133  0.86320048  0.37568412  1
  Sr2+  Sr43  1  0.37832660  0.87843378  0.88111000  1
  Sr2+  Sr44  1  0.88722790  0.38255656  0.36613318  1
  Sr2+  Sr45  1  0.87615278  0.38539461  0.87714768  1
  Sr2+  Sr46  1  0.88497338  0.88238746  0.36888938  1
  Sr2+  Sr47  1  0.88547389  0.86896823  0.88483895  1
  Sr2+  Sr48  1  0.11138322  0.37173825  0.12753431  1
  Sr2+  Sr49  1  0.11857842  0.36829300  0.62363129  1
  Sr2+  Sr50  1  0.11293099  0.87067661  0.12721990  1
  Sr2+  Sr51  1  0.12975472  0.87657403  0.62799080  1
  Sr2+  Sr52  1  0.61662281  0.36392724  0.12758685  1
  Sr2+  Sr53  1  0.61680655  0.37572538  0.62870333  1
  Sr2+  Sr54  1  0.64420590  0.87328986  0.12119302  1
  Sr2+  Sr55  1  0.64154973  0.87167961  0.62920892  1
  Sr2+  Sr56  1  0.36867237  0.11851234  0.12869452  1
  Sr2+  Sr57  1  0.36519034  0.11815107  0.62864863  1
  Sr2+  Sr58  1  0.37331380  0.61892936  0.15160821  1
  Sr2+  Sr59  1  0.37439310  0.61999190  0.61853257  1
  Sr2+  Sr60  1  0.84901488  0.12511257  0.12279645  1
  Sr2+  Sr61  1  0.86415049  0.11171665  0.62685185  1
  Sr2+  Sr62  1  0.87182055  0.61849780  0.14841668  1
  Sr2+  Sr63  1  0.86572843  0.62166349  0.62106952  1
  Ca2+  Ca64  1  0.49714962  0.49699615  -0.00026523  1
  Ca2+  Ca65  1  -0.00426789  0.50143976  0.00392003  1
  Ca2+  Ca66  1  0.50329739  0.49791437  0.50103300  1
  Ca2+  Ca67  1  -0.00260246  0.00364165  -0.00273077  1
  Ca2+  Ca68  1  0.00267038  0.50126467  0.50273247  1
  Ca2+  Ca69  1  0.25140658  0.74919965  0.00191539  1
  Ca2+  Ca70  1  0.75171826  0.74317807  -0.00387398  1
  Ca2+  Ca71  1  0.25017115  0.25121671  0.00003538  1
  Ca2+  Ca72  1  0.74775398  0.25017181  -0.00179323  1
  Ca2+  Ca73  1  0.75130736  0.24813931  0.49800647  1
  Ca2+  Ca74  1  0.00170491  0.74908222  0.25267859  1
  Ca2+  Ca75  1  0.74981685  -0.00002520  0.25147053  1
  Ca2+  Ca76  1  0.25127830  0.49825706  0.74952748  1
  Ca2+  Ca77  1  0.24785391  0.00491577  0.75085928  1
  Ca2+  Ca78  1  0.75176405  0.49567923  0.25148429  1
  Ca2+  Ca79  1  0.25315231  0.00151910  0.25226901  1
  Ca2+  Ca80  1  0.50050307  0.75445715  0.24820739  1
  Ca2+  Ca81  1  0.00173231  0.24766672  0.25056459  1
  Ca2+  Ca82  1  0.49749677  0.24453408  0.25255144  1
  Ca2+  Ca83  1  0.25079275  0.50008009  0.25741386  1
  Ca2+  Ca84  1  0.74968075  -0.00052039  0.75279792  1
  Nb5+  Nb85  1  -0.00392196  0.00018290  0.49917009  1
  Nb5+  Nb86  1  0.49290596  -0.00055969  0.50341857  1
  Nb5+  Nb87  1  0.49829594  -0.00067925  0.00589757  1
  Nb5+  Nb88  1  0.75527564  0.74768703  0.49774506  1
  Nb5+  Nb89  1  0.25151597  0.24535946  0.50624767  1
  Nb5+  Nb90  1  0.25226332  0.74508229  0.50204604  1
  Nb5+  Nb91  1  0.75030955  0.49974110  0.74751043  1
  Nb5+  Nb92  1  0.50606836  0.75165509  0.74883234  1
  Nb5+  Nb93  1  -0.00428971  0.24720695  0.74723243  1
  Nb5+  Nb94  1  0.00651092  0.74693365  0.74706480  1
  Nb5+  Nb95  1  0.49520464  0.24949583  0.74980259  1
  Nb5+  Nb96  1  -0.00380509  0.00563360  0.24337861  1
  Nb5+  Nb97  1  -0.00016389  -0.00797310  0.74909232  1
  Nb5+  Nb98  1  0.00161229  0.49832490  0.25207751  1
  Nb5+  Nb99  1  0.00007631  0.49287641  0.74260755  1
  Nb5+  Nb100  1  0.50147980  -0.00315897  0.26491261  1
  Nb5+  Nb101  1  0.50397370  -0.00002101  0.75742016  1
  Nb5+  Nb102  1  0.50054888  0.49605446  0.25148854  1
  Nb5+  Nb103  1  0.49830126  0.50244526  0.75282005  1
  Nb5+  Nb104  1  0.24789022  0.25439942  0.24374727  1
  Nb5+  Nb105  1  0.24303886  0.25369147  0.75067116  1
  Nb5+  Nb106  1  0.25119398  0.75506319  0.24726201  1
  Nb5+  Nb107  1  0.25469046  0.75043763  0.74857998  1
  Nb5+  Nb108  1  0.74966619  0.24783180  0.25184023  1
  Nb5+  Nb109  1  0.74148654  0.24774331  0.74573311  1
  Nb5+  Nb110  1  0.75202143  0.75004037  0.24405800  1
  Nb5+  Nb111  1  0.75569797  0.74621745  0.74994852  1
  Nb5+  Nb112  1  -0.00248789  0.25134144  0.50533963  1
  Nb5+  Nb113  1  0.00370539  0.24604262  1.00593084  1
  Nb5+  Nb114  1  0.00914246  0.75373085  0.50199019  1
  Nb5+  Nb115  1  -0.00341672  0.74696381  1.00607894  1
  Nb5+  Nb116  1  0.49935425  0.25090716  0.50052828  1
  Nb5+  Nb117  1  0.49678085  0.24778806  1.00419825  1
  Nb5+  Nb118  1  0.50828654  0.75340448  0.50517861  1
  Nb5+  Nb119  1  0.49645768  0.74757485  1.00454559  1
  Nb5+  Nb120  1  0.24541743  0.00040994  0.00172497  1
  Nb5+  Nb121  1  0.24459696  -0.00621181  0.49919403  1
  Nb5+  Nb122  1  0.25187330  0.50066753  -0.00058623  1
  Nb5+  Nb123  1  0.25457096  0.49108342  0.50419153  1
  Nb5+  Nb124  1  0.75170568  0.00039217  -0.00953385  1
  Nb5+  Nb125  1  0.73888081  -0.00125600  0.50270296  1
  Nb5+  Nb126  1  0.75345066  0.49719236  0.00749288  1
  Nb5+  Nb127  1  0.75252216  0.49686149  0.49714086  1
  O2-  O128  1  -0.02503201  0.03291030  0.13395786  1
  O2-  O129  1  -0.01557549  0.01977617  0.61980582  1
  O2-  O130  1  -0.01256680  0.52839516  0.13587623  1
  O2-  O131  1  -0.01505045  0.53492885  0.63542801  1
  O2-  O132  1  0.48163610  0.01099922  0.11843861  1
  O2-  O133  1  0.47822927  0.00925546  0.61844306  1
  O2-  O134  1  0.47585752  0.50706393  0.13302600  1
  O2-  O135  1  0.48507459  0.50652603  0.63734459  1
  O2-  O136  1  0.01879947  -0.02233666  0.38757373  1
  O2-  O137  1  0.01782810  -0.02573629  0.86020743  1
  O2-  O138  1  0.01543411  0.47135248  0.37089275  1
  O2-  O139  1  0.00666375  0.48911883  0.85990177  1
  O2-  O140  1  0.51906677  -0.01838956  0.38000910  1
  O2-  O141  1  0.51911722  -0.01302999  0.86907577  1
  O2-  O142  1  0.52898950  0.49538362  0.36871320  1
  O2-  O143  1  0.53495470  0.48997527  0.86344789  1
  O2-  O144  1  0.23406937  0.27641106  0.13384941  1
  O2-  O145  1  0.24078852  0.27786526  0.62299897  1
  O2-  O146  1  0.27207575  0.77087742  0.13653603  1
  O2-  O147  1  0.26059803  0.77605026  0.61928494  1
  O2-  O148  1  0.73904493  0.27907870  0.13332473  1
  O2-  O149  1  0.73883669  0.28307799  0.63318248  1
  O2-  O150  1  0.76847324  0.76803944  0.13155110  1
  O2-  O151  1  0.76008401  0.76476879  0.62250768  1
  O2-  O152  1  0.26318376  0.24053933  0.39059434  1
  O2-  O153  1  0.26316713  0.22776052  0.86036230  1
  O2-  O154  1  0.22441320  0.74232684  0.39043380  1
  O2-  O155  1  0.22993139  0.73481625  0.85870386  1
  O2-  O156  1  0.76351747  0.21201989  0.36762820  1
  O2-  O157  1  0.77177917  0.23677072  0.85723132  1
  O2-  O158  1  0.73363273  0.73396047  0.38459273  1
  O2-  O159  1  0.72703330  0.72794206  0.85810287  1
  O2-  O160  1  0.03213260  0.22982650  0.11466328  1
  O2-  O161  1  0.02815446  0.23811672  0.62937444  1
  O2-  O162  1  -0.02029755  0.72878829  0.11612239  1
  O2-  O163  1  -0.01966642  0.74005076  0.62394719  1
  O2-  O164  1  0.52092027  0.23328285  0.11461299  1
  O2-  O165  1  0.52122882  0.23612024  0.62847149  1
  O2-  O166  1  0.46814936  0.74582236  0.11389857  1
  O2-  O167  1  0.47865388  0.74963561  0.62691852  1
  O2-  O168  1  0.23646845  0.02811662  0.38917804  1
  O2-  O169  1  0.23182748  0.02111499  0.88383871  1
  O2-  O170  1  0.22074750  0.50547622  0.39140054  1
  O2-  O171  1  0.21912077  0.50244069  0.88098558  1
  O2-  O172  1  0.72433286  0.00894421  0.38807018  1
  O2-  O173  1  0.70894663  0.01128122  0.88038306  1
  O2-  O174  1  0.72545608  0.51699086  0.38736870  1
  O2-  O175  1  0.73034948  0.51640538  0.86066989  1
  O2-  O176  1  -0.01412416  0.26241566  0.39186717  1
  O2-  O177  1  -0.01812800  0.27499971  0.85819400  1
  O2-  O178  1  0.00649209  0.78256110  0.39131176  1
  O2-  O179  1  0.01383191  0.77861060  0.85615639  1
  O2-  O180  1  0.46771787  0.24924565  0.39094748  1
  O2-  O181  1  0.47799944  0.25098842  0.86465526  1
  O2-  O182  1  0.50988260  0.76009245  0.39008649  1
  O2-  O183  1  0.51979660  0.75750679  0.86254677  1
  O2-  O184  1  0.28009311  -0.00723395  0.11609781  1
  O2-  O185  1  0.27697012  -0.00874621  0.61148139  1
  O2-  O186  1  0.27567588  0.50470438  0.11832938  1
  O2-  O187  1  0.28772563  0.49280611  0.61810399  1
  O2-  O188  1  0.76613262  -0.01993563  0.11051228  1
  O2-  O189  1  0.77056598  -0.02614305  0.61482701  1
  O2-  O190  1  0.78383982  0.48679066  0.11651563  1
  O2-  O191  1  0.77236901  0.48898608  0.62639984  1
  O2-  O192  1  0.13401090  0.27381536  0.27677473  1
  O2-  O193  1  0.12751331  0.27635259  0.76116668  1
  O2-  O194  1  0.13340360  0.77972208  0.24549278  1
  O2-  O195  1  0.12069633  0.75676684  0.72322807  1
  O2-  O196  1  0.63137121  0.26790750  0.27169442  1
  O2-  O197  1  0.62632108  0.26240736  0.76645873  1
  O2-  O198  1  0.63460372  0.77584800  0.24791010  1
  O2-  O199  1  0.62006533  0.75029001  0.72317645  1
  O2-  O200  1  0.36288025  0.22136759  0.24100370  1
  O2-  O201  1  0.38278756  0.23353592  0.72732038  1
  O2-  O202  1  0.36413163  0.73009170  0.27945181  1
  O2-  O203  1  0.37381996  0.74530083  0.75847222  1
  O2-  O204  1  0.86820406  0.22996385  0.23077326  1
  O2-  O205  1  0.88110306  0.23760998  0.72413110  1
  O2-  O206  1  0.86583852  0.72388507  0.26807767  1
  O2-  O207  1  0.87370115  0.73975729  0.75734545  1
  O2-  O208  1  0.27785707  0.36700630  0.27107354  1
  O2-  O209  1  0.28278096  0.36349722  0.75887463  1
  O2-  O210  1  0.26678945  0.86935420  0.28312017  1
  O2-  O211  1  0.25021138  0.86844445  0.75751182  1
  O2-  O212  1  0.76812013  0.36394218  0.28310693  1
  O2-  O213  1  0.76013123  0.38085503  0.76339400  1
  O2-  O214  1  0.77088794  0.86478632  0.27454309  1
  O2-  O215  1  0.75121055  0.86165165  0.76026217  1
  O2-  O216  1  0.22134281  0.13667628  0.24370293  1
  O2-  O217  1  0.23889935  0.14048039  0.71784757  1
  O2-  O218  1  0.22636007  0.63800868  0.24314830  1
  O2-  O219  1  0.24533335  0.63596890  0.71933530  1
  O2-  O220  1  0.72846999  0.13112065  0.22209412  1
  O2-  O221  1  0.73497874  0.13600059  0.72089556  1
  O2-  O222  1  0.72503596  0.63296062  0.23397016  1
  O2-  O223  1  0.74481746  0.62489998  0.72268412  1
  O2-  O224  1  0.11867729  0.48035484  0.23057275  1
  O2-  O225  1  0.11523944  0.48697318  0.72776305  1
  O2-  O226  1  0.11452487  0.98412319  0.23061705  1
  O2-  O227  1  0.11344515  0.99957796  0.71953464  1
  O2-  O228  1  0.61820403  0.47562319  0.22506442  1
  O2-  O229  1  0.63019200  0.49467117  0.72444028  1
  O2-  O230  1  0.61278743  0.96905963  0.23070111  1
  O2-  O231  1  0.61301837  0.99133090  0.71558541  1
  O2-  O232  1  0.38803664  0.03303498  0.26381251  1
  O2-  O233  1  0.38696207  0.01296643  0.76030470  1
  O2-  O234  1  0.38449058  0.52289371  0.27601894  1
  O2-  O235  1  0.38765130  0.50545420  0.78063135  1
  O2-  O236  1  0.88360483  0.01191422  0.28324844  1
  O2-  O237  1  0.88738955  0.02816575  0.75897996  1
  O2-  O238  1  0.88275818  0.51983352  0.27380774  1
  O2-  O239  1  0.87241439  0.51167631  0.76051052  1
  O2-  O240  1  0.47461989  0.37997848  0.24807949  1
  O2-  O241  1  0.49476051  0.37027413  0.73951669  1
  O2-  O242  1  0.46284280  0.88601966  0.24630150  1
  O2-  O243  1  0.49044409  0.87376065  0.74315985  1
  O2-  O244  1  0.97649036  0.38180535  0.22864300  1
  O2-  O245  1  0.98399658  0.37834623  0.72258779  1
  O2-  O246  1  0.98037794  0.88563536  0.23220920  1
  O2-  O247  1  0.98556544  0.87821713  0.72401622  1
  O2-  O248  1  0.01741842  0.11504548  0.28284552  1
  O2-  O249  1  0.01830827  0.13530053  0.76643945  1
  O2-  O250  1  0.01964038  0.61681027  0.27844877  1
  O2-  O251  1  0.01199826  0.63298087  0.76629913  1
  O2-  O252  1  0.53344012  0.11166186  0.26031136  1
  O2-  O253  1  0.51813026  0.12353197  0.75884067  1
  O2-  O254  1  0.52168567  0.61912284  0.25053156  1
  O2-  O255  1  0.50457183  0.62621890  0.75569388  1
  O2-  O256  1  0.13186449  0.47461037  0.02265130  1
  O2-  O257  1  0.13851528  0.49153614  0.53650681  1
  O2-  O258  1  0.13155386  0.98075021  0.02462524  1
  O2-  O259  1  0.12910930  0.99117609  0.52170384  1
  O2-  O260  1  0.63345063  0.47244105  0.02031706  1
  O2-  O261  1  0.63824349  0.48795503  0.53046008  1
  O2-  O262  1  0.61532447  0.97753322  0.01612830  1
  O2-  O263  1  0.62217822  0.98305763  0.52207815  1
  O2-  O264  1  0.38012541  0.01268435  -0.02369348  1
  O2-  O265  1  0.37884336  0.00967661  0.47748732  1
  O2-  O266  1  0.36623756  0.52004394  -0.03332628  1
  O2-  O267  1  0.36736115  0.51976424  0.47693598  1
  O2-  O268  1  0.86260756  0.01700499  -0.03649237  1
  O2-  O269  1  0.87847151  0.00695878  0.48274964  1
  O2-  O270  1  0.86343773  0.51554701  -0.03162842  1
  O2-  O271  1  0.86617675  0.53223840  0.49232425  1
  O2-  O272  1  0.47120169  0.36000872  0.00893468  1
  O2-  O273  1  0.48219023  0.36265471  0.52067244  1
  O2-  O274  1  0.47783376  0.87982171  -0.00175664  1
  O2-  O275  1  0.48124060  0.87679138  0.51316348  1
  O2-  O276  1  0.97932616  0.36313610  0.01260411  1
  O2-  O277  1  0.98785076  0.36445702  0.52879680  1
  O2-  O278  1  0.97343525  0.86874984  0.01318807  1
  O2-  O279  1  0.99459528  0.88064356  0.52656325  1
  O2-  O280  1  0.01265148  0.13465683  -0.03778105  1
  O2-  O281  1  0.01870819  0.11995921  0.48900628  1
  O2-  O282  1  0.01610329  0.63614297  -0.02885261  1
  O2-  O283  1  0.01802632  0.64057138  0.48211285  1
  O2-  O284  1  0.51798496  0.11535534  -0.01685017  1
  O2-  O285  1  0.51482450  0.11708142  0.49377549  1
  O2-  O286  1  0.51876736  0.63465988  -0.00766750  1
  O2-  O287  1  0.50785842  0.63750777  0.50624448  1
  O2-  O288  1  0.11545664  0.26661834  -0.03140277  1
  O2-  O289  1  0.12907842  0.26217734  0.49406966  1
  O2-  O290  1  0.11205009  0.77625082  0.00336160  1
  O2-  O291  1  0.12357928  0.76519906  0.52369768  1
  O2-  O292  1  0.61024683  0.26063543  -0.03146074  1
  O2-  O293  1  0.61303156  0.26096318  0.47923417  1
  O2-  O294  1  0.61122068  0.77645180  0.00718103  1
  O2-  O295  1  0.62259368  0.76724125  0.51847509  1
  O2-  O296  1  0.38514305  0.21182302  0.00412394  1
  O2-  O297  1  0.37234904  0.23171990  0.52722851  1
  O2-  O298  1  0.38605932  0.74619326  -0.03896463  1
  O2-  O299  1  0.36944555  0.74362105  0.48943523  1
  O2-  O300  1  0.88427150  0.22575287  0.01295499  1
  O2-  O301  1  0.88762339  0.22407360  0.52624821  1
  O2-  O302  1  0.88472003  0.73930422  -0.03776664  1
  O2-  O303  1  0.87267435  0.74437582  0.49308844  1
  O2-  O304  1  0.27778705  0.38282747  -0.00664573  1
  O2-  O305  1  0.26888568  0.37510275  0.49167980  1
  O2-  O306  1  0.26445710  0.88432062  -0.02233890  1
  O2-  O307  1  0.25516461  0.87969658  0.48135403  1
  O2-  O308  1  0.76250741  0.38329631  -0.02947781  1
  O2-  O309  1  0.77710449  0.38484383  0.48178259  1
  O2-  O310  1  0.75728181  0.88052653  -0.02535409  1
  O2-  O311  1  0.75370523  0.87033795  0.48462042  1
  O2-  O312  1  0.22969223  0.11816193  0.01933501  1
  O2-  O313  1  0.23850469  0.12977188  0.52171046  1
  O2-  O314  1  0.22302254  0.61844275  0.00516581  1
  O2-  O315  1  0.23967784  0.63204353  0.52104297  1
  O2-  O316  1  0.72486709  0.11433319  0.01606062  1
  O2-  O317  1  0.73600515  0.11169664  0.52716644  1
  O2-  O318  1  0.72048234  0.61154649  0.00895432  1
  O2-  O319  1  0.73450795  0.63356565  0.52069408  1
