# generated using pymatgen
data_Sr64Ca21Nb43O192
_symmetry_space_group_name_H-M   'P 1'
_cell_length_a   16.52051524
_cell_length_b   16.54577177
_cell_length_c   16.69026239
_cell_angle_alpha   90.05505143
_cell_angle_beta   90.00067948
_cell_angle_gamma   89.99648414
_symmetry_Int_Tables_number   1
_chemical_formula_structural   Sr64Ca21Nb43O192
_chemical_formula_sum   'Sr64 Ca21 Nb43 O192'
_cell_volume   4562.19222811
_cell_formula_units_Z   1
loop_
 _symmetry_equiv_pos_site_id
 _symmetry_equiv_pos_as_xyz
  1  'x, y, z'
loop_
 _atom_type_symbol
 _atom_type_oxidation_number
  Sr2+  2.0
  Ca2+  2.0
  Nb5+  5.0
  O2-  -2.0
loop_
 _atom_site_type_symbol
 _atom_site_label
 _atom_site_symmetry_multiplicity
 _atom_site_fract_x
 _atom_site_fract_y
 _atom_site_fract_z
 _atom_site_occupancy
  Sr2+  Sr0  1  0.12614471  0.13240852  0.12087489  1
  Sr2+  Sr1  1  0.12625006  0.13552028  0.62178719  1
  Sr2+  Sr2  1  0.12487373  0.61875260  0.13243937  1
  Sr2+  Sr3  1  0.13201855  0.62887748  0.62600873  1
  Sr2+  Sr4  1  0.63027819  0.13022053  0.12218374  1
  Sr2+  Sr5  1  0.62925396  0.14376153  0.62748104  1
  Sr2+  Sr6  1  0.63693311  0.62036906  0.13065551  1
  Sr2+  Sr7  1  0.62628698  0.60033497  0.62490578  1
  Sr2+  Sr8  1  0.38186773  0.37661561  0.12732807  1
  Sr2+  Sr9  1  0.38615915  0.36958666  0.62314727  1
  Sr2+  Sr10  1  0.38365596  0.88676852  0.12901025  1
  Sr2+  Sr11  1  0.37349055  0.87764146  0.61825013  1
  Sr2+  Sr12  1  0.87099530  0.38377629  0.12226355  1
  Sr2+  Sr13  1  0.86810753  0.39045630  0.62095252  1
  Sr2+  Sr14  1  0.87877100  0.86241399  0.12788293  1
  Sr2+  Sr15  1  0.87492262  0.87759751  0.61878729  1
  Sr2+  Sr16  1  0.12582499  0.37402348  0.37141371  1
  Sr2+  Sr17  1  0.13101111  0.37285399  0.87357141  1
  Sr2+  Sr18  1  0.12757580  0.87202323  0.37707481  1
  Sr2+  Sr19  1  0.13425336  0.87567371  0.87532548  1
  Sr2+  Sr20  1  0.63347412  0.37066734  0.38099169  1
  Sr2+  Sr21  1  0.62626576  0.38081259  0.87345684  1
  Sr2+  Sr22  1  0.62388243  0.87767247  0.37304609  1
  Sr2+  Sr23  1  0.63102726  0.87515130  0.87149241  1
  Sr2+  Sr24  1  0.38554535  0.12944566  0.37021298  1
  Sr2+  Sr25  1  0.37207118  0.12104964  0.87832267  1
  Sr2+  Sr26  1  0.36889877  0.62148525  0.37511060  1
  Sr2+  Sr27  1  0.38375766  0.62571894  0.87441091  1
  Sr2+  Sr28  1  0.87844349  0.12378286  0.37440573  1
  Sr2+  Sr29  1  0.87480119  0.12482471  0.87149255  1
  Sr2+  Sr30  1  0.85909487  0.62384586  0.37353713  1
  Sr2+  Sr31  1  0.88316560  0.62554858  0.87601516  1
  Sr2+  Sr32  1  0.11311210  0.12008776  0.37523891  1
  Sr2+  Sr33  1  0.12440896  0.12864142  0.88086869  1
  Sr2+  Sr34  1  0.11912146  0.61294520  0.37839623  1
  Sr2+  Sr35  1  0.11858801  0.62281736  0.86433222  1
  Sr2+  Sr36  1  0.62183997  0.12726789  0.36897127  1
  Sr2+  Sr37  1  0.62695372  0.12262822  0.86780565  1
  Sr2+  Sr38  1  0.61890726  0.61404641  0.37685952  1
  Sr2+  Sr39  1  0.62152912  0.63506996  0.86464198  1
  Sr2+  Sr40  1  0.37015187  0.37772910  0.37436474  1
  Sr2+  Sr41  1  0.35930597  0.36868536  0.87553111  1
  Sr2+  Sr42  1  0.36067099  0.87329930  0.37442732  1
  Sr2+  Sr43  1  0.37351559  0.86400325  0.87729735  1
  Sr2+  Sr44  1  0.86648784  0.37659688  0.37561646  1
  Sr2+  Sr45  1  0.86679987  0.37916137  0.88281152  1
  Sr2+  Sr46  1  0.87500550  0.87182207  0.37111074  1
  Sr2+  Sr47  1  0.87530872  0.87054333  0.87679662  1
  Sr2+  Sr48  1  0.13989513  0.37905083  0.12750163  1
  Sr2+  Sr49  1  0.12547710  0.38104764  0.62646976  1
  Sr2+  Sr50  1  0.13098639  0.87657265  0.13065457  1
  Sr2+  Sr51  1  0.13872780  0.87679203  0.61985833  1
  Sr2+  Sr52  1  0.63434332  0.37296314  0.12436136  1
  Sr2+  Sr53  1  0.62497672  0.37844271  0.61424030  1
  Sr2+  Sr54  1  0.62747395  0.88121097  0.12497696  1
  Sr2+  Sr55  1  0.62957595  0.87677602  0.62738453  1
  Sr2+  Sr56  1  0.39378066  0.12963625  0.12845915  1
  Sr2+  Sr57  1  0.39137048  0.13489836  0.62266418  1
  Sr2+  Sr58  1  0.39280721  0.61988785  0.12617360  1
  Sr2+  Sr59  1  0.39166255  0.62772335  0.62532533  1
  Sr2+  Sr60  1  0.87895906  0.12656629  0.12563151  1
  Sr2+  Sr61  1  0.87886990  0.12332233  0.61883562  1
  Sr2+  Sr62  1  0.87851757  0.62588873  0.12540927  1
  Sr2+  Sr63  1  0.89615984  0.62612080  0.62661336  1
  Ca2+  Ca64  1  0.50280555  0.50028923  -0.00288468  1
  Ca2+  Ca65  1  0.49460850  0.49958257  0.49814717  1
  Ca2+  Ca66  1  -0.00081477  0.50140787  0.49922092  1
  Ca2+  Ca67  1  0.50095049  -0.00074189  0.50113098  1
  Ca2+  Ca68  1  0.00351353  0.50063606  -0.00039800  1
  Ca2+  Ca69  1  0.25118715  0.24956837  0.49614101  1
  Ca2+  Ca70  1  0.75428955  0.24742280  0.50372818  1
  Ca2+  Ca71  1  0.74834786  0.74981250  -0.00002298  1
  Ca2+  Ca72  1  0.24871401  0.74773979  0.00106150  1
  Ca2+  Ca73  1  0.74935115  0.75038286  0.50230618  1
  Ca2+  Ca74  1  0.75001457  0.00208879  0.24808213  1
  Ca2+  Ca75  1  0.75255615  0.50321758  0.75118319  1
  Ca2+  Ca76  1  0.24719591  0.00390264  0.74935646  1
  Ca2+  Ca77  1  0.24773828  0.00135022  0.24973812  1
  Ca2+  Ca78  1  0.25268042  0.49993345  0.74899408  1
  Ca2+  Ca79  1  0.75096241  0.49759869  0.24974661  1
  Ca2+  Ca80  1  -0.00032259  0.24922115  0.75072349  1
  Ca2+  Ca81  1  0.50391818  0.25573252  0.24748516  1
  Ca2+  Ca82  1  0.49851077  0.75062277  0.25183106  1
  Ca2+  Ca83  1  -0.00028394  0.24961160  0.24920109  1
  Ca2+  Ca84  1  0.50090904  0.24780726  0.75741978  1
  Nb5+  Nb85  1  0.00109011  -0.00141677  0.49595988  1
  Nb5+  Nb86  1  0.00339069  -0.00521195  -0.00417831  1
  Nb5+  Nb87  1  0.50698652  -0.00043665  -0.00105484  1
  Nb5+  Nb88  1  0.24822419  0.25071827  0.00311807  1
  Nb5+  Nb89  1  0.74869972  0.24867733  -0.00210201  1
  Nb5+  Nb90  1  0.25000079  0.74792312  0.49868086  1
  Nb5+  Nb91  1  0.25141918  0.50154531  0.24912721  1
  Nb5+  Nb92  1  0.00146984  0.74782947  0.25592798  1
  Nb5+  Nb93  1  0.50718108  0.75472831  0.74764549  1
  Nb5+  Nb94  1  0.00693957  0.75621794  0.74988328  1
  Nb5+  Nb95  1  0.75038056  -0.00182823  0.74928310  1
  Nb5+  Nb96  1  0.00216744  -0.00168503  0.24305702  1
  Nb5+  Nb97  1  0.00066743  -0.00378299  0.74588244  1
  Nb5+  Nb98  1  -0.00471419  0.49907061  0.24915733  1
  Nb5+  Nb99  1  -0.00285244  0.49381068  0.75360730  1
  Nb5+  Nb100  1  0.50115290  0.00066447  0.25269216  1
  Nb5+  Nb101  1  0.49775178  -0.00080472  0.74814150  1
  Nb5+  Nb102  1  0.50336617  0.49786307  0.24854719  1
  Nb5+  Nb103  1  0.49679135  0.49406456  0.75524933  1
  Nb5+  Nb104  1  0.24742493  0.24763773  0.25245594  1
  Nb5+  Nb105  1  0.25113591  0.24744241  0.74364153  1
  Nb5+  Nb106  1  0.25091148  0.74479347  0.24548585  1
  Nb5+  Nb107  1  0.25728534  0.75014889  0.74950311  1
  Nb5+  Nb108  1  0.75140727  0.24783605  0.25324273  1
  Nb5+  Nb109  1  0.75588579  0.25489058  0.75053311  1
  Nb5+  Nb110  1  0.74535922  0.75168854  0.25170433  1
  Nb5+  Nb111  1  0.75725172  0.74933646  0.74865000  1
  Nb5+  Nb112  1  -0.00185002  0.25571188  0.50067486  1
  Nb5+  Nb113  1  -0.00530673  0.24969535  1.00103348  1
  Nb5+  Nb114  1  0.00121847  0.75079332  0.50269386  1
  Nb5+  Nb115  1  0.00565438  0.74906244  1.00462351  1
  Nb5+  Nb116  1  0.50123650  0.24847242  0.49701691  1
  Nb5+  Nb117  1  0.49711490  0.25166922  0.99361369  1
  Nb5+  Nb118  1  0.50279668  0.75234078  0.49741169  1
  Nb5+  Nb119  1  0.50158026  0.75186337  1.00486452  1
  Nb5+  Nb120  1  0.25675820  -0.00048313  0.00423958  1
  Nb5+  Nb121  1  0.24875173  0.00648747  0.49883201  1
  Nb5+  Nb122  1  0.24635985  0.50524171  -0.00305687  1
  Nb5+  Nb123  1  0.24954476  0.49690066  0.50376628  1
  Nb5+  Nb124  1  0.75763959  0.00232927  -0.00108691  1
  Nb5+  Nb125  1  0.74829915  -0.00103449  0.49791021  1
  Nb5+  Nb126  1  0.74476667  0.50601576  -0.00279893  1
  Nb5+  Nb127  1  0.75079514  0.50125765  0.49985265  1
  O2-  O128  1  -0.00105467  -0.01060280  0.12387620  1
  O2-  O129  1  -0.00623965  -0.00964700  0.62745562  1
  O2-  O130  1  0.00747616  0.51538254  0.13256105  1
  O2-  O131  1  0.00638292  0.49179865  0.63469708  1
  O2-  O132  1  0.50655104  -0.02332179  0.11892205  1
  O2-  O133  1  0.49806931  -0.02974582  0.63705993  1
  O2-  O134  1  0.48998742  0.48262901  0.13011160  1
  O2-  O135  1  0.49632807  0.48127576  0.63551767  1
  O2-  O136  1  -0.00115718  0.00192558  0.37712588  1
  O2-  O137  1  -0.00824933  -0.00647815  0.87710162  1
  O2-  O138  1  -0.00280281  0.51017947  0.36570955  1
  O2-  O139  1  -0.00251291  0.52793418  0.86790946  1
  O2-  O140  1  0.50413595  0.02685223  0.36622401  1
  O2-  O141  1  0.49913149  0.01829533  0.88022723  1
  O2-  O142  1  0.49052453  0.52637868  0.36390650  1
  O2-  O143  1  0.50602259  0.53725224  0.86653727  1
  O2-  O144  1  0.24553015  0.23840878  0.12309240  1
  O2-  O145  1  0.25826890  0.22980734  0.63078208  1
  O2-  O146  1  0.23954112  0.72438097  0.13367530  1
  O2-  O147  1  0.24429198  0.74084110  0.62268293  1
  O2-  O148  1  0.74798765  0.24013907  0.11654009  1
  O2-  O149  1  0.73415721  0.25979090  0.63791849  1
  O2-  O150  1  0.75858417  0.73054800  0.13380763  1
  O2-  O151  1  0.75250805  0.77795104  0.63581707  1
  O2-  O152  1  0.25302356  0.27964977  0.36347635  1
  O2-  O153  1  0.24676372  0.26183173  0.88333219  1
  O2-  O154  1  0.24814812  0.76092762  0.37780591  1
  O2-  O155  1  0.24462835  0.76568200  0.86417925  1
  O2-  O156  1  0.75265237  0.25216931  0.36851738  1
  O2-  O157  1  0.77258351  0.25025172  0.88025654  1
  O2-  O158  1  0.76553145  0.75914568  0.36755090  1
  O2-  O159  1  0.74364337  0.75148625  0.86562572  1
  O2-  O160  1  0.00322457  0.23304004  0.11535290  1
  O2-  O161  1  0.00210119  0.23781237  0.61741325  1
  O2-  O162  1  -0.00004677  0.75209335  0.12455021  1
  O2-  O163  1  -0.00113606  0.76399715  0.62457839  1
  O2-  O164  1  0.51019720  0.26782952  0.10943300  1
  O2-  O165  1  0.49531595  0.26388773  0.62192952  1
  O2-  O166  1  0.49000242  0.77832881  0.11612264  1
  O2-  O167  1  0.48784135  0.77760804  0.63230699  1
  O2-  O168  1  0.24625044  -0.02319898  0.38393185  1
  O2-  O169  1  0.24378992  -0.00560361  0.88731154  1
  O2-  O170  1  0.25905376  0.48944176  0.36913831  1
  O2-  O171  1  0.25362253  0.47771939  0.88438005  1
  O2-  O172  1  0.74813336  0.02106211  0.38537268  1
  O2-  O173  1  0.75073844  0.00456175  0.87666202  1
  O2-  O174  1  0.76236436  0.49088179  0.38117827  1
  O2-  O175  1  0.75234250  0.47947462  0.88257904  1
  O2-  O176  1  0.00996326  0.23290068  0.38343957  1
  O2-  O177  1  0.00569172  0.22981149  0.88599099  1
  O2-  O178  1  0.00293294  0.75222750  0.37572490  1
  O2-  O179  1  0.00474047  0.74996167  0.87051502  1
  O2-  O180  1  0.50622562  0.22695478  0.37944096  1
  O2-  O181  1  0.50053128  0.20599503  0.88726971  1
  O2-  O182  1  0.50310838  0.72145954  0.38677976  1
  O2-  O183  1  0.50311962  0.73787283  0.86899867  1
  O2-  O184  1  0.22228372  0.01143244  0.11522858  1
  O2-  O185  1  0.23283997  0.00218328  0.61520136  1
  O2-  O186  1  0.23956970  0.51507512  0.12680411  1
  O2-  O187  1  0.22572642  0.50870854  0.61551095  1
  O2-  O188  1  0.73855664  0.01266989  0.11229110  1
  O2-  O189  1  0.75463328  -0.02009007  0.63400560  1
  O2-  O190  1  0.74746366  0.50275662  0.11635541  1
  O2-  O191  1  0.74169363  0.48892979  0.61882633  1
  O2-  O192  1  0.13397329  0.28348685  0.24241641  1
  O2-  O193  1  0.13507563  0.28657209  0.74627065  1
  O2-  O194  1  0.12259313  0.77140828  0.25140577  1
  O2-  O195  1  0.12073986  0.77859419  0.74580375  1
  O2-  O196  1  0.63673991  0.28531256  0.24755719  1
  O2-  O197  1  0.63921161  0.25917783  0.77856102  1
  O2-  O198  1  0.63333203  0.78173844  0.25019112  1
  O2-  O199  1  0.62148318  0.77808279  0.74833350  1
  O2-  O200  1  0.36518552  0.23101332  0.24198392  1
  O2-  O201  1  0.36560036  0.21632377  0.76312550  1
  O2-  O202  1  0.36315819  0.71881127  0.25431116  1
  O2-  O203  1  0.37363059  0.73080472  0.75324393  1
  O2-  O204  1  0.86692500  0.21145289  0.24717372  1
  O2-  O205  1  0.86550850  0.21031523  0.74593406  1
  O2-  O206  1  0.88454076  0.72489572  0.24956316  1
  O2-  O207  1  0.87401279  0.72993858  0.75181419  1
  O2-  O208  1  0.26924455  0.38460989  0.22949530  1
  O2-  O209  1  0.28509219  0.36440399  0.74003937  1
  O2-  O210  1  0.26866266  0.86055464  0.23399667  1
  O2-  O211  1  0.27004736  0.86683348  0.73272831  1
  O2-  O212  1  0.78587516  0.36343807  0.23919158  1
  O2-  O213  1  0.78419409  0.36583110  0.75420264  1
  O2-  O214  1  0.78053470  0.86680389  0.23988412  1
  O2-  O215  1  0.76655181  0.87793374  0.76862678  1
  O2-  O216  1  0.22052472  0.13657867  0.26720557  1
  O2-  O217  1  0.21118226  0.13544085  0.76269709  1
  O2-  O218  1  0.22153107  0.62293366  0.26758139  1
  O2-  O219  1  0.22030479  0.63761930  0.75359700  1
  O2-  O220  1  0.71299552  0.13476157  0.24746187  1
  O2-  O221  1  0.72914703  0.11554738  0.74870121  1
  O2-  O222  1  0.72260854  0.63323194  0.26595804  1
  O2-  O223  1  0.72115760  0.63966921  0.74090848  1
  O2-  O224  1  0.12613468  0.48247794  0.25378419  1
  O2-  O225  1  0.11563560  0.48096466  0.76234531  1
  O2-  O226  1  0.11385005  0.96316087  0.25674647  1
  O2-  O227  1  0.10999495  0.96186474  0.75317955  1
  O2-  O228  1  0.61559717  0.47101585  0.25416825  1
  O2-  O229  1  0.61607840  0.48499406  0.74956857  1
  O2-  O230  1  0.61616380  0.96807782  0.25095400  1
  O2-  O231  1  0.62868394  0.97653567  0.75684622  1
  O2-  O232  1  0.38166321  0.02245065  0.23450370  1
  O2-  O233  1  0.38409438  0.02166072  0.75322400  1
  O2-  O234  1  0.36575262  0.52993511  0.24348831  1
  O2-  O235  1  0.38446036  0.53557448  0.74886873  1
  O2-  O236  1  0.88609269  0.01839225  0.25385435  1
  O2-  O237  1  0.87294169  0.01467828  0.75401842  1
  O2-  O238  1  0.88404030  0.53466673  0.24470533  1
  O2-  O239  1  0.88441132  0.53666845  0.74522591  1
  O2-  O240  1  0.46238841  0.38681849  0.26158268  1
  O2-  O241  1  0.47813978  0.38380298  0.78217462  1
  O2-  O242  1  0.46853826  0.88485929  0.26998096  1
  O2-  O243  1  0.48471674  0.87618817  0.77667823  1
  O2-  O244  1  0.97377944  0.38567143  0.24523719  1
  O2-  O245  1  0.96792314  0.38364451  0.76691901  1
  O2-  O246  1  0.97676187  0.86885406  0.24900953  1
  O2-  O247  1  0.96551473  0.87044570  0.75253177  1
  O2-  O248  1  0.03182514  0.11021454  0.24318880  1
  O2-  O249  1  0.02251252  0.10842589  0.75081084  1
  O2-  O250  1  0.02833847  0.63279763  0.25063487  1
  O2-  O251  1  0.02032919  0.63933113  0.73597165  1
  O2-  O252  1  0.52036090  0.11656610  0.22422932  1
  O2-  O253  1  0.52751452  0.11075545  0.73297939  1
  O2-  O254  1  0.51966444  0.61676794  0.22241456  1
  O2-  O255  1  0.52118099  0.63929728  0.72951072  1
  O2-  O256  1  0.13483203  0.46136674  0.00186650  1
  O2-  O257  1  0.13426550  0.48189598  0.47724864  1
  O2-  O258  1  0.11748381  0.97618770  -0.00582374  1
  O2-  O259  1  0.11789672  0.96947732  0.49851949  1
  O2-  O260  1  0.63330797  0.46154511  0.00085015  1
  O2-  O261  1  0.62939301  0.47460213  0.49355203  1
  O2-  O262  1  0.62302422  0.98342055  -0.00849695  1
  O2-  O263  1  0.63596322  0.96902008  0.50155377  1
  O2-  O264  1  0.37172312  0.02376336  0.01122050  1
  O2-  O265  1  0.36309631  0.02463935  0.50356145  1
  O2-  O266  1  0.36401646  0.52206761  0.00589772  1
  O2-  O267  1  0.36055633  0.53727235  0.50241553  1
  O2-  O268  1  0.87321247  0.02567106  0.00097942  1
  O2-  O269  1  0.88223317  0.01852738  0.50252300  1
  O2-  O270  1  0.86541533  0.52292179  0.00029991  1
  O2-  O271  1  0.86636001  0.53532047  0.51072061  1
  O2-  O272  1  0.48297322  0.36206387  -0.03368982  1
  O2-  O273  1  0.46936355  0.36487737  0.48533281  1
  O2-  O274  1  0.47273475  0.88521266  -0.01620442  1
  O2-  O275  1  0.46348919  0.86401807  0.48316944  1
  O2-  O276  1  0.97360176  0.36282812  -0.00195417  1
  O2-  O277  1  0.96581723  0.36643779  0.49649905  1
  O2-  O278  1  0.96875788  0.87912933  0.00109643  1
  O2-  O279  1  0.97943767  0.87430264  0.49480808  1
  O2-  O280  1  0.01894482  0.11254672  0.00418832  1
  O2-  O281  1  0.02764824  0.11254282  0.50652977  1
  O2-  O282  1  0.03501746  0.63887513  0.00067614  1
  O2-  O283  1  0.02948733  0.63777396  0.51150502  1
  O2-  O284  1  0.51132552  0.11743617  0.02482916  1
  O2-  O285  1  0.52824649  0.13101965  0.52126480  1
  O2-  O286  1  0.52579010  0.63985172  0.02163814  1
  O2-  O287  1  0.51348706  0.63949367  0.53454921  1
  O2-  O288  1  0.12635009  0.26362454  0.00301481  1
  O2-  O289  1  0.11720916  0.28048432  0.50581025  1
  O2-  O290  1  0.11474559  0.79294240  0.00025107  1
  O2-  O291  1  0.12510338  0.77502811  0.50071348  1
  O2-  O292  1  0.62943496  0.26358221  -0.01281513  1
  O2-  O293  1  0.61895259  0.27648074  0.49968460  1
  O2-  O294  1  0.61390664  0.78853823  -0.00460407  1
  O2-  O295  1  0.61331919  0.78475134  0.50180516  1
  O2-  O296  1  0.37592499  0.23118845  0.00217701  1
  O2-  O297  1  0.38316504  0.21467934  0.49524259  1
  O2-  O298  1  0.38448240  0.73317124  -0.01507451  1
  O2-  O299  1  0.36687807  0.72852476  0.50141074  1
  O2-  O300  1  0.87741501  0.22111397  0.00368462  1
  O2-  O301  1  0.88629708  0.21259614  0.49685078  1
  O2-  O302  1  0.88751054  0.73121476  -0.00647478  1
  O2-  O303  1  0.88744516  0.72689408  0.50123754  1
  O2-  O304  1  0.27322372  0.36728923  0.01707492  1
  O2-  O305  1  0.27941303  0.38590055  0.51253661  1
  O2-  O306  1  0.27442121  0.88502236  0.01411226  1
  O2-  O307  1  0.26545835  0.86941740  0.51127308  1
  O2-  O308  1  0.77432091  0.36468348  0.00742384  1
  O2-  O309  1  0.78069213  0.38136293  0.50036870  1
  O2-  O310  1  0.77214894  0.88705403  0.00188276  1
  O2-  O311  1  0.78503137  0.88676501  0.49403212  1
  O2-  O312  1  0.23367228  0.12841011  -0.00811896  1
  O2-  O313  1  0.21324269  0.11545847  0.48650847  1
  O2-  O314  1  0.21562742  0.61463764  -0.01754419  1
  O2-  O315  1  0.22224647  0.63175493  0.48960367  1
  O2-  O316  1  0.72966623  0.12647700  -0.01087011  1
  O2-  O317  1  0.74221448  0.11120342  0.53390927  1
  O2-  O318  1  0.71313834  0.61605363  -0.01288834  1
  O2-  O319  1  0.71532133  0.61784624  0.49363709  1
