# generated using pymatgen
data_Sr64Ca21Nb43O192
_symmetry_space_group_name_H-M   'P 1'
_cell_length_a   16.57574366
_cell_length_b   16.59928117
_cell_length_c   16.72897908
_cell_angle_alpha   90.04074332
_cell_angle_beta   90.00034423
_cell_angle_gamma   90.08909555
_symmetry_Int_Tables_number   1
_chemical_formula_structural   Sr64Ca21Nb43O192
_chemical_formula_sum   'Sr64 Ca21 Nb43 O192'
_cell_volume   4602.89540525
_cell_formula_units_Z   1
loop_
 _symmetry_equiv_pos_site_id
 _symmetry_equiv_pos_as_xyz
  1  'x, y, z'
loop_
 _atom_type_symbol
 _atom_type_oxidation_number
  Sr2+  2.0
  Ca2+  2.0
  Nb5+  5.0
  O2-  -2.0
loop_
 _atom_site_type_symbol
 _atom_site_label
 _atom_site_symmetry_multiplicity
 _atom_site_fract_x
 _atom_site_fract_y
 _atom_site_fract_z
 _atom_site_occupancy
  Sr2+  Sr0  1  0.11711994  0.14454821  0.12259330  1
  Sr2+  Sr1  1  0.11420559  0.13513572  0.63001339  1
  Sr2+  Sr2  1  0.13526685  0.62236261  0.11166656  1
  Sr2+  Sr3  1  0.12660265  0.61762836  0.63124903  1
  Sr2+  Sr4  1  0.63816424  0.13608606  0.12672532  1
  Sr2+  Sr5  1  0.63813779  0.13653275  0.63054580  1
  Sr2+  Sr6  1  0.62673030  0.62640973  0.11987784  1
  Sr2+  Sr7  1  0.62660155  0.63261960  0.62477772  1
  Sr2+  Sr8  1  0.37353849  0.37576643  0.11315669  1
  Sr2+  Sr9  1  0.36786648  0.37627960  0.62162686  1
  Sr2+  Sr10  1  0.37405491  0.87751572  0.12064252  1
  Sr2+  Sr11  1  0.36725539  0.89269820  0.61527922  1
  Sr2+  Sr12  1  0.87689552  0.37291912  0.12802863  1
  Sr2+  Sr13  1  0.87555896  0.35713939  0.61508482  1
  Sr2+  Sr14  1  0.87374423  0.89365632  0.12082871  1
  Sr2+  Sr15  1  0.86643390  0.87001689  0.62915890  1
  Sr2+  Sr16  1  0.12706103  0.37429988  0.37602617  1
  Sr2+  Sr17  1  0.13283003  0.38269761  0.87214501  1
  Sr2+  Sr18  1  0.11281067  0.87440629  0.37625268  1
  Sr2+  Sr19  1  0.11420272  0.87499255  0.87984528  1
  Sr2+  Sr20  1  0.61777729  0.37134896  0.37669953  1
  Sr2+  Sr21  1  0.61181714  0.36832343  0.88026231  1
  Sr2+  Sr22  1  0.60660281  0.88085587  0.37457449  1
  Sr2+  Sr23  1  0.61407031  0.88225582  0.87158005  1
  Sr2+  Sr24  1  0.38481726  0.11468075  0.38575176  1
  Sr2+  Sr25  1  0.38488985  0.12010151  0.87631348  1
  Sr2+  Sr26  1  0.37618813  0.62473539  0.37073937  1
  Sr2+  Sr27  1  0.37402256  0.62001409  0.86486174  1
  Sr2+  Sr28  1  0.88260082  0.12263844  0.37027573  1
  Sr2+  Sr29  1  0.88739412  0.11482765  0.87674546  1
  Sr2+  Sr30  1  0.87831027  0.63262304  0.37277367  1
  Sr2+  Sr31  1  0.89432669  0.63393583  0.87972603  1
  Sr2+  Sr32  1  0.12675153  0.13012456  0.36555205  1
  Sr2+  Sr33  1  0.12266361  0.13327939  0.87388999  1
  Sr2+  Sr34  1  0.12770446  0.63742549  0.37082810  1
  Sr2+  Sr35  1  0.13563553  0.63756895  0.87195531  1
  Sr2+  Sr36  1  0.62073616  0.12873607  0.36552651  1
  Sr2+  Sr37  1  0.62755435  0.12779414  0.86600881  1
  Sr2+  Sr38  1  0.62216818  0.63330435  0.37248673  1
  Sr2+  Sr39  1  0.61529673  0.63787215  0.87211161  1
  Sr2+  Sr40  1  0.37648861  0.35441379  0.37536291  1
  Sr2+  Sr41  1  0.36766312  0.35522973  0.87462450  1
  Sr2+  Sr42  1  0.36477175  0.87845438  0.37283819  1
  Sr2+  Sr43  1  0.36781285  0.88362129  0.87418233  1
  Sr2+  Sr44  1  0.88159249  0.37492022  0.37373834  1
  Sr2+  Sr45  1  0.87156244  0.35987819  0.88111543  1
  Sr2+  Sr46  1  0.87164563  0.87808309  0.37593238  1
  Sr2+  Sr47  1  0.87558556  0.87971114  0.87582830  1
  Sr2+  Sr48  1  0.15141905  0.37607560  0.12868483  1
  Sr2+  Sr49  1  0.11595716  0.38413749  0.62430173  1
  Sr2+  Sr50  1  0.12675218  0.86703687  0.11284000  1
  Sr2+  Sr51  1  0.11809228  0.87951066  0.61720683  1
  Sr2+  Sr52  1  0.63256754  0.38304931  0.12371152  1
  Sr2+  Sr53  1  0.62954436  0.37850741  0.62033661  1
  Sr2+  Sr54  1  0.62288568  0.87761786  0.12894541  1
  Sr2+  Sr55  1  0.63018551  0.87438447  0.63510366  1
  Sr2+  Sr56  1  0.37851793  0.12999328  0.12097611  1
  Sr2+  Sr57  1  0.38682041  0.13682425  0.62997374  1
  Sr2+  Sr58  1  0.38373803  0.61791668  0.12107932  1
  Sr2+  Sr59  1  0.37580195  0.61509835  0.62439233  1
  Sr2+  Sr60  1  0.88132130  0.12647315  0.11999763  1
  Sr2+  Sr61  1  0.87710177  0.11837975  0.63769544  1
  Sr2+  Sr62  1  0.86973125  0.61873677  0.13136448  1
  Sr2+  Sr63  1  0.86871811  0.62120806  0.62404631  1
  Ca2+  Ca64  1  0.00466689  0.00199079  0.00328602  1
  Ca2+  Ca65  1  0.50481441  -0.00068887  0.50736419  1
  Ca2+  Ca66  1  -0.00258616  0.00236105  0.50002724  1
  Ca2+  Ca67  1  0.50265804  0.00065601  0.00164521  1
  Ca2+  Ca68  1  -0.00074929  0.49875907  0.00139987  1
  Ca2+  Ca69  1  0.75029328  0.75019857  0.00009110  1
  Ca2+  Ca70  1  0.74965013  0.24718764  0.49543180  1
  Ca2+  Ca71  1  0.24669991  0.25083469  0.50056906  1
  Ca2+  Ca72  1  0.74828478  0.24908924  -0.00046358  1
  Ca2+  Ca73  1  0.24703261  0.24777947  -0.00346381  1
  Ca2+  Ca74  1  0.75039361  0.49970388  0.75198234  1
  Ca2+  Ca75  1  0.49940624  0.74843741  0.25192606  1
  Ca2+  Ca76  1  0.50258018  0.24932980  0.24719548  1
  Ca2+  Ca77  1  0.24804700  -0.00151910  0.74895434  1
  Ca2+  Ca78  1  0.00238573  0.74951057  0.24674768  1
  Ca2+  Ca79  1  0.24902373  -0.00034729  0.24899266  1
  Ca2+  Ca80  1  0.49675207  0.75254861  0.74981806  1
  Ca2+  Ca81  1  0.25152948  0.50233662  0.25167090  1
  Ca2+  Ca82  1  0.50137507  0.25218182  0.74926853  1
  Ca2+  Ca83  1  0.00002671  0.25446518  0.74835420  1
  Ca2+  Ca84  1  0.00366187  0.75015823  0.74717997  1
  Nb5+  Nb85  1  0.00191567  0.50455749  0.49867678  1
  Nb5+  Nb86  1  0.50245136  0.50236921  0.49434373  1
  Nb5+  Nb87  1  0.50140107  0.50055019  -0.00848969  1
  Nb5+  Nb88  1  0.25855586  0.75171376  -0.00845067  1
  Nb5+  Nb89  1  0.74411692  0.75397210  0.49578348  1
  Nb5+  Nb90  1  0.24650511  0.74980249  0.49593021  1
  Nb5+  Nb91  1  0.74675613  0.50640055  0.25446030  1
  Nb5+  Nb92  1  0.75031525  -0.00055190  0.75542002  1
  Nb5+  Nb93  1  0.74949679  0.00402222  0.25386199  1
  Nb5+  Nb94  1  0.25025561  0.49836939  0.74841342  1
  Nb5+  Nb95  1  -0.00108600  0.25449779  0.24893500  1
  Nb5+  Nb96  1  0.00164276  -0.00190969  0.24948465  1
  Nb5+  Nb97  1  0.00534556  -0.00460444  0.74954969  1
  Nb5+  Nb98  1  0.00151496  0.49912963  0.25241127  1
  Nb5+  Nb99  1  -0.00555589  0.50069582  0.75476092  1
  Nb5+  Nb100  1  0.49581566  0.00203162  0.24954020  1
  Nb5+  Nb101  1  0.49758973  0.00111896  0.74797943  1
  Nb5+  Nb102  1  0.49954890  0.49855454  0.24570271  1
  Nb5+  Nb103  1  0.50404846  0.49394151  0.74257118  1
  Nb5+  Nb104  1  0.25780431  0.24465186  0.25085424  1
  Nb5+  Nb105  1  0.24632561  0.24400127  0.74599618  1
  Nb5+  Nb106  1  0.25051987  0.74696772  0.23913931  1
  Nb5+  Nb107  1  0.25508500  0.75283521  0.73978258  1
  Nb5+  Nb108  1  0.75137209  0.25913850  0.24829163  1
  Nb5+  Nb109  1  0.75427784  0.25640278  0.74843967  1
  Nb5+  Nb110  1  0.75214982  0.75670556  0.25034823  1
  Nb5+  Nb111  1  0.75341368  0.74666563  0.75646427  1
  Nb5+  Nb112  1  0.00070769  0.24809249  0.49503995  1
  Nb5+  Nb113  1  0.00068940  0.25734150  0.99300059  1
  Nb5+  Nb114  1  -0.00792643  0.75020570  0.50292624  1
  Nb5+  Nb115  1  -0.00292485  0.74630705  1.00565266  1
  Nb5+  Nb116  1  0.50248318  0.24756963  0.50363495  1
  Nb5+  Nb117  1  0.50063188  0.24413355  1.00439851  1
  Nb5+  Nb118  1  0.48932288  0.75067392  0.50349410  1
  Nb5+  Nb119  1  0.49932752  0.75355213  0.99844496  1
  Nb5+  Nb120  1  0.24677181  0.00542221  0.00124776  1
  Nb5+  Nb121  1  0.24294296  0.00866272  0.50195517  1
  Nb5+  Nb122  1  0.25399078  0.50084909  -0.00211900  1
  Nb5+  Nb123  1  0.25229887  0.50411886  0.49770188  1
  Nb5+  Nb124  1  0.74634739  -0.00146513  0.00387932  1
  Nb5+  Nb125  1  0.74572217  0.00282111  0.50384992  1
  Nb5+  Nb126  1  0.75106962  0.50003186  -0.00662601  1
  Nb5+  Nb127  1  0.75399626  0.50259164  0.49864921  1
  O2-  O128  1  0.00961583  0.03179508  0.13794880  1
  O2-  O129  1  0.00730872  0.02595545  0.63332678  1
  O2-  O130  1  -0.02193022  0.51070195  0.13940847  1
  O2-  O131  1  -0.00455202  0.52797270  0.61457342  1
  O2-  O132  1  0.50078881  -0.03157121  0.13645726  1
  O2-  O133  1  0.50405554  -0.04017761  0.63727779  1
  O2-  O134  1  0.49325912  0.48022381  0.13081879  1
  O2-  O135  1  0.49120055  0.47881476  0.62729711  1
  O2-  O136  1  -0.02911415  -0.00585235  0.36448398  1
  O2-  O137  1  -0.01156977  -0.01808186  0.86813197  1
  O2-  O138  1  0.00077378  0.47971361  0.37762107  1
  O2-  O139  1  -0.00326474  0.46949270  0.86370786  1
  O2-  O140  1  0.50810464  0.02165677  0.37105294  1
  O2-  O141  1  0.51015051  0.02971582  0.86611512  1
  O2-  O142  1  0.50624705  0.52475445  0.38223872  1
  O2-  O143  1  0.51057945  0.52028925  0.87899842  1
  O2-  O144  1  0.26711391  0.24877074  0.13150404  1
  O2-  O145  1  0.28046374  0.25079308  0.63218979  1
  O2-  O146  1  0.23621912  0.75092216  0.12341003  1
  O2-  O147  1  0.23008103  0.75547767  0.62602079  1
  O2-  O148  1  0.77335902  0.22971661  0.13528607  1
  O2-  O149  1  0.77557534  0.22953777  0.63012551  1
  O2-  O150  1  0.72910423  0.74265766  0.13787945  1
  O2-  O151  1  0.73417906  0.74946859  0.61465942  1
  O2-  O152  1  0.22230383  0.25436800  0.36422779  1
  O2-  O153  1  0.21969457  0.25985358  0.86261829  1
  O2-  O154  1  0.26844557  0.73544168  0.38305071  1
  O2-  O155  1  0.27701261  0.74464583  0.87726113  1
  O2-  O156  1  0.72374900  0.25451115  0.36194051  1
  O2-  O157  1  0.72452773  0.26459854  0.86339475  1
  O2-  O158  1  0.77646666  0.75441231  0.37878592  1
  O2-  O159  1  0.78504302  0.74707284  0.86591008  1
  O2-  O160  1  -0.02357517  0.24291658  0.13251940  1
  O2-  O161  1  -0.02118300  0.23400967  0.60955776  1
  O2-  O162  1  0.03529573  0.72877360  0.11658957  1
  O2-  O163  1  0.02884709  0.72773843  0.61129246  1
  O2-  O164  1  0.46689059  0.26571302  0.11769059  1
  O2-  O165  1  0.47746223  0.27731560  0.61590824  1
  O2-  O166  1  0.51710460  0.76167214  0.11664811  1
  O2-  O167  1  0.52817182  0.75920036  0.61302536  1
  O2-  O168  1  0.27024074  0.00032568  0.38667752  1
  O2-  O169  1  0.25756732  -0.00989956  0.88374117  1
  O2-  O170  1  0.23575769  0.52027365  0.38603405  1
  O2-  O171  1  0.24883230  0.50362753  0.87051431  1
  O2-  O172  1  0.75896683  -0.00769940  0.37197420  1
  O2-  O173  1  0.75342352  -0.00595580  0.87301978  1
  O2-  O174  1  0.73577262  0.49030427  0.37872729  1
  O2-  O175  1  0.74505414  0.46698270  0.88513302  1
  O2-  O176  1  0.01669374  0.27222334  0.37003226  1
  O2-  O177  1  0.02642655  0.27363650  0.88165234  1
  O2-  O178  1  -0.00945323  0.77116855  0.38558028  1
  O2-  O179  1  -0.01329974  0.77001191  0.88629439  1
  O2-  O180  1  0.52029890  0.24024654  0.38412459  1
  O2-  O181  1  0.52246905  0.23572031  0.88552833  1
  O2-  O182  1  0.49380043  0.71721977  0.39117872  1
  O2-  O183  1  0.48364980  0.71654943  0.88676039  1
  O2-  O184  1  0.25357808  -0.01906551  0.11629485  1
  O2-  O185  1  0.23653682  -0.02259981  0.61562585  1
  O2-  O186  1  0.26412897  0.50482674  0.11447659  1
  O2-  O187  1  0.24988709  0.49821970  0.62492661  1
  O2-  O188  1  0.74088658  0.00126604  0.12544195  1
  O2-  O189  1  0.74633282  0.00157337  0.62365168  1
  O2-  O190  1  0.74941897  0.51874186  0.13679435  1
  O2-  O191  1  0.74552545  0.52225426  0.61283482  1
  O2-  O192  1  0.11333440  0.27030471  0.22928513  1
  O2-  O193  1  0.13241577  0.26891757  0.71366138  1
  O2-  O194  1  0.13885940  0.77464118  0.27203280  1
  O2-  O195  1  0.14316119  0.76269220  0.77644305  1
  O2-  O196  1  0.63660774  0.26418267  0.22042786  1
  O2-  O197  1  0.63697114  0.26235585  0.72023306  1
  O2-  O198  1  0.63871958  0.76405689  0.28055535  1
  O2-  O199  1  0.63676256  0.77291976  0.76613545  1
  O2-  O200  1  0.36729208  0.22132208  0.27572991  1
  O2-  O201  1  0.36378233  0.22959041  0.77325259  1
  O2-  O202  1  0.36512684  0.71128914  0.24318887  1
  O2-  O203  1  0.36561545  0.71239025  0.73620244  1
  O2-  O204  1  0.87201301  0.24007985  0.27299114  1
  O2-  O205  1  0.86780100  0.22966637  0.77739679  1
  O2-  O206  1  0.86570017  0.72078872  0.24256750  1
  O2-  O207  1  0.86598238  0.73621476  0.71836987  1
  O2-  O208  1  0.26806271  0.36594182  0.24585135  1
  O2-  O209  1  0.26730426  0.38015924  0.75011461  1
  O2-  O210  1  0.28423412  0.86143708  0.24887849  1
  O2-  O211  1  0.28806051  0.86224658  0.74572831  1
  O2-  O212  1  0.76768291  0.37530024  0.24182285  1
  O2-  O213  1  0.77974208  0.36748343  0.73118511  1
  O2-  O214  1  0.77616125  0.87186811  0.24531451  1
  O2-  O215  1  0.76686657  0.87672805  0.74466986  1
  O2-  O216  1  0.21487644  0.13439135  0.24199546  1
  O2-  O217  1  0.21821813  0.13146100  0.74637436  1
  O2-  O218  1  0.21340227  0.63228285  0.24327717  1
  O2-  O219  1  0.23124737  0.61942742  0.74604861  1
  O2-  O220  1  0.73398530  0.11879705  0.25885860  1
  O2-  O221  1  0.73461068  0.11793529  0.75377934  1
  O2-  O222  1  0.73248635  0.62135208  0.26709599  1
  O2-  O223  1  0.72362559  0.63474285  0.75167552  1
  O2-  O224  1  0.11259416  0.47154804  0.24321033  1
  O2-  O225  1  0.12927799  0.48085840  0.74557139  1
  O2-  O226  1  0.11332362  0.98904145  0.27514767  1
  O2-  O227  1  0.11646207  0.96595571  0.75490770  1
  O2-  O228  1  0.63009587  0.47478347  0.25224341  1
  O2-  O229  1  0.61636788  0.46789300  0.74460251  1
  O2-  O230  1  0.63560365  0.97196018  0.25256369  1
  O2-  O231  1  0.63184301  0.98145324  0.75125265  1
  O2-  O232  1  0.38528162  0.03261240  0.24675324  1
  O2-  O233  1  0.38362280  0.02404187  0.74303206  1
  O2-  O234  1  0.38736701  0.52265335  0.25839910  1
  O2-  O235  1  0.37188910  0.51659596  0.74670233  1
  O2-  O236  1  0.86804561  0.01553124  0.23307576  1
  O2-  O237  1  0.86999992  0.01347277  0.74664483  1
  O2-  O238  1  0.86596837  0.51129721  0.26905998  1
  O2-  O239  1  0.88406877  0.53465752  0.75418846  1
  O2-  O240  1  0.49231312  0.38601371  0.28129339  1
  O2-  O241  1  0.47833460  0.38626783  0.78233444  1
  O2-  O242  1  0.48507983  0.88391800  0.27964464  1
  O2-  O243  1  0.48829763  0.88532311  0.78556655  1
  O2-  O244  1  0.97043574  0.37455018  0.24774130  1
  O2-  O245  1  0.98639178  0.39076975  0.71222843  1
  O2-  O246  1  0.98303766  0.88627030  0.22876516  1
  O2-  O247  1  0.97759573  0.88224013  0.72544149  1
  O2-  O248  1  0.00530713  0.13543173  0.26912418  1
  O2-  O249  1  0.01537694  0.11665534  0.76935520  1
  O2-  O250  1  0.01057856  0.61212491  0.27546425  1
  O2-  O251  1  0.02975021  0.61394056  0.76538373  1
  O2-  O252  1  0.53628354  0.11274305  0.23281736  1
  O2-  O253  1  0.52159035  0.11559474  0.71928263  1
  O2-  O254  1  0.53409176  0.61131409  0.23983366  1
  O2-  O255  1  0.52144523  0.61097485  0.73963427  1
  O2-  O256  1  0.13705174  0.48508280  0.00471090  1
  O2-  O257  1  0.12115754  0.49426250  0.50651151  1
  O2-  O258  1  0.13515183  0.96219826  -0.00171912  1
  O2-  O259  1  0.13151462  0.96655064  0.48828511  1
  O2-  O260  1  0.61733045  0.47981868  0.00788104  1
  O2-  O261  1  0.61962750  0.48996040  0.50415509  1
  O2-  O262  1  0.63433707  0.95819158  0.00018542  1
  O2-  O263  1  0.63745757  0.95549808  0.50077070  1
  O2-  O264  1  0.36680879  0.03005012  0.00335121  1
  O2-  O265  1  0.36446517  0.02465994  0.52119779  1
  O2-  O266  1  0.37823288  0.52068047  -0.00825558  1
  O2-  O267  1  0.37120834  0.52083974  0.49791499  1
  O2-  O268  1  0.86523495  0.02477840  0.00825147  1
  O2-  O269  1  0.86172695  0.02677089  0.50560380  1
  O2-  O270  1  0.86224670  0.53185945  -0.00570600  1
  O2-  O271  1  0.87067381  0.52223356  0.48989985  1
  O2-  O272  1  0.47685515  0.38382168  -0.01375296  1
  O2-  O273  1  0.47990131  0.38726319  0.48262993  1
  O2-  O274  1  0.47228692  0.86372947  -0.01786824  1
  O2-  O275  1  0.47436337  0.86209967  0.48100279  1
  O2-  O276  1  0.96221188  0.36858935  0.00897948  1
  O2-  O277  1  0.97932892  0.38852172  0.51111225  1
  O2-  O278  1  0.99149698  0.86371423  0.02786647  1
  O2-  O279  1  0.98495325  0.86442836  0.52397694  1
  O2-  O280  1  0.02098428  0.13790864  -0.01107732  1
  O2-  O281  1  0.02148059  0.13735267  0.47601100  1
  O2-  O282  1  0.02501991  0.63227432  -0.02541648  1
  O2-  O283  1  0.00770908  0.62388832  0.47127460  1
  O2-  O284  1  0.51752806  0.13359529  0.03074622  1
  O2-  O285  1  0.51766713  0.13590579  0.52761334  1
  O2-  O286  1  0.51057406  0.61645419  0.02523089  1
  O2-  O287  1  0.50590745  0.61776262  0.52915791  1
  O2-  O288  1  0.11218003  0.27583720  0.03080400  1
  O2-  O289  1  0.11152188  0.28617448  0.50944358  1
  O2-  O290  1  0.13979026  0.76430135  -0.01540529  1
  O2-  O291  1  0.13097112  0.76115686  0.48150988  1
  O2-  O292  1  0.61269817  0.27898885  0.02041639  1
  O2-  O293  1  0.61634658  0.28105402  0.51328322  1
  O2-  O294  1  0.61423803  0.76226625  -0.02348256  1
  O2-  O295  1  0.63037319  0.76349598  0.47835263  1
  O2-  O296  1  0.38223463  0.23464495  -0.02469037  1
  O2-  O297  1  0.38351615  0.23869451  0.47717571  1
  O2-  O298  1  0.37381707  0.72903831  0.02376166  1
  O2-  O299  1  0.37529788  0.73024634  0.52224183  1
  O2-  O300  1  0.88253437  0.22946445  -0.02428304  1
  O2-  O301  1  0.88457249  0.25074572  0.46755787  1
  O2-  O302  1  0.88610262  0.72067326  0.02239087  1
  O2-  O303  1  0.87811562  0.72851084  0.51534841  1
  O2-  O304  1  0.27158983  0.38475707  -0.00448921  1
  O2-  O305  1  0.26503547  0.38944169  0.49395789  1
  O2-  O306  1  0.28000739  0.86563498  -0.00035552  1
  O2-  O307  1  0.27370226  0.86272391  0.49717657  1
  O2-  O308  1  0.76110311  0.38827869  0.03252610  1
  O2-  O309  1  0.76347144  0.38815710  0.51193190  1
  O2-  O310  1  0.78406289  0.88226131  0.00035996  1
  O2-  O311  1  0.77974011  0.86923120  0.50046146  1
  O2-  O312  1  0.21220532  0.11552666  0.00227065  1
  O2-  O313  1  0.20973468  0.11808922  0.50562580  1
  O2-  O314  1  0.23975631  0.62564247  -0.00486457  1
  O2-  O315  1  0.23755977  0.62825038  0.51846353  1
  O2-  O316  1  0.71427791  0.11231095  -0.00842376  1
  O2-  O317  1  0.71036285  0.11116800  0.49076181  1
  O2-  O318  1  0.71382373  0.61216832  -0.00843873  1
  O2-  O319  1  0.73616324  0.63059167  0.48593012  1
