# generated using pymatgen
data_Sr64Ca21Nb43O192
_symmetry_space_group_name_H-M   'P 1'
_cell_length_a   16.55674514
_cell_length_b   16.56717796
_cell_length_c   16.71559666
_cell_angle_alpha   89.99901588
_cell_angle_beta   90.04855787
_cell_angle_gamma   90.00369124
_symmetry_Int_Tables_number   1
_chemical_formula_structural   Sr64Ca21Nb43O192
_chemical_formula_sum   'Sr64 Ca21 Nb43 O192'
_cell_volume   4585.06215579
_cell_formula_units_Z   1
loop_
 _symmetry_equiv_pos_site_id
 _symmetry_equiv_pos_as_xyz
  1  'x, y, z'
loop_
 _atom_type_symbol
 _atom_type_oxidation_number
  Sr2+  2.0
  Ca2+  2.0
  Nb5+  5.0
  O2-  -2.0
loop_
 _atom_site_type_symbol
 _atom_site_label
 _atom_site_symmetry_multiplicity
 _atom_site_fract_x
 _atom_site_fract_y
 _atom_site_fract_z
 _atom_site_occupancy
  Sr2+  Sr0  1  0.12525033  0.11973956  0.13108226  1
  Sr2+  Sr1  1  0.12639288  0.12507258  0.62670230  1
  Sr2+  Sr2  1  0.12526621  0.62230268  0.12016321  1
  Sr2+  Sr3  1  0.12694100  0.61423783  0.62143706  1
  Sr2+  Sr4  1  0.63720869  0.12437635  0.12749269  1
  Sr2+  Sr5  1  0.63475061  0.11990855  0.61871870  1
  Sr2+  Sr6  1  0.63175576  0.61889714  0.12108582  1
  Sr2+  Sr7  1  0.63161326  0.62658354  0.62936360  1
  Sr2+  Sr8  1  0.38627960  0.37019948  0.12428372  1
  Sr2+  Sr9  1  0.37435609  0.36041163  0.62902930  1
  Sr2+  Sr10  1  0.37928251  0.87203454  0.12952083  1
  Sr2+  Sr11  1  0.38201745  0.87926602  0.60822572  1
  Sr2+  Sr12  1  0.86349028  0.36765257  0.12638506  1
  Sr2+  Sr13  1  0.87428834  0.37332964  0.62005805  1
  Sr2+  Sr14  1  0.88355434  0.87818058  0.12745892  1
  Sr2+  Sr15  1  0.87387037  0.89921361  0.62596076  1
  Sr2+  Sr16  1  0.12373094  0.38092526  0.37079671  1
  Sr2+  Sr17  1  0.14164995  0.38469557  0.87546478  1
  Sr2+  Sr18  1  0.13588357  0.87474479  0.36943684  1
  Sr2+  Sr19  1  0.12277415  0.87537027  0.88009709  1
  Sr2+  Sr20  1  0.60867288  0.37978576  0.37373901  1
  Sr2+  Sr21  1  0.61308999  0.37956384  0.87798223  1
  Sr2+  Sr22  1  0.60126985  0.88422535  0.37299037  1
  Sr2+  Sr23  1  0.61810600  0.88501378  0.87096123  1
  Sr2+  Sr24  1  0.37773572  0.12206568  0.36985799  1
  Sr2+  Sr25  1  0.37617755  0.13159932  0.87269976  1
  Sr2+  Sr26  1  0.36656820  0.63048341  0.37436887  1
  Sr2+  Sr27  1  0.36926446  0.62667099  0.87526437  1
  Sr2+  Sr28  1  0.87730195  0.12836510  0.39896717  1
  Sr2+  Sr29  1  0.87151631  0.13134794  0.87371292  1
  Sr2+  Sr30  1  0.88398197  0.63064795  0.37587316  1
  Sr2+  Sr31  1  0.87764287  0.63698183  0.86358822  1
  Sr2+  Sr32  1  0.12426860  0.15627048  0.37305112  1
  Sr2+  Sr33  1  0.11427559  0.14886400  0.87353427  1
  Sr2+  Sr34  1  0.12302633  0.63453119  0.37618059  1
  Sr2+  Sr35  1  0.13001909  0.63695986  0.87321675  1
  Sr2+  Sr36  1  0.61329369  0.13049607  0.38112995  1
  Sr2+  Sr37  1  0.61973474  0.13931938  0.87263644  1
  Sr2+  Sr38  1  0.62966272  0.64033619  0.37443843  1
  Sr2+  Sr39  1  0.61519395  0.63661446  0.87379533  1
  Sr2+  Sr40  1  0.37276409  0.35833482  0.36379119  1
  Sr2+  Sr41  1  0.37183933  0.37949525  0.87791640  1
  Sr2+  Sr42  1  0.36563889  0.87870603  0.37221855  1
  Sr2+  Sr43  1  0.36792737  0.87423833  0.87181562  1
  Sr2+  Sr44  1  0.87942404  0.38299109  0.37880440  1
  Sr2+  Sr45  1  0.87374564  0.37717581  0.87460947  1
  Sr2+  Sr46  1  0.87523586  0.86849738  0.37466027  1
  Sr2+  Sr47  1  0.87611942  0.88505116  0.87393876  1
  Sr2+  Sr48  1  0.13666421  0.36022163  0.12821078  1
  Sr2+  Sr49  1  0.12178165  0.36738184  0.62171364  1
  Sr2+  Sr50  1  0.12472733  0.87573321  0.11877002  1
  Sr2+  Sr51  1  0.13221965  0.87615567  0.61191324  1
  Sr2+  Sr52  1  0.63292831  0.37579370  0.12671434  1
  Sr2+  Sr53  1  0.62517004  0.36870414  0.62010666  1
  Sr2+  Sr54  1  0.61902488  0.87248781  0.12930095  1
  Sr2+  Sr55  1  0.62498664  0.88054594  0.62684268  1
  Sr2+  Sr56  1  0.37111423  0.11913216  0.13123544  1
  Sr2+  Sr57  1  0.39983137  0.12367156  0.62079385  1
  Sr2+  Sr58  1  0.39656204  0.62065656  0.12251422  1
  Sr2+  Sr59  1  0.38719677  0.61897995  0.62427756  1
  Sr2+  Sr60  1  0.88518813  0.12080911  0.11795952  1
  Sr2+  Sr61  1  0.89026044  0.12363568  0.63283502  1
  Sr2+  Sr62  1  0.86316921  0.62288917  0.13258018  1
  Sr2+  Sr63  1  0.87381431  0.61539462  0.62212641  1
  Ca2+  Ca64  1  0.50070772  -0.00025732  0.49979909  1
  Ca2+  Ca65  1  0.00274761  -0.00127948  0.49756632  1
  Ca2+  Ca66  1  0.50004407  0.00289158  -0.00023319  1
  Ca2+  Ca67  1  0.00039693  0.50255960  -0.00029069  1
  Ca2+  Ca68  1  0.49614034  0.50103013  0.49890078  1
  Ca2+  Ca69  1  0.75026847  0.25133189  0.50010394  1
  Ca2+  Ca70  1  0.24972344  0.25149919  0.50189944  1
  Ca2+  Ca71  1  0.75226724  0.75187371  -0.00158338  1
  Ca2+  Ca72  1  0.25121133  0.24867932  -0.00147244  1
  Ca2+  Ca73  1  0.75453742  0.75247314  0.50334127  1
  Ca2+  Ca74  1  0.24527572  -0.00070739  0.24989512  1
  Ca2+  Ca75  1  0.25146938  0.49961881  0.24746701  1
  Ca2+  Ca76  1  -0.00085682  0.75144403  0.74606333  1
  Ca2+  Ca77  1  0.50509370  0.24787076  0.24426558  1
  Ca2+  Ca78  1  -0.00178538  0.25385281  0.75187552  1
  Ca2+  Ca79  1  0.24917410  -0.00297374  0.75001606  1
  Ca2+  Ca80  1  -0.00743272  0.25279959  0.24863409  1
  Ca2+  Ca81  1  0.50045036  0.25127894  0.74889559  1
  Ca2+  Ca82  1  0.49792435  0.74752331  0.25315842  1
  Ca2+  Ca83  1  0.49732285  0.75296237  0.75084120  1
  Ca2+  Ca84  1  0.75252255  0.00085768  0.24831586  1
  Nb5+  Nb85  1  0.50184384  0.50017275  -0.00193596  1
  Nb5+  Nb86  1  0.00155301  0.50133922  0.50038644  1
  Nb5+  Nb87  1  0.00485648  0.00303030  -0.00173247  1
  Nb5+  Nb88  1  0.25310669  0.75231562  -0.00213269  1
  Nb5+  Nb89  1  0.25051516  0.74658449  0.49664521  1
  Nb5+  Nb90  1  0.74849892  0.24936356  -0.00251415  1
  Nb5+  Nb91  1  0.74888329  0.50007911  0.25625865  1
  Nb5+  Nb92  1  0.25740622  0.50315817  0.74825260  1
  Nb5+  Nb93  1  0.00066304  0.74902455  0.25062133  1
  Nb5+  Nb94  1  0.74852213  0.00897658  0.75175986  1
  Nb5+  Nb95  1  0.75100260  0.50268728  0.75321016  1
  Nb5+  Nb96  1  -0.00162798  0.00222520  0.25507632  1
  Nb5+  Nb97  1  0.00688283  -0.00657002  0.75092721  1
  Nb5+  Nb98  1  -0.00146669  0.50081411  0.24370723  1
  Nb5+  Nb99  1  0.00809083  0.49574962  0.75307986  1
  Nb5+  Nb100  1  0.50020319  -0.00037118  0.24544184  1
  Nb5+  Nb101  1  0.49686559  0.00475175  0.75296030  1
  Nb5+  Nb102  1  0.50100348  0.50562082  0.25620148  1
  Nb5+  Nb103  1  0.50551869  0.49688175  0.74668533  1
  Nb5+  Nb104  1  0.24842216  0.24783602  0.24675504  1
  Nb5+  Nb105  1  0.24627831  0.24447258  0.75063149  1
  Nb5+  Nb106  1  0.24778921  0.74262211  0.24046470  1
  Nb5+  Nb107  1  0.25041704  0.75042010  0.73950456  1
  Nb5+  Nb108  1  0.75296288  0.24778049  0.25852124  1
  Nb5+  Nb109  1  0.74852935  0.25767182  0.74994993  1
  Nb5+  Nb110  1  0.74942538  0.75372130  0.25106524  1
  Nb5+  Nb111  1  0.75232399  0.76098732  0.75068485  1
  Nb5+  Nb112  1  0.00131046  0.24977985  0.50213285  1
  Nb5+  Nb113  1  -0.00220285  0.25995400  1.00149968  1
  Nb5+  Nb114  1  0.00116938  0.74995396  0.50502340  1
  Nb5+  Nb115  1  -0.00124262  0.74843373  1.00063517  1
  Nb5+  Nb116  1  0.49934469  0.25291929  0.49648234  1
  Nb5+  Nb117  1  0.50043132  0.24565523  1.00377499  1
  Nb5+  Nb118  1  0.50525018  0.74884406  0.50034355  1
  Nb5+  Nb119  1  0.50038681  0.75662916  0.99753819  1
  Nb5+  Nb120  1  0.24952766  0.00622849  -0.00517073  1
  Nb5+  Nb121  1  0.24336495  0.00732593  0.49905707  1
  Nb5+  Nb122  1  0.25353948  0.50280830  0.00581972  1
  Nb5+  Nb123  1  0.25201872  0.49983151  0.49800639  1
  Nb5+  Nb124  1  0.75116290  -0.00308926  0.00039099  1
  Nb5+  Nb125  1  0.75427728  -0.00173884  0.49258882  1
  Nb5+  Nb126  1  0.75044242  0.50156550  -0.00428092  1
  Nb5+  Nb127  1  0.74475454  0.49826170  0.50045962  1
  O2-  O128  1  0.00873305  0.00779869  0.11634500  1
  O2-  O129  1  0.00316882  0.00826674  0.63516047  1
  O2-  O130  1  -0.02158961  0.52455501  0.13406253  1
  O2-  O131  1  -0.00930594  0.51573444  0.62428228  1
  O2-  O132  1  0.49608778  -0.03370685  0.12970788  1
  O2-  O133  1  0.49928987  -0.02450772  0.63640204  1
  O2-  O134  1  0.48771752  0.48597298  0.11664801  1
  O2-  O135  1  0.47899400  0.47689128  0.63646785  1
  O2-  O136  1  -0.02581004  -0.01134221  0.36562158  1
  O2-  O137  1  0.00206694  -0.01992833  0.87874652  1
  O2-  O138  1  0.01063631  0.48906277  0.37987556  1
  O2-  O139  1  0.01666709  0.47358279  0.86647511  1
  O2-  O140  1  0.50617379  0.02226821  0.36555644  1
  O2-  O141  1  0.51244586  0.03395514  0.86791442  1
  O2-  O142  1  0.53060309  0.52240587  0.36547499  1
  O2-  O143  1  0.51693198  0.51814112  0.87646382  1
  O2-  O144  1  0.22716375  0.23336147  0.12858328  1
  O2-  O145  1  0.22090588  0.25502863  0.63560177  1
  O2-  O146  1  0.22669654  0.74218346  0.12593066  1
  O2-  O147  1  0.22660914  0.74298541  0.62573874  1
  O2-  O148  1  0.72602811  0.25031595  0.11385213  1
  O2-  O149  1  0.72193590  0.24897007  0.63718673  1
  O2-  O150  1  0.73421462  0.73618495  0.13463808  1
  O2-  O151  1  0.71896545  0.74953051  0.63715922  1
  O2-  O152  1  0.25790153  0.25985931  0.36612985  1
  O2-  O153  1  0.27807876  0.25802739  0.86589510  1
  O2-  O154  1  0.26174911  0.74621483  0.37902277  1
  O2-  O155  1  0.26754182  0.75451014  0.88191789  1
  O2-  O156  1  0.78774620  0.25509460  0.36611974  1
  O2-  O157  1  0.77292722  0.25935090  0.87688140  1
  O2-  O158  1  0.77685431  0.73909416  0.36543498  1
  O2-  O159  1  0.78421579  0.75623691  0.86702250  1
  O2-  O160  1  0.01456894  0.22875889  0.11298838  1
  O2-  O161  1  0.02725081  0.24278447  0.61980386  1
  O2-  O162  1  0.02384786  0.74154660  0.13299492  1
  O2-  O163  1  0.03248549  0.73681927  0.61522639  1
  O2-  O164  1  0.51798023  0.28611495  0.11267583  1
  O2-  O165  1  0.50614614  0.28169677  0.61439156  1
  O2-  O166  1  0.50622075  0.76534831  0.11597450  1
  O2-  O167  1  0.50460663  0.78150301  0.61703118  1
  O2-  O168  1  0.25953946  -0.01448718  0.38383087  1
  O2-  O169  1  0.24785167  -0.03478454  0.88419852  1
  O2-  O170  1  0.23014559  0.49395734  0.38537654  1
  O2-  O171  1  0.24204556  0.50093389  0.87337165  1
  O2-  O172  1  0.77343099  -0.00919264  0.38077323  1
  O2-  O173  1  0.75388407  -0.00826878  0.87498898  1
  O2-  O174  1  0.73712665  0.49648557  0.37558634  1
  O2-  O175  1  0.73293744  0.48221763  0.87105555  1
  O2-  O176  1  -0.02735277  0.25887974  0.38498788  1
  O2-  O177  1  -0.02851375  0.24890612  0.88708724  1
  O2-  O178  1  -0.01192552  0.75171691  0.37522098  1
  O2-  O179  1  -0.01595652  0.76009692  0.88737146  1
  O2-  O180  1  0.49039034  0.22522981  0.37783466  1
  O2-  O181  1  0.48666341  0.23426189  0.88618546  1
  O2-  O182  1  0.48671286  0.71336042  0.38682851  1
  O2-  O183  1  0.48053648  0.72221813  0.88669898  1
  O2-  O184  1  0.24340598  0.00619621  0.11252441  1
  O2-  O185  1  0.23023312  -0.00336324  0.61695322  1
  O2-  O186  1  0.27648856  0.52457340  0.11493334  1
  O2-  O187  1  0.26106429  0.51332695  0.63026371  1
  O2-  O188  1  0.75550810  0.02851714  0.11083709  1
  O2-  O189  1  0.74810584  0.00800201  0.63361713  1
  O2-  O190  1  0.75939178  0.50352317  0.11848521  1
  O2-  O191  1  0.75964953  0.50238977  0.62926057  1
  O2-  O192  1  0.12743226  0.27983451  0.26073636  1
  O2-  O193  1  0.13158019  0.27650572  0.77922172  1
  O2-  O194  1  0.12033146  0.76192854  0.26852860  1
  O2-  O195  1  0.13854304  0.76191176  0.77694942  1
  O2-  O196  1  0.64025525  0.28267543  0.26192202  1
  O2-  O197  1  0.63486099  0.26561144  0.78066165  1
  O2-  O198  1  0.63610083  0.76804934  0.27417346  1
  O2-  O199  1  0.63651000  0.76114150  0.78269042  1
  O2-  O200  1  0.36655726  0.22550918  0.23923911  1
  O2-  O201  1  0.36311493  0.23388758  0.72422068  1
  O2-  O202  1  0.36125782  0.71938025  0.23657177  1
  O2-  O203  1  0.36071325  0.71038909  0.74370313  1
  O2-  O204  1  0.85961268  0.23896120  0.20968938  1
  O2-  O205  1  0.86194588  0.22578807  0.73879715  1
  O2-  O206  1  0.88183996  0.72559629  0.23637926  1
  O2-  O207  1  0.86190657  0.71876101  0.72801021  1
  O2-  O208  1  0.27214788  0.36721830  0.22607755  1
  O2-  O209  1  0.26537048  0.38490770  0.74785391  1
  O2-  O210  1  0.26257218  0.85959627  0.24984038  1
  O2-  O211  1  0.28460521  0.86015169  0.73594473  1
  O2-  O212  1  0.77182816  0.38338298  0.24585332  1
  O2-  O213  1  0.76865879  0.37435019  0.74391878  1
  O2-  O214  1  0.77977043  0.86362070  0.24119797  1
  O2-  O215  1  0.76992907  0.87660122  0.74399602  1
  O2-  O216  1  0.21773783  0.13180072  0.25886618  1
  O2-  O217  1  0.21794850  0.13229356  0.75886857  1
  O2-  O218  1  0.21612572  0.63075887  0.25813467  1
  O2-  O219  1  0.22207163  0.61896690  0.75420413  1
  O2-  O220  1  0.72362162  0.13635744  0.26123839  1
  O2-  O221  1  0.72921534  0.12393172  0.76294083  1
  O2-  O222  1  0.73108770  0.61884826  0.24982454  1
  O2-  O223  1  0.72641902  0.61562590  0.75997974  1
  O2-  O224  1  0.11122227  0.47829111  0.23041246  1
  O2-  O225  1  0.12279745  0.48080961  0.73379609  1
  O2-  O226  1  0.10967469  0.96471258  0.24472638  1
  O2-  O227  1  0.11572089  0.95847358  0.75083620  1
  O2-  O228  1  0.63137035  0.48182345  0.23559949  1
  O2-  O229  1  0.62367638  0.47666773  0.73540225  1
  O2-  O230  1  0.61976299  0.96919109  0.24530452  1
  O2-  O231  1  0.63265458  0.97850508  0.75190359  1
  O2-  O232  1  0.38102956  0.02218812  0.24573674  1
  O2-  O233  1  0.38295193  0.02939719  0.75521842  1
  O2-  O234  1  0.38720871  0.52557691  0.26673776  1
  O2-  O235  1  0.37263775  0.52021062  0.76301323  1
  O2-  O236  1  0.88744491  0.00501004  0.21875591  1
  O2-  O237  1  0.86927364  0.02032384  0.75400676  1
  O2-  O238  1  0.86786404  0.52385798  0.26512360  1
  O2-  O239  1  0.86642043  0.51668896  0.76527188  1
  O2-  O240  1  0.48507927  0.38737846  0.26154321  1
  O2-  O241  1  0.48249531  0.38594393  0.77934907  1
  O2-  O242  1  0.47592888  0.87977392  0.27350356  1
  O2-  O243  1  0.48984161  0.88791908  0.78464682  1
  O2-  O244  1  0.96542778  0.38957789  0.24496115  1
  O2-  O245  1  0.96784872  0.38650384  0.73463258  1
  O2-  O246  1  0.97842475  0.86402074  0.24665211  1
  O2-  O247  1  0.96191603  0.88290734  0.74700571  1
  O2-  O248  1  0.02105335  0.11518846  0.25993374  1
  O2-  O249  1  0.01558272  0.11170555  0.76539854  1
  O2-  O250  1  0.01195766  0.62247650  0.26909247  1
  O2-  O251  1  0.00750463  0.61268671  0.76973526  1
  O2-  O252  1  0.52292671  0.11443851  0.21931960  1
  O2-  O253  1  0.52708340  0.11805343  0.72267087  1
  O2-  O254  1  0.52392642  0.61541349  0.21934642  1
  O2-  O255  1  0.51949069  0.61408526  0.73470238  1
  O2-  O256  1  0.13900126  0.48355913  0.02074559  1
  O2-  O257  1  0.12391595  0.48416791  0.51942742  1
  O2-  O258  1  0.12251615  0.97443162  -0.00177374  1
  O2-  O259  1  0.13136822  0.96221899  0.48998259  1
  O2-  O260  1  0.62319652  0.47913684  0.00816209  1
  O2-  O261  1  0.63332219  0.47534139  0.51374890  1
  O2-  O262  1  0.63801830  0.97299622  0.00180676  1
  O2-  O263  1  0.63775826  0.97027255  0.50219613  1
  O2-  O264  1  0.36401031  0.03112568  -0.00627915  1
  O2-  O265  1  0.36276186  0.01648886  0.51272495  1
  O2-  O266  1  0.38077967  0.51804091  -0.01822518  1
  O2-  O267  1  0.36209287  0.53441346  0.49002406  1
  O2-  O268  1  0.88281474  0.01777785  -0.00743805  1
  O2-  O269  1  0.86819687  0.03038809  0.51881129  1
  O2-  O270  1  0.86264924  0.52073103  -0.02502344  1
  O2-  O271  1  0.88116621  0.52009403  0.49047820  1
  O2-  O272  1  0.48605162  0.38121713  -0.02146074  1
  O2-  O273  1  0.47674178  0.36929004  0.46672528  1
  O2-  O274  1  0.47054383  0.86657160  -0.01940906  1
  O2-  O275  1  0.47189690  0.86250017  0.47528914  1
  O2-  O276  1  0.96984238  0.36949470  0.01736608  1
  O2-  O277  1  0.98340992  0.38244052  0.51353890  1
  O2-  O278  1  0.99116949  0.87128481  0.01691545  1
  O2-  O279  1  0.97792995  0.86225344  0.51176199  1
  O2-  O280  1  0.01829732  0.11884765  -0.01251861  1
  O2-  O281  1  0.01932965  0.13501846  0.48768289  1
  O2-  O282  1  0.03248719  0.63609958  -0.00634870  1
  O2-  O283  1  0.02428586  0.61942345  0.49034326  1
  O2-  O284  1  0.53062214  0.13654706  0.02328011  1
  O2-  O285  1  0.52553698  0.13457063  0.51967945  1
  O2-  O286  1  0.51746953  0.62071900  0.01612718  1
  O2-  O287  1  0.51382628  0.63422003  0.53685648  1
  O2-  O288  1  0.11199620  0.27773835  -0.01966061  1
  O2-  O289  1  0.11461322  0.28132243  0.47908798  1
  O2-  O290  1  0.13141491  0.76915704  -0.00911968  1
  O2-  O291  1  0.12567390  0.76414739  0.47864714  1
  O2-  O292  1  0.62996215  0.26727857  -0.02301968  1
  O2-  O293  1  0.61835168  0.27653383  0.48162187  1
  O2-  O294  1  0.61465608  0.77212144  -0.01716753  1
  O2-  O295  1  0.61724304  0.76581694  0.47839407  1
  O2-  O296  1  0.38636365  0.23213528  0.02315974  1
  O2-  O297  1  0.38203380  0.22650217  0.51079336  1
  O2-  O298  1  0.36896466  0.73017217  0.02122487  1
  O2-  O299  1  0.36494585  0.72601074  0.51609456  1
  O2-  O300  1  0.86831247  0.23379279  0.01722869  1
  O2-  O301  1  0.88488251  0.23801761  0.53167107  1
  O2-  O302  1  0.88869890  0.72765132  0.02661459  1
  O2-  O303  1  0.89047259  0.71580956  0.51245738  1
  O2-  O304  1  0.27476586  0.38723248  0.00660188  1
  O2-  O305  1  0.27412362  0.38844310  0.51445918  1
  O2-  O306  1  0.27022897  0.86790912  0.01659422  1
  O2-  O307  1  0.26568468  0.86258921  0.50832264  1
  O2-  O308  1  0.76548947  0.37553707  0.00246589  1
  O2-  O309  1  0.78114754  0.38673577  0.50223030  1
  O2-  O310  1  0.78288251  0.88653243  0.01192205  1
  O2-  O311  1  0.78557679  0.88323149  0.50931364  1
  O2-  O312  1  0.21789030  0.11502503  -0.02308864  1
  O2-  O313  1  0.21232079  0.11778106  0.49363267  1
  O2-  O314  1  0.23399880  0.62814037  -0.01047368  1
  O2-  O315  1  0.22174503  0.62632504  0.50164129  1
  O2-  O316  1  0.73620090  0.12982963  -0.01946473  1
  O2-  O317  1  0.72636392  0.11653089  0.48626807  1
  O2-  O318  1  0.72146396  0.61386428  -0.01191529  1
  O2-  O319  1  0.73413664  0.61488624  0.50337809  1
