# generated using pymatgen
data_Sr64Ca21Nb43O192
_symmetry_space_group_name_H-M   'P 1'
_cell_length_a   16.58080938
_cell_length_b   16.58234724
_cell_length_c   16.73870985
_cell_angle_alpha   90.02121864
_cell_angle_beta   89.96770968
_cell_angle_gamma   90.03331226
_symmetry_Int_Tables_number   1
_chemical_formula_structural   Sr64Ca21Nb43O192
_chemical_formula_sum   'Sr64 Ca21 Nb43 O192'
_cell_volume   4602.28533712
_cell_formula_units_Z   1
loop_
 _symmetry_equiv_pos_site_id
 _symmetry_equiv_pos_as_xyz
  1  'x, y, z'
loop_
 _atom_type_symbol
 _atom_type_oxidation_number
  Sr2+  2.0
  Ca2+  2.0
  Nb5+  5.0
  O2-  -2.0
loop_
 _atom_site_type_symbol
 _atom_site_label
 _atom_site_symmetry_multiplicity
 _atom_site_fract_x
 _atom_site_fract_y
 _atom_site_fract_z
 _atom_site_occupancy
  Sr2+  Sr0  1  0.11856829  0.11571846  0.12518555  1
  Sr2+  Sr1  1  0.12501288  0.11542653  0.62589951  1
  Sr2+  Sr2  1  0.12510058  0.63920764  0.11949249  1
  Sr2+  Sr3  1  0.12049585  0.63357376  0.63464172  1
  Sr2+  Sr4  1  0.63448090  0.10668484  0.12491341  1
  Sr2+  Sr5  1  0.62752740  0.11820512  0.62288238  1
  Sr2+  Sr6  1  0.62278662  0.62478761  0.12775488  1
  Sr2+  Sr7  1  0.63383425  0.62761310  0.62633738  1
  Sr2+  Sr8  1  0.38079598  0.36952789  0.12105016  1
  Sr2+  Sr9  1  0.36413207  0.37083043  0.62095489  1
  Sr2+  Sr10  1  0.37135582  0.86627094  0.12521329  1
  Sr2+  Sr11  1  0.37767000  0.87695542  0.62716658  1
  Sr2+  Sr12  1  0.87335695  0.36214938  0.12573311  1
  Sr2+  Sr13  1  0.86646785  0.37338975  0.62619416  1
  Sr2+  Sr14  1  0.86795481  0.87622957  0.12659673  1
  Sr2+  Sr15  1  0.87654274  0.85516223  0.62183968  1
  Sr2+  Sr16  1  0.10321547  0.37614471  0.37531566  1
  Sr2+  Sr17  1  0.09697190  0.37774947  0.86933955  1
  Sr2+  Sr18  1  0.12696777  0.88029035  0.37678044  1
  Sr2+  Sr19  1  0.13080428  0.87135992  0.88503940  1
  Sr2+  Sr20  1  0.62290226  0.37870825  0.38019393  1
  Sr2+  Sr21  1  0.61686974  0.37794880  0.87560805  1
  Sr2+  Sr22  1  0.62240805  0.87497924  0.36853067  1
  Sr2+  Sr23  1  0.62496220  0.87528472  0.88786574  1
  Sr2+  Sr24  1  0.37395996  0.12833685  0.37475013  1
  Sr2+  Sr25  1  0.38319730  0.12332083  0.86914498  1
  Sr2+  Sr26  1  0.37686496  0.62735102  0.36480548  1
  Sr2+  Sr27  1  0.37833892  0.62608786  0.87950422  1
  Sr2+  Sr28  1  0.88701893  0.13464210  0.36884134  1
  Sr2+  Sr29  1  0.88757434  0.14006125  0.88126672  1
  Sr2+  Sr30  1  0.89215280  0.61094029  0.38177269  1
  Sr2+  Sr31  1  0.87052595  0.62377720  0.86644653  1
  Sr2+  Sr32  1  0.12845330  0.13534089  0.37462664  1
  Sr2+  Sr33  1  0.13161444  0.13682865  0.87696314  1
  Sr2+  Sr34  1  0.13657371  0.61322884  0.36656089  1
  Sr2+  Sr35  1  0.13380906  0.62094947  0.87563942  1
  Sr2+  Sr36  1  0.62594483  0.12653553  0.37549262  1
  Sr2+  Sr37  1  0.62698511  0.12511341  0.88388258  1
  Sr2+  Sr38  1  0.61826109  0.62687720  0.36718449  1
  Sr2+  Sr39  1  0.62786186  0.61832912  0.86855960  1
  Sr2+  Sr40  1  0.36382108  0.37809080  0.37126549  1
  Sr2+  Sr41  1  0.37547431  0.35765890  0.87783235  1
  Sr2+  Sr42  1  0.38004422  0.88276449  0.37464024  1
  Sr2+  Sr43  1  0.37100147  0.87633522  0.87368782  1
  Sr2+  Sr44  1  0.87156515  0.37143048  0.38065812  1
  Sr2+  Sr45  1  0.86839061  0.37740759  0.87519962  1
  Sr2+  Sr46  1  0.88940553  0.88167755  0.37193671  1
  Sr2+  Sr47  1  0.88241862  0.88093560  0.88781556  1
  Sr2+  Sr48  1  0.11005098  0.37983692  0.11987890  1
  Sr2+  Sr49  1  0.11619885  0.37067933  0.62486657  1
  Sr2+  Sr50  1  0.09884595  0.86874334  0.12561718  1
  Sr2+  Sr51  1  0.11094581  0.87394569  0.62676813  1
  Sr2+  Sr52  1  0.62038099  0.37569944  0.11531400  1
  Sr2+  Sr53  1  0.63253503  0.37203179  0.62460575  1
  Sr2+  Sr54  1  0.65257235  0.87212843  0.13021203  1
  Sr2+  Sr55  1  0.63195750  0.86850537  0.62388501  1
  Sr2+  Sr56  1  0.38263099  0.12459603  0.12883844  1
  Sr2+  Sr57  1  0.38087252  0.11825356  0.62570131  1
  Sr2+  Sr58  1  0.37822349  0.62852170  0.12384112  1
  Sr2+  Sr59  1  0.37181656  0.62962165  0.62352508  1
  Sr2+  Sr60  1  0.86700890  0.12007309  0.11891701  1
  Sr2+  Sr61  1  0.86895064  0.12035934  0.62530986  1
  Sr2+  Sr62  1  0.87612478  0.63580396  0.12770010  1
  Sr2+  Sr63  1  0.87086491  0.63023192  0.62226333  1
  Ca2+  Ca64  1  0.49921398  0.49807529  0.50132072  1
  Ca2+  Ca65  1  0.00316167  0.49903062  0.50449272  1
  Ca2+  Ca66  1  0.00127828  0.00032518  -0.00346248  1
  Ca2+  Ca67  1  -0.00131878  0.50615928  0.00126625  1
  Ca2+  Ca68  1  0.49769936  -0.00587393  0.00075254  1
  Ca2+  Ca69  1  0.24701570  0.25106267  -0.00043278  1
  Ca2+  Ca70  1  0.74871177  0.74311172  0.00013098  1
  Ca2+  Ca71  1  0.74873451  0.25235682  -0.00087596  1
  Ca2+  Ca72  1  0.25077386  0.75015523  0.49880715  1
  Ca2+  Ca73  1  0.74782724  0.75054295  0.49288520  1
  Ca2+  Ca74  1  0.75206621  -0.00020972  0.75338193  1
  Ca2+  Ca75  1  0.50353527  0.25418694  0.74565608  1
  Ca2+  Ca76  1  -0.00048328  0.74828022  0.25520830  1
  Ca2+  Ca77  1  0.74990024  0.49564293  0.24978577  1
  Ca2+  Ca78  1  0.50287786  0.25048154  0.25155410  1
  Ca2+  Ca79  1  0.24855864  -0.00080944  0.25086917  1
  Ca2+  Ca80  1  0.00040620  0.25006388  0.74598933  1
  Ca2+  Ca81  1  0.00023775  0.75414027  0.75324308  1
  Ca2+  Ca82  1  0.50378232  0.75182303  0.75518007  1
  Ca2+  Ca83  1  0.75082350  0.00059919  0.25755896  1
  Ca2+  Ca84  1  0.00147337  0.24790980  0.24624540  1
  Nb5+  Nb85  1  0.49711979  0.50105153  -0.00111596  1
  Nb5+  Nb86  1  0.00548546  0.00189828  0.50161248  1
  Nb5+  Nb87  1  0.50617282  -0.00228144  0.50185425  1
  Nb5+  Nb88  1  0.25120221  0.74987696  0.00100011  1
  Nb5+  Nb89  1  0.74523651  0.24760136  0.49776146  1
  Nb5+  Nb90  1  0.24515453  0.25274548  0.49841155  1
  Nb5+  Nb91  1  0.74432418  0.49946692  0.74987951  1
  Nb5+  Nb92  1  0.24841462  0.49547368  0.75029008  1
  Nb5+  Nb93  1  0.49876695  0.74976765  0.24612807  1
  Nb5+  Nb94  1  0.24757147  -0.00372317  0.75040426  1
  Nb5+  Nb95  1  0.24782865  0.49763254  0.23735259  1
  Nb5+  Nb96  1  -0.00179285  0.00149987  0.24778311  1
  Nb5+  Nb97  1  -0.00140978  0.00436874  0.75244173  1
  Nb5+  Nb98  1  -0.00443008  0.50244197  0.24557786  1
  Nb5+  Nb99  1  -0.00917434  0.50726326  0.74825653  1
  Nb5+  Nb100  1  0.49641844  -0.00083938  0.24411085  1
  Nb5+  Nb101  1  0.50476303  -0.00030881  0.74768451  1
  Nb5+  Nb102  1  0.49631248  0.49596620  0.25080599  1
  Nb5+  Nb103  1  0.49392736  0.49876376  0.74593240  1
  Nb5+  Nb104  1  0.24465843  0.25000985  0.24210427  1
  Nb5+  Nb105  1  0.25203448  0.24509363  0.74681399  1
  Nb5+  Nb106  1  0.25003493  0.75006896  0.25058989  1
  Nb5+  Nb107  1  0.25389687  0.74673376  0.74949655  1
  Nb5+  Nb108  1  0.74774632  0.25066854  0.24631814  1
  Nb5+  Nb109  1  0.74897085  0.24669791  0.75121904  1
  Nb5+  Nb110  1  0.75486316  0.74216569  0.25693119  1
  Nb5+  Nb111  1  0.75379639  0.75653029  0.75334904  1
  Nb5+  Nb112  1  -0.00745719  0.24753492  0.50397031  1
  Nb5+  Nb113  1  0.00336769  0.25183387  1.00018973  1
  Nb5+  Nb114  1  0.00706430  0.74551977  0.49489180  1
  Nb5+  Nb115  1  -0.00544546  0.74669242  0.99806316  1
  Nb5+  Nb116  1  0.49385378  0.24992527  0.49656228  1
  Nb5+  Nb117  1  0.50085656  0.24280971  1.00400609  1
  Nb5+  Nb118  1  0.50130501  0.74718604  0.50298030  1
  Nb5+  Nb119  1  0.50221301  0.74804546  1.00153790  1
  Nb5+  Nb120  1  0.25125676  0.00158498  0.00582652  1
  Nb5+  Nb121  1  0.25634520  0.00210219  0.49980534  1
  Nb5+  Nb122  1  0.25243189  0.49758380  -0.00783702  1
  Nb5+  Nb123  1  0.24926096  0.50250408  0.49879133  1
  Nb5+  Nb124  1  0.74878984  -0.00131892  -0.00393994  1
  Nb5+  Nb125  1  0.76073879  -0.00095382  0.49949438  1
  Nb5+  Nb126  1  0.75103352  0.50427810  0.00526658  1
  Nb5+  Nb127  1  0.74903001  0.50180058  0.49952134  1
  O2-  O128  1  -0.01405018  0.02389476  0.13396914  1
  O2-  O129  1  -0.00858048  0.03054364  0.61814689  1
  O2-  O130  1  0.03390871  0.52181991  0.13567689  1
  O2-  O131  1  0.01577130  0.53146567  0.63498279  1
  O2-  O132  1  0.46653097  -0.01456670  0.13451923  1
  O2-  O133  1  0.47521127  -0.00981676  0.62025851  1
  O2-  O134  1  0.49962111  0.48822440  0.12604224  1
  O2-  O135  1  0.50302867  0.46654161  0.63765659  1
  O2-  O136  1  0.01434118  -0.01860332  0.38435127  1
  O2-  O137  1  0.01445307  -0.02813343  0.86099428  1
  O2-  O138  1  -0.01707686  0.47707027  0.36615545  1
  O2-  O139  1  -0.01960318  0.48294529  0.86558542  1
  O2-  O140  1  0.51766303  0.00353523  0.38324073  1
  O2-  O141  1  0.51765547  0.01454273  0.86271250  1
  O2-  O142  1  0.48498742  0.51981137  0.36559684  1
  O2-  O143  1  0.49519100  0.52597866  0.88301983  1
  O2-  O144  1  0.22526362  0.27369213  0.13325946  1
  O2-  O145  1  0.23593035  0.26850895  0.61970501  1
  O2-  O146  1  0.26551349  0.74907703  0.12191738  1
  O2-  O147  1  0.27602598  0.75196383  0.63622201  1
  O2-  O148  1  0.72964366  0.26263919  0.13365214  1
  O2-  O149  1  0.73540054  0.25205224  0.61883004  1
  O2-  O150  1  0.76968179  0.74770980  0.13588156  1
  O2-  O151  1  0.74260454  0.74946867  0.63249427  1
  O2-  O152  1  0.27276870  0.24337987  0.38344318  1
  O2-  O153  1  0.27579950  0.23454841  0.86027590  1
  O2-  O154  1  0.24049166  0.72865112  0.36348858  1
  O2-  O155  1  0.23629762  0.74459937  0.87990800  1
  O2-  O156  1  0.77330940  0.24240052  0.38287718  1
  O2-  O157  1  0.77178823  0.24676192  0.86378061  1
  O2-  O158  1  0.71024215  0.74766316  0.36469854  1
  O2-  O159  1  0.74714822  0.72778399  0.86586441  1
  O2-  O160  1  0.03601680  0.23584482  0.11384277  1
  O2-  O161  1  0.02993121  0.23081444  0.61273940  1
  O2-  O162  1  -0.00418690  0.73016405  0.11880840  1
  O2-  O163  1  0.00158424  0.73760116  0.61463947  1
  O2-  O164  1  0.50734758  0.27698516  0.11750061  1
  O2-  O165  1  0.52484685  0.26418678  0.60785195  1
  O2-  O166  1  0.47484285  0.75448178  0.12546605  1
  O2-  O167  1  0.48778679  0.75853656  0.61697827  1
  O2-  O168  1  0.22786667  0.01621679  0.38819036  1
  O2-  O169  1  0.22547146  0.00515699  0.86430408  1
  O2-  O170  1  0.26600397  0.51171735  0.38341918  1
  O2-  O171  1  0.26848090  0.51579702  0.87550308  1
  O2-  O172  1  0.71898375  -0.00019403  0.39135110  1
  O2-  O173  1  0.71275256  -0.00240968  0.88216423  1
  O2-  O174  1  0.76321461  0.49649704  0.38554112  1
  O2-  O175  1  0.75889602  0.50927858  0.86905363  1
  O2-  O176  1  -0.01516343  0.26488308  0.38590640  1
  O2-  O177  1  -0.02621427  0.27112174  0.87974145  1
  O2-  O178  1  0.00684171  0.78737408  0.38496860  1
  O2-  O179  1  0.00779200  0.78163557  0.88558717  1
  O2-  O180  1  0.49716868  0.21251336  0.38462051  1
  O2-  O181  1  0.48402190  0.23615848  0.88429718  1
  O2-  O182  1  0.50725467  0.73880028  0.36574044  1
  O2-  O183  1  0.51744726  0.72304560  0.88983855  1
  O2-  O184  1  0.28061847  -0.00210998  0.11537826  1
  O2-  O185  1  0.26431250  0.00006468  0.62218459  1
  O2-  O186  1  0.23713816  0.48934413  0.12328035  1
  O2-  O187  1  0.23942673  0.48969715  0.63524111  1
  O2-  O188  1  0.77009284  -0.00162220  0.11841388  1
  O2-  O189  1  0.75873431  0.00993785  0.61671749  1
  O2-  O190  1  0.72963745  0.49053701  0.11606059  1
  O2-  O191  1  0.74119756  0.49238363  0.62936687  1
  O2-  O192  1  0.13736865  0.26717798  0.28504183  1
  O2-  O193  1  0.14082807  0.27970208  0.75917573  1
  O2-  O194  1  0.13593631  0.76337352  0.23170355  1
  O2-  O195  1  0.13860677  0.76964195  0.74258863  1
  O2-  O196  1  0.63587216  0.27897828  0.27615715  1
  O2-  O197  1  0.63815094  0.28760852  0.75541843  1
  O2-  O198  1  0.61237797  0.76254678  0.22642414  1
  O2-  O199  1  0.63614977  0.78748375  0.75578574  1
  O2-  O200  1  0.36304020  0.23048244  0.23884805  1
  O2-  O201  1  0.36733859  0.24943701  0.71750679  1
  O2-  O202  1  0.37289203  0.72494910  0.25192263  1
  O2-  O203  1  0.36801189  0.74036597  0.77939824  1
  O2-  O204  1  0.86586855  0.21654887  0.23369268  1
  O2-  O205  1  0.86462393  0.23815058  0.72044693  1
  O2-  O206  1  0.86435479  0.71793942  0.28012080  1
  O2-  O207  1  0.86830931  0.71896849  0.74417118  1
  O2-  O208  1  0.27000737  0.38081109  0.25556891  1
  O2-  O209  1  0.27593015  0.38344020  0.75976387  1
  O2-  O210  1  0.27459485  0.86272289  0.25949411  1
  O2-  O211  1  0.26685650  0.87976860  0.75428628  1
  O2-  O212  1  0.78779483  0.36349969  0.25821934  1
  O2-  O213  1  0.77640157  0.38256581  0.75085488  1
  O2-  O214  1  0.76262952  0.86241468  0.25391082  1
  O2-  O215  1  0.79162736  0.86657029  0.76013608  1
  O2-  O216  1  0.22531076  0.13448901  0.23504469  1
  O2-  O217  1  0.23381484  0.12963392  0.73526199  1
  O2-  O218  1  0.23219844  0.61929916  0.23677962  1
  O2-  O219  1  0.23904357  0.62726003  0.74508667  1
  O2-  O220  1  0.71720624  0.13333275  0.25158131  1
  O2-  O221  1  0.71645270  0.13592923  0.74966767  1
  O2-  O222  1  0.71645482  0.62929645  0.24685756  1
  O2-  O223  1  0.72910841  0.61832044  0.74161885  1
  O2-  O224  1  0.13592326  0.48526030  0.27256681  1
  O2-  O225  1  0.13470045  0.49054926  0.76935882  1
  O2-  O226  1  0.11449225  0.97105307  0.24006746  1
  O2-  O227  1  0.13134772  0.98861662  0.72322327  1
  O2-  O228  1  0.61018951  0.47805181  0.25910142  1
  O2-  O229  1  0.62827000  0.48172722  0.75948839  1
  O2-  O230  1  0.61059915  0.97030654  0.23973101  1
  O2-  O231  1  0.61438343  0.98175501  0.72212321  1
  O2-  O232  1  0.38414844  0.01027139  0.28362969  1
  O2-  O233  1  0.36417526  0.02301375  0.75759463  1
  O2-  O234  1  0.36659142  0.52158457  0.24054001  1
  O2-  O235  1  0.37757202  0.52440685  0.74209539  1
  O2-  O236  1  0.88407506  0.01394116  0.28223713  1
  O2-  O237  1  0.88734149  0.03634284  0.76190104  1
  O2-  O238  1  0.88434427  0.52225021  0.22582742  1
  O2-  O239  1  0.87482317  0.52290248  0.73692005  1
  O2-  O240  1  0.46576852  0.38500397  0.25984373  1
  O2-  O241  1  0.48878556  0.38988841  0.78788782  1
  O2-  O242  1  0.47604918  0.86658386  0.25915781  1
  O2-  O243  1  0.46798703  0.88754956  0.75583531  1
  O2-  O244  1  0.99512482  0.38381302  0.22455963  1
  O2-  O245  1  0.99667579  0.39005897  0.72460920  1
  O2-  O246  1  0.97276057  0.88228362  0.23474875  1
  O2-  O247  1  0.98726187  0.89181023  0.71550416  1
  O2-  O248  1  0.02425055  0.11493182  0.27211240  1
  O2-  O249  1  0.03576921  0.11731443  0.76376334  1
  O2-  O250  1  0.01793951  0.61495279  0.28066517  1
  O2-  O251  1  0.02311585  0.61866922  0.77519362  1
  O2-  O252  1  0.51503752  0.11251890  0.22900216  1
  O2-  O253  1  0.50349114  0.11751106  0.72752352  1
  O2-  O254  1  0.50934368  0.62481727  0.23617093  1
  O2-  O255  1  0.52603844  0.61270596  0.73586995  1
  O2-  O256  1  0.13855778  0.48232507  -0.02031889  1
  O2-  O257  1  0.13808815  0.46425059  0.49719666  1
  O2-  O258  1  0.13795837  0.96682229  0.01160223  1
  O2-  O259  1  0.12352719  0.99136278  0.51847442  1
  O2-  O260  1  0.61326902  0.47717770  -0.00635248  1
  O2-  O261  1  0.63461052  0.46796725  0.50181695  1
  O2-  O262  1  0.63037405  0.97531351  0.02509974  1
  O2-  O263  1  0.61906119  0.98353404  0.52335458  1
  O2-  O264  1  0.36166662  0.01050096  -0.03618669  1
  O2-  O265  1  0.37149562  0.02333812  0.48653442  1
  O2-  O266  1  0.37394761  0.52494076  0.01037692  1
  O2-  O267  1  0.36449792  0.51178350  0.52854721  1
  O2-  O268  1  0.86510758  0.01828644  -0.02986840  1
  O2-  O269  1  0.87482049  0.02431599  0.48429993  1
  O2-  O270  1  0.86196825  0.53566052  0.01226570  1
  O2-  O271  1  0.86655018  0.51349035  0.51911033  1
  O2-  O272  1  0.47248292  0.38503483  -0.00979089  1
  O2-  O273  1  0.48677494  0.36147151  0.46622664  1
  O2-  O274  1  0.47640527  0.86010734  -0.01841841  1
  O2-  O275  1  0.47189336  0.88088651  0.49286994  1
  O2-  O276  1  0.98849943  0.37100623  0.02268611  1
  O2-  O277  1  0.98653277  0.36303097  0.52276435  1
  O2-  O278  1  0.97884640  0.86569037  0.02404321  1
  O2-  O279  1  0.97971902  0.88861624  0.52004538  1
  O2-  O280  1  0.01654075  0.13306882  -0.02542080  1
  O2-  O281  1  0.01451636  0.12515611  0.47809495  1
  O2-  O282  1  0.03566254  0.63716554  -0.01686362  1
  O2-  O283  1  0.02836043  0.63448524  0.47246864  1
  O2-  O284  1  0.52170394  0.13054515  0.02078047  1
  O2-  O285  1  0.51269718  0.11773770  0.51744612  1
  O2-  O286  1  0.50850366  0.62256803  0.02496069  1
  O2-  O287  1  0.53271691  0.63510596  0.50798370  1
  O2-  O288  1  0.11813541  0.26895822  -0.03520185  1
  O2-  O289  1  0.13103431  0.26366495  0.48090718  1
  O2-  O290  1  0.13368817  0.76965018  0.01338040  1
  O2-  O291  1  0.11965689  0.78489929  0.50639326  1
  O2-  O292  1  0.61330823  0.27647230  -0.01562942  1
  O2-  O293  1  0.63100288  0.26059725  0.47933370  1
  O2-  O294  1  0.61327381  0.76939725  0.02393833  1
  O2-  O295  1  0.61123353  0.78947100  0.49819084  1
  O2-  O296  1  0.38113386  0.23159536  0.01970799  1
  O2-  O297  1  0.37958202  0.23495539  0.51704976  1
  O2-  O298  1  0.37182175  0.72774150  -0.00870495  1
  O2-  O299  1  0.38576081  0.72561317  0.48370028  1
  O2-  O300  1  0.88448255  0.23374290  0.02378187  1
  O2-  O301  1  0.87780876  0.22844369  0.51819115  1
  O2-  O302  1  0.88383854  0.71791932  -0.01196874  1
  O2-  O303  1  0.88602461  0.73064538  0.49448273  1
  O2-  O304  1  0.28075134  0.38656490  -0.00574634  1
  O2-  O305  1  0.27651963  0.37076324  0.49670166  1
  O2-  O306  1  0.27354640  0.86827437  -0.00679807  1
  O2-  O307  1  0.27072494  0.88801668  0.49081270  1
  O2-  O308  1  0.76703837  0.38854760  -0.01322863  1
  O2-  O309  1  0.77160324  0.36652717  0.50183070  1
  O2-  O310  1  0.77025107  0.87840011  -0.00680745  1
  O2-  O311  1  0.77729387  0.88499218  0.50329646  1
  O2-  O312  1  0.22250653  0.11369470  0.00659628  1
  O2-  O313  1  0.23983223  0.13258718  0.51354390  1
  O2-  O314  1  0.23498282  0.62531956  0.00667076  1
  O2-  O315  1  0.22273802  0.61348878  0.51754541  1
  O2-  O316  1  0.72580407  0.11781927  0.00325881  1
  O2-  O317  1  0.73363615  0.12738157  0.50321631  1
  O2-  O318  1  0.70612188  0.61282707  -0.00234258  1
  O2-  O319  1  0.72562536  0.61446617  0.50484551  1
