# generated using pymatgen
data_Sr64Ca21Nb43O192
_symmetry_space_group_name_H-M   'P 1'
_cell_length_a   16.52942006
_cell_length_b   16.54598409
_cell_length_c   16.69639979
_cell_angle_alpha   90.02782233
_cell_angle_beta   89.99557444
_cell_angle_gamma   89.95889592
_symmetry_Int_Tables_number   1
_chemical_formula_structural   Sr64Ca21Nb43O192
_chemical_formula_sum   'Sr64 Ca21 Nb43 O192'
_cell_volume   4566.38883689
_cell_formula_units_Z   1
loop_
 _symmetry_equiv_pos_site_id
 _symmetry_equiv_pos_as_xyz
  1  'x, y, z'
loop_
 _atom_type_symbol
 _atom_type_oxidation_number
  Sr2+  2.0
  Ca2+  2.0
  Nb5+  5.0
  O2-  -2.0
loop_
 _atom_site_type_symbol
 _atom_site_label
 _atom_site_symmetry_multiplicity
 _atom_site_fract_x
 _atom_site_fract_y
 _atom_site_fract_z
 _atom_site_occupancy
  Sr2+  Sr0  1  0.12740096  0.13221397  0.12471559  1
  Sr2+  Sr1  1  0.12326171  0.11926372  0.62584126  1
  Sr2+  Sr2  1  0.12517437  0.62453026  0.12376238  1
  Sr2+  Sr3  1  0.12683461  0.61632461  0.62391532  1
  Sr2+  Sr4  1  0.62252041  0.13027560  0.12510757  1
  Sr2+  Sr5  1  0.63041895  0.12918250  0.61959131  1
  Sr2+  Sr6  1  0.62049981  0.61961275  0.12316418  1
  Sr2+  Sr7  1  0.62239938  0.60973042  0.63151047  1
  Sr2+  Sr8  1  0.37869963  0.35908973  0.12528320  1
  Sr2+  Sr9  1  0.37948591  0.38216707  0.61867210  1
  Sr2+  Sr10  1  0.37830129  0.87276779  0.12217271  1
  Sr2+  Sr11  1  0.37540601  0.87360242  0.63019114  1
  Sr2+  Sr12  1  0.87669458  0.37496433  0.12003740  1
  Sr2+  Sr13  1  0.86762806  0.36067805  0.63061634  1
  Sr2+  Sr14  1  0.86906771  0.87521901  0.12903854  1
  Sr2+  Sr15  1  0.88063663  0.86986979  0.62273245  1
  Sr2+  Sr16  1  0.13173945  0.38590338  0.37612546  1
  Sr2+  Sr17  1  0.11462190  0.37953990  0.87630999  1
  Sr2+  Sr18  1  0.11887938  0.87178390  0.37110197  1
  Sr2+  Sr19  1  0.12704548  0.87799667  0.87069920  1
  Sr2+  Sr20  1  0.63325985  0.38052070  0.38246190  1
  Sr2+  Sr21  1  0.63582834  0.38885453  0.86722887  1
  Sr2+  Sr22  1  0.62006304  0.87848713  0.37584066  1
  Sr2+  Sr23  1  0.63098153  0.87912510  0.87458722  1
  Sr2+  Sr24  1  0.37653429  0.12611652  0.38102925  1
  Sr2+  Sr25  1  0.36645203  0.13051893  0.87272693  1
  Sr2+  Sr26  1  0.36369251  0.62501788  0.37396517  1
  Sr2+  Sr27  1  0.39067042  0.63297061  0.87756390  1
  Sr2+  Sr28  1  0.86903273  0.13355080  0.37279497  1
  Sr2+  Sr29  1  0.88675033  0.13018751  0.87034348  1
  Sr2+  Sr30  1  0.84758097  0.62576512  0.37277771  1
  Sr2+  Sr31  1  0.86862914  0.61405784  0.87997754  1
  Sr2+  Sr32  1  0.11465392  0.13432217  0.37985970  1
  Sr2+  Sr33  1  0.12401032  0.14152381  0.87232703  1
  Sr2+  Sr34  1  0.12489356  0.62430665  0.36809466  1
  Sr2+  Sr35  1  0.12177706  0.62969152  0.87878415  1
  Sr2+  Sr36  1  0.62296505  0.13396133  0.37594861  1
  Sr2+  Sr37  1  0.62792586  0.12289079  0.88378371  1
  Sr2+  Sr38  1  0.61726485  0.62633344  0.37455814  1
  Sr2+  Sr39  1  0.62917819  0.62799499  0.87387734  1
  Sr2+  Sr40  1  0.36823199  0.39302916  0.37754548  1
  Sr2+  Sr41  1  0.37225879  0.37285334  0.87667139  1
  Sr2+  Sr42  1  0.37304578  0.88003155  0.37310356  1
  Sr2+  Sr43  1  0.36684857  0.88470370  0.87143835  1
  Sr2+  Sr44  1  0.86893320  0.37238844  0.37612339  1
  Sr2+  Sr45  1  0.87888531  0.37879377  0.87178381  1
  Sr2+  Sr46  1  0.87937336  0.87094956  0.37221365  1
  Sr2+  Sr47  1  0.86920972  0.89103951  0.86748100  1
  Sr2+  Sr48  1  0.13252664  0.37367564  0.12688456  1
  Sr2+  Sr49  1  0.11756069  0.36968053  0.62598602  1
  Sr2+  Sr50  1  0.10846631  0.87069137  0.12327073  1
  Sr2+  Sr51  1  0.13799070  0.87563705  0.62656151  1
  Sr2+  Sr52  1  0.62086744  0.36682550  0.13604418  1
  Sr2+  Sr53  1  0.63460658  0.36935581  0.62909559  1
  Sr2+  Sr54  1  0.64009294  0.88219783  0.12584814  1
  Sr2+  Sr55  1  0.65541055  0.87243556  0.62338893  1
  Sr2+  Sr56  1  0.38717315  0.12352259  0.11829588  1
  Sr2+  Sr57  1  0.38373951  0.11405045  0.62876109  1
  Sr2+  Sr58  1  0.37651308  0.62297237  0.12458983  1
  Sr2+  Sr59  1  0.38231478  0.62647410  0.63694786  1
  Sr2+  Sr60  1  0.86119450  0.11316076  0.12196003  1
  Sr2+  Sr61  1  0.87997350  0.11797457  0.62026461  1
  Sr2+  Sr62  1  0.86980417  0.62342252  0.12433469  1
  Sr2+  Sr63  1  0.87289814  0.61623372  0.62523034  1
  Ca2+  Ca64  1  0.50130454  0.49705420  -0.00178872  1
  Ca2+  Ca65  1  -0.00159023  -0.00055676  0.00102392  1
  Ca2+  Ca66  1  0.49916660  -0.00326860  -0.00235204  1
  Ca2+  Ca67  1  -0.00083097  0.50137087  0.49501245  1
  Ca2+  Ca68  1  0.50093170  0.50424300  0.49924020  1
  Ca2+  Ca69  1  0.24953156  0.25083823  0.50054209  1
  Ca2+  Ca70  1  0.75288387  0.75137502  -0.00195690  1
  Ca2+  Ca71  1  0.74860032  0.74902661  0.49784647  1
  Ca2+  Ca72  1  0.24839267  0.75121121  0.49911581  1
  Ca2+  Ca73  1  0.75094198  0.25107323  0.00016866  1
  Ca2+  Ca74  1  0.50122572  0.24724369  0.74993388  1
  Ca2+  Ca75  1  0.24754411  -0.00161018  0.25061678  1
  Ca2+  Ca76  1  0.75333526  0.50161187  0.74926939  1
  Ca2+  Ca77  1  0.75160593  0.49581489  0.24820448  1
  Ca2+  Ca78  1  -0.00204005  0.25127580  0.24819756  1
  Ca2+  Ca79  1  -0.00028271  0.25035286  0.74864699  1
  Ca2+  Ca80  1  0.74744980  -0.00076133  0.25708666  1
  Ca2+  Ca81  1  0.25065439  0.49947548  0.75602959  1
  Ca2+  Ca82  1  0.74887799  0.00600865  0.74794768  1
  Ca2+  Ca83  1  0.00232101  0.74753485  0.75009877  1
  Ca2+  Ca84  1  0.49855783  0.25148594  0.25473630  1
  Nb5+  Nb85  1  0.50539118  -0.00443882  0.50405246  1
  Nb5+  Nb86  1  0.00586244  -0.00179717  0.49948711  1
  Nb5+  Nb87  1  0.00268791  0.50101821  0.00147040  1
  Nb5+  Nb88  1  0.24949586  0.25700500  0.00042173  1
  Nb5+  Nb89  1  0.25194058  0.75512992  0.00194411  1
  Nb5+  Nb90  1  0.75027856  0.25025598  0.49984888  1
  Nb5+  Nb91  1  -0.00674633  0.74372074  0.24969777  1
  Nb5+  Nb92  1  0.25115909  0.50043828  0.24530736  1
  Nb5+  Nb93  1  0.49424232  0.74884281  0.25414821  1
  Nb5+  Nb94  1  0.24904642  0.00315276  0.75133561  1
  Nb5+  Nb95  1  0.50476827  0.75610865  0.75426251  1
  Nb5+  Nb96  1  0.00135796  0.00338789  0.24997247  1
  Nb5+  Nb97  1  0.00005164  -0.00177780  0.75160284  1
  Nb5+  Nb98  1  -0.00173492  0.50138908  0.24995198  1
  Nb5+  Nb99  1  0.00353469  0.50276526  0.74420201  1
  Nb5+  Nb100  1  0.49745983  0.00079340  0.24931002  1
  Nb5+  Nb101  1  0.50590365  -0.00257101  0.74738618  1
  Nb5+  Nb102  1  0.49876200  0.49833097  0.24912617  1
  Nb5+  Nb103  1  0.49674962  0.49454122  0.75096329  1
  Nb5+  Nb104  1  0.25151354  0.24679737  0.25527048  1
  Nb5+  Nb105  1  0.25071755  0.25408369  0.74470672  1
  Nb5+  Nb106  1  0.24606640  0.75227337  0.24526665  1
  Nb5+  Nb107  1  0.25011488  0.74731977  0.75037416  1
  Nb5+  Nb108  1  0.74890530  0.24963987  0.24647561  1
  Nb5+  Nb109  1  0.75044736  0.24671383  0.75745460  1
  Nb5+  Nb110  1  0.73618171  0.74992458  0.24715843  1
  Nb5+  Nb111  1  0.75931327  0.74781333  0.75214670  1
  Nb5+  Nb112  1  -0.00195395  0.25446686  0.49763338  1
  Nb5+  Nb113  1  -0.00020148  0.24728013  1.00570527  1
  Nb5+  Nb114  1  0.00078570  0.74507357  0.49965890  1
  Nb5+  Nb115  1  -0.00164411  0.74748876  0.99965253  1
  Nb5+  Nb116  1  0.49489298  0.25155537  0.50221747  1
  Nb5+  Nb117  1  0.50464126  0.25254495  0.99417573  1
  Nb5+  Nb118  1  0.49993463  0.75242224  0.50822555  1
  Nb5+  Nb119  1  0.50380720  0.75469017  1.00594136  1
  Nb5+  Nb120  1  0.24675308  0.00824650  0.00193632  1
  Nb5+  Nb121  1  0.25303880  -0.00082585  0.49852475  1
  Nb5+  Nb122  1  0.25077734  0.50574806  -0.00261337  1
  Nb5+  Nb123  1  0.25071946  0.50419396  0.50771767  1
  Nb5+  Nb124  1  0.74983409  -0.00049826  -0.00196378  1
  Nb5+  Nb125  1  0.75899754  0.00139661  0.49596159  1
  Nb5+  Nb126  1  0.74695299  0.49541220  0.00517949  1
  Nb5+  Nb127  1  0.74993728  0.50280068  0.50228611  1
  O2-  O128  1  -0.02467182  0.00161687  0.13742839  1
  O2-  O129  1  -0.01451119  0.00292372  0.61980887  1
  O2-  O130  1  -0.00558698  0.50680750  0.12415783  1
  O2-  O131  1  -0.00202806  0.51578607  0.63019612  1
  O2-  O132  1  0.47387279  -0.00786629  0.13592446  1
  O2-  O133  1  0.47322075  -0.01312127  0.62237305  1
  O2-  O134  1  0.49017037  0.51456909  0.13279356  1
  O2-  O135  1  0.47644950  0.50728843  0.63255879  1
  O2-  O136  1  0.02403116  -0.00397171  0.38067435  1
  O2-  O137  1  0.01231268  -0.01561873  0.86621710  1
  O2-  O138  1  0.02943945  0.49947399  0.36158932  1
  O2-  O139  1  0.01253098  0.50105255  0.88158240  1
  O2-  O140  1  0.51295865  -0.00085098  0.38443638  1
  O2-  O141  1  0.51934343  0.00682381  0.86158676  1
  O2-  O142  1  0.50137516  0.52294645  0.36417580  1
  O2-  O143  1  0.52991283  0.50636464  0.86485109  1
  O2-  O144  1  0.22643507  0.24498604  0.12018537  1
  O2-  O145  1  0.21739650  0.24442847  0.63461518  1
  O2-  O146  1  0.26348929  0.73133945  0.12301878  1
  O2-  O147  1  0.26081452  0.73146376  0.63651205  1
  O2-  O148  1  0.72076663  0.25362979  0.13316872  1
  O2-  O149  1  0.73269087  0.25249684  0.61884310  1
  O2-  O150  1  0.76805170  0.75679768  0.13346088  1
  O2-  O151  1  0.77021048  0.75010122  0.63192926  1
  O2-  O152  1  0.28516331  0.25962581  0.36484868  1
  O2-  O153  1  0.27061419  0.25617629  0.88134285  1
  O2-  O154  1  0.24320219  0.76121042  0.36109798  1
  O2-  O155  1  0.24268277  0.76586432  0.88358731  1
  O2-  O156  1  0.76886633  0.25227879  0.37865066  1
  O2-  O157  1  0.78034806  0.23769729  0.86829110  1
  O2-  O158  1  0.72953525  0.73568382  0.36467113  1
  O2-  O159  1  0.72249326  0.75565346  0.86535587  1
  O2-  O160  1  0.03617441  0.25846572  0.11703757  1
  O2-  O161  1  0.02136674  0.24468034  0.61355949  1
  O2-  O162  1  -0.00465822  0.73754693  0.12836001  1
  O2-  O163  1  -0.02672875  0.74271006  0.61205535  1
  O2-  O164  1  0.51640390  0.25918779  0.11638006  1
  O2-  O165  1  0.52997365  0.25630601  0.61383962  1
  O2-  O166  1  0.48526835  0.75164411  0.12301094  1
  O2-  O167  1  0.48053269  0.75713234  0.62432250  1
  O2-  O168  1  0.23803457  -0.02936848  0.38831153  1
  O2-  O169  1  0.23355506  -0.01244558  0.87169406  1
  O2-  O170  1  0.24143508  0.49389198  0.36446875  1
  O2-  O171  1  0.23470515  0.47417919  0.88830398  1
  O2-  O172  1  0.71534325  0.00214674  0.38911014  1
  O2-  O173  1  0.72954696  -0.00328407  0.88014104  1
  O2-  O174  1  0.74658596  0.48814744  0.38306631  1
  O2-  O175  1  0.74478603  0.50658623  0.88494217  1
  O2-  O176  1  -0.02776879  0.24189478  0.38209489  1
  O2-  O177  1  -0.02000747  0.25387687  0.88731117  1
  O2-  O178  1  0.02335747  0.75066731  0.36447639  1
  O2-  O179  1  0.02498807  0.75559419  0.88834314  1
  O2-  O180  1  0.49053721  0.22194339  0.38767519  1
  O2-  O181  1  0.46835750  0.23923725  0.88288340  1
  O2-  O182  1  0.51450689  0.74849519  0.36879083  1
  O2-  O183  1  0.51250255  0.75168563  0.87141545  1
  O2-  O184  1  0.26602224  0.01955675  0.11504693  1
  O2-  O185  1  0.25770061  0.01856515  0.63170590  1
  O2-  O186  1  0.26093795  0.50995498  0.12240844  1
  O2-  O187  1  0.26377001  0.52098330  0.62084505  1
  O2-  O188  1  0.76341352  -0.00833442  0.12074684  1
  O2-  O189  1  0.75725827  0.01362560  0.61278069  1
  O2-  O190  1  0.78005900  0.49700988  0.11767558  1
  O2-  O191  1  0.77339757  0.49176029  0.61707386  1
  O2-  O192  1  0.13814871  0.28146090  0.26765204  1
  O2-  O193  1  0.13677085  0.26585631  0.78003879  1
  O2-  O194  1  0.13045457  0.76448085  0.23172354  1
  O2-  O195  1  0.13761883  0.77912890  0.74572318  1
  O2-  O196  1  0.63353064  0.28041109  0.27388554  1
  O2-  O197  1  0.63452877  0.28255611  0.76519537  1
  O2-  O198  1  0.62081736  0.77164585  0.23213116  1
  O2-  O199  1  0.61606791  0.77795256  0.73384562  1
  O2-  O200  1  0.36378690  0.23357505  0.21686995  1
  O2-  O201  1  0.36148124  0.21390421  0.73800516  1
  O2-  O202  1  0.37837398  0.72545896  0.25515351  1
  O2-  O203  1  0.37406505  0.73952682  0.76486988  1
  O2-  O204  1  0.86408126  0.21260370  0.23414566  1
  O2-  O205  1  0.86355439  0.22369245  0.72172411  1
  O2-  O206  1  0.88000384  0.72423500  0.26093376  1
  O2-  O207  1  0.86869164  0.72386149  0.77569650  1
  O2-  O208  1  0.27106376  0.38243818  0.23848158  1
  O2-  O209  1  0.28328659  0.36460838  0.73865532  1
  O2-  O210  1  0.27577088  0.86326968  0.23073665  1
  O2-  O211  1  0.26875106  0.87902605  0.74240247  1
  O2-  O212  1  0.78672720  0.36341845  0.24798939  1
  O2-  O213  1  0.77464334  0.36661326  0.75466209  1
  O2-  O214  1  0.77155675  0.86252044  0.26216702  1
  O2-  O215  1  0.77272017  0.86849645  0.74599902  1
  O2-  O216  1  0.22371662  0.13458396  0.26330864  1
  O2-  O217  1  0.22819280  0.11987100  0.76468394  1
  O2-  O218  1  0.23513998  0.62584511  0.25302430  1
  O2-  O219  1  0.23249478  0.63615723  0.77371954  1
  O2-  O220  1  0.71891887  0.13246784  0.25575056  1
  O2-  O221  1  0.70817315  0.13527026  0.75072902  1
  O2-  O222  1  0.72692070  0.63077124  0.23854623  1
  O2-  O223  1  0.71830847  0.63614871  0.74534118  1
  O2-  O224  1  0.13157878  0.48825381  0.23016858  1
  O2-  O225  1  0.11889465  0.46431408  0.74277011  1
  O2-  O226  1  0.11342011  0.96277979  0.24183315  1
  O2-  O227  1  0.12775452  0.97900477  0.73569458  1
  O2-  O228  1  0.61403143  0.47581242  0.24358733  1
  O2-  O229  1  0.61535881  0.48580761  0.72546113  1
  O2-  O230  1  0.60997883  0.96503237  0.24605400  1
  O2-  O231  1  0.61406462  0.96687616  0.72901420  1
  O2-  O232  1  0.38266606  0.01229670  0.28276115  1
  O2-  O233  1  0.36954496  0.01428717  0.76500683  1
  O2-  O234  1  0.37040262  0.52690614  0.25422963  1
  O2-  O235  1  0.38487214  0.53106021  0.77154691  1
  O2-  O236  1  0.88741646  0.00762350  0.28389102  1
  O2-  O237  1  0.88498020  0.02473385  0.76185499  1
  O2-  O238  1  0.88876052  0.53406883  0.26070447  1
  O2-  O239  1  0.88833342  0.53337025  0.76000662  1
  O2-  O240  1  0.46746214  0.38696575  0.25559758  1
  O2-  O241  1  0.47036155  0.38269605  0.75311527  1
  O2-  O242  1  0.47355308  0.86738660  0.25547017  1
  O2-  O243  1  0.47044254  0.87470775  0.75459918  1
  O2-  O244  1  0.97754397  0.38759800  0.24465455  1
  O2-  O245  1  0.97280437  0.38512374  0.74720828  1
  O2-  O246  1  0.98056781  0.86348511  0.24600614  1
  O2-  O247  1  0.97836999  0.88189673  0.73789178  1
  O2-  O248  1  0.03177025  0.11474267  0.25151212  1
  O2-  O249  1  0.02742033  0.11485827  0.75001534  1
  O2-  O250  1  0.02990262  0.62707789  0.24601719  1
  O2-  O251  1  0.04276165  0.61693275  0.75383008  1
  O2-  O252  1  0.52115928  0.11373501  0.24403628  1
  O2-  O253  1  0.51388035  0.11074302  0.72537815  1
  O2-  O254  1  0.52358518  0.63358846  0.24246814  1
  O2-  O255  1  0.51436345  0.63813007  0.74376662  1
  O2-  O256  1  0.12636975  0.48338025  0.01696306  1
  O2-  O257  1  0.13541370  0.46870417  0.51192632  1
  O2-  O258  1  0.13540706  0.96983530  0.00959230  1
  O2-  O259  1  0.12041469  0.98498945  0.51961997  1
  O2-  O260  1  0.63589396  0.46694403  0.02237955  1
  O2-  O261  1  0.63372867  0.46970874  0.51390703  1
  O2-  O262  1  0.63184897  0.96782105  0.00939723  1
  O2-  O263  1  0.61804513  0.97970339  0.52149075  1
  O2-  O264  1  0.36143941  0.01141425  -0.02662299  1
  O2-  O265  1  0.36869067  0.01965108  0.49050933  1
  O2-  O266  1  0.36497813  0.52042030  -0.01489329  1
  O2-  O267  1  0.36588390  0.52314144  0.48155412  1
  O2-  O268  1  0.86614073  0.03525131  -0.01917114  1
  O2-  O269  1  0.87358289  0.02181309  0.48091538  1
  O2-  O270  1  0.88620317  0.52164381  -0.00539600  1
  O2-  O271  1  0.86743417  0.53440116  0.48882300  1
  O2-  O272  1  0.46480053  0.36533564  -0.00229961  1
  O2-  O273  1  0.47727733  0.36504101  0.48704909  1
  O2-  O274  1  0.46278683  0.86292276  -0.01072585  1
  O2-  O275  1  0.46901740  0.87874790  0.49262830  1
  O2-  O276  1  0.99039408  0.37999647  0.00124971  1
  O2-  O277  1  0.97002930  0.36650742  0.50425920  1
  O2-  O278  1  0.98386865  0.86104728  0.01854517  1
  O2-  O279  1  0.97413095  0.88306794  0.49638389  1
  O2-  O280  1  0.02756241  0.13412889  0.00017192  1
  O2-  O281  1  0.01110677  0.12002439  0.49855664  1
  O2-  O282  1  0.02862763  0.62220610  0.00214638  1
  O2-  O283  1  0.03480949  0.63590079  0.49655134  1
  O2-  O284  1  0.51458573  0.13266449  0.01027511  1
  O2-  O285  1  0.51329795  0.11422466  0.51371057  1
  O2-  O286  1  0.51634000  0.63763167  -0.00778555  1
  O2-  O287  1  0.53149997  0.64091517  0.50733917  1
  O2-  O288  1  0.13050521  0.26679134  -0.02243454  1
  O2-  O289  1  0.11227844  0.26715056  0.47021934  1
  O2-  O290  1  0.13195118  0.75763396  0.02014828  1
  O2-  O291  1  0.11128599  0.78781270  0.50439547  1
  O2-  O292  1  0.61514873  0.27335984  -0.03224522  1
  O2-  O293  1  0.62980330  0.26168595  0.48046279  1
  O2-  O294  1  0.61513282  0.77904215  0.01390706  1
  O2-  O295  1  0.61222810  0.79135836  0.50377447  1
  O2-  O296  1  0.36347554  0.22756656  0.01860672  1
  O2-  O297  1  0.38413660  0.22630077  0.52693223  1
  O2-  O298  1  0.36814767  0.72441345  -0.00386702  1
  O2-  O299  1  0.38598250  0.73369580  0.48093891  1
  O2-  O300  1  0.88825043  0.23629501  0.03607541  1
  O2-  O301  1  0.87078940  0.22799257  0.51780922  1
  O2-  O302  1  0.88818419  0.71594658  -0.00827032  1
  O2-  O303  1  0.88759008  0.74015411  0.46295648  1
  O2-  O304  1  0.26588362  0.37246228  0.01589142  1
  O2-  O305  1  0.27851480  0.38505598  0.50344642  1
  O2-  O306  1  0.26903173  0.86959674  0.01344088  1
  O2-  O307  1  0.26102291  0.88589245  0.53290474  1
  O2-  O308  1  0.78569331  0.38278158  -0.00798885  1
  O2-  O309  1  0.77233391  0.36855036  0.49980563  1
  O2-  O310  1  0.78819804  0.88371876  -0.00567080  1
  O2-  O311  1  0.77300942  0.88579154  0.50115853  1
  O2-  O312  1  0.22577070  0.12348786  -0.01176417  1
  O2-  O313  1  0.22224031  0.11380883  0.48935703  1
  O2-  O314  1  0.22882997  0.62115087  -0.00951417  1
  O2-  O315  1  0.22093663  0.61716616  0.48432311  1
  O2-  O316  1  0.71890902  0.11703088  0.00893257  1
  O2-  O317  1  0.73365556  0.12817839  0.49425967  1
  O2-  O318  1  0.72638387  0.61570655  0.00710646  1
  O2-  O319  1  0.71767602  0.61511369  0.50195177  1
