# generated using pymatgen
data_Sr64Ca21Nb43O192
_symmetry_space_group_name_H-M   'P 1'
_cell_length_a   16.57237307
_cell_length_b   16.57904708
_cell_length_c   16.77282484
_cell_angle_alpha   89.96811059
_cell_angle_beta   89.94231853
_cell_angle_gamma   89.95657287
_symmetry_Int_Tables_number   1
_chemical_formula_structural   Sr64Ca21Nb43O192
_chemical_formula_sum   'Sr64 Ca21 Nb43 O192'
_cell_volume   4608.39891804
_cell_formula_units_Z   1
loop_
 _symmetry_equiv_pos_site_id
 _symmetry_equiv_pos_as_xyz
  1  'x, y, z'
loop_
 _atom_type_symbol
 _atom_type_oxidation_number
  Sr2+  2.0
  Ca2+  2.0
  Nb5+  5.0
  O2-  -2.0
loop_
 _atom_site_type_symbol
 _atom_site_label
 _atom_site_symmetry_multiplicity
 _atom_site_fract_x
 _atom_site_fract_y
 _atom_site_fract_z
 _atom_site_occupancy
  Sr2+  Sr0  1  0.11343410  0.13154723  0.12002943  1
  Sr2+  Sr1  1  0.12352243  0.12856813  0.62524420  1
  Sr2+  Sr2  1  0.12273693  0.62856671  0.12886081  1
  Sr2+  Sr3  1  0.12075890  0.62004651  0.62174446  1
  Sr2+  Sr4  1  0.62278874  0.13399783  0.12585773  1
  Sr2+  Sr5  1  0.62714834  0.13993968  0.63143924  1
  Sr2+  Sr6  1  0.62306101  0.62373036  0.12405456  1
  Sr2+  Sr7  1  0.62815586  0.63294636  0.64893700  1
  Sr2+  Sr8  1  0.37141433  0.38520529  0.12608386  1
  Sr2+  Sr9  1  0.37107404  0.35816143  0.62344484  1
  Sr2+  Sr10  1  0.36733807  0.87232846  0.11693308  1
  Sr2+  Sr11  1  0.36609276  0.86968659  0.63121776  1
  Sr2+  Sr12  1  0.87096514  0.36007411  0.12647869  1
  Sr2+  Sr13  1  0.88709704  0.37356747  0.63073346  1
  Sr2+  Sr14  1  0.88077402  0.87160948  0.12366361  1
  Sr2+  Sr15  1  0.87842139  0.85828100  0.62081012  1
  Sr2+  Sr16  1  0.13105584  0.36785861  0.37257321  1
  Sr2+  Sr17  1  0.11645868  0.36403533  0.87448607  1
  Sr2+  Sr18  1  0.13270834  0.86642415  0.37144661  1
  Sr2+  Sr19  1  0.14716671  0.87568987  0.87562621  1
  Sr2+  Sr20  1  0.62045892  0.37243353  0.36213860  1
  Sr2+  Sr21  1  0.62368904  0.38331536  0.87875749  1
  Sr2+  Sr22  1  0.62765139  0.87189537  0.37332098  1
  Sr2+  Sr23  1  0.62126851  0.88244586  0.87080203  1
  Sr2+  Sr24  1  0.37963472  0.12259777  0.38350199  1
  Sr2+  Sr25  1  0.38993527  0.11760226  0.87002851  1
  Sr2+  Sr26  1  0.37868340  0.62429572  0.37878754  1
  Sr2+  Sr27  1  0.39028275  0.62303755  0.86851303  1
  Sr2+  Sr28  1  0.86244003  0.11234565  0.37649278  1
  Sr2+  Sr29  1  0.87466455  0.12059821  0.87099030  1
  Sr2+  Sr30  1  0.87913212  0.61786220  0.37931647  1
  Sr2+  Sr31  1  0.87809264  0.61751299  0.85499924  1
  Sr2+  Sr32  1  0.12919920  0.11698782  0.37722081  1
  Sr2+  Sr33  1  0.12507238  0.11895436  0.87031885  1
  Sr2+  Sr34  1  0.12839925  0.61824250  0.37162367  1
  Sr2+  Sr35  1  0.13635538  0.60833476  0.86940748  1
  Sr2+  Sr36  1  0.62062169  0.10132504  0.37518820  1
  Sr2+  Sr37  1  0.62733324  0.15152930  0.88333455  1
  Sr2+  Sr38  1  0.62376208  0.61293059  0.37273818  1
  Sr2+  Sr39  1  0.62838136  0.63567213  0.87996154  1
  Sr2+  Sr40  1  0.37818357  0.36225280  0.38118394  1
  Sr2+  Sr41  1  0.38227771  0.36688612  0.87431775  1
  Sr2+  Sr42  1  0.37959350  0.87578705  0.38478869  1
  Sr2+  Sr43  1  0.37974701  0.88283693  0.86591087  1
  Sr2+  Sr44  1  0.87069266  0.36439940  0.37436071  1
  Sr2+  Sr45  1  0.87342124  0.36415157  0.86680043  1
  Sr2+  Sr46  1  0.87841821  0.87199943  0.37709398  1
  Sr2+  Sr47  1  0.88386467  0.87707093  0.87564691  1
  Sr2+  Sr48  1  0.12064519  0.38242517  0.12088128  1
  Sr2+  Sr49  1  0.12487088  0.37463467  0.63441515  1
  Sr2+  Sr50  1  0.11818733  0.87211541  0.12352687  1
  Sr2+  Sr51  1  0.12520150  0.86907145  0.62886402  1
  Sr2+  Sr52  1  0.62250154  0.38221343  0.12315347  1
  Sr2+  Sr53  1  0.62001390  0.38769520  0.62453361  1
  Sr2+  Sr54  1  0.61763906  0.88363940  0.12619812  1
  Sr2+  Sr55  1  0.63829066  0.87246338  0.63397934  1
  Sr2+  Sr56  1  0.37132280  0.13148123  0.11479613  1
  Sr2+  Sr57  1  0.36770448  0.12408914  0.62515300  1
  Sr2+  Sr58  1  0.35585842  0.62306497  0.12457939  1
  Sr2+  Sr59  1  0.39057696  0.62655739  0.61714162  1
  Sr2+  Sr60  1  0.87211529  0.11933200  0.12254746  1
  Sr2+  Sr61  1  0.88382522  0.12560730  0.62287602  1
  Sr2+  Sr62  1  0.86694807  0.63118977  0.12917273  1
  Sr2+  Sr63  1  0.86274856  0.62391858  0.62208613  1
  Ca2+  Ca64  1  -0.00141688  0.50128956  -0.00077348  1
  Ca2+  Ca65  1  0.00166491  -0.00153751  0.49825383  1
  Ca2+  Ca66  1  0.50086545  0.50100654  0.49622059  1
  Ca2+  Ca67  1  0.00156690  0.49701554  0.49779060  1
  Ca2+  Ca68  1  0.49912157  -0.00163240  0.50405432  1
  Ca2+  Ca69  1  0.75137595  0.24799682  0.50097515  1
  Ca2+  Ca70  1  0.25085434  0.74836242  -0.00067617  1
  Ca2+  Ca71  1  0.25006029  0.24850289  0.00195334  1
  Ca2+  Ca72  1  0.74966666  0.25289052  0.00341169  1
  Ca2+  Ca73  1  0.74800470  0.75369684  0.00384146  1
  Ca2+  Ca74  1  0.75026640  0.49639224  0.74868679  1
  Ca2+  Ca75  1  0.49899203  0.24876979  0.25075283  1
  Ca2+  Ca76  1  0.24863296  0.00199791  0.74922055  1
  Ca2+  Ca77  1  0.75119108  0.00308186  0.75146013  1
  Ca2+  Ca78  1  0.49928826  0.25161345  0.75014074  1
  Ca2+  Ca79  1  0.00399962  0.74890940  0.75221658  1
  Ca2+  Ca80  1  0.24968340  -0.00142245  0.24720042  1
  Ca2+  Ca81  1  0.50061358  0.75288451  0.24580429  1
  Ca2+  Ca82  1  0.25308946  0.50056261  0.74550707  1
  Ca2+  Ca83  1  0.00150977  0.24748230  0.25060500  1
  Ca2+  Ca84  1  0.49698153  0.75313063  0.74998290  1
  Nb5+  Nb85  1  0.50619624  0.00562077  -0.00196458  1
  Nb5+  Nb86  1  0.49954739  0.50778211  -0.00007181  1
  Nb5+  Nb87  1  0.00456491  -0.00270130  -0.00236491  1
  Nb5+  Nb88  1  0.24526948  0.24265800  0.49983630  1
  Nb5+  Nb89  1  0.25045073  0.74354161  0.50055794  1
  Nb5+  Nb90  1  0.75315701  0.74794076  0.49760810  1
  Nb5+  Nb91  1  0.75078901  -0.01027936  0.24734943  1
  Nb5+  Nb92  1  0.00088729  0.74798223  0.25147498  1
  Nb5+  Nb93  1  0.75125760  0.49587221  0.25096970  1
  Nb5+  Nb94  1  0.24436660  0.49627129  0.25347653  1
  Nb5+  Nb95  1  0.00050553  0.24553049  0.75095113  1
  Nb5+  Nb96  1  0.00075201  -0.00204693  0.25088381  1
  Nb5+  Nb97  1  0.00018928  -0.00385822  0.74686581  1
  Nb5+  Nb98  1  -0.00795293  0.49644067  0.24648318  1
  Nb5+  Nb99  1  0.00286586  0.49971650  0.75299870  1
  Nb5+  Nb100  1  0.49129666  0.00427078  0.24533826  1
  Nb5+  Nb101  1  0.50434718  0.00619218  0.74116457  1
  Nb5+  Nb102  1  0.49180917  0.50226972  0.24747894  1
  Nb5+  Nb103  1  0.49915073  0.50188131  0.74439334  1
  Nb5+  Nb104  1  0.24922624  0.24686021  0.24794663  1
  Nb5+  Nb105  1  0.24850283  0.24791081  0.75602430  1
  Nb5+  Nb106  1  0.25280822  0.74928052  0.25216686  1
  Nb5+  Nb107  1  0.24976855  0.74468147  0.75346506  1
  Nb5+  Nb108  1  0.74980604  0.23974708  0.25602491  1
  Nb5+  Nb109  1  0.74732492  0.25212965  0.74882248  1
  Nb5+  Nb110  1  0.74914878  0.74507163  0.25344241  1
  Nb5+  Nb111  1  0.75626035  0.75434975  0.75732843  1
  Nb5+  Nb112  1  0.00158084  0.24759006  0.49437440  1
  Nb5+  Nb113  1  -0.00515099  0.24925003  1.00161895  1
  Nb5+  Nb114  1  0.00668746  0.75013934  0.49845825  1
  Nb5+  Nb115  1  0.00031816  0.74556655  0.99516446  1
  Nb5+  Nb116  1  0.50500467  0.25157782  0.50308613  1
  Nb5+  Nb117  1  0.49547051  0.25981986  1.00364439  1
  Nb5+  Nb118  1  0.51027887  0.75393518  0.49785559  1
  Nb5+  Nb119  1  0.49905348  0.76010161  1.00066834  1
  Nb5+  Nb120  1  0.25766679  0.00003364  0.00190621  1
  Nb5+  Nb121  1  0.24753035  -0.00837054  0.49648835  1
  Nb5+  Nb122  1  0.25221629  0.49679812  -0.00560013  1
  Nb5+  Nb123  1  0.24820295  0.49433054  0.49906551  1
  Nb5+  Nb124  1  0.75235866  -0.00236923  0.00076118  1
  Nb5+  Nb125  1  0.74643785  0.00171698  0.50587497  1
  Nb5+  Nb126  1  0.75536242  0.50462452  0.00071144  1
  Nb5+  Nb127  1  0.75219728  0.49647495  0.49943062  1
  O2-  O128  1  0.00707479  -0.00171061  0.12065472  1
  O2-  O129  1  0.02455419  -0.00026990  0.63528673  1
  O2-  O130  1  0.02920146  0.51185890  0.13481709  1
  O2-  O131  1  0.02810531  0.49572659  0.63519298  1
  O2-  O132  1  0.51614698  0.01772532  0.11753628  1
  O2-  O133  1  0.51591788  0.03528295  0.63224843  1
  O2-  O134  1  0.51547173  0.51305207  0.12083465  1
  O2-  O135  1  0.51954584  0.52080848  0.63190492  1
  O2-  O136  1  -0.02736172  -0.00259699  0.36192083  1
  O2-  O137  1  -0.02227953  0.00037242  0.88249947  1
  O2-  O138  1  -0.01788868  0.48945896  0.36151217  1
  O2-  O139  1  -0.03292675  0.48933692  0.86720274  1
  O2-  O140  1  0.48441213  -0.01204277  0.36019365  1
  O2-  O141  1  0.49067391  -0.01600329  0.88255083  1
  O2-  O142  1  0.48198626  0.48592288  0.36053050  1
  O2-  O143  1  0.48325896  0.48401025  0.88414015  1
  O2-  O144  1  0.27941996  0.26208908  0.13870371  1
  O2-  O145  1  0.26235709  0.24831885  0.61870926  1
  O2-  O146  1  0.23801356  0.76325544  0.13883724  1
  O2-  O147  1  0.23654898  0.76566432  0.61423228  1
  O2-  O148  1  0.77789325  0.23676877  0.13988213  1
  O2-  O149  1  0.77165330  0.22134115  0.63611428  1
  O2-  O150  1  0.74534486  0.72899589  0.14083199  1
  O2-  O151  1  0.74050321  0.73505511  0.61422454  1
  O2-  O152  1  0.22302166  0.24393334  0.38120829  1
  O2-  O153  1  0.22186626  0.25024446  0.86756778  1
  O2-  O154  1  0.24348818  0.73261913  0.37814547  1
  O2-  O155  1  0.26085620  0.72096496  0.86531448  1
  O2-  O156  1  0.73477600  0.27775074  0.36770562  1
  O2-  O157  1  0.73141792  0.27666746  0.86812520  1
  O2-  O158  1  0.76060957  0.77289176  0.37710759  1
  O2-  O159  1  0.77396830  0.76871817  0.86851478  1
  O2-  O160  1  -0.02420380  0.23202059  0.11568311  1
  O2-  O161  1  -0.01275924  0.24168917  0.63236858  1
  O2-  O162  1  0.01536715  0.74403502  0.13328341  1
  O2-  O163  1  0.01046425  0.74261687  0.61395695  1
  O2-  O164  1  0.47645173  0.23300272  0.11647591  1
  O2-  O165  1  0.47192957  0.23065209  0.61651410  1
  O2-  O166  1  0.53958603  0.74707762  0.11121101  1
  O2-  O167  1  0.51196967  0.72407923  0.61302626  1
  O2-  O168  1  0.27386823  0.01464677  0.38148716  1
  O2-  O169  1  0.25680998  0.02952424  0.88786948  1
  O2-  O170  1  0.26925208  0.51894572  0.36777924  1
  O2-  O171  1  0.27225794  0.51785747  0.88438615  1
  O2-  O172  1  0.76850449  -0.01489569  0.36480542  1
  O2-  O173  1  0.75969181  -0.02921582  0.88938037  1
  O2-  O174  1  0.77782809  0.49225532  0.36856260  1
  O2-  O175  1  0.76397104  0.48832533  0.88767420  1
  O2-  O176  1  0.02747651  0.25569027  0.38400754  1
  O2-  O177  1  0.01892277  0.24734727  0.87549931  1
  O2-  O178  1  -0.00397692  0.76158237  0.37169591  1
  O2-  O179  1  -0.02892356  0.75025253  0.88543160  1
  O2-  O180  1  0.50786332  0.27798833  0.38637433  1
  O2-  O181  1  0.51895990  0.27386434  0.88529924  1
  O2-  O182  1  0.49603716  0.78168611  0.38146200  1
  O2-  O183  1  0.46431811  0.75881673  0.88531556  1
  O2-  O184  1  0.24185262  -0.03906772  0.11418194  1
  O2-  O185  1  0.21932913  -0.01211134  0.61206340  1
  O2-  O186  1  0.24257247  0.48150631  0.13446752  1
  O2-  O187  1  0.22257123  0.49338227  0.60980514  1
  O2-  O188  1  0.73508205  0.02323320  0.13437635  1
  O2-  O189  1  0.72370611  0.01768459  0.61548095  1
  O2-  O190  1  0.73877579  0.52257204  0.13706352  1
  O2-  O191  1  0.72611869  0.51963943  0.60974817  1
  O2-  O192  1  0.13705273  0.28668296  0.23611068  1
  O2-  O193  1  0.12012577  0.26806389  0.73761677  1
  O2-  O194  1  0.12301727  0.75928801  0.26123638  1
  O2-  O195  1  0.13454921  0.78357506  0.75378759  1
  O2-  O196  1  0.63805577  0.26932857  0.22938898  1
  O2-  O197  1  0.63460333  0.26960809  0.72245721  1
  O2-  O198  1  0.63761717  0.76749674  0.26391869  1
  O2-  O199  1  0.63567910  0.76975616  0.75304852  1
  O2-  O200  1  0.36193501  0.23672998  0.28469194  1
  O2-  O201  1  0.36288614  0.23065619  0.77056538  1
  O2-  O202  1  0.36503473  0.71971195  0.25006062  1
  O2-  O203  1  0.36244389  0.73119711  0.71988846  1
  O2-  O204  1  0.86839951  0.23919339  0.28144928  1
  O2-  O205  1  0.88290729  0.23356134  0.77103723  1
  O2-  O206  1  0.87882386  0.73612128  0.24928929  1
  O2-  O207  1  0.86860870  0.72771174  0.72866005  1
  O2-  O208  1  0.27129728  0.38183070  0.27095513  1
  O2-  O209  1  0.26234968  0.36451763  0.73720895  1
  O2-  O210  1  0.27069146  0.86157655  0.27495551  1
  O2-  O211  1  0.27236819  0.86680267  0.76268203  1
  O2-  O212  1  0.77107088  0.38303217  0.23848577  1
  O2-  O213  1  0.78295415  0.36475286  0.73593211  1
  O2-  O214  1  0.77009124  0.87410243  0.23470352  1
  O2-  O215  1  0.76949180  0.86718038  0.72201014  1
  O2-  O216  1  0.21805729  0.13560654  0.24038881  1
  O2-  O217  1  0.22302539  0.13491576  0.73561818  1
  O2-  O218  1  0.23037981  0.62035963  0.23913505  1
  O2-  O219  1  0.21281400  0.63383136  0.73321974  1
  O2-  O220  1  0.73737580  0.12374533  0.27143371  1
  O2-  O221  1  0.73728066  0.13646403  0.78089019  1
  O2-  O222  1  0.74644429  0.62886314  0.27583261  1
  O2-  O223  1  0.73494567  0.63382468  0.76435644  1
  O2-  O224  1  0.12872158  0.48462941  0.26737655  1
  O2-  O225  1  0.11816340  0.47764243  0.78102331  1
  O2-  O226  1  0.11298256  0.96801628  0.25856759  1
  O2-  O227  1  0.11212238  0.98771174  0.78365305  1
  O2-  O228  1  0.63466862  0.48944290  0.26504195  1
  O2-  O229  1  0.61581502  0.46945913  0.75829675  1
  O2-  O230  1  0.63252675  0.97518250  0.25901667  1
  O2-  O231  1  0.61768443  0.97125571  0.75369308  1
  O2-  O232  1  0.38255587  0.03558049  0.22983227  1
  O2-  O233  1  0.38376034  0.02803502  0.74383397  1
  O2-  O234  1  0.37692294  0.51599135  0.23088957  1
  O2-  O235  1  0.38446577  0.53568598  0.73836872  1
  O2-  O236  1  0.87328786  0.01094333  0.22902771  1
  O2-  O237  1  0.88675879  0.03261498  0.74286701  1
  O2-  O238  1  0.87787889  0.52015097  0.23072847  1
  O2-  O239  1  0.88526299  0.51671982  0.72411432  1
  O2-  O240  1  0.49970671  0.38684289  0.22500784  1
  O2-  O241  1  0.46685581  0.38696369  0.73962343  1
  O2-  O242  1  0.48288820  0.88925014  0.21703688  1
  O2-  O243  1  0.47511309  0.88830924  0.73498162  1
  O2-  O244  1  0.98095508  0.38292361  0.23073422  1
  O2-  O245  1  0.98554295  0.36807689  0.75062063  1
  O2-  O246  1  0.98111073  0.86986829  0.24120950  1
  O2-  O247  1  0.97099951  0.88413053  0.74809862  1
  O2-  O248  1  0.02411122  0.11159383  0.24821550  1
  O2-  O249  1  0.02225590  0.12730281  0.75490558  1
  O2-  O250  1  0.01229708  0.62728681  0.26127476  1
  O2-  O251  1  0.02118112  0.61453836  0.76746654  1
  O2-  O252  1  0.53517737  0.11443195  0.25389805  1
  O2-  O253  1  0.52471732  0.11767574  0.78059237  1
  O2-  O254  1  0.52533986  0.61535464  0.25494960  1
  O2-  O255  1  0.52411206  0.61607158  0.77688973  1
  O2-  O256  1  0.13815634  0.47321647  -0.01676950  1
  O2-  O257  1  0.13656364  0.49236933  0.46140582  1
  O2-  O258  1  0.12060123  0.98440255  -0.01139727  1
  O2-  O259  1  0.13296748  0.98658015  0.46211197  1
  O2-  O260  1  0.61746471  0.48294272  -0.00631650  1
  O2-  O261  1  0.63811553  0.48605641  0.46500803  1
  O2-  O262  1  0.62109106  0.98036023  -0.00670949  1
  O2-  O263  1  0.63311189  0.97826306  0.47445093  1
  O2-  O264  1  0.37701911  0.01233053  0.01315690  1
  O2-  O265  1  0.36211302  0.01330768  0.52195799  1
  O2-  O266  1  0.37999995  0.51624797  0.02069181  1
  O2-  O267  1  0.36155681  0.52665893  0.50530623  1
  O2-  O268  1  0.86922081  0.01391381  0.01340122  1
  O2-  O269  1  0.86453641  0.01619777  0.51272620  1
  O2-  O270  1  0.86548570  0.52999640  0.01892608  1
  O2-  O271  1  0.86530547  0.53151348  0.50569977  1
  O2-  O272  1  0.48179893  0.37588047  0.01835956  1
  O2-  O273  1  0.47970913  0.36915453  0.52160100  1
  O2-  O274  1  0.48583610  0.87773414  0.01421960  1
  O2-  O275  1  0.47335043  0.86363575  0.52371574  1
  O2-  O276  1  0.97979560  0.36458065  0.00725464  1
  O2-  O277  1  0.97984314  0.36308530  0.51114538  1
  O2-  O278  1  0.97678475  0.88110218  0.00308238  1
  O2-  O279  1  0.97398418  0.86447367  0.50045957  1
  O2-  O280  1  0.01268549  0.11798460  -0.00280911  1
  O2-  O281  1  0.03243842  0.13329548  0.50571062  1
  O2-  O282  1  0.03327142  0.63513738  -0.00740135  1
  O2-  O283  1  0.01501925  0.63456941  0.47988657  1
  O2-  O284  1  0.51234070  0.12114520  -0.01669721  1
  O2-  O285  1  0.50609886  0.13546260  0.47400514  1
  O2-  O286  1  0.51102956  0.62307867  -0.01491421  1
  O2-  O287  1  0.50482173  0.63819144  0.46790944  1
  O2-  O288  1  0.11396439  0.25978778  0.02162712  1
  O2-  O289  1  0.12932737  0.27507975  0.52035867  1
  O2-  O290  1  0.11247525  0.78520533  -0.00383456  1
  O2-  O291  1  0.12255606  0.77298614  0.49179111  1
  O2-  O292  1  0.61356546  0.25657161  0.02350082  1
  O2-  O293  1  0.61684148  0.26252333  0.53055639  1
  O2-  O294  1  0.61353947  0.76397571  -0.03726333  1
  O2-  O295  1  0.62667105  0.77198797  0.49250399  1
  O2-  O296  1  0.38414466  0.22921635  -0.02569104  1
  O2-  O297  1  0.36319851  0.24041748  0.48313092  1
  O2-  O298  1  0.38610074  0.73933764  0.03657836  1
  O2-  O299  1  0.36617175  0.73316152  0.50022089  1
  O2-  O300  1  0.88106036  0.23090569  -0.02675600  1
  O2-  O301  1  0.88852062  0.22162311  0.48344315  1
  O2-  O302  1  0.88716342  0.74295242  0.03127796  1
  O2-  O303  1  0.87168383  0.73320165  0.50369057  1
  O2-  O304  1  0.28300556  0.38335607  -0.00201833  1
  O2-  O305  1  0.26618253  0.37824691  0.48955813  1
  O2-  O306  1  0.26931097  0.88307769  -0.02967157  1
  O2-  O307  1  0.26203604  0.87267197  0.48419859  1
  O2-  O308  1  0.75547761  0.39018436  0.03193393  1
  O2-  O309  1  0.77607165  0.38524298  0.51522043  1
  O2-  O310  1  0.75125961  0.88652569  0.04169088  1
  O2-  O311  1  0.76472022  0.87358046  0.51428568  1
  O2-  O312  1  0.23638866  0.11223849  0.03619582  1
  O2-  O313  1  0.22975833  0.12680717  0.50476201  1
  O2-  O314  1  0.23539147  0.61167388  0.02587628  1
  O2-  O315  1  0.22438241  0.62993226  0.50788188  1
  O2-  O316  1  0.72736254  0.11270748  -0.00566675  1
  O2-  O317  1  0.73381756  0.11358429  0.47254110  1
  O2-  O318  1  0.71855913  0.61723116  -0.00028367  1
  O2-  O319  1  0.73414784  0.63407571  0.47544204  1
