# generated using pymatgen
data_Sr64Ca21Nb43O192
_symmetry_space_group_name_H-M   'P 1'
_cell_length_a   16.59379824
_cell_length_b   16.61695564
_cell_length_c   16.70494631
_cell_angle_alpha   89.98717878
_cell_angle_beta   89.97750146
_cell_angle_gamma   89.94714617
_symmetry_Int_Tables_number   1
_chemical_formula_structural   Sr64Ca21Nb43O192
_chemical_formula_sum   'Sr64 Ca21 Nb43 O192'
_cell_volume   4606.19289431
_cell_formula_units_Z   1
loop_
 _symmetry_equiv_pos_site_id
 _symmetry_equiv_pos_as_xyz
  1  'x, y, z'
loop_
 _atom_type_symbol
 _atom_type_oxidation_number
  Sr2+  2.0
  Ca2+  2.0
  Nb5+  5.0
  O2-  -2.0
loop_
 _atom_site_type_symbol
 _atom_site_label
 _atom_site_symmetry_multiplicity
 _atom_site_fract_x
 _atom_site_fract_y
 _atom_site_fract_z
 _atom_site_occupancy
  Sr2+  Sr0  1  0.10929858  0.13243770  0.12547461  1
  Sr2+  Sr1  1  0.12587279  0.14470064  0.62353298  1
  Sr2+  Sr2  1  0.12382015  0.63550397  0.12752840  1
  Sr2+  Sr3  1  0.12128163  0.63072022  0.62683890  1
  Sr2+  Sr4  1  0.62520945  0.13955855  0.12586706  1
  Sr2+  Sr5  1  0.61968591  0.13812873  0.62645930  1
  Sr2+  Sr6  1  0.61148502  0.63394674  0.12183361  1
  Sr2+  Sr7  1  0.61580329  0.63160165  0.62332695  1
  Sr2+  Sr8  1  0.37068016  0.38790865  0.12683301  1
  Sr2+  Sr9  1  0.36827388  0.36004583  0.62277112  1
  Sr2+  Sr10  1  0.36592934  0.88280056  0.12732131  1
  Sr2+  Sr11  1  0.36431854  0.89276857  0.62896027  1
  Sr2+  Sr12  1  0.85942741  0.38033954  0.12494308  1
  Sr2+  Sr13  1  0.86697395  0.38825207  0.62395362  1
  Sr2+  Sr14  1  0.87149509  0.88888742  0.12269590  1
  Sr2+  Sr15  1  0.87304884  0.88621334  0.62400462  1
  Sr2+  Sr16  1  0.12836764  0.37103955  0.36887792  1
  Sr2+  Sr17  1  0.12804818  0.36572876  0.86849647  1
  Sr2+  Sr18  1  0.13304780  0.86652470  0.37977631  1
  Sr2+  Sr19  1  0.13025200  0.87275468  0.88743035  1
  Sr2+  Sr20  1  0.63680155  0.37170829  0.38523730  1
  Sr2+  Sr21  1  0.64418788  0.37213821  0.87487243  1
  Sr2+  Sr22  1  0.63289272  0.87319697  0.36771504  1
  Sr2+  Sr23  1  0.61790716  0.86730019  0.87060023  1
  Sr2+  Sr24  1  0.38552494  0.11641145  0.37727189  1
  Sr2+  Sr25  1  0.37979366  0.11319764  0.87301727  1
  Sr2+  Sr26  1  0.38333383  0.61862078  0.37736148  1
  Sr2+  Sr27  1  0.38468651  0.61961323  0.87651245  1
  Sr2+  Sr28  1  0.88421828  0.11794563  0.38211880  1
  Sr2+  Sr29  1  0.88848033  0.12190247  0.87989032  1
  Sr2+  Sr30  1  0.88268866  0.61686674  0.37345800  1
  Sr2+  Sr31  1  0.87043991  0.61512069  0.86704754  1
  Sr2+  Sr32  1  0.12651773  0.13834548  0.37607981  1
  Sr2+  Sr33  1  0.13537526  0.12564048  0.87959818  1
  Sr2+  Sr34  1  0.13122412  0.61165935  0.37272045  1
  Sr2+  Sr35  1  0.13063012  0.61206662  0.87193759  1
  Sr2+  Sr36  1  0.63347053  0.10538181  0.37560500  1
  Sr2+  Sr37  1  0.64265091  0.11954599  0.86903228  1
  Sr2+  Sr38  1  0.63114015  0.61854873  0.38181648  1
  Sr2+  Sr39  1  0.62757579  0.61226222  0.87421289  1
  Sr2+  Sr40  1  0.38000463  0.35830263  0.37019823  1
  Sr2+  Sr41  1  0.37795950  0.35924209  0.87218641  1
  Sr2+  Sr42  1  0.37766364  0.87635749  0.38036209  1
  Sr2+  Sr43  1  0.37649923  0.86808385  0.87447350  1
  Sr2+  Sr44  1  0.88734242  0.36587805  0.38495217  1
  Sr2+  Sr45  1  0.87853715  0.36244911  0.87477579  1
  Sr2+  Sr46  1  0.87232743  0.86372502  0.36807752  1
  Sr2+  Sr47  1  0.88166461  0.86911248  0.87275758  1
  Sr2+  Sr48  1  0.12209580  0.38983296  0.12859815  1
  Sr2+  Sr49  1  0.11010829  0.38015505  0.62376586  1
  Sr2+  Sr50  1  0.11154429  0.87746283  0.12458305  1
  Sr2+  Sr51  1  0.11642398  0.88235201  0.62241153  1
  Sr2+  Sr52  1  0.61084900  0.37525096  0.11894953  1
  Sr2+  Sr53  1  0.61291755  0.38047292  0.62410897  1
  Sr2+  Sr54  1  0.61835366  0.89298988  0.12786962  1
  Sr2+  Sr55  1  0.60573486  0.88058266  0.63258654  1
  Sr2+  Sr56  1  0.37819230  0.14160268  0.13074475  1
  Sr2+  Sr57  1  0.37269370  0.12944626  0.62893294  1
  Sr2+  Sr58  1  0.36162688  0.62690110  0.12748052  1
  Sr2+  Sr59  1  0.36367903  0.62901035  0.62377732  1
  Sr2+  Sr60  1  0.86098804  0.12660507  0.12553009  1
  Sr2+  Sr61  1  0.86720904  0.12988754  0.62495379  1
  Sr2+  Sr62  1  0.86831146  0.63807321  0.12874543  1
  Sr2+  Sr63  1  0.85678155  0.63609236  0.62901046  1
  Ca2+  Ca64  1  0.50112223  -0.00248506  0.50063007  1
  Ca2+  Ca65  1  -0.00087368  0.50351476  0.00031867  1
  Ca2+  Ca66  1  0.00315040  0.50246751  0.50143120  1
  Ca2+  Ca67  1  0.49994087  0.00193841  0.00002445  1
  Ca2+  Ca68  1  0.00187135  0.00080443  0.49892790  1
  Ca2+  Ca69  1  0.74939755  0.75142813  -0.00170934  1
  Ca2+  Ca70  1  0.25139808  0.25319102  0.00481656  1
  Ca2+  Ca71  1  0.74703559  0.75444335  0.50215574  1
  Ca2+  Ca72  1  0.25007209  0.25229843  0.49769571  1
  Ca2+  Ca73  1  0.74899994  0.24922126  0.49922521  1
  Ca2+  Ca74  1  0.24594026  -0.00176088  0.24990857  1
  Ca2+  Ca75  1  -0.00026025  0.24735274  0.74982661  1
  Ca2+  Ca76  1  0.25182374  0.49822908  0.75032648  1
  Ca2+  Ca77  1  0.74743551  0.49998980  0.74831403  1
  Ca2+  Ca78  1  0.74797057  0.49845828  0.25038579  1
  Ca2+  Ca79  1  0.50142126  0.25308509  0.75337610  1
  Ca2+  Ca80  1  0.50496624  0.25230336  0.25366399  1
  Ca2+  Ca81  1  -0.00333001  0.25037421  0.24711741  1
  Ca2+  Ca82  1  0.24547393  -0.00072453  0.75062176  1
  Ca2+  Ca83  1  0.49719680  0.75108710  0.24905260  1
  Ca2+  Ca84  1  0.75107237  -0.00324981  0.75210962  1
  Nb5+  Nb85  1  0.49678806  0.49789343  -0.00634608  1
  Nb5+  Nb86  1  0.49559023  0.49861067  0.49489038  1
  Nb5+  Nb87  1  0.00125116  0.00159443  -0.00162135  1
  Nb5+  Nb88  1  0.75199116  0.24975162  -0.00066152  1
  Nb5+  Nb89  1  0.25086060  0.75043564  0.00526616  1
  Nb5+  Nb90  1  0.25055851  0.75091554  0.50670621  1
  Nb5+  Nb91  1  -0.00357927  0.74948486  0.75611228  1
  Nb5+  Nb92  1  0.00041073  0.75031045  0.25723545  1
  Nb5+  Nb93  1  0.75216631  0.00155440  0.25021797  1
  Nb5+  Nb94  1  0.25269313  0.50019660  0.25213813  1
  Nb5+  Nb95  1  0.48913492  0.74618082  0.74966454  1
  Nb5+  Nb96  1  0.00046120  -0.00313337  0.25288476  1
  Nb5+  Nb97  1  0.00760331  0.00306234  0.74737496  1
  Nb5+  Nb98  1  -0.00493160  0.50028234  0.24371355  1
  Nb5+  Nb99  1  -0.00205558  0.49723809  0.74968231  1
  Nb5+  Nb100  1  0.49484485  0.00401696  0.24547716  1
  Nb5+  Nb101  1  0.50209205  0.00705591  0.75348658  1
  Nb5+  Nb102  1  0.50341855  0.50015913  0.24733616  1
  Nb5+  Nb103  1  0.49617813  0.50004043  0.74168267  1
  Nb5+  Nb104  1  0.24800824  0.24459504  0.24655139  1
  Nb5+  Nb105  1  0.24937614  0.24844043  0.75196519  1
  Nb5+  Nb106  1  0.25031888  0.74709113  0.25887938  1
  Nb5+  Nb107  1  0.24142845  0.75043076  0.75558517  1
  Nb5+  Nb108  1  0.75188346  0.25068448  0.25533650  1
  Nb5+  Nb109  1  0.75460981  0.25138626  0.74421779  1
  Nb5+  Nb110  1  0.74287048  0.74976836  0.24140962  1
  Nb5+  Nb111  1  0.73882699  0.75152388  0.75074187  1
  Nb5+  Nb112  1  -0.00122256  0.24929816  0.50062290  1
  Nb5+  Nb113  1  -0.00047223  0.25880402  1.00668350  1
  Nb5+  Nb114  1  -0.00412696  0.74544889  0.50830079  1
  Nb5+  Nb115  1  -0.00102582  0.74604907  1.00245957  1
  Nb5+  Nb116  1  0.50317608  0.24472363  0.49643786  1
  Nb5+  Nb117  1  0.50262742  0.24471976  0.99296871  1
  Nb5+  Nb118  1  0.49856441  0.75263910  0.50010437  1
  Nb5+  Nb119  1  0.49633409  0.75136321  1.00249347  1
  Nb5+  Nb120  1  0.25056372  0.00688532  0.00813020  1
  Nb5+  Nb121  1  0.24605643  0.00555727  0.49856383  1
  Nb5+  Nb122  1  0.25155990  0.49920729  -0.00257566  1
  Nb5+  Nb123  1  0.25150978  0.49802442  0.50056877  1
  Nb5+  Nb124  1  0.75041831  -0.00305574  -0.00374309  1
  Nb5+  Nb125  1  0.74725798  -0.00508736  0.50935379  1
  Nb5+  Nb126  1  0.74977374  0.50549013  0.00746738  1
  Nb5+  Nb127  1  0.75404732  0.50515659  0.50107747  1
  O2-  O128  1  0.01393874  0.00265416  0.12171047  1
  O2-  O129  1  0.03311090  0.01842033  0.63640658  1
  O2-  O130  1  0.03180837  0.52079944  0.13343867  1
  O2-  O131  1  0.03125610  0.51411383  0.63521288  1
  O2-  O132  1  0.53087235  0.02073552  0.13180839  1
  O2-  O133  1  0.52620860  0.01179765  0.63554731  1
  O2-  O134  1  0.51619638  0.51576643  0.13128252  1
  O2-  O135  1  0.51455056  0.51760687  0.62757879  1
  O2-  O136  1  -0.02926854  -0.02166526  0.36198600  1
  O2-  O137  1  -0.01661346  -0.02080969  0.88255886  1
  O2-  O138  1  -0.01445150  0.49276649  0.36212689  1
  O2-  O139  1  -0.02988979  0.49433997  0.86735331  1
  O2-  O140  1  0.48470005  -0.01983024  0.36270327  1
  O2-  O141  1  0.47313433  -0.01866310  0.86738157  1
  O2-  O142  1  0.47532081  0.48866523  0.38096964  1
  O2-  O143  1  0.47478864  0.48851164  0.88112822  1
  O2-  O144  1  0.28538594  0.26493640  0.13562282  1
  O2-  O145  1  0.27151906  0.24464870  0.63275263  1
  O2-  O146  1  0.26620853  0.75754855  0.12106125  1
  O2-  O147  1  0.26833201  0.76089887  0.62087623  1
  O2-  O148  1  0.77285904  0.25632214  0.11913624  1
  O2-  O149  1  0.78169966  0.26319081  0.63286994  1
  O2-  O150  1  0.78527179  0.76544553  0.13176315  1
  O2-  O151  1  0.77665226  0.77093979  0.63926825  1
  O2-  O152  1  0.22470086  0.25379681  0.36321410  1
  O2-  O153  1  0.22629472  0.24920904  0.87168859  1
  O2-  O154  1  0.22678051  0.73678020  0.37201384  1
  O2-  O155  1  0.22884093  0.73669438  0.87107290  1
  O2-  O156  1  0.72011039  0.23245109  0.36370044  1
  O2-  O157  1  0.73250683  0.23823994  0.88144596  1
  O2-  O158  1  0.73050096  0.74560015  0.35987826  1
  O2-  O159  1  0.73794853  0.71757449  0.86569485  1
  O2-  O160  1  -0.01837160  0.21459623  0.11385021  1
  O2-  O161  1  -0.01159181  0.21719151  0.61611808  1
  O2-  O162  1  -0.00630201  0.73198084  0.11909932  1
  O2-  O163  1  -0.00924894  0.72471677  0.62329206  1
  O2-  O164  1  0.49565958  0.23732103  0.11188100  1
  O2-  O165  1  0.48257875  0.23607470  0.61589767  1
  O2-  O166  1  0.47840180  0.72168165  0.11296434  1
  O2-  O167  1  0.48199353  0.72541781  0.63286888  1
  O2-  O168  1  0.27631997  0.00488180  0.38246206  1
  O2-  O169  1  0.26108730  0.01030050  0.89029109  1
  O2-  O170  1  0.26579901  0.52198596  0.36885021  1
  O2-  O171  1  0.26657426  0.52598710  0.88667212  1
  O2-  O172  1  0.76876802  0.01838299  0.36385652  1
  O2-  O173  1  0.76956098  0.02786496  0.88620234  1
  O2-  O174  1  0.75606729  0.53145374  0.38267156  1
  O2-  O175  1  0.75493081  0.51349680  0.88918874  1
  O2-  O176  1  0.01614032  0.27532292  0.37963071  1
  O2-  O177  1  0.01173952  0.26614548  0.88877796  1
  O2-  O178  1  0.01227840  0.77129451  0.37023534  1
  O2-  O179  1  0.01443179  0.77194991  0.87024906  1
  O2-  O180  1  0.51519527  0.28732400  0.38660523  1
  O2-  O181  1  0.51663309  0.29221101  0.88660436  1
  O2-  O182  1  0.51284682  0.77097122  0.38730985  1
  O2-  O183  1  0.50370290  0.76180901  0.87468754  1
  O2-  O184  1  0.23483584  -0.03702514  0.11569567  1
  O2-  O185  1  0.23467209  -0.02461272  0.61404305  1
  O2-  O186  1  0.24367499  0.49340562  0.12698521  1
  O2-  O187  1  0.23441993  0.49153702  0.61304924  1
  O2-  O188  1  0.74398248  -0.01175395  0.12037801  1
  O2-  O189  1  0.73023534  -0.03267583  0.61842002  1
  O2-  O190  1  0.72921352  0.46614575  0.11701029  1
  O2-  O191  1  0.73117222  0.47401650  0.61412975  1
  O2-  O192  1  0.13394341  0.27582097  0.22311073  1
  O2-  O193  1  0.13273899  0.28160918  0.73246861  1
  O2-  O194  1  0.12406772  0.76363382  0.23330994  1
  O2-  O195  1  0.12837513  0.76804407  0.73204223  1
  O2-  O196  1  0.63962322  0.26632900  0.21928921  1
  O2-  O197  1  0.63582051  0.27373238  0.73332715  1
  O2-  O198  1  0.63241220  0.77147394  0.21821168  1
  O2-  O199  1  0.62284974  0.76819279  0.73781292  1
  O2-  O200  1  0.36589761  0.22716319  0.27470922  1
  O2-  O201  1  0.36663660  0.22053990  0.77292355  1
  O2-  O202  1  0.36289412  0.72208749  0.26497025  1
  O2-  O203  1  0.37536737  0.72975664  0.76768776  1
  O2-  O204  1  0.86425766  0.21292585  0.26275411  1
  O2-  O205  1  0.86682672  0.22503402  0.77582870  1
  O2-  O206  1  0.88243614  0.72992143  0.26668839  1
  O2-  O207  1  0.88287305  0.73199407  0.76743875  1
  O2-  O208  1  0.26939759  0.38512271  0.25969481  1
  O2-  O209  1  0.28101950  0.36663647  0.75688442  1
  O2-  O210  1  0.27169528  0.86070414  0.26171373  1
  O2-  O211  1  0.27688667  0.86137805  0.75869691  1
  O2-  O212  1  0.78248812  0.36224412  0.26716823  1
  O2-  O213  1  0.77188730  0.36695428  0.77204413  1
  O2-  O214  1  0.76752046  0.87830929  0.25674873  1
  O2-  O215  1  0.76117381  0.86244077  0.78518985  1
  O2-  O216  1  0.22171246  0.13275837  0.23398001  1
  O2-  O217  1  0.21522518  0.13182010  0.74732449  1
  O2-  O218  1  0.22969152  0.62654459  0.23411705  1
  O2-  O219  1  0.23731360  0.63661588  0.72705383  1
  O2-  O220  1  0.73315782  0.11782565  0.22952958  1
  O2-  O221  1  0.72784918  0.13280267  0.73317866  1
  O2-  O222  1  0.73212395  0.63533446  0.22495446  1
  O2-  O223  1  0.73330543  0.63418395  0.72351700  1
  O2-  O224  1  0.13205215  0.48735452  0.26478616  1
  O2-  O225  1  0.11557280  0.48774014  0.78013743  1
  O2-  O226  1  0.11092887  0.96232348  0.26058894  1
  O2-  O227  1  0.11404560  0.96138009  0.77234696  1
  O2-  O228  1  0.61292725  0.47523951  0.27270591  1
  O2-  O229  1  0.60932260  0.48752298  0.77463205  1
  O2-  O230  1  0.63496101  0.98060176  0.26177225  1
  O2-  O231  1  0.61532184  0.97400440  0.77292534  1
  O2-  O232  1  0.38265007  0.02347487  0.22589679  1
  O2-  O233  1  0.38392487  0.01509627  0.72929171  1
  O2-  O234  1  0.37190756  0.52379666  0.23730336  1
  O2-  O235  1  0.38594624  0.53804552  0.74435149  1
  O2-  O236  1  0.87568955  0.00830205  0.22623085  1
  O2-  O237  1  0.88917688  0.00231777  0.72981428  1
  O2-  O238  1  0.88409856  0.52789073  0.22852914  1
  O2-  O239  1  0.88474159  0.53170867  0.72931003  1
  O2-  O240  1  0.47141366  0.38729120  0.23786912  1
  O2-  O241  1  0.47310292  0.38841213  0.73041174  1
  O2-  O242  1  0.48748228  0.88489570  0.22177472  1
  O2-  O243  1  0.48457437  0.86415035  0.73556840  1
  O2-  O244  1  0.98332651  0.38721727  0.22399946  1
  O2-  O245  1  0.97764071  0.38464998  0.73189176  1
  O2-  O246  1  0.98033187  0.86440237  0.22666331  1
  O2-  O247  1  0.98604051  0.86387716  0.72485232  1
  O2-  O248  1  0.02314434  0.10923058  0.26225008  1
  O2-  O249  1  0.01866012  0.11140173  0.78224042  1
  O2-  O250  1  0.02024977  0.63197952  0.26240719  1
  O2-  O251  1  0.02614579  0.63467206  0.76272337  1
  O2-  O252  1  0.52207488  0.11711791  0.27269984  1
  O2-  O253  1  0.52140421  0.11846012  0.77277462  1
  O2-  O254  1  0.51615482  0.61540256  0.27504948  1
  O2-  O255  1  0.52258436  0.63120310  0.76681099  1
  O2-  O256  1  0.13858006  0.47612964  -0.01319084  1
  O2-  O257  1  0.13966229  0.48485314  0.47190921  1
  O2-  O258  1  0.12126393  0.98025432  -0.00930535  1
  O2-  O259  1  0.13429739  0.97049851  0.47830055  1
  O2-  O260  1  0.61598332  0.48398619  -0.01275156  1
  O2-  O261  1  0.61319579  0.48859045  0.48351352  1
  O2-  O262  1  0.63770349  0.97356602  -0.01657706  1
  O2-  O263  1  0.63517879  0.97805063  0.47018109  1
  O2-  O264  1  0.36432122  0.02474992  0.02648859  1
  O2-  O265  1  0.36575307  0.01874508  0.52138417  1
  O2-  O266  1  0.38046044  0.52407309  0.02077281  1
  O2-  O267  1  0.37591099  0.52906204  0.51109476  1
  O2-  O268  1  0.88262679  0.01674716  0.01644907  1
  O2-  O269  1  0.86530740  0.02057903  0.52137399  1
  O2-  O270  1  0.86287520  0.52134870  0.02624342  1
  O2-  O271  1  0.86665474  0.52556043  0.51827740  1
  O2-  O272  1  0.48323881  0.38440214  0.02303574  1
  O2-  O273  1  0.48000249  0.38783232  0.52392796  1
  O2-  O274  1  0.46875625  0.86339859  0.01262960  1
  O2-  O275  1  0.47121112  0.86242802  0.52567126  1
  O2-  O276  1  0.97314971  0.36819801  0.02543114  1
  O2-  O277  1  0.97551650  0.36841648  0.52258665  1
  O2-  O278  1  0.99014193  0.86911166  0.01182777  1
  O2-  O279  1  0.98896230  0.86230304  0.52013934  1
  O2-  O280  1  0.01900212  0.11634937  -0.01703588  1
  O2-  O281  1  0.01672009  0.13274820  0.47003720  1
  O2-  O282  1  0.03322720  0.63743435  -0.01875723  1
  O2-  O283  1  0.03098243  0.63728937  0.47910157  1
  O2-  O284  1  0.52904323  0.13565139  -0.02983617  1
  O2-  O285  1  0.52327881  0.13362979  0.47701137  1
  O2-  O286  1  0.51559437  0.62251685  -0.01760008  1
  O2-  O287  1  0.51264769  0.62691993  0.48964541  1
  O2-  O288  1  0.11399954  0.27079833  0.02487761  1
  O2-  O289  1  0.11662750  0.27188837  0.51897176  1
  O2-  O290  1  0.13102989  0.76840510  0.01189519  1
  O2-  O291  1  0.13148659  0.76689175  0.51562611  1
  O2-  O292  1  0.63169709  0.26752113  0.01462327  1
  O2-  O293  1  0.61612918  0.27634008  0.52223303  1
  O2-  O294  1  0.61059714  0.77000979  0.01459133  1
  O2-  O295  1  0.61039529  0.76516420  0.52979626  1
  O2-  O296  1  0.38809603  0.22811282  -0.02149019  1
  O2-  O297  1  0.38491193  0.23638642  0.47823357  1
  O2-  O298  1  0.36741608  0.72966761  -0.02045772  1
  O2-  O299  1  0.37166916  0.72933784  0.48492522  1
  O2-  O300  1  0.87291247  0.23263048  -0.01794266  1
  O2-  O301  1  0.88132355  0.23456316  0.47557912  1
  O2-  O302  1  0.88837191  0.72590794  -0.01973467  1
  O2-  O303  1  0.88538586  0.72602100  0.48273107  1
  O2-  O304  1  0.28461133  0.38886220  -0.00849302  1
  O2-  O305  1  0.28312960  0.38867209  0.48678070  1
  O2-  O306  1  0.26682700  0.86587280  -0.01766987  1
  O2-  O307  1  0.26872489  0.86380051  0.48106449  1
  O2-  O308  1  0.76822191  0.36982987  -0.01448227  1
  O2-  O309  1  0.76367812  0.38852646  0.47235897  1
  O2-  O310  1  0.78294234  0.88579457  -0.01411693  1
  O2-  O311  1  0.77623520  0.88418143  0.47496930  1
  O2-  O312  1  0.21990779  0.11659990  0.02247475  1
  O2-  O313  1  0.21868435  0.11688058  0.50410467  1
  O2-  O314  1  0.23447509  0.62807141  0.01535637  1
  O2-  O315  1  0.23691317  0.62883501  0.50683043  1
  O2-  O316  1  0.73611309  0.12638293  0.01585166  1
  O2-  O317  1  0.72486762  0.11313790  0.51712602  1
  O2-  O318  1  0.72285203  0.61602766  0.02567027  1
  O2-  O319  1  0.72174148  0.61950724  0.51960477  1
