# generated using pymatgen
data_Sr64Ca21Nb43O192
_symmetry_space_group_name_H-M   'P 1'
_cell_length_a   16.60502439
_cell_length_b   16.58908727
_cell_length_c   16.76508735
_cell_angle_alpha   90.01944450
_cell_angle_beta   89.99148791
_cell_angle_gamma   89.98799403
_symmetry_Int_Tables_number   1
_chemical_formula_structural   Sr64Ca21Nb43O192
_chemical_formula_sum   'Sr64 Ca21 Nb43 O192'
_cell_volume   4618.14740271
_cell_formula_units_Z   1
loop_
 _symmetry_equiv_pos_site_id
 _symmetry_equiv_pos_as_xyz
  1  'x, y, z'
loop_
 _atom_type_symbol
 _atom_type_oxidation_number
  Sr2+  2.0
  Ca2+  2.0
  Nb5+  5.0
  O2-  -2.0
loop_
 _atom_site_type_symbol
 _atom_site_label
 _atom_site_symmetry_multiplicity
 _atom_site_fract_x
 _atom_site_fract_y
 _atom_site_fract_z
 _atom_site_occupancy
  Sr2+  Sr0  1  0.13598888  0.10619629  0.12216881  1
  Sr2+  Sr1  1  0.13289328  0.10854004  0.63280895  1
  Sr2+  Sr2  1  0.12804721  0.63123989  0.12309359  1
  Sr2+  Sr3  1  0.12293799  0.63354517  0.62419715  1
  Sr2+  Sr4  1  0.62385252  0.12807061  0.11712988  1
  Sr2+  Sr5  1  0.62856499  0.12218006  0.62543207  1
  Sr2+  Sr6  1  0.61990922  0.62963006  0.13398117  1
  Sr2+  Sr7  1  0.63154287  0.62482478  0.63504268  1
  Sr2+  Sr8  1  0.37685111  0.36420798  0.11978849  1
  Sr2+  Sr9  1  0.37859336  0.36284206  0.63099467  1
  Sr2+  Sr10  1  0.38232366  0.88557784  0.12710030  1
  Sr2+  Sr11  1  0.38078933  0.88551784  0.62647004  1
  Sr2+  Sr12  1  0.88274597  0.36542126  0.12723663  1
  Sr2+  Sr13  1  0.87982383  0.37546555  0.62809795  1
  Sr2+  Sr14  1  0.87797153  0.88487801  0.12230991  1
  Sr2+  Sr15  1  0.87867801  0.87863974  0.62790799  1
  Sr2+  Sr16  1  0.14031533  0.37876829  0.37157467  1
  Sr2+  Sr17  1  0.14780426  0.37374899  0.87773916  1
  Sr2+  Sr18  1  0.12435779  0.87791623  0.36280835  1
  Sr2+  Sr19  1  0.12389486  0.88081313  0.86109263  1
  Sr2+  Sr20  1  0.64086059  0.37750359  0.38121522  1
  Sr2+  Sr21  1  0.60023794  0.38116494  0.87097164  1
  Sr2+  Sr22  1  0.61829560  0.87869379  0.37880930  1
  Sr2+  Sr23  1  0.62797272  0.87553433  0.88777792  1
  Sr2+  Sr24  1  0.36611876  0.12677351  0.38071149  1
  Sr2+  Sr25  1  0.35733023  0.13406819  0.87460983  1
  Sr2+  Sr26  1  0.36891557  0.61630418  0.37240594  1
  Sr2+  Sr27  1  0.36221097  0.61818349  0.86775721  1
  Sr2+  Sr28  1  0.86530995  0.13710073  0.37138674  1
  Sr2+  Sr29  1  0.87659931  0.12127236  0.87268381  1
  Sr2+  Sr30  1  0.87713749  0.61875412  0.38074170  1
  Sr2+  Sr31  1  0.86539457  0.62344958  0.87779867  1
  Sr2+  Sr32  1  0.11916424  0.13729757  0.37812165  1
  Sr2+  Sr33  1  0.11823127  0.13597967  0.86689892  1
  Sr2+  Sr34  1  0.11899098  0.62705386  0.37218248  1
  Sr2+  Sr35  1  0.11476109  0.61873288  0.88000043  1
  Sr2+  Sr36  1  0.61948133  0.13904558  0.37745918  1
  Sr2+  Sr37  1  0.61093244  0.13979175  0.87449554  1
  Sr2+  Sr38  1  0.62040801  0.63513340  0.37914237  1
  Sr2+  Sr39  1  0.61886945  0.61531940  0.87265187  1
  Sr2+  Sr40  1  0.37054845  0.38349972  0.37566741  1
  Sr2+  Sr41  1  0.37926150  0.36703716  0.87132239  1
  Sr2+  Sr42  1  0.37650246  0.88760005  0.38106983  1
  Sr2+  Sr43  1  0.36379881  0.87621721  0.86858654  1
  Sr2+  Sr44  1  0.87336071  0.37399404  0.37176371  1
  Sr2+  Sr45  1  0.87365611  0.38021726  0.87881121  1
  Sr2+  Sr46  1  0.86336553  0.88959827  0.37220758  1
  Sr2+  Sr47  1  0.86724790  0.88973111  0.87890911  1
  Sr2+  Sr48  1  0.13333373  0.37338359  0.12451381  1
  Sr2+  Sr49  1  0.13432084  0.37396945  0.63566321  1
  Sr2+  Sr50  1  0.14760823  0.87059607  0.12171439  1
  Sr2+  Sr51  1  0.14105531  0.86964791  0.63079122  1
  Sr2+  Sr52  1  0.62822335  0.36720751  0.10944736  1
  Sr2+  Sr53  1  0.63257846  0.37679292  0.63640023  1
  Sr2+  Sr54  1  0.62743409  0.86829703  0.12495801  1
  Sr2+  Sr55  1  0.61792609  0.87092477  0.61933430  1
  Sr2+  Sr56  1  0.38279751  0.11814252  0.11239056  1
  Sr2+  Sr57  1  0.39002713  0.11781924  0.63401386  1
  Sr2+  Sr58  1  0.38284905  0.62820498  0.12994803  1
  Sr2+  Sr59  1  0.37545522  0.64208876  0.62763556  1
  Sr2+  Sr60  1  0.88289459  0.12067700  0.12834637  1
  Sr2+  Sr61  1  0.88839122  0.11574985  0.62657988  1
  Sr2+  Sr62  1  0.88159957  0.62541031  0.12244950  1
  Sr2+  Sr63  1  0.88077707  0.62398434  0.62853763  1
  Ca2+  Ca64  1  0.50256685  -0.00206647  -0.00018721  1
  Ca2+  Ca65  1  0.50104876  0.50223576  0.50235435  1
  Ca2+  Ca66  1  0.00417258  -0.00042749  -0.00017946  1
  Ca2+  Ca67  1  0.49915170  0.50568304  0.00163071  1
  Ca2+  Ca68  1  0.00107584  -0.00119781  0.49747778  1
  Ca2+  Ca69  1  0.75262409  0.25277036  -0.00348439  1
  Ca2+  Ca70  1  0.24454464  0.24788070  0.00323902  1
  Ca2+  Ca71  1  0.24999005  0.24828145  0.50140185  1
  Ca2+  Ca72  1  0.25075293  0.74863652  -0.00103310  1
  Ca2+  Ca73  1  0.24754786  0.74977004  0.49709659  1
  Ca2+  Ca74  1  0.25628450  -0.00016082  0.74935812  1
  Ca2+  Ca75  1  0.74648564  -0.00069286  0.25053258  1
  Ca2+  Ca76  1  0.50000252  0.75338242  0.75121111  1
  Ca2+  Ca77  1  0.74733891  -0.00137318  0.74914538  1
  Ca2+  Ca78  1  -0.00458509  0.74953241  0.75209915  1
  Ca2+  Ca79  1  -0.00277758  0.25353682  0.74688945  1
  Ca2+  Ca80  1  0.74978932  0.50036824  0.24823493  1
  Ca2+  Ca81  1  0.49891363  0.25204778  0.25123449  1
  Ca2+  Ca82  1  0.50228422  0.24908346  0.74589170  1
  Ca2+  Ca83  1  0.24737658  0.50207986  0.74879601  1
  Ca2+  Ca84  1  0.25377608  -0.00093410  0.25195241  1
  Nb5+  Nb85  1  0.00307858  0.49550463  0.50580710  1
  Nb5+  Nb86  1  0.50526628  0.00443685  0.49969531  1
  Nb5+  Nb87  1  -0.00152387  0.49733516  0.00724117  1
  Nb5+  Nb88  1  0.75383768  0.75327713  0.50522757  1
  Nb5+  Nb89  1  0.75131116  0.74725167  0.00717476  1
  Nb5+  Nb90  1  0.75095319  0.25598781  0.50350330  1
  Nb5+  Nb91  1  0.50472675  0.75118116  0.25287887  1
  Nb5+  Nb92  1  0.24964713  0.50127041  0.24631271  1
  Nb5+  Nb93  1  0.00040086  0.25667441  0.25097656  1
  Nb5+  Nb94  1  -0.00118880  0.75381978  0.24885480  1
  Nb5+  Nb95  1  0.75154375  0.49955053  0.75365583  1
  Nb5+  Nb96  1  0.00385448  0.00947487  0.25166198  1
  Nb5+  Nb97  1  -0.00022013  0.00014041  0.74981733  1
  Nb5+  Nb98  1  0.00058548  0.50375012  0.25293045  1
  Nb5+  Nb99  1  -0.00167553  0.49912796  0.76009138  1
  Nb5+  Nb100  1  0.50569248  0.00651518  0.25172964  1
  Nb5+  Nb101  1  0.50740985  -0.00103260  0.75844355  1
  Nb5+  Nb102  1  0.50142900  0.49494760  0.25254214  1
  Nb5+  Nb103  1  0.49274897  0.50552642  0.74436120  1
  Nb5+  Nb104  1  0.25105878  0.24287197  0.24896310  1
  Nb5+  Nb105  1  0.24660081  0.24947942  0.74580679  1
  Nb5+  Nb106  1  0.25869190  0.74680843  0.25007213  1
  Nb5+  Nb107  1  0.24742594  0.74773732  0.75337678  1
  Nb5+  Nb108  1  0.74477433  0.25200805  0.24870502  1
  Nb5+  Nb109  1  0.75238804  0.24783539  0.75314302  1
  Nb5+  Nb110  1  0.75618980  0.74573443  0.25602169  1
  Nb5+  Nb111  1  0.75263682  0.75204879  0.75754564  1
  Nb5+  Nb112  1  0.00312072  0.25347040  0.50033495  1
  Nb5+  Nb113  1  -0.00037762  0.24720919  1.00032355  1
  Nb5+  Nb114  1  -0.00504858  0.75415275  0.49607644  1
  Nb5+  Nb115  1  -0.00443761  0.74924404  0.99887530  1
  Nb5+  Nb116  1  0.49743812  0.25368165  0.49961890  1
  Nb5+  Nb117  1  0.49913899  0.25122783  1.00018206  1
  Nb5+  Nb118  1  0.49684650  0.74922846  0.49833662  1
  Nb5+  Nb119  1  0.49824765  0.74629553  0.99645702  1
  Nb5+  Nb120  1  0.25209033  -0.00240791  -0.00372047  1
  Nb5+  Nb121  1  0.24710120  -0.00351610  0.50015224  1
  Nb5+  Nb122  1  0.25502187  0.50270633  0.00164857  1
  Nb5+  Nb123  1  0.25082534  0.50516612  0.50692005  1
  Nb5+  Nb124  1  0.74780079  0.00829122  -0.00137747  1
  Nb5+  Nb125  1  0.75172442  0.00974902  0.49638693  1
  Nb5+  Nb126  1  0.74934274  0.50257512  0.00330012  1
  Nb5+  Nb127  1  0.75110821  0.50569875  0.50121187  1
  O2-  O128  1  -0.02337935  -0.00288096  0.13638718  1
  O2-  O129  1  -0.02154205  -0.01472501  0.63073327  1
  O2-  O130  1  0.00716795  0.48226629  0.12359284  1
  O2-  O131  1  0.00709393  0.48164115  0.61914168  1
  O2-  O132  1  0.48112661  0.00216987  0.13847779  1
  O2-  O133  1  0.48822106  -0.00703178  0.61586754  1
  O2-  O134  1  0.50347541  0.51776340  0.13820304  1
  O2-  O135  1  0.52421704  0.48856000  0.63299669  1
  O2-  O136  1  0.03568636  0.00779980  0.36603708  1
  O2-  O137  1  0.01917888  0.02247493  0.86679899  1
  O2-  O138  1  -0.00762626  0.51369608  0.36916419  1
  O2-  O139  1  -0.01521335  0.51771759  0.87473993  1
  O2-  O140  1  0.52808548  0.00368355  0.37948119  1
  O2-  O141  1  0.53677400  0.00141808  0.86850980  1
  O2-  O142  1  0.47737285  0.50992861  0.36718050  1
  O2-  O143  1  0.48978144  0.51288823  0.86526438  1
  O2-  O144  1  0.21289045  0.23967353  0.13892680  1
  O2-  O145  1  0.21585460  0.23611533  0.63103596  1
  O2-  O146  1  0.24920682  0.72137775  0.13587592  1
  O2-  O147  1  0.24628080  0.72035514  0.63209433  1
  O2-  O148  1  0.72508229  0.24196257  0.13514478  1
  O2-  O149  1  0.72553875  0.24292153  0.61705420  1
  O2-  O150  1  0.74895616  0.72645309  0.12256441  1
  O2-  O151  1  0.75650633  0.73048800  0.61705496  1
  O2-  O152  1  0.26507385  0.27615449  0.36203242  1
  O2-  O153  1  0.26731055  0.26942548  0.86742209  1
  O2-  O154  1  0.22971142  0.75992866  0.36107615  1
  O2-  O155  1  0.24610294  0.77896636  0.86849891  1
  O2-  O156  1  0.76717886  0.26491737  0.38093143  1
  O2-  O157  1  0.78590329  0.25749110  0.86274679  1
  O2-  O158  1  0.75087917  0.76228823  0.37117241  1
  O2-  O159  1  0.75000811  0.76360163  0.87332960  1
  O2-  O160  1  0.01253520  0.27263004  0.13597272  1
  O2-  O161  1  0.00866544  0.28550756  0.60959403  1
  O2-  O162  1  -0.02317561  0.75324013  0.13272533  1
  O2-  O163  1  -0.01560723  0.75672462  0.61021392  1
  O2-  O164  1  0.52490200  0.25997098  0.11866465  1
  O2-  O165  1  0.52880310  0.26029535  0.61214818  1
  O2-  O166  1  0.49669099  0.73957707  0.13538981  1
  O2-  O167  1  0.48895456  0.76425362  0.61296590  1
  O2-  O168  1  0.24412714  -0.03423781  0.38410690  1
  O2-  O169  1  0.24334699  -0.03116059  0.88181677  1
  O2-  O170  1  0.25741675  0.48640407  0.36824938  1
  O2-  O171  1  0.26877476  0.48049259  0.88755144  1
  O2-  O172  1  0.73448712  -0.02818896  0.38568995  1
  O2-  O173  1  0.74070412  -0.02688340  0.88456522  1
  O2-  O174  1  0.76801921  0.48762487  0.38579911  1
  O2-  O175  1  0.76830120  0.49119923  0.87062774  1
  O2-  O176  1  -0.02259182  0.24105141  0.37401478  1
  O2-  O177  1  -0.02006208  0.23449278  0.88782651  1
  O2-  O178  1  -0.00309352  0.72555939  0.36751317  1
  O2-  O179  1  0.00012713  0.72164634  0.88840008  1
  O2-  O180  1  0.48728551  0.22457028  0.38473964  1
  O2-  O181  1  0.48212203  0.24019084  0.88138119  1
  O2-  O182  1  0.51296320  0.75092675  0.37461577  1
  O2-  O183  1  0.51437793  0.76081376  0.88543405  1
  O2-  O184  1  0.26843749  0.02462954  0.11846288  1
  O2-  O185  1  0.27701253  0.02260427  0.61260551  1
  O2-  O186  1  0.22877005  0.51789500  0.12942038  1
  O2-  O187  1  0.21792757  0.51486852  0.61530716  1
  O2-  O188  1  0.76914349  0.01481798  0.11628400  1
  O2-  O189  1  0.77018652  0.00900131  0.61120088  1
  O2-  O190  1  0.73694299  0.52817475  0.11338641  1
  O2-  O191  1  0.74456281  0.51415381  0.62441097  1
  O2-  O192  1  0.11606395  0.26354578  0.27536776  1
  O2-  O193  1  0.12914365  0.27423740  0.77039436  1
  O2-  O194  1  0.11394233  0.76325121  0.23948838  1
  O2-  O195  1  0.12850950  0.77261516  0.74477777  1
  O2-  O196  1  0.63484797  0.27313830  0.27468614  1
  O2-  O197  1  0.63892229  0.28313796  0.76321415  1
  O2-  O198  1  0.62149276  0.76852066  0.24773686  1
  O2-  O199  1  0.63854049  0.76258563  0.73147943  1
  O2-  O200  1  0.36256876  0.22853273  0.22386106  1
  O2-  O201  1  0.36577167  0.23555888  0.72553964  1
  O2-  O202  1  0.37308227  0.72403589  0.26099619  1
  O2-  O203  1  0.36614439  0.71990366  0.75876860  1
  O2-  O204  1  0.88097275  0.23119879  0.23711260  1
  O2-  O205  1  0.86175097  0.23706213  0.71194472  1
  O2-  O206  1  0.86996133  0.71768598  0.25470909  1
  O2-  O207  1  0.86307159  0.71387990  0.74880825  1
  O2-  O208  1  0.25816670  0.38154365  0.23006937  1
  O2-  O209  1  0.26460742  0.36992076  0.72536854  1
  O2-  O210  1  0.26678446  0.86035304  0.22843497  1
  O2-  O211  1  0.27222358  0.86420318  0.72533512  1
  O2-  O212  1  0.77909744  0.36559567  0.24220354  1
  O2-  O213  1  0.76932740  0.38256510  0.73253640  1
  O2-  O214  1  0.76892827  0.85870706  0.22783333  1
  O2-  O215  1  0.77997862  0.86181344  0.73708525  1
  O2-  O216  1  0.22902728  0.13314659  0.27549974  1
  O2-  O217  1  0.23002777  0.13298626  0.76875870  1
  O2-  O218  1  0.22673842  0.62066289  0.26628417  1
  O2-  O219  1  0.22328846  0.63170821  0.78179211  1
  O2-  O220  1  0.74190166  0.13572783  0.27336137  1
  O2-  O221  1  0.72330453  0.13635529  0.75963435  1
  O2-  O222  1  0.71724023  0.63436866  0.26194490  1
  O2-  O223  1  0.72821637  0.62031387  0.76189091  1
  O2-  O224  1  0.12101782  0.48199690  0.25631981  1
  O2-  O225  1  0.11072166  0.47294542  0.76589523  1
  O2-  O226  1  0.11577646  0.97253280  0.22797712  1
  O2-  O227  1  0.11885192  0.97820311  0.73136142  1
  O2-  O228  1  0.61315342  0.46921250  0.26013273  1
  O2-  O229  1  0.63368029  0.48228128  0.76138956  1
  O2-  O230  1  0.61329035  0.95997312  0.24220691  1
  O2-  O231  1  0.61724994  0.96956074  0.72386427  1
  O2-  O232  1  0.39063055  0.01254578  0.28207350  1
  O2-  O233  1  0.39062942  0.03188378  0.76534421  1
  O2-  O234  1  0.36393088  0.52494132  0.24024330  1
  O2-  O235  1  0.38111315  0.52908776  0.72733873  1
  O2-  O236  1  0.88748904  0.01133614  0.27750604  1
  O2-  O237  1  0.88119168  0.02580791  0.76358508  1
  O2-  O238  1  0.88617476  0.51686150  0.23560243  1
  O2-  O239  1  0.87124728  0.52342702  0.74076082  1
  O2-  O240  1  0.46090613  0.38628286  0.24892902  1
  O2-  O241  1  0.47972693  0.38556279  0.75788205  1
  O2-  O242  1  0.47254148  0.86485302  0.25604861  1
  O2-  O243  1  0.46827793  0.88652549  0.75423928  1
  O2-  O244  1  0.98297297  0.37554401  0.26296807  1
  O2-  O245  1  0.96198674  0.38753555  0.75724009  1
  O2-  O246  1  0.97807873  0.86580277  0.26555900  1
  O2-  O247  1  0.97746541  0.88362802  0.77374918  1
  O2-  O248  1  0.01897808  0.12669545  0.24006735  1
  O2-  O249  1  0.01865172  0.12039352  0.72709321  1
  O2-  O250  1  0.01887558  0.61979894  0.23560028  1
  O2-  O251  1  0.01535910  0.61100398  0.72710322  1
  O2-  O252  1  0.53731948  0.11646486  0.24584939  1
  O2-  O253  1  0.53071111  0.11592016  0.73572727  1
  O2-  O254  1  0.51635785  0.62896080  0.26051934  1
  O2-  O255  1  0.52899230  0.61898174  0.74274188  1
  O2-  O256  1  0.11222240  0.48462161  -0.01639734  1
  O2-  O257  1  0.11680609  0.47586122  0.48654772  1
  O2-  O258  1  0.13547667  0.97630180  0.02075000  1
  O2-  O259  1  0.13607219  0.98307878  0.52570639  1
  O2-  O260  1  0.63704160  0.48183287  -0.01835295  1
  O2-  O261  1  0.63858547  0.47885565  0.49281385  1
  O2-  O262  1  0.63784197  0.96938728  0.01930955  1
  O2-  O263  1  0.62938384  0.98260204  0.51592212  1
  O2-  O264  1  0.37028853  0.02287894  -0.01856272  1
  O2-  O265  1  0.38951640  0.01265528  0.47810470  1
  O2-  O266  1  0.36403648  0.52739522  0.01981282  1
  O2-  O267  1  0.36262049  0.53364292  0.51385174  1
  O2-  O268  1  0.86722455  0.01741796  -0.01843303  1
  O2-  O269  1  0.86606426  0.01949655  0.47304877  1
  O2-  O270  1  0.87567068  0.52333765  0.00281292  1
  O2-  O271  1  0.87594596  0.51539553  0.51115958  1
  O2-  O272  1  0.47580393  0.37189367  -0.00464545  1
  O2-  O273  1  0.47850962  0.36595148  0.48439150  1
  O2-  O274  1  0.49131121  0.86071113  0.02307173  1
  O2-  O275  1  0.49676957  0.87460252  0.48853079  1
  O2-  O276  1  0.96993253  0.38242114  -0.00579058  1
  O2-  O277  1  0.97361364  0.38133030  0.48036945  1
  O2-  O278  1  0.97078441  0.86126199  -0.00849181  1
  O2-  O279  1  0.96705525  0.86273635  0.47573631  1
  O2-  O280  1  0.02497448  0.13794644  0.02326662  1
  O2-  O281  1  0.01552717  0.13934438  0.51691008  1
  O2-  O282  1  0.01047828  0.61898661  0.02322196  1
  O2-  O283  1  0.01317568  0.61700819  0.50559007  1
  O2-  O284  1  0.52476225  0.13349469  0.00787199  1
  O2-  O285  1  0.52662025  0.11984087  0.50932212  1
  O2-  O286  1  0.54072539  0.63719883  0.00654012  1
  O2-  O287  1  0.53224593  0.63851250  0.50583468  1
  O2-  O288  1  0.10941345  0.28628606  -0.00751575  1
  O2-  O289  1  0.11284702  0.26974783  0.47228899  1
  O2-  O290  1  0.10915905  0.76083542  0.01853153  1
  O2-  O291  1  0.10885220  0.77077751  0.49573556  1
  O2-  O292  1  0.61819360  0.27797537  -0.02073606  1
  O2-  O293  1  0.63075172  0.26232998  0.47688313  1
  O2-  O294  1  0.63588006  0.77030473  0.00479791  1
  O2-  O295  1  0.63588638  0.76725402  0.49595542  1
  O2-  O296  1  0.38089009  0.23569993  0.02289490  1
  O2-  O297  1  0.38683867  0.22660125  0.52402277  1
  O2-  O298  1  0.38722844  0.71543531  -0.00690249  1
  O2-  O299  1  0.38547180  0.72684519  0.48260290  1
  O2-  O300  1  0.88489521  0.23911914  0.03361389  1
  O2-  O301  1  0.86849570  0.23175842  0.51162911  1
  O2-  O302  1  0.87227000  0.72024375  0.00202622  1
  O2-  O303  1  0.86997853  0.72053311  0.48844833  1
  O2-  O304  1  0.25397583  0.38754620  0.02851316  1
  O2-  O305  1  0.27082231  0.38750431  0.50922220  1
  O2-  O306  1  0.27623550  0.88077368  0.02577210  1
  O2-  O307  1  0.27877199  0.88128965  0.51888128  1
  O2-  O308  1  0.77343284  0.38946902  0.01898295  1
  O2-  O309  1  0.76680572  0.37266272  0.51484451  1
  O2-  O310  1  0.77711353  0.86153894  0.01224393  1
  O2-  O311  1  0.77503038  0.86654746  0.51270763  1
  O2-  O312  1  0.22433434  0.11545230  -0.02404622  1
  O2-  O313  1  0.24060051  0.11291946  0.46822255  1
  O2-  O314  1  0.21750882  0.61335494  -0.01334169  1
  O2-  O315  1  0.21904125  0.61442200  0.47627682  1
  O2-  O316  1  0.72060155  0.11844184  -0.01779807  1
  O2-  O317  1  0.73162837  0.12501704  0.48489451  1
  O2-  O318  1  0.73801422  0.62708311  -0.02702069  1
  O2-  O319  1  0.73491357  0.62203538  0.48630015  1
