# generated using pymatgen
data_Sr64Ca21Nb43O192
_symmetry_space_group_name_H-M   'P 1'
_cell_length_a   16.60297177
_cell_length_b   16.58449375
_cell_length_c   16.77399966
_cell_angle_alpha   89.99231281
_cell_angle_beta   90.04760621
_cell_angle_gamma   89.94155193
_symmetry_Int_Tables_number   1
_chemical_formula_structural   Sr64Ca21Nb43O192
_chemical_formula_sum   'Sr64 Ca21 Nb43 O192'
_cell_volume   4618.74832952
_cell_formula_units_Z   1
loop_
 _symmetry_equiv_pos_site_id
 _symmetry_equiv_pos_as_xyz
  1  'x, y, z'
loop_
 _atom_type_symbol
 _atom_type_oxidation_number
  Sr2+  2.0
  Ca2+  2.0
  Nb5+  5.0
  O2-  -2.0
loop_
 _atom_site_type_symbol
 _atom_site_label
 _atom_site_symmetry_multiplicity
 _atom_site_fract_x
 _atom_site_fract_y
 _atom_site_fract_z
 _atom_site_occupancy
  Sr2+  Sr0  1  0.12630058  0.12098584  0.12145391  1
  Sr2+  Sr1  1  0.12726861  0.11326166  0.63427988  1
  Sr2+  Sr2  1  0.12631507  0.62800670  0.11612280  1
  Sr2+  Sr3  1  0.12929958  0.62774277  0.64713824  1
  Sr2+  Sr4  1  0.62171891  0.11522068  0.12602984  1
  Sr2+  Sr5  1  0.61402395  0.10958114  0.62803692  1
  Sr2+  Sr6  1  0.62397586  0.61697450  0.11076792  1
  Sr2+  Sr7  1  0.61994484  0.62196472  0.63189391  1
  Sr2+  Sr8  1  0.36923950  0.38230640  0.12449826  1
  Sr2+  Sr9  1  0.37287795  0.39468638  0.62591372  1
  Sr2+  Sr10  1  0.37050142  0.87318031  0.12909423  1
  Sr2+  Sr11  1  0.37059117  0.88170314  0.61651726  1
  Sr2+  Sr12  1  0.86439867  0.37976656  0.11830609  1
  Sr2+  Sr13  1  0.86217705  0.37873243  0.64013010  1
  Sr2+  Sr14  1  0.86985920  0.86676892  0.12317057  1
  Sr2+  Sr15  1  0.87022399  0.86452109  0.62438081  1
  Sr2+  Sr16  1  0.11500600  0.37443399  0.37305903  1
  Sr2+  Sr17  1  0.10487182  0.37749525  0.87863856  1
  Sr2+  Sr18  1  0.12296022  0.87656592  0.37456849  1
  Sr2+  Sr19  1  0.13015556  0.86984173  0.87595180  1
  Sr2+  Sr20  1  0.64188785  0.37865564  0.37899155  1
  Sr2+  Sr21  1  0.65215295  0.37944341  0.87266580  1
  Sr2+  Sr22  1  0.63938798  0.88607422  0.37461985  1
  Sr2+  Sr23  1  0.63789446  0.87442645  0.87706400  1
  Sr2+  Sr24  1  0.38007425  0.13284654  0.37573379  1
  Sr2+  Sr25  1  0.38629064  0.13427237  0.87804744  1
  Sr2+  Sr26  1  0.37979905  0.62272781  0.37179611  1
  Sr2+  Sr27  1  0.39298179  0.63647291  0.87237744  1
  Sr2+  Sr28  1  0.88837369  0.12988772  0.37456718  1
  Sr2+  Sr29  1  0.88387195  0.13376021  0.86551392  1
  Sr2+  Sr30  1  0.88047687  0.62424651  0.37951386  1
  Sr2+  Sr31  1  0.87902595  0.62835953  0.85926287  1
  Sr2+  Sr32  1  0.12914107  0.13537117  0.37214373  1
  Sr2+  Sr33  1  0.13022665  0.13842472  0.87507395  1
  Sr2+  Sr34  1  0.13076888  0.63073198  0.37369076  1
  Sr2+  Sr35  1  0.12284946  0.61000505  0.87460622  1
  Sr2+  Sr36  1  0.63592170  0.13307530  0.37587751  1
  Sr2+  Sr37  1  0.62452778  0.14752528  0.86710490  1
  Sr2+  Sr38  1  0.63436332  0.62607404  0.38306313  1
  Sr2+  Sr39  1  0.63718780  0.62673886  0.86715633  1
  Sr2+  Sr40  1  0.37125129  0.38074754  0.37402486  1
  Sr2+  Sr41  1  0.37629584  0.36772402  0.88488610  1
  Sr2+  Sr42  1  0.37642305  0.87956581  0.37006552  1
  Sr2+  Sr43  1  0.38369717  0.87997771  0.89447411  1
  Sr2+  Sr44  1  0.88164892  0.36757179  0.37992222  1
  Sr2+  Sr45  1  0.87812152  0.37980522  0.87252389  1
  Sr2+  Sr46  1  0.88050770  0.87795877  0.37565522  1
  Sr2+  Sr47  1  0.87835908  0.89072837  0.87914552  1
  Sr2+  Sr48  1  0.11930027  0.37865675  0.11735208  1
  Sr2+  Sr49  1  0.12848112  0.38140983  0.65178927  1
  Sr2+  Sr50  1  0.11411144  0.86756791  0.12126481  1
  Sr2+  Sr51  1  0.12677968  0.86646511  0.63144366  1
  Sr2+  Sr52  1  0.62700153  0.37538668  0.10942054  1
  Sr2+  Sr53  1  0.62058046  0.38341803  0.63977034  1
  Sr2+  Sr54  1  0.62016459  0.86475625  0.12187625  1
  Sr2+  Sr55  1  0.61252540  0.86759380  0.62844482  1
  Sr2+  Sr56  1  0.37326641  0.12360297  0.11656898  1
  Sr2+  Sr57  1  0.37597918  0.12564585  0.63176774  1
  Sr2+  Sr58  1  0.39169229  0.62528987  0.12782823  1
  Sr2+  Sr59  1  0.38918890  0.62823976  0.61811448  1
  Sr2+  Sr60  1  0.86070947  0.11924518  0.12498213  1
  Sr2+  Sr61  1  0.86644587  0.11640158  0.63269997  1
  Sr2+  Sr62  1  0.86159409  0.62682036  0.12365049  1
  Sr2+  Sr63  1  0.84878635  0.63092588  0.62703049  1
  Ca2+  Ca64  1  -0.00044095  0.00250138  0.00358586  1
  Ca2+  Ca65  1  0.00377442  0.49892668  0.50503867  1
  Ca2+  Ca66  1  0.00070649  0.50285862  0.00492835  1
  Ca2+  Ca67  1  0.50335216  -0.00045979  0.00310087  1
  Ca2+  Ca68  1  0.49961257  0.49875053  -0.00196522  1
  Ca2+  Ca69  1  0.25207043  0.74916352  0.00183178  1
  Ca2+  Ca70  1  0.74759711  0.75321763  0.49888007  1
  Ca2+  Ca71  1  0.75139292  0.24870935  0.50379891  1
  Ca2+  Ca72  1  0.75394302  0.24654601  -0.00132295  1
  Ca2+  Ca73  1  0.75334533  0.75244119  -0.00124581  1
  Ca2+  Ca74  1  0.00182322  0.24918137  0.74591422  1
  Ca2+  Ca75  1  0.25610892  0.50367133  0.75470630  1
  Ca2+  Ca76  1  0.74634484  0.00131783  0.74917683  1
  Ca2+  Ca77  1  0.49878070  0.25125747  0.74569788  1
  Ca2+  Ca78  1  0.75086445  0.50380826  0.75013774  1
  Ca2+  Ca79  1  0.25157335  -0.00012624  0.75115231  1
  Ca2+  Ca80  1  0.74981768  0.49850977  0.24937018  1
  Ca2+  Ca81  1  -0.00042657  0.75468783  0.74778118  1
  Ca2+  Ca82  1  0.50044405  0.74648595  0.25259535  1
  Ca2+  Ca83  1  0.49664391  0.24986095  0.25054449  1
  Ca2+  Ca84  1  0.49673678  0.75536166  0.74865128  1
  Nb5+  Nb85  1  0.50271769  0.50199287  0.49604419  1
  Nb5+  Nb86  1  0.50409530  0.00202341  0.49347905  1
  Nb5+  Nb87  1  0.00512273  0.00050188  0.50137899  1
  Nb5+  Nb88  1  0.24685137  0.25295354  0.50557894  1
  Nb5+  Nb89  1  0.24876908  0.75247031  0.49898748  1
  Nb5+  Nb90  1  0.24966789  0.25127082  0.00695133  1
  Nb5+  Nb91  1  0.24706131  0.50693742  0.25014038  1
  Nb5+  Nb92  1  0.25212433  0.00421749  0.25159342  1
  Nb5+  Nb93  1  -0.00167346  0.75305906  0.25149528  1
  Nb5+  Nb94  1  -0.00032512  0.25319091  0.24554098  1
  Nb5+  Nb95  1  0.75857594  -0.00036973  0.25216017  1
  Nb5+  Nb96  1  0.00453262  0.00312058  0.25106716  1
  Nb5+  Nb97  1  0.00426184  -0.00281552  0.75621706  1
  Nb5+  Nb98  1  0.00022258  0.50751793  0.25222441  1
  Nb5+  Nb99  1  0.00092265  0.50292890  0.74808552  1
  Nb5+  Nb100  1  0.50661334  -0.00143362  0.25131884  1
  Nb5+  Nb101  1  0.50034975  -0.00522337  0.75758724  1
  Nb5+  Nb102  1  0.50443773  0.49382799  0.25113201  1
  Nb5+  Nb103  1  0.49550654  0.49917992  0.75650712  1
  Nb5+  Nb104  1  0.24949576  0.25434069  0.25287651  1
  Nb5+  Nb105  1  0.25171253  0.25059198  0.75977160  1
  Nb5+  Nb106  1  0.24713439  0.75312570  0.25035269  1
  Nb5+  Nb107  1  0.25445968  0.75514586  0.75764971  1
  Nb5+  Nb108  1  0.74810262  0.25299089  0.25385031  1
  Nb5+  Nb109  1  0.75005274  0.24958699  0.74470021  1
  Nb5+  Nb110  1  0.74435606  0.74774919  0.25190800  1
  Nb5+  Nb111  1  0.74873600  0.75722135  0.75151513  1
  Nb5+  Nb112  1  0.00283221  0.24498339  0.50510652  1
  Nb5+  Nb113  1  -0.00216352  0.24723162  1.00222720  1
  Nb5+  Nb114  1  0.00206301  0.74504073  0.49915560  1
  Nb5+  Nb115  1  -0.00141528  0.75413641  0.99449896  1
  Nb5+  Nb116  1  0.49998789  0.25599818  0.49690194  1
  Nb5+  Nb117  1  0.50602485  0.25099959  0.99921226  1
  Nb5+  Nb118  1  0.49926776  0.75639989  0.49239164  1
  Nb5+  Nb119  1  0.50216141  0.74855166  0.99947878  1
  Nb5+  Nb120  1  0.24739429  -0.00031009  -0.00217657  1
  Nb5+  Nb121  1  0.25115794  0.00408110  0.49404193  1
  Nb5+  Nb122  1  0.25406951  0.50202198  -0.00324875  1
  Nb5+  Nb123  1  0.24747624  0.50513124  0.49751141  1
  Nb5+  Nb124  1  0.74517052  0.00681042  -0.00727352  1
  Nb5+  Nb125  1  0.75923826  0.00202786  0.49880768  1
  Nb5+  Nb126  1  0.75483797  0.50087966  0.00065402  1
  Nb5+  Nb127  1  0.75545027  0.50311040  0.50016957  1
  O2-  O128  1  -0.02378286  0.01419630  0.14130643  1
  O2-  O129  1  -0.01122388  0.02635095  0.61069901  1
  O2-  O130  1  0.03607184  0.50893729  0.14217764  1
  O2-  O131  1  0.03693487  0.50985973  0.63438985  1
  O2-  O132  1  0.48491419  0.02459126  0.14146240  1
  O2-  O133  1  0.47525169  0.01378795  0.60436009  1
  O2-  O134  1  0.51128234  0.51654113  0.13792262  1
  O2-  O135  1  0.51482971  0.51229281  0.61239385  1
  O2-  O136  1  0.00600695  -0.01835944  0.37202248  1
  O2-  O137  1  0.01683815  -0.02909054  0.86686388  1
  O2-  O138  1  -0.01324471  0.47516048  0.36492236  1
  O2-  O139  1  -0.01640553  0.48827632  0.86938347  1
  O2-  O140  1  0.50517208  -0.03191620  0.37689599  1
  O2-  O141  1  0.51336867  -0.03442811  0.86661825  1
  O2-  O142  1  0.48590209  0.47529165  0.38036473  1
  O2-  O143  1  0.46727844  0.48815384  0.86589530  1
  O2-  O144  1  0.23216972  0.25395950  0.12581906  1
  O2-  O145  1  0.22762358  0.24589447  0.61682971  1
  O2-  O146  1  0.22229596  0.75540543  0.13805260  1
  O2-  O147  1  0.22726252  0.74286448  0.61087182  1
  O2-  O148  1  0.74512145  0.27047699  0.13823247  1
  O2-  O149  1  0.73749796  0.28581715  0.63100737  1
  O2-  O150  1  0.74521944  0.78016832  0.13900697  1
  O2-  O151  1  0.73862070  0.78214653  0.63149719  1
  O2-  O152  1  0.25984792  0.24449576  0.36904483  1
  O2-  O153  1  0.26536365  0.24668102  0.87734831  1
  O2-  O154  1  0.26191641  0.74022574  0.37341353  1
  O2-  O155  1  0.27142370  0.77576521  0.86763081  1
  O2-  O156  1  0.77198141  0.22257805  0.36676930  1
  O2-  O157  1  0.76394626  0.22260985  0.86390751  1
  O2-  O158  1  0.77450761  0.72990160  0.36448181  1
  O2-  O159  1  0.75949021  0.72360341  0.86657841  1
  O2-  O160  1  0.02463018  0.23297728  0.13247032  1
  O2-  O161  1  0.03378969  0.23081902  0.61197678  1
  O2-  O162  1  0.02325142  0.73663567  0.14006176  1
  O2-  O163  1  0.03119082  0.74190789  0.60922776  1
  O2-  O164  1  0.51433688  0.22808017  0.11620331  1
  O2-  O165  1  0.50204838  0.21799805  0.60608100  1
  O2-  O166  1  0.51766685  0.72505901  0.11940659  1
  O2-  O167  1  0.51140956  0.72924679  0.60662876  1
  O2-  O168  1  0.22386121  -0.00367793  0.37171172  1
  O2-  O169  1  0.21826795  -0.00079508  0.88714840  1
  O2-  O170  1  0.27101270  0.50062905  0.37299627  1
  O2-  O171  1  0.28386019  0.49851112  0.88804321  1
  O2-  O172  1  0.73233739  0.01762492  0.37232148  1
  O2-  O173  1  0.71194984  0.02278900  0.88512170  1
  O2-  O174  1  0.75272677  0.52937262  0.38231165  1
  O2-  O175  1  0.76812473  0.52279263  0.88408165  1
  O2-  O176  1  -0.00808132  0.25714603  0.36733335  1
  O2-  O177  1  -0.01548364  0.26290892  0.88771742  1
  O2-  O178  1  -0.01463686  0.76760593  0.37409030  1
  O2-  O179  1  -0.02262656  0.77230076  0.88435587  1
  O2-  O180  1  0.46235668  0.25781239  0.38644583  1
  O2-  O181  1  0.47607077  0.25806922  0.88279446  1
  O2-  O182  1  0.46066446  0.75396083  0.38343718  1
  O2-  O183  1  0.47845130  0.76687598  0.88291578  1
  O2-  O184  1  0.27212903  0.00072484  0.13721944  1
  O2-  O185  1  0.26581524  0.00656545  0.60719437  1
  O2-  O186  1  0.22910236  0.48940641  0.13677784  1
  O2-  O187  1  0.23560115  0.49856707  0.61149126  1
  O2-  O188  1  0.77428287  -0.01484115  0.13907191  1
  O2-  O189  1  0.77227267  -0.01711178  0.61094503  1
  O2-  O190  1  0.73453901  0.47383365  0.11927916  1
  O2-  O191  1  0.73659953  0.48011838  0.61436658  1
  O2-  O192  1  0.12639266  0.25465857  0.26350473  1
  O2-  O193  1  0.13439476  0.27752440  0.76973278  1
  O2-  O194  1  0.12183327  0.75733847  0.27598194  1
  O2-  O195  1  0.13429379  0.77833497  0.75767979  1
  O2-  O196  1  0.63437827  0.25931570  0.27250247  1
  O2-  O197  1  0.63305057  0.27144775  0.76718550  1
  O2-  O198  1  0.63374230  0.77001558  0.27417500  1
  O2-  O199  1  0.63024262  0.77742490  0.76168366  1
  O2-  O200  1  0.35862117  0.22322659  0.23320728  1
  O2-  O201  1  0.36468274  0.22392759  0.74049379  1
  O2-  O202  1  0.36006546  0.73605887  0.23266182  1
  O2-  O203  1  0.36390012  0.72240762  0.72979849  1
  O2-  O204  1  0.88481773  0.23146302  0.23532454  1
  O2-  O205  1  0.86949596  0.23116059  0.72727774  1
  O2-  O206  1  0.88151967  0.74070855  0.23695441  1
  O2-  O207  1  0.86682382  0.73585297  0.72969394  1
  O2-  O208  1  0.26013047  0.37114322  0.25471823  1
  O2-  O209  1  0.27177153  0.36488665  0.73529210  1
  O2-  O210  1  0.25523800  0.87385033  0.25807114  1
  O2-  O211  1  0.26817437  0.86734386  0.72110674  1
  O2-  O212  1  0.77351879  0.36361307  0.27688805  1
  O2-  O213  1  0.77447713  0.36946114  0.77025246  1
  O2-  O214  1  0.76320861  0.88156287  0.27454471  1
  O2-  O215  1  0.76982705  0.87155439  0.78237089  1
  O2-  O216  1  0.22742441  0.11948473  0.24956828  1
  O2-  O217  1  0.22222156  0.13581262  0.74722829  1
  O2-  O218  1  0.22878428  0.62407892  0.24896168  1
  O2-  O219  1  0.22370076  0.63801089  0.76345196  1
  O2-  O220  1  0.73784267  0.11976183  0.23394776  1
  O2-  O221  1  0.73075200  0.13464875  0.71663726  1
  O2-  O222  1  0.73246494  0.63572516  0.22524511  1
  O2-  O223  1  0.72861714  0.63693852  0.72816819  1
  O2-  O224  1  0.12999110  0.49153133  0.27894659  1
  O2-  O225  1  0.12214601  0.48261184  0.77387621  1
  O2-  O226  1  0.12048254  0.98584071  0.23590426  1
  O2-  O227  1  0.11713401  0.98513573  0.72017769  1
  O2-  O228  1  0.61455438  0.46514779  0.26074837  1
  O2-  O229  1  0.61526922  0.48202541  0.76163243  1
  O2-  O230  1  0.62314113  0.98391470  0.24050618  1
  O2-  O231  1  0.61350168  0.98227809  0.71708391  1
  O2-  O232  1  0.36503547  0.01097417  0.27562667  1
  O2-  O233  1  0.38504816  0.02608430  0.76290796  1
  O2-  O234  1  0.36500080  0.51980179  0.24119568  1
  O2-  O235  1  0.38499755  0.52030873  0.71770121  1
  O2-  O236  1  0.87434407  0.01166883  0.27433365  1
  O2-  O237  1  0.88578600  0.02348178  0.76144530  1
  O2-  O238  1  0.88766784  0.51063754  0.22927354  1
  O2-  O239  1  0.88524832  0.52431836  0.72628443  1
  O2-  O240  1  0.46138620  0.38348730  0.24282925  1
  O2-  O241  1  0.48509107  0.38469069  0.72215214  1
  O2-  O242  1  0.47522205  0.88431932  0.23812602  1
  O2-  O243  1  0.47707313  0.88655587  0.71514163  1
  O2-  O244  1  0.99686403  0.36902757  0.23519689  1
  O2-  O245  1  0.98325216  0.38360328  0.73396604  1
  O2-  O246  1  0.99167749  0.87312157  0.24073713  1
  O2-  O247  1  0.98102824  0.88800917  0.71726058  1
  O2-  O248  1  0.01474398  0.11981161  0.26728463  1
  O2-  O249  1  0.02445114  0.11599691  0.76655182  1
  O2-  O250  1  0.00765268  0.62453766  0.27455814  1
  O2-  O251  1  0.02002875  0.62127096  0.76813839  1
  O2-  O252  1  0.50899698  0.11110489  0.28477263  1
  O2-  O253  1  0.52493611  0.11306445  0.75784705  1
  O2-  O254  1  0.50814620  0.60849462  0.28271195  1
  O2-  O255  1  0.51844524  0.61744554  0.76129549  1
  O2-  O256  1  0.13900595  0.47271992  -0.00949760  1
  O2-  O257  1  0.13773138  0.48546579  0.47235237  1
  O2-  O258  1  0.13691864  0.99031170  0.03841186  1
  O2-  O259  1  0.12285526  0.98367151  0.50848800  1
  O2-  O260  1  0.63466028  0.47885329  -0.01150040  1
  O2-  O261  1  0.61818637  0.48530502  0.48298389  1
  O2-  O262  1  0.63539719  0.98298604  0.03560827  1
  O2-  O263  1  0.61711114  0.98064373  0.50949430  1
  O2-  O264  1  0.36342830  0.02739517  -0.01208858  1
  O2-  O265  1  0.36685136  0.00442750  0.47049316  1
  O2-  O266  1  0.36320816  0.50906324  0.03931161  1
  O2-  O267  1  0.37489805  0.50405759  0.50786752  1
  O2-  O268  1  0.86469208  0.02774009  -0.02340694  1
  O2-  O269  1  0.87499776  0.01831961  0.48120256  1
  O2-  O270  1  0.87086856  0.50937138  0.03167894  1
  O2-  O271  1  0.86818434  0.52643179  0.51110823  1
  O2-  O272  1  0.47412813  0.36446744  0.01819159  1
  O2-  O273  1  0.48527434  0.37002497  0.51822300  1
  O2-  O274  1  0.47164059  0.86564447  0.02430986  1
  O2-  O275  1  0.48355107  0.87116226  0.51030705  1
  O2-  O276  1  0.99536147  0.36321116  0.02741704  1
  O2-  O277  1  0.98468138  0.35888379  0.50703852  1
  O2-  O278  1  0.98618693  0.86914376  0.03051752  1
  O2-  O279  1  0.98547264  0.88179680  0.50678299  1
  O2-  O280  1  0.03440354  0.13491456  -0.00671369  1
  O2-  O281  1  0.01870250  0.11818903  0.47156347  1
  O2-  O282  1  0.02586707  0.63780168  -0.00749033  1
  O2-  O283  1  0.01363178  0.63446824  0.47128486  1
  O2-  O284  1  0.51801181  0.13208974  -0.02166210  1
  O2-  O285  1  0.50967295  0.11573099  0.47157687  1
  O2-  O286  1  0.52819446  0.63208854  -0.02499953  1
  O2-  O287  1  0.50268155  0.61883594  0.47874149  1
  O2-  O288  1  0.13283766  0.26878110  -0.01405105  1
  O2-  O289  1  0.12858040  0.25439031  0.47190113  1
  O2-  O290  1  0.11765669  0.77830260  -0.00826254  1
  O2-  O291  1  0.12761770  0.76326008  0.47357290  1
  O2-  O292  1  0.61822161  0.27539640  -0.01726416  1
  O2-  O293  1  0.61180142  0.26047140  0.47271099  1
  O2-  O294  1  0.61786499  0.78006789  -0.00847020  1
  O2-  O295  1  0.61106558  0.76238443  0.46711564  1
  O2-  O296  1  0.36752651  0.22945635  0.01201639  1
  O2-  O297  1  0.36084663  0.22496061  0.50984416  1
  O2-  O298  1  0.38365219  0.71653052  0.01115772  1
  O2-  O299  1  0.36602498  0.74298454  0.51536416  1
  O2-  O300  1  0.88833356  0.22617984  0.02367776  1
  O2-  O301  1  0.89045365  0.21723966  0.51135552  1
  O2-  O302  1  0.88728756  0.73572151  0.02891404  1
  O2-  O303  1  0.88703996  0.74036344  0.51744244  1
  O2-  O304  1  0.27210153  0.36889208  0.00376226  1
  O2-  O305  1  0.26377276  0.36844408  0.49646930  1
  O2-  O306  1  0.27452266  0.88726924  0.00709996  1
  O2-  O307  1  0.25664382  0.87328658  0.49255604  1
  O2-  O308  1  0.77613623  0.38023909  -0.01911256  1
  O2-  O309  1  0.76482991  0.38617762  0.47306763  1
  O2-  O310  1  0.77161290  0.89014380  -0.01434792  1
  O2-  O311  1  0.75916776  0.88725802  0.46993353  1
  O2-  O312  1  0.23119128  0.12949021  0.00856688  1
  O2-  O313  1  0.23134218  0.11999912  0.48944607  1
  O2-  O314  1  0.22525603  0.61414078  0.00032240  1
  O2-  O315  1  0.24212744  0.62303156  0.49155059  1
  O2-  O316  1  0.73583173  0.11697908  0.03634316  1
  O2-  O317  1  0.72154998  0.11245950  0.51260603  1
  O2-  O318  1  0.73981008  0.61787838  0.02403749  1
  O2-  O319  1  0.72175222  0.61917182  0.51970084  1
