# generated using pymatgen
data_Sr64Ca21Nb43O192
_symmetry_space_group_name_H-M   'P 1'
_cell_length_a   16.57138264
_cell_length_b   16.58250961
_cell_length_c   16.73554712
_cell_angle_alpha   89.99040076
_cell_angle_beta   89.99523408
_cell_angle_gamma   89.95960339
_symmetry_Int_Tables_number   1
_chemical_formula_structural   Sr64Ca21Nb43O192
_chemical_formula_sum   'Sr64 Ca21 Nb43 O192'
_cell_volume   4598.84532094
_cell_formula_units_Z   1
loop_
 _symmetry_equiv_pos_site_id
 _symmetry_equiv_pos_as_xyz
  1  'x, y, z'
loop_
 _atom_type_symbol
 _atom_type_oxidation_number
  Sr2+  2.0
  Ca2+  2.0
  Nb5+  5.0
  O2-  -2.0
loop_
 _atom_site_type_symbol
 _atom_site_label
 _atom_site_symmetry_multiplicity
 _atom_site_fract_x
 _atom_site_fract_y
 _atom_site_fract_z
 _atom_site_occupancy
  Sr2+  Sr0  1  0.12981821  0.13380606  0.12573875  1
  Sr2+  Sr1  1  0.11991137  0.12269605  0.64701690  1
  Sr2+  Sr2  1  0.11081309  0.63416619  0.12300919  1
  Sr2+  Sr3  1  0.13044607  0.63563113  0.61939024  1
  Sr2+  Sr4  1  0.62468118  0.11653841  0.12677652  1
  Sr2+  Sr5  1  0.62471898  0.11720892  0.62082731  1
  Sr2+  Sr6  1  0.64154436  0.64500095  0.12947191  1
  Sr2+  Sr7  1  0.63415502  0.63616182  0.62662719  1
  Sr2+  Sr8  1  0.37777584  0.38215589  0.12685280  1
  Sr2+  Sr9  1  0.37077720  0.39670102  0.62110695  1
  Sr2+  Sr10  1  0.37577758  0.87861901  0.12340003  1
  Sr2+  Sr11  1  0.36956471  0.87846415  0.62963507  1
  Sr2+  Sr12  1  0.87015304  0.38324712  0.12423091  1
  Sr2+  Sr13  1  0.87013846  0.37786191  0.62910747  1
  Sr2+  Sr14  1  0.86386994  0.87690800  0.12136620  1
  Sr2+  Sr15  1  0.86533708  0.88354890  0.62685433  1
  Sr2+  Sr16  1  0.13218922  0.36654730  0.37977257  1
  Sr2+  Sr17  1  0.13161892  0.36997287  0.87695291  1
  Sr2+  Sr18  1  0.12500015  0.87490585  0.36156505  1
  Sr2+  Sr19  1  0.12793974  0.86946380  0.86317060  1
  Sr2+  Sr20  1  0.61379034  0.37242165  0.37321920  1
  Sr2+  Sr21  1  0.60999314  0.36746700  0.87515021  1
  Sr2+  Sr22  1  0.62849264  0.86869373  0.38363256  1
  Sr2+  Sr23  1  0.60800412  0.87215828  0.88071887  1
  Sr2+  Sr24  1  0.37050394  0.12219670  0.37784078  1
  Sr2+  Sr25  1  0.37225941  0.12015210  0.86941573  1
  Sr2+  Sr26  1  0.37579601  0.61743196  0.38096390  1
  Sr2+  Sr27  1  0.36617992  0.61944383  0.87470893  1
  Sr2+  Sr28  1  0.89890261  0.12308344  0.37510580  1
  Sr2+  Sr29  1  0.87669751  0.11736219  0.87253027  1
  Sr2+  Sr30  1  0.87919984  0.61642432  0.38440883  1
  Sr2+  Sr31  1  0.88712625  0.61536519  0.87723995  1
  Sr2+  Sr32  1  0.13333741  0.11693412  0.36812178  1
  Sr2+  Sr33  1  0.13490718  0.12107441  0.87763448  1
  Sr2+  Sr34  1  0.13422710  0.61408113  0.37747695  1
  Sr2+  Sr35  1  0.12467828  0.63730527  0.87752955  1
  Sr2+  Sr36  1  0.61636300  0.12732020  0.37837745  1
  Sr2+  Sr37  1  0.62178693  0.11694096  0.87097550  1
  Sr2+  Sr38  1  0.63122840  0.62290806  0.37780101  1
  Sr2+  Sr39  1  0.61677607  0.62033975  0.86678357  1
  Sr2+  Sr40  1  0.37355853  0.38953333  0.37504948  1
  Sr2+  Sr41  1  0.36612934  0.36786623  0.87020228  1
  Sr2+  Sr42  1  0.36604246  0.85990801  0.37158932  1
  Sr2+  Sr43  1  0.37178724  0.84723683  0.87538188  1
  Sr2+  Sr44  1  0.87745780  0.36389704  0.38776353  1
  Sr2+  Sr45  1  0.87151269  0.36715442  0.87125835  1
  Sr2+  Sr46  1  0.87843764  0.87252286  0.39016321  1
  Sr2+  Sr47  1  0.88696239  0.85607000  0.86745560  1
  Sr2+  Sr48  1  0.11252410  0.38020709  0.12370380  1
  Sr2+  Sr49  1  0.12429655  0.38072066  0.62366541  1
  Sr2+  Sr50  1  0.11778923  0.88507942  0.12287836  1
  Sr2+  Sr51  1  0.09949611  0.88366741  0.62854657  1
  Sr2+  Sr52  1  0.63374912  0.37746308  0.13126708  1
  Sr2+  Sr53  1  0.63106930  0.37696423  0.64390985  1
  Sr2+  Sr54  1  0.61370534  0.88127366  0.12509450  1
  Sr2+  Sr55  1  0.62480539  0.87853580  0.61954055  1
  Sr2+  Sr56  1  0.37517579  0.12832280  0.12503693  1
  Sr2+  Sr57  1  0.37119886  0.12509229  0.61956818  1
  Sr2+  Sr58  1  0.38737468  0.64184239  0.13032044  1
  Sr2+  Sr59  1  0.37700148  0.63592003  0.62450351  1
  Sr2+  Sr60  1  0.87101970  0.13717218  0.12319013  1
  Sr2+  Sr61  1  0.87819669  0.11926283  0.62556483  1
  Sr2+  Sr62  1  0.87315649  0.62268937  0.12791786  1
  Sr2+  Sr63  1  0.87211490  0.62765972  0.63069457  1
  Ca2+  Ca64  1  0.00274343  0.00125934  0.49884466  1
  Ca2+  Ca65  1  0.50491593  0.49959211  0.50437719  1
  Ca2+  Ca66  1  -0.00009212  0.50068332  0.49793704  1
  Ca2+  Ca67  1  0.50126355  0.49922704  0.00187447  1
  Ca2+  Ca68  1  0.00017384  0.00378351  -0.00010495  1
  Ca2+  Ca69  1  0.24986597  0.75643663  0.49871065  1
  Ca2+  Ca70  1  0.25152994  0.24849913  0.49745282  1
  Ca2+  Ca71  1  0.75010817  0.24903819  0.49672565  1
  Ca2+  Ca72  1  0.24935495  0.74952068  0.00478797  1
  Ca2+  Ca73  1  0.75084393  0.75188014  -0.00469774  1
  Ca2+  Ca74  1  -0.00033041  0.74419480  0.74608310  1
  Ca2+  Ca75  1  0.24898464  0.49996039  0.24576604  1
  Ca2+  Ca76  1  0.75005135  -0.00058987  0.25232837  1
  Ca2+  Ca77  1  0.24466621  0.50125060  0.75065743  1
  Ca2+  Ca78  1  0.25159636  -0.00114292  0.75134967  1
  Ca2+  Ca79  1  0.00017410  0.25119070  0.75623493  1
  Ca2+  Ca80  1  -0.00236591  0.75038080  0.25133780  1
  Ca2+  Ca81  1  0.50056428  0.75038835  0.74631127  1
  Ca2+  Ca82  1  0.50268839  0.75287788  0.25387755  1
  Ca2+  Ca83  1  0.74670701  -0.00307017  0.75491755  1
  Ca2+  Ca84  1  0.49992599  0.24769253  0.75141847  1
  Nb5+  Nb85  1  0.49835243  -0.00056832  0.49182656  1
  Nb5+  Nb86  1  0.49670544  0.00317559  -0.00443023  1
  Nb5+  Nb87  1  0.00087708  0.49629705  -0.00139111  1
  Nb5+  Nb88  1  0.74051060  0.25185932  0.00206463  1
  Nb5+  Nb89  1  0.24665269  0.25222541  0.00193575  1
  Nb5+  Nb90  1  0.75395002  0.74993580  0.50205282  1
  Nb5+  Nb91  1  0.75128311  0.49883106  0.25691472  1
  Nb5+  Nb92  1  0.50084672  0.24943396  0.24992580  1
  Nb5+  Nb93  1  0.00659238  0.25379198  0.24898048  1
  Nb5+  Nb94  1  0.75117676  0.50023211  0.76027547  1
  Nb5+  Nb95  1  0.25227082  -0.00088382  0.24770061  1
  Nb5+  Nb96  1  -0.00532471  0.00096769  0.24135401  1
  Nb5+  Nb97  1  -0.00424238  -0.00035663  0.75545773  1
  Nb5+  Nb98  1  0.00105144  0.49758140  0.25245283  1
  Nb5+  Nb99  1  0.00319341  0.49636961  0.74704569  1
  Nb5+  Nb100  1  0.49721224  0.00003104  0.24894347  1
  Nb5+  Nb101  1  0.49975114  -0.00227249  0.74086242  1
  Nb5+  Nb102  1  0.50181040  0.50543367  0.24350717  1
  Nb5+  Nb103  1  0.49454811  0.50188221  0.75017617  1
  Nb5+  Nb104  1  0.25778562  0.24973192  0.24897249  1
  Nb5+  Nb105  1  0.25150795  0.24979987  0.74249079  1
  Nb5+  Nb106  1  0.24675804  0.74451431  0.24638990  1
  Nb5+  Nb107  1  0.24872669  0.75001169  0.74720597  1
  Nb5+  Nb108  1  0.75429821  0.25131779  0.25097833  1
  Nb5+  Nb109  1  0.74773337  0.24390958  0.74871162  1
  Nb5+  Nb110  1  0.75934379  0.75500974  0.25326592  1
  Nb5+  Nb111  1  0.74768349  0.75187986  0.75651777  1
  Nb5+  Nb112  1  0.00161659  0.24758605  0.50788742  1
  Nb5+  Nb113  1  -0.00580519  0.25134682  0.99987204  1
  Nb5+  Nb114  1  0.00457630  0.75207529  0.49824678  1
  Nb5+  Nb115  1  -0.00227842  0.75656226  1.00471722  1
  Nb5+  Nb116  1  0.50039349  0.25184736  0.50236565  1
  Nb5+  Nb117  1  0.49180949  0.24699860  1.00075375  1
  Nb5+  Nb118  1  0.50167969  0.74780896  0.49897880  1
  Nb5+  Nb119  1  0.50545341  0.74287664  1.00322302  1
  Nb5+  Nb120  1  0.25151789  -0.00239618  -0.00098987  1
  Nb5+  Nb121  1  0.24627283  -0.00324604  0.50072697  1
  Nb5+  Nb122  1  0.25216483  0.50364284  0.00630995  1
  Nb5+  Nb123  1  0.24915749  0.50202005  0.49984648  1
  Nb5+  Nb124  1  0.75367816  0.00008061  0.00011719  1
  Nb5+  Nb125  1  0.74932076  0.00462019  0.49745893  1
  Nb5+  Nb126  1  0.74744230  0.50096740  0.00286523  1
  Nb5+  Nb127  1  0.74842758  0.49897731  0.50930990  1
  O2-  O128  1  0.02756883  0.02749523  0.13211964  1
  O2-  O129  1  0.00874340  0.02257819  0.63328574  1
  O2-  O130  1  0.00918159  0.50914050  0.12532866  1
  O2-  O131  1  0.02101195  0.51425694  0.63524427  1
  O2-  O132  1  0.50368390  -0.00886165  0.12936279  1
  O2-  O133  1  0.50722119  -0.01552095  0.62316349  1
  O2-  O134  1  0.51434680  0.46248691  0.13486033  1
  O2-  O135  1  0.51628160  0.46657735  0.63719842  1
  O2-  O136  1  -0.00863158  -0.00981630  0.35942974  1
  O2-  O137  1  -0.01950490  -0.02550673  0.87037374  1
  O2-  O138  1  -0.03324533  0.48180289  0.36101860  1
  O2-  O139  1  -0.02416891  0.47804818  0.88598408  1
  O2-  O140  1  0.49141587  0.02358816  0.37429947  1
  O2-  O141  1  0.49434846  0.02272072  0.88216148  1
  O2-  O142  1  0.48790311  0.50896703  0.36173575  1
  O2-  O143  1  0.48879010  0.53028433  0.86835383  1
  O2-  O144  1  0.26149381  0.24697667  0.12535329  1
  O2-  O145  1  0.25967283  0.23291669  0.63048673  1
  O2-  O146  1  0.28450938  0.75252109  0.13528343  1
  O2-  O147  1  0.27692199  0.74908428  0.63162820  1
  O2-  O148  1  0.76201148  0.25640495  0.12642680  1
  O2-  O149  1  0.76307156  0.24862869  0.63476318  1
  O2-  O150  1  0.77350570  0.74301457  0.13400480  1
  O2-  O151  1  0.77366806  0.74288341  0.61874046  1
  O2-  O152  1  0.23175798  0.24523943  0.36100262  1
  O2-  O153  1  0.23942888  0.25351702  0.88446714  1
  O2-  O154  1  0.23053767  0.76700277  0.36284599  1
  O2-  O155  1  0.23022597  0.75214214  0.86983401  1
  O2-  O156  1  0.74394935  0.27781003  0.36087427  1
  O2-  O157  1  0.73661082  0.24874264  0.88633578  1
  O2-  O158  1  0.73277350  0.75183484  0.37508026  1
  O2-  O159  1  0.71285452  0.75214716  0.86394732  1
  O2-  O160  1  -0.00727839  0.23339023  0.12571741  1
  O2-  O161  1  -0.00713162  0.22135571  0.61920253  1
  O2-  O162  1  -0.01986596  0.72050227  0.11627112  1
  O2-  O163  1  -0.01185826  0.71591681  0.61231295  1
  O2-  O164  1  0.48236944  0.25829557  0.12763049  1
  O2-  O165  1  0.51302646  0.25885049  0.61543825  1
  O2-  O166  1  0.48167320  0.77085611  0.11755599  1
  O2-  O167  1  0.48586104  0.78234187  0.61080673  1
  O2-  O168  1  0.26305677  -0.00393182  0.36548330  1
  O2-  O169  1  0.26411303  0.01583029  0.88670641  1
  O2-  O170  1  0.27352763  0.50824383  0.37898638  1
  O2-  O171  1  0.26402064  0.48961076  0.88891094  1
  O2-  O172  1  0.75286395  -0.01924933  0.38391135  1
  O2-  O173  1  0.74789397  0.03100614  0.88828646  1
  O2-  O174  1  0.77311127  0.49390349  0.36887930  1
  O2-  O175  1  0.77468340  0.49710892  0.87420571  1
  O2-  O176  1  0.00698343  0.27540624  0.36328165  1
  O2-  O177  1  0.00810321  0.28202100  0.89067770  1
  O2-  O178  1  0.00621931  0.78711699  0.38229761  1
  O2-  O179  1  0.02394573  0.76219742  0.88641707  1
  O2-  O180  1  0.49941871  0.22748089  0.36461921  1
  O2-  O181  1  0.51550896  0.22770627  0.89040463  1
  O2-  O182  1  0.53522458  0.74160431  0.38501738  1
  O2-  O183  1  0.52312223  0.74572151  0.88488767  1
  O2-  O184  1  0.24528247  0.00510706  0.12425789  1
  O2-  O185  1  0.24065153  0.01100318  0.61428967  1
  O2-  O186  1  0.22578846  0.47559800  0.11527635  1
  O2-  O187  1  0.22378738  0.49347497  0.61583756  1
  O2-  O188  1  0.73005277  -0.01215973  0.11695817  1
  O2-  O189  1  0.73733332  -0.00654303  0.61601986  1
  O2-  O190  1  0.73413950  0.50432611  0.11927227  1
  O2-  O191  1  0.72703682  0.50453763  0.62369068  1
  O2-  O192  1  0.12346435  0.26589771  0.23236653  1
  O2-  O193  1  0.13444082  0.28016331  0.74288461  1
  O2-  O194  1  0.13384861  0.77930590  0.22495919  1
  O2-  O195  1  0.13235243  0.77849300  0.72791172  1
  O2-  O196  1  0.61871937  0.26723165  0.24026064  1
  O2-  O197  1  0.63589435  0.28056891  0.75613133  1
  O2-  O198  1  0.64096535  0.77017377  0.23128153  1
  O2-  O199  1  0.63795907  0.76146691  0.71359780  1
  O2-  O200  1  0.37263245  0.22413182  0.25473731  1
  O2-  O201  1  0.36682069  0.22706987  0.76882482  1
  O2-  O202  1  0.36646786  0.72516405  0.27566224  1
  O2-  O203  1  0.36752933  0.71892970  0.76884835  1
  O2-  O204  1  0.87206011  0.23584338  0.25625126  1
  O2-  O205  1  0.86186951  0.23586166  0.77839276  1
  O2-  O206  1  0.86597170  0.70891181  0.26943403  1
  O2-  O207  1  0.86263441  0.72084114  0.76934504  1
  O2-  O208  1  0.27694920  0.36357546  0.25129368  1
  O2-  O209  1  0.27996427  0.36666087  0.74424843  1
  O2-  O210  1  0.27277626  0.88401050  0.24107811  1
  O2-  O211  1  0.27876529  0.86710090  0.75688853  1
  O2-  O212  1  0.75728358  0.37863971  0.23202417  1
  O2-  O213  1  0.76821562  0.38142956  0.74428247  1
  O2-  O214  1  0.79288976  0.86455921  0.25562447  1
  O2-  O215  1  0.77830334  0.86348044  0.75294640  1
  O2-  O216  1  0.23252785  0.12531085  0.24404466  1
  O2-  O217  1  0.22160860  0.13457399  0.75983806  1
  O2-  O218  1  0.21621621  0.63317630  0.24376487  1
  O2-  O219  1  0.21469984  0.63302018  0.74845751  1
  O2-  O220  1  0.72603864  0.13905875  0.25189170  1
  O2-  O221  1  0.72024307  0.13346080  0.74807043  1
  O2-  O222  1  0.72691609  0.61502450  0.25311931  1
  O2-  O223  1  0.72991199  0.61863985  0.75160506  1
  O2-  O224  1  0.11160975  0.46756779  0.26617639  1
  O2-  O225  1  0.11178663  0.46838264  0.77002931  1
  O2-  O226  1  0.13147825  0.98927653  0.25758101  1
  O2-  O227  1  0.11527436  0.97738946  0.75742591  1
  O2-  O228  1  0.62907117  0.47815429  0.26260281  1
  O2-  O229  1  0.63384091  0.48023719  0.77160029  1
  O2-  O230  1  0.61160846  0.98249534  0.26122506  1
  O2-  O231  1  0.61428630  0.96682995  0.76207599  1
  O2-  O232  1  0.37307459  0.02809694  0.24128073  1
  O2-  O233  1  0.38570959  0.03116694  0.73808187  1
  O2-  O234  1  0.38642274  0.51684906  0.22633605  1
  O2-  O235  1  0.38249375  0.52104547  0.72829434  1
  O2-  O236  1  0.88361130  0.03096157  0.23013039  1
  O2-  O237  1  0.87878365  0.03083663  0.74279132  1
  O2-  O238  1  0.86786195  0.50814440  0.22624623  1
  O2-  O239  1  0.86845736  0.51761698  0.73238184  1
  O2-  O240  1  0.48128452  0.36499842  0.26681506  1
  O2-  O241  1  0.48807154  0.38517551  0.78222231  1
  O2-  O242  1  0.46961212  0.88857590  0.26233528  1
  O2-  O243  1  0.47219641  0.88627073  0.77166951  1
  O2-  O244  1  0.98111151  0.36960144  0.22593861  1
  O2-  O245  1  0.96573355  0.38419676  0.74111984  1
  O2-  O246  1  0.98448899  0.88863711  0.21781162  1
  O2-  O247  1  0.97369738  0.88121421  0.73053659  1
  O2-  O248  1  0.01470369  0.13511759  0.26637987  1
  O2-  O249  1  0.02051684  0.11743315  0.77999646  1
  O2-  O250  1  0.02110907  0.61081470  0.26155646  1
  O2-  O251  1  0.00759285  0.60869586  0.78245767  1
  O2-  O252  1  0.51507595  0.12577422  0.23444880  1
  O2-  O253  1  0.53374743  0.11298997  0.74168734  1
  O2-  O254  1  0.52564360  0.61598519  0.22404691  1
  O2-  O255  1  0.53028509  0.61409619  0.73003622  1
  O2-  O256  1  0.11647777  0.47264577  -0.01145772  1
  O2-  O257  1  0.13242412  0.48230557  0.47075822  1
  O2-  O258  1  0.13755978  0.97832767  -0.01022782  1
  O2-  O259  1  0.13611879  0.96823170  0.48366228  1
  O2-  O260  1  0.63796246  0.47050841  -0.01861219  1
  O2-  O261  1  0.63843802  0.49190605  0.46763091  1
  O2-  O262  1  0.61896776  0.99062718  -0.00520130  1
  O2-  O263  1  0.62037612  0.97912682  0.49325289  1
  O2-  O264  1  0.37967297  0.02539884  0.01402293  1
  O2-  O265  1  0.38399967  0.02096966  0.51006128  1
  O2-  O266  1  0.36407322  0.52557000  0.02614659  1
  O2-  O267  1  0.36904492  0.52286124  0.52270480  1
  O2-  O268  1  0.86463204  0.03141734  0.01661840  1
  O2-  O269  1  0.86496555  0.02423690  0.50459149  1
  O2-  O270  1  0.87293677  0.50831213  0.01697169  1
  O2-  O271  1  0.86318133  0.52718436  0.51442612  1
  O2-  O272  1  0.47778680  0.36135046  -0.01397657  1
  O2-  O273  1  0.48039651  0.36356491  0.47876992  1
  O2-  O274  1  0.48180389  0.88665038  -0.01114674  1
  O2-  O275  1  0.48953426  0.88190324  0.47224721  1
  O2-  O276  1  0.98651438  0.37289366  0.02808772  1
  O2-  O277  1  0.97175090  0.36509321  0.51565508  1
  O2-  O278  1  0.97960210  0.86837109  0.02556355  1
  O2-  O279  1  0.97117535  0.86668918  0.52494436  1
  O2-  O280  1  0.02462882  0.14048768  -0.01543930  1
  O2-  O281  1  0.02439076  0.13669141  0.46883948  1
  O2-  O282  1  0.01377909  0.61261968  -0.01246272  1
  O2-  O283  1  0.01297939  0.63702108  0.46298129  1
  O2-  O284  1  0.51646612  0.12548488  0.02397718  1
  O2-  O285  1  0.52478746  0.11769876  0.50877205  1
  O2-  O286  1  0.53012592  0.63292094  0.02485938  1
  O2-  O287  1  0.52012039  0.63610493  0.52349770  1
  O2-  O288  1  0.13033312  0.27102060  0.01585526  1
  O2-  O289  1  0.11566088  0.28004368  0.50707944  1
  O2-  O290  1  0.11535465  0.76064153  0.02881333  1
  O2-  O291  1  0.11581297  0.77187678  0.52017581  1
  O2-  O292  1  0.62501366  0.26965831  0.01747977  1
  O2-  O293  1  0.61547325  0.25789609  0.47644088  1
  O2-  O294  1  0.61861519  0.78136907  0.01957714  1
  O2-  O295  1  0.63237429  0.76832111  0.51638121  1
  O2-  O296  1  0.37612649  0.22423108  -0.00679972  1
  O2-  O297  1  0.38836020  0.21678170  0.49521862  1
  O2-  O298  1  0.38752789  0.72676252  -0.01827008  1
  O2-  O299  1  0.38908014  0.73372677  0.47559221  1
  O2-  O300  1  0.87754420  0.23371781  -0.00630107  1
  O2-  O301  1  0.88467000  0.22812130  0.47873691  1
  O2-  O302  1  0.88435960  0.73311556  -0.02876008  1
  O2-  O303  1  0.86906530  0.73610114  0.47714856  1
  O2-  O304  1  0.27868629  0.36623650  0.00259540  1
  O2-  O305  1  0.27699653  0.38269708  0.49588663  1
  O2-  O306  1  0.28153242  0.88645629  0.00133965  1
  O2-  O307  1  0.29087357  0.88811677  0.49869160  1
  O2-  O308  1  0.77170974  0.37027097  0.00273187  1
  O2-  O309  1  0.76900449  0.38554850  0.51050923  1
  O2-  O310  1  0.77829499  0.88884293  -0.01676458  1
  O2-  O311  1  0.76562843  0.86994348  0.50321444  1
  O2-  O312  1  0.23367916  0.13004380  0.00724515  1
  O2-  O313  1  0.24261928  0.11177425  0.47715015  1
  O2-  O314  1  0.21668712  0.61265860  0.00481684  1
  O2-  O315  1  0.22828416  0.62135099  0.49953108  1
  O2-  O316  1  0.73252692  0.13518655  0.01891479  1
  O2-  O317  1  0.71993650  0.11579086  0.49250413  1
  O2-  O318  1  0.73073275  0.61400174  -0.00911293  1
  O2-  O319  1  0.73208302  0.62864483  0.49512860  1
