# generated using pymatgen
data_Sr64Ca21Nb43O192
_symmetry_space_group_name_H-M   'P 1'
_cell_length_a   16.58898226
_cell_length_b   16.58296316
_cell_length_c   16.74413969
_cell_angle_alpha   90.00042724
_cell_angle_beta   90.02705368
_cell_angle_gamma   89.88873248
_symmetry_Int_Tables_number   1
_chemical_formula_structural   Sr64Ca21Nb43O192
_chemical_formula_sum   'Sr64 Ca21 Nb43 O192'
_cell_volume   4606.21123071
_cell_formula_units_Z   1
loop_
 _symmetry_equiv_pos_site_id
 _symmetry_equiv_pos_as_xyz
  1  'x, y, z'
loop_
 _atom_type_symbol
 _atom_type_oxidation_number
  Sr2+  2.0
  Ca2+  2.0
  Nb5+  5.0
  O2-  -2.0
loop_
 _atom_site_type_symbol
 _atom_site_label
 _atom_site_symmetry_multiplicity
 _atom_site_fract_x
 _atom_site_fract_y
 _atom_site_fract_z
 _atom_site_occupancy
  Sr2+  Sr0  1  0.12073908  0.12382349  0.13093491  1
  Sr2+  Sr1  1  0.11850444  0.12150289  0.63013093  1
  Sr2+  Sr2  1  0.11575101  0.60983341  0.12903791  1
  Sr2+  Sr3  1  0.11623001  0.61709776  0.61825300  1
  Sr2+  Sr4  1  0.61778571  0.11856125  0.12472945  1
  Sr2+  Sr5  1  0.62093886  0.12268274  0.61377812  1
  Sr2+  Sr6  1  0.61729763  0.61841128  0.12042605  1
  Sr2+  Sr7  1  0.61964438  0.60722046  0.62547399  1
  Sr2+  Sr8  1  0.36498377  0.36946867  0.12800097  1
  Sr2+  Sr9  1  0.37256080  0.37244910  0.61776989  1
  Sr2+  Sr10  1  0.37039878  0.86576304  0.12310050  1
  Sr2+  Sr11  1  0.36398517  0.85854824  0.63039020  1
  Sr2+  Sr12  1  0.87166964  0.37181000  0.12156510  1
  Sr2+  Sr13  1  0.86280178  0.36242695  0.62511187  1
  Sr2+  Sr14  1  0.86471086  0.86664658  0.12823205  1
  Sr2+  Sr15  1  0.87880573  0.85742787  0.62494791  1
  Sr2+  Sr16  1  0.13348298  0.37870924  0.37586813  1
  Sr2+  Sr17  1  0.11827129  0.38169023  0.87624137  1
  Sr2+  Sr18  1  0.12786081  0.87985161  0.37617247  1
  Sr2+  Sr19  1  0.13098291  0.88221610  0.87644316  1
  Sr2+  Sr20  1  0.63629495  0.38546775  0.37744593  1
  Sr2+  Sr21  1  0.64137824  0.37676249  0.86834726  1
  Sr2+  Sr22  1  0.63933330  0.88095725  0.37874928  1
  Sr2+  Sr23  1  0.63533375  0.88259975  0.87371210  1
  Sr2+  Sr24  1  0.38079977  0.12669756  0.36831864  1
  Sr2+  Sr25  1  0.38307620  0.12597975  0.87368941  1
  Sr2+  Sr26  1  0.38044568  0.63143463  0.39198653  1
  Sr2+  Sr27  1  0.38608909  0.63264818  0.86678673  1
  Sr2+  Sr28  1  0.88403830  0.13590603  0.37941458  1
  Sr2+  Sr29  1  0.88085573  0.13452813  0.87790990  1
  Sr2+  Sr30  1  0.89201388  0.63812353  0.37371795  1
  Sr2+  Sr31  1  0.88444527  0.63019980  0.87116814  1
  Sr2+  Sr32  1  0.13102200  0.12303716  0.38384109  1
  Sr2+  Sr33  1  0.13703662  0.13407526  0.87491580  1
  Sr2+  Sr34  1  0.13226096  0.63516188  0.37820242  1
  Sr2+  Sr35  1  0.12508933  0.62972869  0.87736528  1
  Sr2+  Sr36  1  0.63166598  0.13161639  0.37219541  1
  Sr2+  Sr37  1  0.62713492  0.13165639  0.87021040  1
  Sr2+  Sr38  1  0.62963312  0.63508487  0.38875706  1
  Sr2+  Sr39  1  0.63783202  0.64147705  0.86897132  1
  Sr2+  Sr40  1  0.38082424  0.39321556  0.37605100  1
  Sr2+  Sr41  1  0.37971750  0.38626115  0.87248869  1
  Sr2+  Sr42  1  0.37558536  0.88365281  0.37566067  1
  Sr2+  Sr43  1  0.38277690  0.88338019  0.87312124  1
  Sr2+  Sr44  1  0.88237932  0.38569939  0.38137974  1
  Sr2+  Sr45  1  0.88062204  0.39175493  0.86913418  1
  Sr2+  Sr46  1  0.88117634  0.88792152  0.37551369  1
  Sr2+  Sr47  1  0.88270532  0.87598731  0.87664825  1
  Sr2+  Sr48  1  0.11283573  0.37300545  0.12326443  1
  Sr2+  Sr49  1  0.10335449  0.36350301  0.62518208  1
  Sr2+  Sr50  1  0.11576033  0.86491646  0.12637924  1
  Sr2+  Sr51  1  0.10424721  0.87472134  0.62223210  1
  Sr2+  Sr52  1  0.60822301  0.36953892  0.12705451  1
  Sr2+  Sr53  1  0.61643154  0.36737517  0.61745069  1
  Sr2+  Sr54  1  0.61974904  0.86957044  0.12578633  1
  Sr2+  Sr55  1  0.61246260  0.86972891  0.62486629  1
  Sr2+  Sr56  1  0.36947569  0.12182621  0.12496336  1
  Sr2+  Sr57  1  0.36362796  0.12399818  0.62681369  1
  Sr2+  Sr58  1  0.35938906  0.62483686  0.12488421  1
  Sr2+  Sr59  1  0.36687547  0.60953151  0.62594148  1
  Sr2+  Sr60  1  0.86026474  0.11783673  0.12512004  1
  Sr2+  Sr61  1  0.88634952  0.11971328  0.61746833  1
  Sr2+  Sr62  1  0.86487526  0.61771182  0.12872415  1
  Sr2+  Sr63  1  0.86033962  0.62070134  0.62771362  1
  Ca2+  Ca64  1  0.00174660  -0.00019163  0.49631260  1
  Ca2+  Ca65  1  0.00252478  0.00111248  0.00144528  1
  Ca2+  Ca66  1  0.49811314  0.49859053  -0.00069826  1
  Ca2+  Ca67  1  0.49965241  0.00060780  0.49920135  1
  Ca2+  Ca68  1  -0.00202646  0.50021980  0.50018346  1
  Ca2+  Ca69  1  0.75035221  0.75109460  0.49983265  1
  Ca2+  Ca70  1  0.24936484  0.75147679  0.50368646  1
  Ca2+  Ca71  1  0.74605654  0.25002477  0.00158601  1
  Ca2+  Ca72  1  0.74884246  0.24831017  0.49780338  1
  Ca2+  Ca73  1  0.24829053  0.24925263  0.50021596  1
  Ca2+  Ca74  1  0.74855703  0.49945324  0.74919549  1
  Ca2+  Ca75  1  0.24510241  0.49478877  0.74932557  1
  Ca2+  Ca76  1  0.00074333  0.25192011  0.24933956  1
  Ca2+  Ca77  1  0.00485493  0.74808046  0.75088463  1
  Ca2+  Ca78  1  0.50128113  0.75340371  0.25295628  1
  Ca2+  Ca79  1  0.75107561  0.00167812  0.74925999  1
  Ca2+  Ca80  1  -0.00031735  0.24866540  0.75354702  1
  Ca2+  Ca81  1  0.00228089  0.75350056  0.24818225  1
  Ca2+  Ca82  1  0.24926070  0.50009435  0.25230620  1
  Ca2+  Ca83  1  0.50290036  0.74988130  0.74822138  1
  Ca2+  Ca84  1  0.74853365  0.50197065  0.25193349  1
  Nb5+  Nb85  1  -0.00360014  0.50210783  0.00131293  1
  Nb5+  Nb86  1  0.50034745  0.49926563  0.50039999  1
  Nb5+  Nb87  1  0.50144387  -0.00153407  0.00016550  1
  Nb5+  Nb88  1  0.24650692  0.75539768  -0.00433745  1
  Nb5+  Nb89  1  0.25219447  0.25568341  -0.00138552  1
  Nb5+  Nb90  1  0.74549728  0.75039045  0.00064617  1
  Nb5+  Nb91  1  0.49807075  0.24817225  0.74471202  1
  Nb5+  Nb92  1  0.25126379  -0.00321617  0.75650679  1
  Nb5+  Nb93  1  0.49823694  0.25021627  0.24483325  1
  Nb5+  Nb94  1  0.24728919  -0.00121203  0.24855329  1
  Nb5+  Nb95  1  0.74385486  0.00072528  0.24799035  1
  Nb5+  Nb96  1  -0.00778128  0.00591269  0.24589707  1
  Nb5+  Nb97  1  -0.00363058  0.00243746  0.75415560  1
  Nb5+  Nb98  1  0.00085322  0.49922806  0.25503034  1
  Nb5+  Nb99  1  -0.00312715  0.50131646  0.74421033  1
  Nb5+  Nb100  1  0.49705760  -0.00104696  0.24778275  1
  Nb5+  Nb101  1  0.49865165  0.00211308  0.74433416  1
  Nb5+  Nb102  1  0.50101120  0.50956108  0.25269016  1
  Nb5+  Nb103  1  0.50223463  0.49731317  0.75533085  1
  Nb5+  Nb104  1  0.25140627  0.24904470  0.25247495  1
  Nb5+  Nb105  1  0.25157549  0.25169998  0.75106590  1
  Nb5+  Nb106  1  0.25323110  0.74876072  0.25007149  1
  Nb5+  Nb107  1  0.24536903  0.74511244  0.74699953  1
  Nb5+  Nb108  1  0.75467296  0.25354649  0.24954834  1
  Nb5+  Nb109  1  0.75268708  0.24173111  0.74914632  1
  Nb5+  Nb110  1  0.74819721  0.74594020  0.24924146  1
  Nb5+  Nb111  1  0.74982690  0.75667709  0.74498201  1
  Nb5+  Nb112  1  -0.00115708  0.25193947  0.49836536  1
  Nb5+  Nb113  1  -0.00251787  0.24711733  1.00049757  1
  Nb5+  Nb114  1  0.00143972  0.74981286  0.49851474  1
  Nb5+  Nb115  1  -0.00879177  0.74907173  1.00493641  1
  Nb5+  Nb116  1  0.49566004  0.25041796  0.48699022  1
  Nb5+  Nb117  1  0.49474229  0.25137425  0.99345693  1
  Nb5+  Nb118  1  0.49764829  0.75563436  0.50549471  1
  Nb5+  Nb119  1  0.49687655  0.74629807  0.99812230  1
  Nb5+  Nb120  1  0.25250346  0.00252604  0.00432692  1
  Nb5+  Nb121  1  0.25495848  -0.00316539  0.51209838  1
  Nb5+  Nb122  1  0.24928691  0.50852451  -0.00197375  1
  Nb5+  Nb123  1  0.24278801  0.49516913  0.50421325  1
  Nb5+  Nb124  1  0.75163585  0.00246288  -0.00104119  1
  Nb5+  Nb125  1  0.75493689  -0.00293944  0.50742372  1
  Nb5+  Nb126  1  0.74656349  0.49697585  0.00210007  1
  Nb5+  Nb127  1  0.75509169  0.50372913  0.49640303  1
  O2-  O128  1  -0.00839160  0.04109508  0.13115914  1
  O2-  O129  1  0.00324883  0.02226221  0.63471978  1
  O2-  O130  1  -0.01481273  0.52497624  0.11832063  1
  O2-  O131  1  -0.01508243  0.52979641  0.63391682  1
  O2-  O132  1  0.48891627  0.02529379  0.11983900  1
  O2-  O133  1  0.48801491  0.03520864  0.63551138  1
  O2-  O134  1  0.47910740  0.52302974  0.13851240  1
  O2-  O135  1  0.48376707  0.50750557  0.62383946  1
  O2-  O136  1  0.01334889  -0.02465445  0.35834938  1
  O2-  O137  1  0.01442820  -0.02823570  0.86775244  1
  O2-  O138  1  0.01488976  0.47007817  0.36562148  1
  O2-  O139  1  0.00957591  0.48248488  0.88381702  1
  O2-  O140  1  0.51162517  -0.02332150  0.36019672  1
  O2-  O141  1  0.50935964  -0.01288721  0.88134915  1
  O2-  O142  1  0.51330031  0.47788726  0.38068028  1
  O2-  O143  1  0.51488298  0.46399259  0.86599520  1
  O2-  O144  1  0.24422138  0.25783193  0.12039053  1
  O2-  O145  1  0.23423356  0.25991659  0.63902548  1
  O2-  O146  1  0.24332263  0.76740904  0.11316851  1
  O2-  O147  1  0.22832912  0.77913075  0.63943204  1
  O2-  O148  1  0.72340791  0.27405354  0.13723232  1
  O2-  O149  1  0.73011142  0.26982352  0.63574949  1
  O2-  O150  1  0.73904964  0.77544687  0.11792071  1
  O2-  O151  1  0.73764734  0.78617991  0.63493199  1
  O2-  O152  1  0.25942496  0.21812151  0.36291548  1
  O2-  O153  1  0.26878586  0.22735723  0.88381957  1
  O2-  O154  1  0.26974404  0.73852947  0.36271080  1
  O2-  O155  1  0.27258115  0.73084430  0.88250543  1
  O2-  O156  1  0.75403368  0.21605134  0.36061197  1
  O2-  O157  1  0.75416597  0.21906788  0.86880898  1
  O2-  O158  1  0.76169184  0.72498040  0.36115978  1
  O2-  O159  1  0.76917564  0.73125362  0.88681466  1
  O2-  O160  1  0.03151914  0.24364050  0.11234274  1
  O2-  O161  1  0.01785824  0.23307010  0.61940067  1
  O2-  O162  1  0.03046655  0.73076636  0.11339037  1
  O2-  O163  1  0.03103690  0.73815119  0.61627927  1
  O2-  O164  1  0.51284368  0.23395721  0.12970980  1
  O2-  O165  1  0.51730433  0.23539647  0.63263199  1
  O2-  O166  1  0.52630717  0.74122693  0.11174937  1
  O2-  O167  1  0.53460690  0.73219039  0.61723734  1
  O2-  O168  1  0.23703603  0.00701527  0.36273038  1
  O2-  O169  1  0.23893899  0.00920733  0.87604803  1
  O2-  O170  1  0.22187141  0.50937812  0.38517485  1
  O2-  O171  1  0.21908502  0.50040682  0.88586175  1
  O2-  O172  1  0.72514939  0.01294864  0.36030041  1
  O2-  O173  1  0.72293855  0.01258565  0.88779450  1
  O2-  O174  1  0.71646867  0.51606392  0.38370469  1
  O2-  O175  1  0.72901332  0.52252319  0.88843373  1
  O2-  O176  1  -0.02401787  0.26838878  0.38153941  1
  O2-  O177  1  -0.01541350  0.27937709  0.88787642  1
  O2-  O178  1  -0.02646312  0.76865668  0.38083225  1
  O2-  O179  1  -0.01695965  0.75972150  0.88832102  1
  O2-  O180  1  0.47163562  0.26166933  0.37371171  1
  O2-  O181  1  0.47113554  0.26025158  0.88136799  1
  O2-  O182  1  0.46666081  0.76085261  0.38771328  1
  O2-  O183  1  0.48660347  0.77451362  0.88512552  1
  O2-  O184  1  0.27671628  -0.00978714  0.11872569  1
  O2-  O185  1  0.27337554  -0.01119584  0.62881727  1
  O2-  O186  1  0.27071142  0.48842822  0.11285757  1
  O2-  O187  1  0.27755709  0.48573945  0.61768424  1
  O2-  O188  1  0.76238907  -0.01935195  0.12239382  1
  O2-  O189  1  0.78733526  -0.01537286  0.61604389  1
  O2-  O190  1  0.77872294  0.49157456  0.11622256  1
  O2-  O191  1  0.77231895  0.48613969  0.61442510  1
  O2-  O192  1  0.13879988  0.27189354  0.25720083  1
  O2-  O193  1  0.13937882  0.26095498  0.77992950  1
  O2-  O194  1  0.14103085  0.78481664  0.25557444  1
  O2-  O195  1  0.13847506  0.76710882  0.78858705  1
  O2-  O196  1  0.61400481  0.26073245  0.26949967  1
  O2-  O197  1  0.60902121  0.26469792  0.77588242  1
  O2-  O198  1  0.63655620  0.78574251  0.25849362  1
  O2-  O199  1  0.63513621  0.76973757  0.77877231  1
  O2-  O200  1  0.37824522  0.22415726  0.23551569  1
  O2-  O201  1  0.37516539  0.22127557  0.74246077  1
  O2-  O202  1  0.36804527  0.74245988  0.21862791  1
  O2-  O203  1  0.36484125  0.72938709  0.73935617  1
  O2-  O204  1  0.86483486  0.23146773  0.22490505  1
  O2-  O205  1  0.86428631  0.21650562  0.73529353  1
  O2-  O206  1  0.86469087  0.74228566  0.22392254  1
  O2-  O207  1  0.86714691  0.73141949  0.73748239  1
  O2-  O208  1  0.28124820  0.36056448  0.26083694  1
  O2-  O209  1  0.27959599  0.36067220  0.76804450  1
  O2-  O210  1  0.27822993  0.88345020  0.25237264  1
  O2-  O211  1  0.27431230  0.87909143  0.76818318  1
  O2-  O212  1  0.76746651  0.36433163  0.27818473  1
  O2-  O213  1  0.76173818  0.35998844  0.77534238  1
  O2-  O214  1  0.77131112  0.88436610  0.26042238  1
  O2-  O215  1  0.77085208  0.86876958  0.78229195  1
  O2-  O216  1  0.24256621  0.11984167  0.22616442  1
  O2-  O217  1  0.23957956  0.11833154  0.74118835  1
  O2-  O218  1  0.23222588  0.63711690  0.22804740  1
  O2-  O219  1  0.22520831  0.63236056  0.73225192  1
  O2-  O220  1  0.73615731  0.11890796  0.22216400  1
  O2-  O221  1  0.70860168  0.13245210  0.73330974  1
  O2-  O222  1  0.72484707  0.63720379  0.21952957  1
  O2-  O223  1  0.72724995  0.63761628  0.73382496  1
  O2-  O224  1  0.11672874  0.48165756  0.22383483  1
  O2-  O225  1  0.11147019  0.46513104  0.73945305  1
  O2-  O226  1  0.13561315  0.98516511  0.22406904  1
  O2-  O227  1  0.13781652  0.97677769  0.73930854  1
  O2-  O228  1  0.61095521  0.46798293  0.23714862  1
  O2-  O229  1  0.61385466  0.47021724  0.72691816  1
  O2-  O230  1  0.62468436  0.99052498  0.22675068  1
  O2-  O231  1  0.61242931  0.97979636  0.74062329  1
  O2-  O232  1  0.37963081  0.01921726  0.25779858  1
  O2-  O233  1  0.37489800  0.01565763  0.77013600  1
  O2-  O234  1  0.38568973  0.51669698  0.28095774  1
  O2-  O235  1  0.38397267  0.51454343  0.76742218  1
  O2-  O236  1  0.87475324  0.02144210  0.25934398  1
  O2-  O237  1  0.88534314  0.02911472  0.77015013  1
  O2-  O238  1  0.88447794  0.52846399  0.26545114  1
  O2-  O239  1  0.88156716  0.51856947  0.77444813  1
  O2-  O240  1  0.47726331  0.36553283  0.23462832  1
  O2-  O241  1  0.47197755  0.36361530  0.73635900  1
  O2-  O242  1  0.48601138  0.88840362  0.21817808  1
  O2-  O243  1  0.47545582  0.88809250  0.73059527  1
  O2-  O244  1  0.97707636  0.38652279  0.22134845  1
  O2-  O245  1  0.96930446  0.38223450  0.73354930  1
  O2-  O246  1  0.98964254  0.89159293  0.21373780  1
  O2-  O247  1  0.98643435  0.88490330  0.72827978  1
  O2-  O248  1  0.03071148  0.11681392  0.27099620  1
  O2-  O249  1  0.03491063  0.11429602  0.77126485  1
  O2-  O250  1  0.02738829  0.61782428  0.26787023  1
  O2-  O251  1  0.02429386  0.61356688  0.77409366  1
  O2-  O252  1  0.51391854  0.12414482  0.26475470  1
  O2-  O253  1  0.50801071  0.12612928  0.77608711  1
  O2-  O254  1  0.53026341  0.61802260  0.27188766  1
  O2-  O255  1  0.52208494  0.61067109  0.77111594  1
  O2-  O256  1  0.12281397  0.48968719  0.01924219  1
  O2-  O257  1  0.13159767  0.47700800  0.53036738  1
  O2-  O258  1  0.14068831  0.97594306  0.01500944  1
  O2-  O259  1  0.14050726  0.97104884  0.50233687  1
  O2-  O260  1  0.63320104  0.48792830  0.02998697  1
  O2-  O261  1  0.61741236  0.48079218  0.51906213  1
  O2-  O262  1  0.61832746  0.98492087  0.01709155  1
  O2-  O263  1  0.63460702  0.97567312  0.52089052  1
  O2-  O264  1  0.37567065  0.01135624  -0.01591689  1
  O2-  O265  1  0.36509140  0.02675319  0.47676113  1
  O2-  O266  1  0.36308460  0.51892693  -0.02820022  1
  O2-  O267  1  0.38028112  0.51354523  0.48495424  1
  O2-  O268  1  0.86507383  0.01851114  -0.01688645  1
  O2-  O269  1  0.86592993  0.02007535  0.46890954  1
  O2-  O270  1  0.87766807  0.51774900  -0.01640510  1
  O2-  O271  1  0.86523776  0.52569424  0.47144881  1
  O2-  O272  1  0.47571644  0.36260284  0.02495846  1
  O2-  O273  1  0.48068386  0.37425742  0.51314428  1
  O2-  O274  1  0.48465024  0.88132406  0.01746223  1
  O2-  O275  1  0.47964749  0.86745504  0.52975846  1
  O2-  O276  1  0.98860148  0.38178453  0.02091588  1
  O2-  O277  1  0.97087212  0.36795015  0.52348683  1
  O2-  O278  1  0.98653666  0.86431048  0.02207116  1
  O2-  O279  1  0.98291508  0.86802636  0.52019956  1
  O2-  O280  1  0.01952058  0.13711520  -0.02783959  1
  O2-  O281  1  0.02160132  0.13359646  0.48070439  1
  O2-  O282  1  0.01471775  0.62372013  -0.01738808  1
  O2-  O283  1  0.02278518  0.63208388  0.47660001  1
  O2-  O284  1  0.51007927  0.12514732  -0.01276512  1
  O2-  O285  1  0.51949172  0.13607803  0.47832193  1
  O2-  O286  1  0.51709523  0.63468078  -0.02474913  1
  O2-  O287  1  0.51499386  0.61647862  0.48631028  1
  O2-  O288  1  0.13538196  0.26531501  -0.01700695  1
  O2-  O289  1  0.11568294  0.27972180  0.48445731  1
  O2-  O290  1  0.13279997  0.76474040  -0.01951041  1
  O2-  O291  1  0.11927913  0.76908006  0.47147227  1
  O2-  O292  1  0.60908518  0.26651111  -0.01619958  1
  O2-  O293  1  0.61078921  0.27436577  0.48795478  1
  O2-  O294  1  0.62987036  0.76704267  -0.01774650  1
  O2-  O295  1  0.61283108  0.76585438  0.47200189  1
  O2-  O296  1  0.37270132  0.22759685  0.01749437  1
  O2-  O297  1  0.38574804  0.23499917  0.52705783  1
  O2-  O298  1  0.38041408  0.73500149  0.01608307  1
  O2-  O299  1  0.38502548  0.72246192  0.53030043  1
  O2-  O300  1  0.88458372  0.23269245  0.02243272  1
  O2-  O301  1  0.88050396  0.22336063  0.51478313  1
  O2-  O302  1  0.87629281  0.73419060  0.02223921  1
  O2-  O303  1  0.88403646  0.72684925  0.52397266  1
  O2-  O304  1  0.27101111  0.36975944  -0.01055519  1
  O2-  O305  1  0.27365641  0.38187247  0.47989747  1
  O2-  O306  1  0.27146721  0.87247052  -0.01721651  1
  O2-  O307  1  0.28511762  0.88326767  0.49108915  1
  O2-  O308  1  0.76590432  0.38519781  -0.02081428  1
  O2-  O309  1  0.76312425  0.38454345  0.47818248  1
  O2-  O310  1  0.76575776  0.87460782  -0.01467454  1
  O2-  O311  1  0.76491443  0.88449720  0.46769571  1
  O2-  O312  1  0.23618042  0.11884764  0.01265876  1
  O2-  O313  1  0.22668198  0.11353872  0.51837155  1
  O2-  O314  1  0.23561329  0.62587886  0.01387357  1
  O2-  O315  1  0.23729216  0.61513163  0.51569261  1
  O2-  O316  1  0.73173031  0.11432525  0.02640136  1
  O2-  O317  1  0.72499581  0.11226675  0.50745113  1
  O2-  O318  1  0.73512920  0.63275324  0.02222133  1
  O2-  O319  1  0.72353025  0.61745845  0.52148328  1
