# generated using pymatgen
data_Sr64Ca21Nb43O192
_symmetry_space_group_name_H-M   'P 1'
_cell_length_a   16.55591008
_cell_length_b   16.59595414
_cell_length_c   16.71052465
_cell_angle_alpha   89.98200701
_cell_angle_beta   89.95933089
_cell_angle_gamma   90.13836504
_symmetry_Int_Tables_number   1
_chemical_formula_structural   Sr64Ca21Nb43O192
_chemical_formula_sum   'Sr64 Ca21 Nb43 O192'
_cell_volume   4591.38776712
_cell_formula_units_Z   1
loop_
 _symmetry_equiv_pos_site_id
 _symmetry_equiv_pos_as_xyz
  1  'x, y, z'
loop_
 _atom_type_symbol
 _atom_type_oxidation_number
  Sr2+  2.0
  Ca2+  2.0
  Nb5+  5.0
  O2-  -2.0
loop_
 _atom_site_type_symbol
 _atom_site_label
 _atom_site_symmetry_multiplicity
 _atom_site_fract_x
 _atom_site_fract_y
 _atom_site_fract_z
 _atom_site_occupancy
  Sr2+  Sr0  1  0.12231314  0.13181920  0.12276999  1
  Sr2+  Sr1  1  0.12148828  0.12274031  0.61418277  1
  Sr2+  Sr2  1  0.11366562  0.64442043  0.12750546  1
  Sr2+  Sr3  1  0.11793388  0.63916384  0.63156443  1
  Sr2+  Sr4  1  0.61265603  0.13366507  0.12673736  1
  Sr2+  Sr5  1  0.62203281  0.13288266  0.62406393  1
  Sr2+  Sr6  1  0.62208312  0.63149550  0.13329045  1
  Sr2+  Sr7  1  0.61343631  0.64297415  0.62059896  1
  Sr2+  Sr8  1  0.37124234  0.38283159  0.11685823  1
  Sr2+  Sr9  1  0.36995825  0.38896074  0.62224990  1
  Sr2+  Sr10  1  0.36971244  0.88467660  0.12870742  1
  Sr2+  Sr11  1  0.37844396  0.87175827  0.63247721  1
  Sr2+  Sr12  1  0.87176348  0.39325072  0.12533766  1
  Sr2+  Sr13  1  0.86650222  0.38421366  0.62349519  1
  Sr2+  Sr14  1  0.87132138  0.86644732  0.11557434  1
  Sr2+  Sr15  1  0.86791778  0.88243774  0.62281397  1
  Sr2+  Sr16  1  0.13220905  0.36476842  0.37323137  1
  Sr2+  Sr17  1  0.13386940  0.37148965  0.86531322  1
  Sr2+  Sr18  1  0.14089650  0.87025577  0.37174782  1
  Sr2+  Sr19  1  0.13808044  0.86679672  0.87777791  1
  Sr2+  Sr20  1  0.63501846  0.36783098  0.37223727  1
  Sr2+  Sr21  1  0.63285827  0.36722547  0.88002804  1
  Sr2+  Sr22  1  0.63307280  0.86860899  0.37378956  1
  Sr2+  Sr23  1  0.63407326  0.86912110  0.87621181  1
  Sr2+  Sr24  1  0.37426835  0.11658938  0.37461202  1
  Sr2+  Sr25  1  0.39047955  0.12233488  0.87599870  1
  Sr2+  Sr26  1  0.38636903  0.61811014  0.37466390  1
  Sr2+  Sr27  1  0.37569659  0.62025719  0.86852872  1
  Sr2+  Sr28  1  0.88112067  0.12431926  0.36976598  1
  Sr2+  Sr29  1  0.88165037  0.11810024  0.86971155  1
  Sr2+  Sr30  1  0.88058942  0.61223678  0.37656779  1
  Sr2+  Sr31  1  0.89144886  0.62076749  0.87695534  1
  Sr2+  Sr32  1  0.12758140  0.11655803  0.36874963  1
  Sr2+  Sr33  1  0.12829203  0.11866239  0.87396598  1
  Sr2+  Sr34  1  0.13720142  0.62000984  0.36786906  1
  Sr2+  Sr35  1  0.13245301  0.60611651  0.87113010  1
  Sr2+  Sr36  1  0.63285594  0.12192957  0.36944748  1
  Sr2+  Sr37  1  0.62817447  0.11556229  0.87941527  1
  Sr2+  Sr38  1  0.62905861  0.60899888  0.37378479  1
  Sr2+  Sr39  1  0.63085165  0.61663705  0.87344367  1
  Sr2+  Sr40  1  0.38328154  0.36852303  0.37465728  1
  Sr2+  Sr41  1  0.37536590  0.37919584  0.87437849  1
  Sr2+  Sr42  1  0.37820705  0.85757215  0.37302651  1
  Sr2+  Sr43  1  0.38874083  0.86322490  0.87584288  1
  Sr2+  Sr44  1  0.87914467  0.36646045  0.37382164  1
  Sr2+  Sr45  1  0.88554890  0.36869667  0.87085452  1
  Sr2+  Sr46  1  0.88431613  0.85912352  0.37648140  1
  Sr2+  Sr47  1  0.87955088  0.86461902  0.86977812  1
  Sr2+  Sr48  1  0.11020973  0.37586896  0.12643854  1
  Sr2+  Sr49  1  0.11490123  0.38447201  0.62619440  1
  Sr2+  Sr50  1  0.11782093  0.88082884  0.12325743  1
  Sr2+  Sr51  1  0.10915293  0.88176932  0.61924763  1
  Sr2+  Sr52  1  0.61732106  0.38916789  0.12729829  1
  Sr2+  Sr53  1  0.61101525  0.37708514  0.61746449  1
  Sr2+  Sr54  1  0.61145725  0.88071797  0.13166382  1
  Sr2+  Sr55  1  0.62754034  0.88088840  0.63149021  1
  Sr2+  Sr56  1  0.36887745  0.13056705  0.11799654  1
  Sr2+  Sr57  1  0.36497529  0.13087380  0.62512200  1
  Sr2+  Sr58  1  0.36113103  0.63686432  0.12499963  1
  Sr2+  Sr59  1  0.37400242  0.62981799  0.62511587  1
  Sr2+  Sr60  1  0.87360383  0.13411971  0.12416233  1
  Sr2+  Sr61  1  0.86163148  0.12832905  0.63003383  1
  Sr2+  Sr62  1  0.86391585  0.62926866  0.13221348  1
  Sr2+  Sr63  1  0.86363610  0.63637724  0.61615612  1
  Ca2+  Ca64  1  0.50168982  0.50354203  -0.00072257  1
  Ca2+  Ca65  1  0.50053379  -0.00242771  0.50054919  1
  Ca2+  Ca66  1  0.00370061  0.49708972  0.49911941  1
  Ca2+  Ca67  1  0.00163988  0.49945196  0.00028212  1
  Ca2+  Ca68  1  0.50100003  0.49979427  0.50033042  1
  Ca2+  Ca69  1  0.74721148  0.75223312  0.49726288  1
  Ca2+  Ca70  1  0.25000744  0.74665871  0.50167067  1
  Ca2+  Ca71  1  0.25087833  0.74950298  -0.00233699  1
  Ca2+  Ca72  1  0.74644229  0.74931034  0.00006902  1
  Ca2+  Ca73  1  0.75238467  0.25153255  0.00178888  1
  Ca2+  Ca74  1  0.75063333  0.00031262  0.24869228  1
  Ca2+  Ca75  1  0.74838703  0.49975307  0.74748025  1
  Ca2+  Ca76  1  0.24876258  0.00208507  0.24859029  1
  Ca2+  Ca77  1  -0.00208741  0.75318870  0.25212404  1
  Ca2+  Ca78  1  0.00085633  0.24831133  0.74670351  1
  Ca2+  Ca79  1  0.24769634  0.49850354  0.24816593  1
  Ca2+  Ca80  1  0.49987885  0.74849330  0.24803568  1
  Ca2+  Ca81  1  0.49925640  0.25064848  0.24986891  1
  Ca2+  Ca82  1  0.24868244  0.00167012  0.75035691  1
  Ca2+  Ca83  1  -0.00041587  0.75230096  0.75009782  1
  Ca2+  Ca84  1  0.50077688  0.24804007  0.74843727  1
  Nb5+  Nb85  1  -0.00408605  -0.00053197  0.49048061  1
  Nb5+  Nb86  1  0.50548581  -0.00250420  -0.00060675  1
  Nb5+  Nb87  1  0.00295744  -0.00026062  -0.00607910  1
  Nb5+  Nb88  1  0.74860924  0.25018110  0.50117936  1
  Nb5+  Nb89  1  0.24612827  0.24972642  0.49599908  1
  Nb5+  Nb90  1  0.24916107  0.24856786  -0.00840607  1
  Nb5+  Nb91  1  0.00145941  0.25041501  0.25041677  1
  Nb5+  Nb92  1  0.50225393  0.74886656  0.75266887  1
  Nb5+  Nb93  1  0.74923684  0.00135711  0.75313522  1
  Nb5+  Nb94  1  0.25074780  0.49957233  0.74733884  1
  Nb5+  Nb95  1  0.74935529  0.49780508  0.25104401  1
  Nb5+  Nb96  1  -0.00455982  0.00067015  0.24078031  1
  Nb5+  Nb97  1  0.00067149  -0.00015628  0.74541366  1
  Nb5+  Nb98  1  0.00334239  0.50262411  0.25493657  1
  Nb5+  Nb99  1  -0.00636418  0.50409613  0.74390613  1
  Nb5+  Nb100  1  0.49614960  -0.00002072  0.25600366  1
  Nb5+  Nb101  1  0.50104738  0.00138538  0.74768621  1
  Nb5+  Nb102  1  0.49185094  0.50228838  0.24566084  1
  Nb5+  Nb103  1  0.50259995  0.49601474  0.75187661  1
  Nb5+  Nb104  1  0.25372477  0.25049188  0.24420031  1
  Nb5+  Nb105  1  0.25033926  0.25126680  0.73990099  1
  Nb5+  Nb106  1  0.24957043  0.75088271  0.24829959  1
  Nb5+  Nb107  1  0.24978003  0.75460051  0.74976382  1
  Nb5+  Nb108  1  0.75173904  0.25287815  0.24429802  1
  Nb5+  Nb109  1  0.74857107  0.25106373  0.75414831  1
  Nb5+  Nb110  1  0.75034070  0.75388961  0.25403379  1
  Nb5+  Nb111  1  0.75004378  0.74454962  0.75036917  1
  Nb5+  Nb112  1  -0.00551391  0.24513310  0.50207719  1
  Nb5+  Nb113  1  0.00044346  0.24981821  0.99897627  1
  Nb5+  Nb114  1  0.00344571  0.74275037  0.49528713  1
  Nb5+  Nb115  1  0.00208422  0.74742700  0.99539949  1
  Nb5+  Nb116  1  0.49296020  0.24441459  0.49803055  1
  Nb5+  Nb117  1  0.50197441  0.25384908  1.00150247  1
  Nb5+  Nb118  1  0.50043438  0.75310722  0.49477530  1
  Nb5+  Nb119  1  0.50236215  0.74627437  1.00009293  1
  Nb5+  Nb120  1  0.25705464  0.00121724  -0.00426492  1
  Nb5+  Nb121  1  0.25415102  -0.00296964  0.50231557  1
  Nb5+  Nb122  1  0.24488769  0.49987622  0.00624893  1
  Nb5+  Nb123  1  0.24792358  0.50265504  0.49961118  1
  Nb5+  Nb124  1  0.75591304  -0.00069516  0.00409956  1
  Nb5+  Nb125  1  0.75192370  0.00197170  0.49641314  1
  Nb5+  Nb126  1  0.75397207  0.50275084  -0.00612892  1
  Nb5+  Nb127  1  0.74695309  0.50012289  0.50410216  1
  O2-  O128  1  0.01660061  0.01749437  0.12668167  1
  O2-  O129  1  0.01452610  0.01489656  0.63069592  1
  O2-  O130  1  0.02226485  0.50908849  0.13723827  1
  O2-  O131  1  0.03214456  0.51555537  0.63226085  1
  O2-  O132  1  0.52075040  0.01111721  0.11537813  1
  O2-  O133  1  0.53117220  0.00631827  0.63628780  1
  O2-  O134  1  0.52887919  0.51186277  0.13252895  1
  O2-  O135  1  0.52100653  0.52204435  0.63840568  1
  O2-  O136  1  -0.02532905  -0.00907091  0.37807961  1
  O2-  O137  1  -0.02603541  -0.01026571  0.88329826  1
  O2-  O138  1  -0.02788304  0.47991803  0.36705259  1
  O2-  O139  1  -0.02108578  0.48496308  0.86304098  1
  O2-  O140  1  0.46563007  -0.01222418  0.36614190  1
  O2-  O141  1  0.48241905  -0.01162954  0.87681358  1
  O2-  O142  1  0.47691733  0.48752722  0.36471597  1
  O2-  O143  1  0.46959581  0.49904250  0.86569568  1
  O2-  O144  1  0.26789291  0.26526396  0.12966484  1
  O2-  O145  1  0.27376269  0.26580713  0.62666368  1
  O2-  O146  1  0.27749310  0.76479699  0.13072810  1
  O2-  O147  1  0.28254082  0.75332289  0.63643872  1
  O2-  O148  1  0.78352382  0.26698238  0.13527558  1
  O2-  O149  1  0.77645448  0.25873637  0.61739351  1
  O2-  O150  1  0.77839662  0.75390353  0.13614711  1
  O2-  O151  1  0.76530569  0.77221970  0.63521446  1
  O2-  O152  1  0.23217259  0.23291902  0.38333952  1
  O2-  O153  1  0.22501744  0.23876176  0.87986606  1
  O2-  O154  1  0.22449353  0.73919510  0.36702123  1
  O2-  O155  1  0.23027051  0.72361235  0.86244129  1
  O2-  O156  1  0.74276699  0.23389565  0.37858282  1
  O2-  O157  1  0.72192686  0.23733802  0.86566445  1
  O2-  O158  1  0.71214205  0.73513291  0.36650000  1
  O2-  O159  1  0.71666125  0.74040401  0.86328113  1
  O2-  O160  1  -0.00431408  0.22822607  0.13171174  1
  O2-  O161  1  -0.00528252  0.21477089  0.61316931  1
  O2-  O162  1  -0.02114891  0.73555947  0.11390065  1
  O2-  O163  1  -0.02056094  0.73368620  0.61366120  1
  O2-  O164  1  0.47875224  0.22810066  0.11494372  1
  O2-  O165  1  0.49116794  0.21568756  0.61463191  1
  O2-  O166  1  0.47936050  0.73492469  0.11212359  1
  O2-  O167  1  0.48343854  0.73774576  0.63468594  1
  O2-  O168  1  0.25161102  0.02999086  0.38842164  1
  O2-  O169  1  0.25840239  0.04033212  0.88439981  1
  O2-  O170  1  0.26535316  0.51974013  0.38648755  1
  O2-  O171  1  0.26647824  0.51008923  0.87072500  1
  O2-  O172  1  0.76311062  0.03020630  0.38595947  1
  O2-  O173  1  0.75926607  0.02587442  0.87151911  1
  O2-  O174  1  0.76444912  0.51045928  0.37507249  1
  O2-  O175  1  0.76759641  0.52959700  0.88242408  1
  O2-  O176  1  0.01285101  0.26388080  0.37569316  1
  O2-  O177  1  0.01712075  0.26761156  0.88697259  1
  O2-  O178  1  0.01699513  0.78669066  0.38579655  1
  O2-  O179  1  0.01536256  0.78657302  0.88357296  1
  O2-  O180  1  0.51296936  0.27620402  0.38493033  1
  O2-  O181  1  0.52038544  0.25604083  0.88482475  1
  O2-  O182  1  0.51285562  0.77638401  0.38274369  1
  O2-  O183  1  0.51654227  0.77177154  0.87120556  1
  O2-  O184  1  0.22925141  -0.01378571  0.10966847  1
  O2-  O185  1  0.22092792  -0.01338937  0.61538434  1
  O2-  O186  1  0.23213890  0.46385249  0.11489364  1
  O2-  O187  1  0.23863810  0.47442450  0.63087690  1
  O2-  O188  1  0.74124149  -0.03203902  0.11358382  1
  O2-  O189  1  0.74506333  -0.01084176  0.62926760  1
  O2-  O190  1  0.74114815  0.47594986  0.13440978  1
  O2-  O191  1  0.73402844  0.46612617  0.61446526  1
  O2-  O192  1  0.12196474  0.27117288  0.24169918  1
  O2-  O193  1  0.13560330  0.27958022  0.73834214  1
  O2-  O194  1  0.13097956  0.77659423  0.22670719  1
  O2-  O195  1  0.13686189  0.76935525  0.72386713  1
  O2-  O196  1  0.63854314  0.27588709  0.23522746  1
  O2-  O197  1  0.63737437  0.26650226  0.71685174  1
  O2-  O198  1  0.63493949  0.76188832  0.21953561  1
  O2-  O199  1  0.62017815  0.76810779  0.73126264  1
  O2-  O200  1  0.36354539  0.22656276  0.27085832  1
  O2-  O201  1  0.36251732  0.23203852  0.77360583  1
  O2-  O202  1  0.36569997  0.72339755  0.27119185  1
  O2-  O203  1  0.38087914  0.73802082  0.77085533  1
  O2-  O204  1  0.88084825  0.23716140  0.26843015  1
  O2-  O205  1  0.86454179  0.22252023  0.76185633  1
  O2-  O206  1  0.86413948  0.72491000  0.27998109  1
  O2-  O207  1  0.86277144  0.73284799  0.77542168  1
  O2-  O208  1  0.26144784  0.36277056  0.27967691  1
  O2-  O209  1  0.27018586  0.37596491  0.76577261  1
  O2-  O210  1  0.27189499  0.86981581  0.26787413  1
  O2-  O211  1  0.26999796  0.86628530  0.77314757  1
  O2-  O212  1  0.77086748  0.37358810  0.27174048  1
  O2-  O213  1  0.77450250  0.36459523  0.76605345  1
  O2-  O214  1  0.76820578  0.86641551  0.27446177  1
  O2-  O215  1  0.76310926  0.88203147  0.76544297  1
  O2-  O216  1  0.22019486  0.13761007  0.23923220  1
  O2-  O217  1  0.22517712  0.13753199  0.72888851  1
  O2-  O218  1  0.22161530  0.63274921  0.22925126  1
  O2-  O219  1  0.23851091  0.61814909  0.73291376  1
  O2-  O220  1  0.73311956  0.13785315  0.23257187  1
  O2-  O221  1  0.72934786  0.12207646  0.73365291  1
  O2-  O222  1  0.73546254  0.61455592  0.23894735  1
  O2-  O223  1  0.72851336  0.63437933  0.72414911  1
  O2-  O224  1  0.11474193  0.47781912  0.27760130  1
  O2-  O225  1  0.13267121  0.48372887  0.76577511  1
  O2-  O226  1  0.10896179  0.98570814  0.27108761  1
  O2-  O227  1  0.11088255  0.97548629  0.77302251  1
  O2-  O228  1  0.63252564  0.47706348  0.26730550  1
  O2-  O229  1  0.61516786  0.48371602  0.78167351  1
  O2-  O230  1  0.61553121  0.97595309  0.26963823  1
  O2-  O231  1  0.62953147  0.98237161  0.76913986  1
  O2-  O232  1  0.38331996  0.02768714  0.22385115  1
  O2-  O233  1  0.38624342  0.01473688  0.72793437  1
  O2-  O234  1  0.38070927  0.52539178  0.22404122  1
  O2-  O235  1  0.37285467  0.51558796  0.73161034  1
  O2-  O236  1  0.88391823  0.03827550  0.23965119  1
  O2-  O237  1  0.87064184  0.02075398  0.74276276  1
  O2-  O238  1  0.87394115  0.51042642  0.23477097  1
  O2-  O239  1  0.88256425  0.52643576  0.72068728  1
  O2-  O240  1  0.47926820  0.38386812  0.22818492  1
  O2-  O241  1  0.48289107  0.38381763  0.73303324  1
  O2-  O242  1  0.48092947  0.88500961  0.22595817  1
  O2-  O243  1  0.48704221  0.87594189  0.74233376  1
  O2-  O244  1  0.98418364  0.36836298  0.23328078  1
  O2-  O245  1  0.98158195  0.38394909  0.72834293  1
  O2-  O246  1  0.96695135  0.88933953  0.23243629  1
  O2-  O247  1  0.96896225  0.88664344  0.73612158  1
  O2-  O248  1  0.01755914  0.13064350  0.26604108  1
  O2-  O249  1  0.01144128  0.11355164  0.77733027  1
  O2-  O250  1  0.01489424  0.61674080  0.27148025  1
  O2-  O251  1  0.02223067  0.61833196  0.77042534  1
  O2-  O252  1  0.52926941  0.11589048  0.25807089  1
  O2-  O253  1  0.52016705  0.11329129  0.77169379  1
  O2-  O254  1  0.52591101  0.61505494  0.26688190  1
  O2-  O255  1  0.51645479  0.63189929  0.76854410  1
  O2-  O256  1  0.13431091  0.47597041  -0.02919159  1
  O2-  O257  1  0.13851987  0.45860357  0.48995472  1
  O2-  O258  1  0.11997147  0.98885694  -0.02250905  1
  O2-  O259  1  0.11592601  0.98935158  0.48714935  1
  O2-  O260  1  0.63786854  0.46829227  -0.01246684  1
  O2-  O261  1  0.63485130  0.47101272  0.47757641  1
  O2-  O262  1  0.62110643  0.98486298  -0.01902815  1
  O2-  O263  1  0.63886276  0.97901891  0.48800732  1
  O2-  O264  1  0.37193664  0.01755617  0.01427524  1
  O2-  O265  1  0.36476004  0.02116890  0.52350977  1
  O2-  O266  1  0.36296015  0.51288970  0.01662218  1
  O2-  O267  1  0.36411794  0.51041357  0.52592297  1
  O2-  O268  1  0.87389332  0.02055915  0.01568410  1
  O2-  O269  1  0.88127253  0.02665794  0.51925007  1
  O2-  O270  1  0.86842215  0.52345971  0.02501427  1
  O2-  O271  1  0.86591947  0.51290488  0.51715970  1
  O2-  O272  1  0.47379372  0.36552066  0.00684249  1
  O2-  O273  1  0.48716865  0.36093523  0.52795701  1
  O2-  O274  1  0.47361918  0.88363645  0.01069797  1
  O2-  O275  1  0.46603591  0.86554499  0.51746177  1
  O2-  O276  1  0.98546637  0.36115374  0.02587451  1
  O2-  O277  1  0.98376092  0.35863814  0.52112095  1
  O2-  O278  1  0.98829016  0.88814257  0.02438026  1
  O2-  O279  1  0.98088824  0.88671913  0.51902202  1
  O2-  O280  1  0.02199399  0.12186327  -0.00618943  1
  O2-  O281  1  0.02000984  0.12364531  0.47869924  1
  O2-  O282  1  0.02090163  0.63557019  -0.02573298  1
  O2-  O283  1  0.02406693  0.63230941  0.47118526  1
  O2-  O284  1  0.50766634  0.11987737  -0.01485564  1
  O2-  O285  1  0.52599598  0.13232365  0.47441184  1
  O2-  O286  1  0.53188598  0.63692725  -0.01694512  1
  O2-  O287  1  0.52891171  0.63508951  0.48830262  1
  O2-  O288  1  0.12825397  0.25935324  0.02226682  1
  O2-  O289  1  0.13023585  0.26327133  0.51547567  1
  O2-  O290  1  0.11689733  0.77447668  0.02031457  1
  O2-  O291  1  0.11587438  0.77021393  0.52592798  1
  O2-  O292  1  0.61525309  0.26596818  0.02686454  1
  O2-  O293  1  0.63400342  0.26358195  0.51365190  1
  O2-  O294  1  0.61264810  0.78798543  0.01338159  1
  O2-  O295  1  0.61387140  0.77678239  0.52641040  1
  O2-  O296  1  0.36789479  0.23016163  -0.01692903  1
  O2-  O297  1  0.37665770  0.22669963  0.48351586  1
  O2-  O298  1  0.38622014  0.73577759  -0.02982795  1
  O2-  O299  1  0.38448384  0.71772608  0.48701282  1
  O2-  O300  1  0.88840570  0.22061168  -0.01202160  1
  O2-  O301  1  0.88022005  0.22805980  0.48365311  1
  O2-  O302  1  0.88332003  0.74636536  -0.02488711  1
  O2-  O303  1  0.88294607  0.73186784  0.47775559  1
  O2-  O304  1  0.26774655  0.36577113  -0.01523266  1
  O2-  O305  1  0.27788015  0.36385166  0.48850054  1
  O2-  O306  1  0.26389402  0.88906534  -0.03091632  1
  O2-  O307  1  0.26544163  0.88508417  0.47889050  1
  O2-  O308  1  0.78301090  0.38417657  -0.01949796  1
  O2-  O309  1  0.77342318  0.36499084  0.48348160  1
  O2-  O310  1  0.76600125  0.88833493  -0.03185223  1
  O2-  O311  1  0.78268259  0.89022701  0.48672372  1
  O2-  O312  1  0.23687977  0.13119824  0.02254065  1
  O2-  O313  1  0.24117742  0.13336605  0.52554791  1
  O2-  O314  1  0.22468826  0.61253628  0.02244569  1
  O2-  O315  1  0.21744495  0.61082239  0.52075025  1
  O2-  O316  1  0.72547323  0.11325723  0.01743869  1
  O2-  O317  1  0.73932537  0.12686826  0.52053468  1
  O2-  O318  1  0.72388720  0.61409724  0.02415465  1
  O2-  O319  1  0.72859413  0.61332735  0.51949142  1
