# generated using pymatgen
data_Sr64Ca21Nb43O192
_symmetry_space_group_name_H-M   'P 1'
_cell_length_a   16.57153718
_cell_length_b   16.58242285
_cell_length_c   16.73536093
_cell_angle_alpha   89.96591710
_cell_angle_beta   90.00316730
_cell_angle_gamma   90.07841630
_symmetry_Int_Tables_number   1
_chemical_formula_structural   Sr64Ca21Nb43O192
_chemical_formula_sum   'Sr64 Ca21 Nb43 O192'
_cell_volume   4598.80907703
_cell_formula_units_Z   1
loop_
 _symmetry_equiv_pos_site_id
 _symmetry_equiv_pos_as_xyz
  1  'x, y, z'
loop_
 _atom_type_symbol
 _atom_type_oxidation_number
  Sr2+  2.0
  Ca2+  2.0
  Nb5+  5.0
  O2-  -2.0
loop_
 _atom_site_type_symbol
 _atom_site_label
 _atom_site_symmetry_multiplicity
 _atom_site_fract_x
 _atom_site_fract_y
 _atom_site_fract_z
 _atom_site_occupancy
  Sr2+  Sr0  1  0.12556921  0.11350488  0.12871560  1
  Sr2+  Sr1  1  0.12657707  0.10881162  0.62336243  1
  Sr2+  Sr2  1  0.13921120  0.61984174  0.12638029  1
  Sr2+  Sr3  1  0.13056851  0.62331271  0.61227612  1
  Sr2+  Sr4  1  0.62696089  0.11329588  0.11952454  1
  Sr2+  Sr5  1  0.63339744  0.11404844  0.62372681  1
  Sr2+  Sr6  1  0.63489980  0.62109857  0.13216260  1
  Sr2+  Sr7  1  0.63206548  0.61392833  0.62343593  1
  Sr2+  Sr8  1  0.38173460  0.35732425  0.13171682  1
  Sr2+  Sr9  1  0.38859191  0.37008236  0.62329624  1
  Sr2+  Sr10  1  0.38257850  0.86201749  0.12435261  1
  Sr2+  Sr11  1  0.37762110  0.86424755  0.62821668  1
  Sr2+  Sr12  1  0.87869618  0.36420108  0.12393012  1
  Sr2+  Sr13  1  0.87949220  0.36833729  0.62650336  1
  Sr2+  Sr14  1  0.87986046  0.86142365  0.12802542  1
  Sr2+  Sr15  1  0.88758537  0.85812953  0.62898379  1
  Sr2+  Sr16  1  0.12984461  0.38227375  0.36732616  1
  Sr2+  Sr17  1  0.12043889  0.38391264  0.87342666  1
  Sr2+  Sr18  1  0.11100539  0.87696981  0.37247505  1
  Sr2+  Sr19  1  0.11956748  0.88219035  0.88197230  1
  Sr2+  Sr20  1  0.60591547  0.37903698  0.37158511  1
  Sr2+  Sr21  1  0.61679782  0.37948347  0.87810409  1
  Sr2+  Sr22  1  0.62374072  0.87540580  0.36825954  1
  Sr2+  Sr23  1  0.61223354  0.88474943  0.87497110  1
  Sr2+  Sr24  1  0.35884688  0.13447487  0.37651179  1
  Sr2+  Sr25  1  0.36310170  0.12883878  0.87751942  1
  Sr2+  Sr26  1  0.36949381  0.63234240  0.37719205  1
  Sr2+  Sr27  1  0.35919605  0.63465599  0.87785410  1
  Sr2+  Sr28  1  0.86430802  0.13351719  0.37645555  1
  Sr2+  Sr29  1  0.86773120  0.13057685  0.87629743  1
  Sr2+  Sr30  1  0.86393932  0.63667122  0.37512048  1
  Sr2+  Sr31  1  0.87249512  0.62722738  0.86945886  1
  Sr2+  Sr32  1  0.11915521  0.13822236  0.37585692  1
  Sr2+  Sr33  1  0.12055980  0.13603602  0.87386993  1
  Sr2+  Sr34  1  0.11516538  0.63466649  0.37338887  1
  Sr2+  Sr35  1  0.11956204  0.62286840  0.89076004  1
  Sr2+  Sr36  1  0.62282893  0.13680060  0.37960108  1
  Sr2+  Sr37  1  0.61710535  0.12574277  0.87636754  1
  Sr2+  Sr38  1  0.61538119  0.63617535  0.36923028  1
  Sr2+  Sr39  1  0.61581213  0.63802339  0.86900740  1
  Sr2+  Sr40  1  0.37003695  0.38827968  0.37614913  1
  Sr2+  Sr41  1  0.36520804  0.38792831  0.86973586  1
  Sr2+  Sr42  1  0.36645146  0.89032967  0.36495249  1
  Sr2+  Sr43  1  0.36947041  0.87898653  0.87541491  1
  Sr2+  Sr44  1  0.87401653  0.38339031  0.37139177  1
  Sr2+  Sr45  1  0.87149348  0.38677202  0.87350491  1
  Sr2+  Sr46  1  0.86464523  0.87741113  0.36907293  1
  Sr2+  Sr47  1  0.86700469  0.88469473  0.87541175  1
  Sr2+  Sr48  1  0.13710255  0.36842999  0.12995248  1
  Sr2+  Sr49  1  0.13757814  0.36504729  0.62600298  1
  Sr2+  Sr50  1  0.13699118  0.86635701  0.12861246  1
  Sr2+  Sr51  1  0.13549699  0.86909366  0.62746683  1
  Sr2+  Sr52  1  0.63288138  0.36770746  0.12323904  1
  Sr2+  Sr53  1  0.63252355  0.36988301  0.62475351  1
  Sr2+  Sr54  1  0.63222383  0.86678750  0.12355271  1
  Sr2+  Sr55  1  0.62614792  0.86364462  0.62850665  1
  Sr2+  Sr56  1  0.39266637  0.11306412  0.13004752  1
  Sr2+  Sr57  1  0.37924296  0.11273013  0.61491441  1
  Sr2+  Sr58  1  0.38262212  0.62004024  0.11833239  1
  Sr2+  Sr59  1  0.39429232  0.62503349  0.62696192  1
  Sr2+  Sr60  1  0.88875244  0.12047248  0.12965841  1
  Sr2+  Sr61  1  0.88338148  0.12321829  0.62348422  1
  Sr2+  Sr62  1  0.87929007  0.62122005  0.12466801  1
  Sr2+  Sr63  1  0.88746008  0.61658265  0.62175209  1
  Ca2+  Ca64  1  0.50065340  0.49638645  -0.00232022  1
  Ca2+  Ca65  1  0.50089501  -0.00107628  0.50007043  1
  Ca2+  Ca66  1  -0.00108426  0.00295354  0.49711856  1
  Ca2+  Ca67  1  -0.00172699  -0.00338308  0.00069529  1
  Ca2+  Ca68  1  -0.00180069  0.49940654  0.00239525  1
  Ca2+  Ca69  1  0.24813082  0.24704417  0.00127193  1
  Ca2+  Ca70  1  0.74953243  0.74973816  -0.00488595  1
  Ca2+  Ca71  1  0.74719621  0.74978266  0.50233357  1
  Ca2+  Ca72  1  0.24627510  0.25237139  0.50213265  1
  Ca2+  Ca73  1  0.24986499  0.75039304  0.49991768  1
  Ca2+  Ca74  1  0.25142135  0.50271411  0.25155305  1
  Ca2+  Ca75  1  0.00166292  0.74832814  0.24613094  1
  Ca2+  Ca76  1  0.50018345  0.75109950  0.75118026  1
  Ca2+  Ca77  1  0.24996717  0.50333767  0.74756467  1
  Ca2+  Ca78  1  0.24910918  0.00124733  0.24723351  1
  Ca2+  Ca79  1  0.49799379  0.74870940  0.24778383  1
  Ca2+  Ca80  1  0.74958651  0.49689734  0.25450639  1
  Ca2+  Ca81  1  0.50188069  0.24741751  0.25037514  1
  Ca2+  Ca82  1  0.75191353  0.00292808  0.24961677  1
  Ca2+  Ca83  1  0.50201708  0.24738669  0.75017727  1
  Ca2+  Ca84  1  0.00523495  0.74744210  0.75220151  1
  Nb5+  Nb85  1  0.00716009  0.49581434  0.50034910  1
  Nb5+  Nb86  1  0.50781935  0.50164660  0.50136838  1
  Nb5+  Nb87  1  0.49725205  -0.00219928  -0.00121797  1
  Nb5+  Nb88  1  0.75171736  0.24997116  -0.00757971  1
  Nb5+  Nb89  1  0.74891387  0.25455451  0.49569433  1
  Nb5+  Nb90  1  0.24967624  0.75122199  -0.00014702  1
  Nb5+  Nb91  1  -0.00212369  0.25046843  0.25694814  1
  Nb5+  Nb92  1  0.75092733  0.49342944  0.74844743  1
  Nb5+  Nb93  1  -0.00023936  0.25098161  0.75672301  1
  Nb5+  Nb94  1  0.24413317  0.00020206  0.75041438  1
  Nb5+  Nb95  1  0.74756588  -0.00610391  0.74816433  1
  Nb5+  Nb96  1  -0.00179455  -0.00393185  0.25142566  1
  Nb5+  Nb97  1  -0.00787593  -0.00123263  0.75322320  1
  Nb5+  Nb98  1  -0.00271010  0.50019097  0.24557154  1
  Nb5+  Nb99  1  0.00468701  0.49884181  0.74454347  1
  Nb5+  Nb100  1  0.50633784  0.00096293  0.25671496  1
  Nb5+  Nb101  1  0.49064425  0.00334305  0.75044133  1
  Nb5+  Nb102  1  0.49725307  0.49619556  0.24281229  1
  Nb5+  Nb103  1  0.49943292  0.50266506  0.75362759  1
  Nb5+  Nb104  1  0.25273149  0.24760466  0.24727121  1
  Nb5+  Nb105  1  0.25784007  0.24756417  0.74540004  1
  Nb5+  Nb106  1  0.25357229  0.75174977  0.25456284  1
  Nb5+  Nb107  1  0.24405756  0.74738059  0.75181038  1
  Nb5+  Nb108  1  0.74863755  0.24980066  0.24199787  1
  Nb5+  Nb109  1  0.74979881  0.24561006  0.74783971  1
  Nb5+  Nb110  1  0.74999187  0.75007100  0.24818121  1
  Nb5+  Nb111  1  0.75158438  0.74008219  0.75030302  1
  Nb5+  Nb112  1  -0.00036442  0.25534520  0.50623600  1
  Nb5+  Nb113  1  0.00167990  0.25308967  1.00655805  1
  Nb5+  Nb114  1  -0.00401527  0.75544021  0.49587524  1
  Nb5+  Nb115  1  -0.00295234  0.74721436  0.99954900  1
  Nb5+  Nb116  1  0.49766027  0.24763035  0.50419706  1
  Nb5+  Nb117  1  0.49392857  0.24743611  0.99764387  1
  Nb5+  Nb118  1  0.49418186  0.75828815  0.49566218  1
  Nb5+  Nb119  1  0.50379128  0.74458243  0.99944811  1
  Nb5+  Nb120  1  0.24933049  0.00040972  0.00090732  1
  Nb5+  Nb121  1  0.24543446  -0.00310724  0.49453057  1
  Nb5+  Nb122  1  0.25507587  0.49190718  0.00354971  1
  Nb5+  Nb123  1  0.26034252  0.50429663  0.50391688  1
  Nb5+  Nb124  1  0.75224818  0.00251130  0.00162950  1
  Nb5+  Nb125  1  0.75359736  -0.00506740  0.50388976  1
  Nb5+  Nb126  1  0.74668963  0.50348005  -0.00041116  1
  Nb5+  Nb127  1  0.75261640  0.49779018  0.49784298  1
  O2-  O128  1  -0.03377215  -0.00980720  0.13369185  1
  O2-  O129  1  -0.01605393  -0.00155159  0.63678546  1
  O2-  O130  1  -0.03680296  0.48936887  0.13634991  1
  O2-  O131  1  -0.02420017  0.48351839  0.62341687  1
  O2-  O132  1  0.47982046  -0.01516021  0.11380836  1
  O2-  O133  1  0.47469824  -0.01351536  0.63637191  1
  O2-  O134  1  0.47296882  0.47868547  0.13199382  1
  O2-  O135  1  0.48399084  0.48752310  0.62388550  1
  O2-  O136  1  0.03386463  0.01709394  0.36389763  1
  O2-  O137  1  0.02395470  0.02203181  0.86358492  1
  O2-  O138  1  0.02432846  0.49883714  0.38457425  1
  O2-  O139  1  0.01572482  0.50381496  0.86120334  1
  O2-  O140  1  0.53814253  0.01093101  0.36690184  1
  O2-  O141  1  0.51690700  0.01436359  0.87540887  1
  O2-  O142  1  0.52242093  0.51178009  0.38566818  1
  O2-  O143  1  0.53395890  0.51167366  0.86339293  1
  O2-  O144  1  0.21379535  0.23472063  0.13453935  1
  O2-  O145  1  0.21322930  0.23129191  0.63770949  1
  O2-  O146  1  0.23211296  0.74269192  0.11630873  1
  O2-  O147  1  0.22312969  0.74049027  0.63750245  1
  O2-  O148  1  0.73463184  0.23539833  0.12650114  1
  O2-  O149  1  0.73549894  0.23782041  0.63269023  1
  O2-  O150  1  0.72715849  0.73965621  0.12940136  1
  O2-  O151  1  0.71858369  0.74141758  0.63662275  1
  O2-  O152  1  0.26601470  0.27019128  0.36562374  1
  O2-  O153  1  0.26679948  0.26260864  0.86322317  1
  O2-  O154  1  0.27987204  0.76471897  0.36572347  1
  O2-  O155  1  0.26940962  0.76688283  0.87848996  1
  O2-  O156  1  0.77062528  0.26728582  0.38414751  1
  O2-  O157  1  0.77366879  0.26283560  0.87719097  1
  O2-  O158  1  0.76992806  0.76237836  0.36801062  1
  O2-  O159  1  0.78664436  0.75931181  0.86267282  1
  O2-  O160  1  0.00764172  0.27014468  0.12290456  1
  O2-  O161  1  0.00671563  0.26945040  0.62332635  1
  O2-  O162  1  0.01291518  0.78219038  0.11227909  1
  O2-  O163  1  0.02026548  0.76554338  0.61322632  1
  O2-  O164  1  0.51856299  0.27052384  0.11198911  1
  O2-  O165  1  0.51797097  0.27749238  0.61678534  1
  O2-  O166  1  0.51055264  0.77782149  0.11216060  1
  O2-  O167  1  0.50724616  0.77017982  0.61511571  1
  O2-  O168  1  0.23241447  -0.03054642  0.38400280  1
  O2-  O169  1  0.24412182  -0.02096589  0.87130850  1
  O2-  O170  1  0.24263089  0.47595159  0.38890654  1
  O2-  O171  1  0.23572596  0.47945318  0.88370393  1
  O2-  O172  1  0.73723548  -0.01882014  0.39068473  1
  O2-  O173  1  0.73418342  -0.01215429  0.86772934  1
  O2-  O174  1  0.73439540  0.46361907  0.39091927  1
  O2-  O175  1  0.73766618  0.47744652  0.86550078  1
  O2-  O176  1  -0.02024130  0.23987149  0.37407338  1
  O2-  O177  1  -0.01718790  0.23516241  0.87140703  1
  O2-  O178  1  -0.01715364  0.72423968  0.38127437  1
  O2-  O179  1  -0.00261908  0.71129528  0.88337903  1
  O2-  O180  1  0.49644371  0.22873884  0.38693492  1
  O2-  O181  1  0.49305516  0.21567151  0.88385988  1
  O2-  O182  1  0.49033644  0.72074146  0.38294287  1
  O2-  O183  1  0.47835876  0.72766615  0.88471517  1
  O2-  O184  1  0.27067939  0.02362033  0.11090606  1
  O2-  O185  1  0.26174524  0.02496529  0.63663138  1
  O2-  O186  1  0.26339239  0.52833370  0.11549756  1
  O2-  O187  1  0.26393028  0.53840482  0.61811954  1
  O2-  O188  1  0.76205398  0.03267449  0.11161378  1
  O2-  O189  1  0.76612785  0.02861173  0.63606614  1
  O2-  O190  1  0.76237530  0.51619675  0.11338972  1
  O2-  O191  1  0.76359465  0.51599225  0.62727068  1
  O2-  O192  1  0.11463302  0.26748090  0.26958264  1
  O2-  O193  1  0.11549903  0.26781883  0.77015810  1
  O2-  O194  1  0.13551123  0.77963198  0.26112253  1
  O2-  O195  1  0.13558183  0.79017614  0.76938279  1
  O2-  O196  1  0.63791973  0.27247463  0.26610249  1
  O2-  O197  1  0.63996822  0.27167376  0.77163235  1
  O2-  O198  1  0.63242571  0.77407848  0.26378525  1
  O2-  O199  1  0.63907588  0.76962333  0.77880294  1
  O2-  O200  1  0.36503962  0.22896711  0.22491474  1
  O2-  O201  1  0.36665888  0.22021759  0.72344676  1
  O2-  O202  1  0.36501707  0.72281737  0.22245880  1
  O2-  O203  1  0.36245426  0.74122697  0.73416365  1
  O2-  O204  1  0.87662974  0.22964394  0.23610839  1
  O2-  O205  1  0.87356845  0.23796683  0.73748556  1
  O2-  O206  1  0.86783362  0.72550178  0.22703384  1
  O2-  O207  1  0.86739423  0.73351970  0.71950486  1
  O2-  O208  1  0.26045970  0.36642883  0.22719253  1
  O2-  O209  1  0.27186225  0.36343884  0.72969979  1
  O2-  O210  1  0.27434367  0.86823589  0.22730001  1
  O2-  O211  1  0.27179293  0.88573153  0.73569970  1
  O2-  O212  1  0.77940067  0.36317088  0.23728544  1
  O2-  O213  1  0.76961129  0.37564196  0.73462560  1
  O2-  O214  1  0.77677060  0.86933976  0.23626628  1
  O2-  O215  1  0.77263522  0.88187473  0.73370647  1
  O2-  O216  1  0.22805481  0.13395681  0.27505315  1
  O2-  O217  1  0.23221428  0.12213325  0.77326533  1
  O2-  O218  1  0.22051170  0.63621876  0.26314754  1
  O2-  O219  1  0.22446452  0.63719077  0.77899760  1
  O2-  O220  1  0.73848184  0.13829851  0.28039304  1
  O2-  O221  1  0.73908027  0.13019328  0.76890056  1
  O2-  O222  1  0.72836826  0.63083166  0.26593099  1
  O2-  O223  1  0.73694846  0.62253155  0.76626411  1
  O2-  O224  1  0.11142681  0.46849719  0.23879106  1
  O2-  O225  1  0.11518473  0.46986442  0.72923908  1
  O2-  O226  1  0.11370264  0.98951217  0.21599005  1
  O2-  O227  1  0.12703156  0.98757167  0.73629539  1
  O2-  O228  1  0.61536688  0.46870597  0.23711655  1
  O2-  O229  1  0.63355605  0.48321366  0.72800913  1
  O2-  O230  1  0.61838662  0.97946805  0.21948610  1
  O2-  O231  1  0.63289416  0.98293921  0.73287914  1
  O2-  O232  1  0.38736808  0.02703596  0.27215370  1
  O2-  O233  1  0.37659980  0.02311397  0.76897992  1
  O2-  O234  1  0.38602435  0.52110745  0.27794428  1
  O2-  O235  1  0.38688403  0.52458433  0.77083819  1
  O2-  O236  1  0.88584666  0.02913142  0.27517271  1
  O2-  O237  1  0.87569344  0.02041317  0.77021611  1
  O2-  O238  1  0.88699400  0.51377031  0.28866032  1
  O2-  O239  1  0.87258546  0.51262365  0.76162880  1
  O2-  O240  1  0.47728738  0.38050739  0.27479731  1
  O2-  O241  1  0.48282685  0.38443720  0.76272300  1
  O2-  O242  1  0.47705104  0.88582314  0.26164426  1
  O2-  O243  1  0.49316946  0.88732524  0.77188108  1
  O2-  O244  1  0.97591464  0.36881306  0.25844712  1
  O2-  O245  1  0.97670662  0.37015860  0.75806095  1
  O2-  O246  1  0.98057505  0.88387135  0.27265003  1
  O2-  O247  1  0.97709497  0.88560873  0.76570594  1
  O2-  O248  1  0.01574685  0.13547134  0.23091601  1
  O2-  O249  1  0.01035458  0.13434234  0.73293456  1
  O2-  O250  1  0.02399348  0.61200471  0.23670647  1
  O2-  O251  1  0.01612975  0.61133647  0.72416567  1
  O2-  O252  1  0.52033750  0.11530302  0.22205618  1
  O2-  O253  1  0.53149071  0.11303150  0.73653377  1
  O2-  O254  1  0.52648756  0.61201032  0.23356297  1
  O2-  O255  1  0.52599553  0.61667490  0.72810610  1
  O2-  O256  1  0.13458674  0.48094331  0.01575749  1
  O2-  O257  1  0.11818376  0.47834370  0.52503309  1
  O2-  O258  1  0.13657126  0.97769110  0.01474545  1
  O2-  O259  1  0.13174589  0.98371821  0.52921478  1
  O2-  O260  1  0.63546101  0.46279771  0.00746407  1
  O2-  O261  1  0.62329835  0.47970829  0.52259901  1
  O2-  O262  1  0.62522439  0.98815910  0.00731577  1
  O2-  O263  1  0.63864552  0.98892221  0.53377530  1
  O2-  O264  1  0.37987453  0.01490405  -0.02266521  1
  O2-  O265  1  0.36344854  0.02720218  0.48523973  1
  O2-  O266  1  0.36805151  0.52163266  -0.02424241  1
  O2-  O267  1  0.37738348  0.51799447  0.48756033  1
  O2-  O268  1  0.86361628  0.01592355  -0.02974062  1
  O2-  O269  1  0.86355072  0.03780484  0.49491246  1
  O2-  O270  1  0.86171421  0.51458406  -0.02847642  1
  O2-  O271  1  0.86861975  0.51231233  0.48656917  1
  O2-  O272  1  0.48070870  0.35959813  -0.03163720  1
  O2-  O273  1  0.48298560  0.37874416  0.48484225  1
  O2-  O274  1  0.48758415  0.88049305  -0.02242619  1
  O2-  O275  1  0.46484930  0.86775669  0.47667114  1
  O2-  O276  1  0.96568041  0.36358811  -0.01335309  1
  O2-  O277  1  0.96970951  0.37710581  0.49191361  1
  O2-  O278  1  0.98523832  0.86226306  -0.03592648  1
  O2-  O279  1  0.97444806  0.86803908  0.47909457  1
  O2-  O280  1  0.01553203  0.13556816  0.01533733  1
  O2-  O281  1  0.01554574  0.14119972  0.51260654  1
  O2-  O282  1  0.02863229  0.63306302  0.02604173  1
  O2-  O283  1  0.01106686  0.61232169  0.51475379  1
  O2-  O284  1  0.51847513  0.11890047  0.01649898  1
  O2-  O285  1  0.52283191  0.13553251  0.52378157  1
  O2-  O286  1  0.51877491  0.63223975  0.02495678  1
  O2-  O287  1  0.52087032  0.61734933  0.51988482  1
  O2-  O288  1  0.11182714  0.27448484  -0.02077111  1
  O2-  O289  1  0.10932288  0.28056655  0.48165387  1
  O2-  O290  1  0.13294334  0.77063630  -0.01641705  1
  O2-  O291  1  0.11424771  0.75974006  0.47361500  1
  O2-  O292  1  0.63278069  0.26190827  -0.01508342  1
  O2-  O293  1  0.63095980  0.27398622  0.48732695  1
  O2-  O294  1  0.61497422  0.76779777  -0.02646364  1
  O2-  O295  1  0.61348606  0.77760057  0.48383580  1
  O2-  O296  1  0.38345536  0.22366355  0.02114220  1
  O2-  O297  1  0.38299844  0.23564902  0.51919675  1
  O2-  O298  1  0.37364048  0.73811436  0.01580106  1
  O2-  O299  1  0.38239364  0.71830393  0.51492419  1
  O2-  O300  1  0.86942286  0.22483973  0.01585746  1
  O2-  O301  1  0.87110238  0.23990633  0.51815978  1
  O2-  O302  1  0.88383066  0.72591451  0.01631151  1
  O2-  O303  1  0.88228361  0.72492210  0.51987998  1
  O2-  O304  1  0.27840990  0.38077294  0.02367904  1
  O2-  O305  1  0.26438797  0.38817573  0.53392229  1
  O2-  O306  1  0.27379507  0.87717776  0.00925373  1
  O2-  O307  1  0.26840353  0.88577127  0.53062738  1
  O2-  O308  1  0.76977195  0.36603624  0.01329570  1
  O2-  O309  1  0.76123779  0.37261106  0.53083939  1
  O2-  O310  1  0.76480028  0.88766289  0.01620396  1
  O2-  O311  1  0.78079150  0.88656738  0.52632525  1
  O2-  O312  1  0.23416943  0.11293486  -0.02894343  1
  O2-  O313  1  0.22395889  0.11721020  0.48451279  1
  O2-  O314  1  0.23740638  0.63345618  -0.01647445  1
  O2-  O315  1  0.21957245  0.61323010  0.47997834  1
  O2-  O316  1  0.73277712  0.12839640  -0.02270906  1
  O2-  O317  1  0.72895478  0.13748285  0.49213739  1
  O2-  O318  1  0.71828999  0.61254903  -0.02118285  1
  O2-  O319  1  0.72582898  0.60958554  0.48411084  1
