# generated using pymatgen
data_Sr64Ca21Nb43O192
_symmetry_space_group_name_H-M   'P 1'
_cell_length_a   16.56742196
_cell_length_b   16.58265802
_cell_length_c   16.72907318
_cell_angle_alpha   90.00724608
_cell_angle_beta   90.06655546
_cell_angle_gamma   90.06257509
_symmetry_Int_Tables_number   1
_chemical_formula_structural   Sr64Ca21Nb43O192
_chemical_formula_sum   'Sr64 Ca21 Nb43 O192'
_cell_volume   4596.00405822
_cell_formula_units_Z   1
loop_
 _symmetry_equiv_pos_site_id
 _symmetry_equiv_pos_as_xyz
  1  'x, y, z'
loop_
 _atom_type_symbol
 _atom_type_oxidation_number
  Sr2+  2.0
  Ca2+  2.0
  Nb5+  5.0
  O2-  -2.0
loop_
 _atom_site_type_symbol
 _atom_site_label
 _atom_site_symmetry_multiplicity
 _atom_site_fract_x
 _atom_site_fract_y
 _atom_site_fract_z
 _atom_site_occupancy
  Sr2+  Sr0  1  0.12606487  0.12258524  0.12694185  1
  Sr2+  Sr1  1  0.12941331  0.13061510  0.62989519  1
  Sr2+  Sr2  1  0.12499327  0.60493845  0.12670309  1
  Sr2+  Sr3  1  0.12108001  0.60473113  0.62569731  1
  Sr2+  Sr4  1  0.63142810  0.12223139  0.12649079  1
  Sr2+  Sr5  1  0.63295937  0.11325685  0.62667803  1
  Sr2+  Sr6  1  0.63737335  0.61243190  0.12661637  1
  Sr2+  Sr7  1  0.63480016  0.60488368  0.63039284  1
  Sr2+  Sr8  1  0.38469613  0.36301690  0.12679796  1
  Sr2+  Sr9  1  0.37291089  0.37175523  0.63177133  1
  Sr2+  Sr10  1  0.37037295  0.86922917  0.12169522  1
  Sr2+  Sr11  1  0.37550677  0.86777261  0.60750273  1
  Sr2+  Sr12  1  0.86918284  0.38769387  0.11993581  1
  Sr2+  Sr13  1  0.87458765  0.39375759  0.62061395  1
  Sr2+  Sr14  1  0.88341324  0.86941191  0.12390057  1
  Sr2+  Sr15  1  0.87712948  0.86304836  0.62833592  1
  Sr2+  Sr16  1  0.12238972  0.38686550  0.37987507  1
  Sr2+  Sr17  1  0.13035912  0.38147794  0.86975372  1
  Sr2+  Sr18  1  0.13859661  0.87709156  0.37727785  1
  Sr2+  Sr19  1  0.12955503  0.87842420  0.86820031  1
  Sr2+  Sr20  1  0.61810907  0.37725082  0.37656963  1
  Sr2+  Sr21  1  0.60645416  0.38063902  0.87692845  1
  Sr2+  Sr22  1  0.61670594  0.88247211  0.37018093  1
  Sr2+  Sr23  1  0.60929062  0.88722678  0.87054402  1
  Sr2+  Sr24  1  0.37576955  0.12871876  0.37273586  1
  Sr2+  Sr25  1  0.37474022  0.13093576  0.86735687  1
  Sr2+  Sr26  1  0.36535164  0.63531058  0.38212253  1
  Sr2+  Sr27  1  0.37056008  0.63006021  0.87036850  1
  Sr2+  Sr28  1  0.88242361  0.13772824  0.38032058  1
  Sr2+  Sr29  1  0.87470762  0.13180418  0.87896464  1
  Sr2+  Sr30  1  0.88563119  0.62685510  0.38535059  1
  Sr2+  Sr31  1  0.87012384  0.63351876  0.87192641  1
  Sr2+  Sr32  1  0.13455399  0.12654263  0.37569529  1
  Sr2+  Sr33  1  0.12024017  0.13212540  0.87066295  1
  Sr2+  Sr34  1  0.12667728  0.61256904  0.37695936  1
  Sr2+  Sr35  1  0.12771744  0.62073278  0.87371702  1
  Sr2+  Sr36  1  0.62360611  0.12997558  0.37734180  1
  Sr2+  Sr37  1  0.62229648  0.12616352  0.87233915  1
  Sr2+  Sr38  1  0.61792250  0.64097608  0.37061845  1
  Sr2+  Sr39  1  0.61626743  0.63066774  0.86267701  1
  Sr2+  Sr40  1  0.37114884  0.40025056  0.37596409  1
  Sr2+  Sr41  1  0.36472337  0.38906344  0.86900436  1
  Sr2+  Sr42  1  0.37025471  0.88376563  0.37282419  1
  Sr2+  Sr43  1  0.36944042  0.87827843  0.87885180  1
  Sr2+  Sr44  1  0.87252744  0.37790537  0.38912508  1
  Sr2+  Sr45  1  0.86577516  0.38822710  0.87830528  1
  Sr2+  Sr46  1  0.88225661  0.87943138  0.37781851  1
  Sr2+  Sr47  1  0.88390552  0.88098389  0.87367167  1
  Sr2+  Sr48  1  0.12607127  0.36654504  0.12551351  1
  Sr2+  Sr49  1  0.13455936  0.36573400  0.62780996  1
  Sr2+  Sr50  1  0.12868710  0.86891989  0.12629910  1
  Sr2+  Sr51  1  0.11674792  0.86682182  0.62870005  1
  Sr2+  Sr52  1  0.63610956  0.36834148  0.12650716  1
  Sr2+  Sr53  1  0.64111161  0.36923327  0.63261101  1
  Sr2+  Sr54  1  0.63985591  0.86254939  0.12551199  1
  Sr2+  Sr55  1  0.64694024  0.87571942  0.62441079  1
  Sr2+  Sr56  1  0.37533118  0.12089664  0.12765795  1
  Sr2+  Sr57  1  0.37714134  0.12077330  0.62254277  1
  Sr2+  Sr58  1  0.37971420  0.62150457  0.11917812  1
  Sr2+  Sr59  1  0.38869871  0.61039269  0.62450479  1
  Sr2+  Sr60  1  0.88456718  0.12217344  0.12037802  1
  Sr2+  Sr61  1  0.87640751  0.12704138  0.62345265  1
  Sr2+  Sr62  1  0.87667823  0.62001290  0.12687983  1
  Sr2+  Sr63  1  0.86714261  0.62416579  0.63354055  1
  Ca2+  Ca64  1  0.00098352  0.49913386  0.50325370  1
  Ca2+  Ca65  1  0.00189325  -0.00211819  0.49939050  1
  Ca2+  Ca66  1  0.50364830  0.49827497  0.49936254  1
  Ca2+  Ca67  1  0.00066347  0.50109984  -0.00398710  1
  Ca2+  Ca68  1  0.49770738  0.50272784  0.00283617  1
  Ca2+  Ca69  1  0.24695083  0.74971864  0.49987038  1
  Ca2+  Ca70  1  0.74940385  0.74877175  0.49682257  1
  Ca2+  Ca71  1  0.25054932  0.24980562  -0.00015888  1
  Ca2+  Ca72  1  0.75002827  0.75102842  -0.00408753  1
  Ca2+  Ca73  1  0.25592966  0.25079716  0.49767017  1
  Ca2+  Ca74  1  0.24871930  -0.00096011  0.75088576  1
  Ca2+  Ca75  1  0.50214679  0.24946044  0.74957240  1
  Ca2+  Ca76  1  0.75006597  0.49988824  0.25244980  1
  Ca2+  Ca77  1  0.74929796  0.00102965  0.24961710  1
  Ca2+  Ca78  1  0.25217627  0.50083781  0.24931552  1
  Ca2+  Ca79  1  0.50010320  0.75360839  0.74728065  1
  Ca2+  Ca80  1  0.75141657  0.00140522  0.75346712  1
  Ca2+  Ca81  1  -0.00354905  0.24882341  0.74939986  1
  Ca2+  Ca82  1  0.75073201  0.49534134  0.75364019  1
  Ca2+  Ca83  1  -0.00012153  0.25154766  0.25110118  1
  Ca2+  Ca84  1  0.24866638  0.50397650  0.74952471  1
  Nb5+  Nb85  1  0.50340257  0.00115267  0.00268493  1
  Nb5+  Nb86  1  0.00920374  -0.00176556  0.00168029  1
  Nb5+  Nb87  1  0.50138630  0.00134837  0.49239754  1
  Nb5+  Nb88  1  0.74985394  0.24532466  0.50635015  1
  Nb5+  Nb89  1  0.75073626  0.24676173  0.00499332  1
  Nb5+  Nb90  1  0.24646248  0.74842040  -0.00014117  1
  Nb5+  Nb91  1  0.00808530  0.75208489  0.25480254  1
  Nb5+  Nb92  1  0.50113373  0.25581329  0.25231200  1
  Nb5+  Nb93  1  0.00110988  0.74821350  0.75722943  1
  Nb5+  Nb94  1  0.24839198  0.00038055  0.24779839  1
  Nb5+  Nb95  1  0.49993606  0.75758786  0.24946527  1
  Nb5+  Nb96  1  0.00119415  -0.00028302  0.25348811  1
  Nb5+  Nb97  1  -0.00202424  0.00041545  0.74571249  1
  Nb5+  Nb98  1  -0.00558080  0.49482906  0.24812090  1
  Nb5+  Nb99  1  -0.00197580  0.49517968  0.75135122  1
  Nb5+  Nb100  1  0.49741530  0.00155552  0.24257686  1
  Nb5+  Nb101  1  0.49542561  -0.00323195  0.73645664  1
  Nb5+  Nb102  1  0.50054564  0.51309171  0.24796044  1
  Nb5+  Nb103  1  0.49924458  0.49892868  0.75026063  1
  Nb5+  Nb104  1  0.25079171  0.25658433  0.25042314  1
  Nb5+  Nb105  1  0.25129680  0.24886231  0.75076058  1
  Nb5+  Nb106  1  0.25274140  0.74876115  0.24719534  1
  Nb5+  Nb107  1  0.25181627  0.75223586  0.74324625  1
  Nb5+  Nb108  1  0.75455890  0.24542159  0.25466304  1
  Nb5+  Nb109  1  0.75143118  0.24866715  0.76134377  1
  Nb5+  Nb110  1  0.76389824  0.74837051  0.24699136  1
  Nb5+  Nb111  1  0.74586429  0.75253144  0.75505794  1
  Nb5+  Nb112  1  0.00710401  0.25100052  0.49731010  1
  Nb5+  Nb113  1  0.00001239  0.25654722  0.99903636  1
  Nb5+  Nb114  1  0.00096918  0.74833710  0.50897436  1
  Nb5+  Nb115  1  0.00427062  0.74872710  1.00490357  1
  Nb5+  Nb116  1  0.50259477  0.25141872  0.50084323  1
  Nb5+  Nb117  1  0.49783321  0.24711227  1.00135211  1
  Nb5+  Nb118  1  0.50669470  0.75082704  0.50784878  1
  Nb5+  Nb119  1  0.50081970  0.75257591  1.00331989  1
  Nb5+  Nb120  1  0.25282695  0.00332716  -0.00029957  1
  Nb5+  Nb121  1  0.24978672  -0.00175200  0.50663146  1
  Nb5+  Nb122  1  0.25304185  0.49588189  0.00573074  1
  Nb5+  Nb123  1  0.25349816  0.49989064  0.50325083  1
  Nb5+  Nb124  1  0.75849097  -0.00030744  0.00052771  1
  Nb5+  Nb125  1  0.75547504  0.00016698  0.49557174  1
  Nb5+  Nb126  1  0.74376941  0.50470141  -0.00656273  1
  Nb5+  Nb127  1  0.74580547  0.50233371  0.49318659  1
  O2-  O128  1  -0.01778072  -0.00144748  0.12492019  1
  O2-  O129  1  -0.03200697  0.00038596  0.63481882  1
  O2-  O130  1  -0.01853669  0.51551016  0.13039491  1
  O2-  O131  1  -0.02427320  0.52135817  0.63583390  1
  O2-  O132  1  0.46781930  -0.01064553  0.13030236  1
  O2-  O133  1  0.47496851  -0.01165864  0.62163636  1
  O2-  O134  1  0.46247108  0.48918616  0.13787015  1
  O2-  O135  1  0.47390637  0.48314237  0.63327827  1
  O2-  O136  1  0.02800168  -0.02088618  0.36324514  1
  O2-  O137  1  0.02460819  -0.00604744  0.88542619  1
  O2-  O138  1  0.01961987  0.49943977  0.36472725  1
  O2-  O139  1  0.03414794  0.49773266  0.86458614  1
  O2-  O140  1  0.51453634  0.01012249  0.37362829  1
  O2-  O141  1  0.51477578  0.01506468  0.89004968  1
  O2-  O142  1  0.53380542  0.51000105  0.36211029  1
  O2-  O143  1  0.52295318  0.51779278  0.86955745  1
  O2-  O144  1  0.23198554  0.24205864  0.13529488  1
  O2-  O145  1  0.23067333  0.24552111  0.63069625  1
  O2-  O146  1  0.23094486  0.75538881  0.12524860  1
  O2-  O147  1  0.23728552  0.77593334  0.63293841  1
  O2-  O148  1  0.73636501  0.23197697  0.11944005  1
  O2-  O149  1  0.73108213  0.23183416  0.61877266  1
  O2-  O150  1  0.73326222  0.72963966  0.13073131  1
  O2-  O151  1  0.73005876  0.73241394  0.63590420  1
  O2-  O152  1  0.26672492  0.23098037  0.36294861  1
  O2-  O153  1  0.27750768  0.25239509  0.86871001  1
  O2-  O154  1  0.26684285  0.75999759  0.36180916  1
  O2-  O155  1  0.26377366  0.74686207  0.88419964  1
  O2-  O156  1  0.76546459  0.25792482  0.37002851  1
  O2-  O157  1  0.77031939  0.25985346  0.87637087  1
  O2-  O158  1  0.77584885  0.77085282  0.36139260  1
  O2-  O159  1  0.78776938  0.76559637  0.86589010  1
  O2-  O160  1  0.01692080  0.24134450  0.11540866  1
  O2-  O161  1  0.01161086  0.22915717  0.61359300  1
  O2-  O162  1  0.01958038  0.75483117  0.12204939  1
  O2-  O163  1  0.01727335  0.74584814  0.62546133  1
  O2-  O164  1  0.51767034  0.26104015  0.12942369  1
  O2-  O165  1  0.51919996  0.27113579  0.61148563  1
  O2-  O166  1  0.50224839  0.77881401  0.12940872  1
  O2-  O167  1  0.52124859  0.78806753  0.61448445  1
  O2-  O168  1  0.23612425  -0.00220874  0.36765169  1
  O2-  O169  1  0.22831565  -0.00296117  0.88861213  1
  O2-  O170  1  0.22979125  0.49028916  0.38193033  1
  O2-  O171  1  0.22987352  0.49766530  0.88743034  1
  O2-  O172  1  0.71910330  -0.01201907  0.38375671  1
  O2-  O173  1  0.72009379  -0.01214013  0.89059180  1
  O2-  O174  1  0.73731514  0.46351974  0.38185219  1
  O2-  O175  1  0.73044543  0.46300164  0.88432502  1
  O2-  O176  1  -0.02597852  0.26076852  0.38210580  1
  O2-  O177  1  -0.01207598  0.22996191  0.88624740  1
  O2-  O178  1  -0.01839986  0.75687805  0.36643883  1
  O2-  O179  1  -0.00988025  0.75604568  0.87578006  1
  O2-  O180  1  0.49660951  0.22354255  0.36623327  1
  O2-  O181  1  0.49647273  0.21799463  0.88995599  1
  O2-  O182  1  0.47929364  0.73517627  0.36390147  1
  O2-  O183  1  0.47940246  0.73690475  0.89092343  1
  O2-  O184  1  0.26889012  0.00100409  0.12736048  1
  O2-  O185  1  0.27922322  -0.00170290  0.61705126  1
  O2-  O186  1  0.26505303  0.52619749  0.11868602  1
  O2-  O187  1  0.27550359  0.51015079  0.61836808  1
  O2-  O188  1  0.75894083  0.03198608  0.11363552  1
  O2-  O189  1  0.75910196  0.02484682  0.61298348  1
  O2-  O190  1  0.77195035  0.51136807  0.11164343  1
  O2-  O191  1  0.76776762  0.51097307  0.61381619  1
  O2-  O192  1  0.13719756  0.28047614  0.26716910  1
  O2-  O193  1  0.13219917  0.27465291  0.76742470  1
  O2-  O194  1  0.12364467  0.77801124  0.26144931  1
  O2-  O195  1  0.11858584  0.77407127  0.75935080  1
  O2-  O196  1  0.62019000  0.26810936  0.26100405  1
  O2-  O197  1  0.63539381  0.27886655  0.76750226  1
  O2-  O198  1  0.61443133  0.76998235  0.26209021  1
  O2-  O199  1  0.63436140  0.76703042  0.78400449  1
  O2-  O200  1  0.38291866  0.22835959  0.23341675  1
  O2-  O201  1  0.36854685  0.22372664  0.72842688  1
  O2-  O202  1  0.36933334  0.73618315  0.22698688  1
  O2-  O203  1  0.36453923  0.72803141  0.73371794  1
  O2-  O204  1  0.86428160  0.21479639  0.23748672  1
  O2-  O205  1  0.86363979  0.21051612  0.74276034  1
  O2-  O206  1  0.88012853  0.73611994  0.22700236  1
  O2-  O207  1  0.88401417  0.73540666  0.73193535  1
  O2-  O208  1  0.28621279  0.36602095  0.24470612  1
  O2-  O209  1  0.27265567  0.36889073  0.74544850  1
  O2-  O210  1  0.26509209  0.87750380  0.24334182  1
  O2-  O211  1  0.26110798  0.86493284  0.77564753  1
  O2-  O212  1  0.75995652  0.35936281  0.22408111  1
  O2-  O213  1  0.77642358  0.35929417  0.72679625  1
  O2-  O214  1  0.76062717  0.86565312  0.22176571  1
  O2-  O215  1  0.76727914  0.86727247  0.72812208  1
  O2-  O216  1  0.23466144  0.11842412  0.24548789  1
  O2-  O217  1  0.22061555  0.13119850  0.75672339  1
  O2-  O218  1  0.22343327  0.63829383  0.25396948  1
  O2-  O219  1  0.21764032  0.64015478  0.75340498  1
  O2-  O220  1  0.71347143  0.13431105  0.25642219  1
  O2-  O221  1  0.71682674  0.13383069  0.75907901  1
  O2-  O222  1  0.72565820  0.63774051  0.26649321  1
  O2-  O223  1  0.74109127  0.63239256  0.76956972  1
  O2-  O224  1  0.11383306  0.48033935  0.22791454  1
  O2-  O225  1  0.11487391  0.48406584  0.71955211  1
  O2-  O226  1  0.13133123  0.98107783  0.22860824  1
  O2-  O227  1  0.11260026  0.96987057  0.73569471  1
  O2-  O228  1  0.61343363  0.48760882  0.21718708  1
  O2-  O229  1  0.61758943  0.48120176  0.72924495  1
  O2-  O230  1  0.60817925  0.97347585  0.23029683  1
  O2-  O231  1  0.61318224  0.97244956  0.73575441  1
  O2-  O232  1  0.37339527  0.01229988  0.26799221  1
  O2-  O233  1  0.38396478  0.02186435  0.76948843  1
  O2-  O234  1  0.38623321  0.52383168  0.28268615  1
  O2-  O235  1  0.38229339  0.52458130  0.77098523  1
  O2-  O236  1  0.88772112  0.01497499  0.27193102  1
  O2-  O237  1  0.88678032  0.00951492  0.78861662  1
  O2-  O238  1  0.88410021  0.53760293  0.26454438  1
  O2-  O239  1  0.88428258  0.52072408  0.77892367  1
  O2-  O240  1  0.48197597  0.36927774  0.26443145  1
  O2-  O241  1  0.47929677  0.38239526  0.77605957  1
  O2-  O242  1  0.47628699  0.87456165  0.26493610  1
  O2-  O243  1  0.47981318  0.88615446  0.77877848  1
  O2-  O244  1  0.96345474  0.38461497  0.24311331  1
  O2-  O245  1  0.97251943  0.38278301  0.74708575  1
  O2-  O246  1  0.98424563  0.87317408  0.23825936  1
  O2-  O247  1  0.97935112  0.87109280  0.75004906  1
  O2-  O248  1  0.02934486  0.11285382  0.25261601  1
  O2-  O249  1  0.02634554  0.11179667  0.75212216  1
  O2-  O250  1  0.02544145  0.63726352  0.24991256  1
  O2-  O251  1  0.01951847  0.63238804  0.75940946  1
  O2-  O252  1  0.51291146  0.11721853  0.23524879  1
  O2-  O253  1  0.52312115  0.11201794  0.73718108  1
  O2-  O254  1  0.51407563  0.63120194  0.22980983  1
  O2-  O255  1  0.52108228  0.61995895  0.72923007  1
  O2-  O256  1  0.13489823  0.47916770  0.02596373  1
  O2-  O257  1  0.13533637  0.47384759  0.52271213  1
  O2-  O258  1  0.12199285  0.98216529  0.02647006  1
  O2-  O259  1  0.13697077  0.97391947  0.52052651  1
  O2-  O260  1  0.63160216  0.47855628  0.02488663  1
  O2-  O261  1  0.63482831  0.47058409  0.52147819  1
  O2-  O262  1  0.61537320  0.98394446  0.02717649  1
  O2-  O263  1  0.61607442  0.98394315  0.51928916  1
  O2-  O264  1  0.36881224  0.02131582  -0.01245294  1
  O2-  O265  1  0.38073402  0.02175751  0.48238386  1
  O2-  O266  1  0.36431469  0.53595800  -0.01724355  1
  O2-  O267  1  0.37087781  0.52685359  0.47775470  1
  O2-  O268  1  0.87436062  0.01239816  -0.01670540  1
  O2-  O269  1  0.86614969  0.01554848  0.46885551  1
  O2-  O270  1  0.86380417  0.51562600  -0.02769225  1
  O2-  O271  1  0.86564731  0.50655345  0.47798956  1
  O2-  O272  1  0.48468231  0.36123791  -0.01315580  1
  O2-  O273  1  0.48686720  0.36035786  0.46732773  1
  O2-  O274  1  0.47238011  0.88354697  -0.00428932  1
  O2-  O275  1  0.48145074  0.88231263  0.48043155  1
  O2-  O276  1  0.96500925  0.36573984  -0.00060021  1
  O2-  O277  1  0.97222819  0.36397410  0.51166466  1
  O2-  O278  1  0.98202988  0.87756388  0.00183404  1
  O2-  O279  1  0.96648781  0.86333185  0.50336298  1
  O2-  O280  1  0.01274983  0.11604345  0.00584558  1
  O2-  O281  1  0.01717513  0.13125047  0.47621943  1
  O2-  O282  1  0.03035679  0.63792686  -0.00539385  1
  O2-  O283  1  0.02307628  0.63505220  0.48377207  1
  O2-  O284  1  0.51070244  0.11762823  0.02989246  1
  O2-  O285  1  0.52264947  0.12039691  0.50876718  1
  O2-  O286  1  0.51566982  0.64226427  0.03155468  1
  O2-  O287  1  0.52627864  0.63777191  0.52244736  1
  O2-  O288  1  0.11420117  0.27996131  -0.01476680  1
  O2-  O289  1  0.11872873  0.27542597  0.48261038  1
  O2-  O290  1  0.12723004  0.78090622  -0.01216450  1
  O2-  O291  1  0.11300267  0.78092542  0.48610351  1
  O2-  O292  1  0.62785331  0.25662931  -0.00882015  1
  O2-  O293  1  0.62787979  0.25695403  0.47635026  1
  O2-  O294  1  0.61113876  0.78275712  -0.01048466  1
  O2-  O295  1  0.61392811  0.76944973  0.46275519  1
  O2-  O296  1  0.38617247  0.22823341  0.02438168  1
  O2-  O297  1  0.39130341  0.21974960  0.50792728  1
  O2-  O298  1  0.36660215  0.74297786  0.02110362  1
  O2-  O299  1  0.38851432  0.73691839  0.51378010  1
  O2-  O300  1  0.87090811  0.22532628  0.01285969  1
  O2-  O301  1  0.86561740  0.22169831  0.50775841  1
  O2-  O302  1  0.88944241  0.73328395  0.01669295  1
  O2-  O303  1  0.88303477  0.71902212  0.51504609  1
  O2-  O304  1  0.28275992  0.38499168  0.01378448  1
  O2-  O305  1  0.28521008  0.38253895  0.50451434  1
  O2-  O306  1  0.26304151  0.87927024  0.00627604  1
  O2-  O307  1  0.27884598  0.88505341  0.48812712  1
  O2-  O308  1  0.76585060  0.36365073  0.01369862  1
  O2-  O309  1  0.76719819  0.36136943  0.51339116  1
  O2-  O310  1  0.76577488  0.88649544  0.02385801  1
  O2-  O311  1  0.76330737  0.88531464  0.51927127  1
  O2-  O312  1  0.22119482  0.11482055  0.00626799  1
  O2-  O313  1  0.23014300  0.11348175  0.49514965  1
  O2-  O314  1  0.22115878  0.63607371  0.00094824  1
  O2-  O315  1  0.22468871  0.61840047  0.49412610  1
  O2-  O316  1  0.73701614  0.12673457  -0.02179744  1
  O2-  O317  1  0.73059009  0.12499288  0.48236377  1
  O2-  O318  1  0.72061026  0.61646009  -0.02585738  1
  O2-  O319  1  0.72462149  0.61352769  0.47431191  1
