# generated using pymatgen
data_Sr64Ca21Nb43O192
_symmetry_space_group_name_H-M   'P 1'
_cell_length_a   16.60410961
_cell_length_b   16.58188636
_cell_length_c   16.75727163
_cell_angle_alpha   90.09720919
_cell_angle_beta   90.03254593
_cell_angle_gamma   90.04001717
_symmetry_Int_Tables_number   1
_chemical_formula_structural   Sr64Ca21Nb43O192
_chemical_formula_sum   'Sr64 Ca21 Nb43 O192'
_cell_volume   4613.72849726
_cell_formula_units_Z   1
loop_
 _symmetry_equiv_pos_site_id
 _symmetry_equiv_pos_as_xyz
  1  'x, y, z'
loop_
 _atom_type_symbol
 _atom_type_oxidation_number
  Sr2+  2.0
  Ca2+  2.0
  Nb5+  5.0
  O2-  -2.0
loop_
 _atom_site_type_symbol
 _atom_site_label
 _atom_site_symmetry_multiplicity
 _atom_site_fract_x
 _atom_site_fract_y
 _atom_site_fract_z
 _atom_site_occupancy
  Sr2+  Sr0  1  0.12541237  0.11802178  0.12748837  1
  Sr2+  Sr1  1  0.11958528  0.12905479  0.63725563  1
  Sr2+  Sr2  1  0.12507355  0.61948958  0.12481813  1
  Sr2+  Sr3  1  0.13060748  0.61410296  0.60395458  1
  Sr2+  Sr4  1  0.62207686  0.13814710  0.12704384  1
  Sr2+  Sr5  1  0.62862552  0.12648763  0.62185893  1
  Sr2+  Sr6  1  0.63215484  0.61775012  0.12657736  1
  Sr2+  Sr7  1  0.62992848  0.61558856  0.63073962  1
  Sr2+  Sr8  1  0.39194338  0.35820192  0.12104698  1
  Sr2+  Sr9  1  0.38044733  0.36143639  0.62956239  1
  Sr2+  Sr10  1  0.37188026  0.87041771  0.12178160  1
  Sr2+  Sr11  1  0.38835888  0.86209352  0.62794844  1
  Sr2+  Sr12  1  0.86980354  0.35930149  0.12746933  1
  Sr2+  Sr13  1  0.87135130  0.35907723  0.62399107  1
  Sr2+  Sr14  1  0.87219265  0.87085215  0.12573745  1
  Sr2+  Sr15  1  0.87581185  0.86043167  0.62544738  1
  Sr2+  Sr16  1  0.12298612  0.38491689  0.37975896  1
  Sr2+  Sr17  1  0.12806028  0.37531252  0.86725058  1
  Sr2+  Sr18  1  0.12841401  0.87606364  0.37145785  1
  Sr2+  Sr19  1  0.11669026  0.87895520  0.87593357  1
  Sr2+  Sr20  1  0.61693644  0.38057847  0.37662206  1
  Sr2+  Sr21  1  0.61059517  0.38174133  0.87618025  1
  Sr2+  Sr22  1  0.60994565  0.88591055  0.37807079  1
  Sr2+  Sr23  1  0.61372557  0.87849941  0.87674616  1
  Sr2+  Sr24  1  0.36070595  0.12434413  0.37030199  1
  Sr2+  Sr25  1  0.36632254  0.14007433  0.86686331  1
  Sr2+  Sr26  1  0.36015989  0.63415636  0.38349678  1
  Sr2+  Sr27  1  0.35848102  0.63739265  0.87061483  1
  Sr2+  Sr28  1  0.87338253  0.13621011  0.37909830  1
  Sr2+  Sr29  1  0.88468641  0.12457100  0.88304910  1
  Sr2+  Sr30  1  0.88554944  0.62708581  0.37969624  1
  Sr2+  Sr31  1  0.87654729  0.63068945  0.87176408  1
  Sr2+  Sr32  1  0.12463528  0.14746348  0.37221121  1
  Sr2+  Sr33  1  0.12192739  0.12217621  0.87305544  1
  Sr2+  Sr34  1  0.11950542  0.63096663  0.37479988  1
  Sr2+  Sr35  1  0.12315990  0.61060533  0.87980026  1
  Sr2+  Sr36  1  0.61447968  0.12800694  0.37693715  1
  Sr2+  Sr37  1  0.61787624  0.13732815  0.88237979  1
  Sr2+  Sr38  1  0.61985483  0.63421023  0.37172038  1
  Sr2+  Sr39  1  0.62451504  0.63596330  0.87667385  1
  Sr2+  Sr40  1  0.36744857  0.38952780  0.37527010  1
  Sr2+  Sr41  1  0.37552411  0.37846942  0.87067887  1
  Sr2+  Sr42  1  0.37508016  0.87745969  0.38358998  1
  Sr2+  Sr43  1  0.36678768  0.88633311  0.86543684  1
  Sr2+  Sr44  1  0.87494773  0.37176989  0.38194700  1
  Sr2+  Sr45  1  0.87970228  0.38232636  0.87355084  1
  Sr2+  Sr46  1  0.87323102  0.88105553  0.38345345  1
  Sr2+  Sr47  1  0.87140601  0.87954553  0.86867745  1
  Sr2+  Sr48  1  0.13010300  0.36258313  0.11746310  1
  Sr2+  Sr49  1  0.14313689  0.36682439  0.62243484  1
  Sr2+  Sr50  1  0.12395559  0.86766895  0.12627954  1
  Sr2+  Sr51  1  0.12469300  0.87034924  0.63892930  1
  Sr2+  Sr52  1  0.61721932  0.37420474  0.12732593  1
  Sr2+  Sr53  1  0.63080123  0.37154810  0.63250983  1
  Sr2+  Sr54  1  0.62671284  0.86770553  0.13196717  1
  Sr2+  Sr55  1  0.62281952  0.87716767  0.61240996  1
  Sr2+  Sr56  1  0.36794555  0.12101793  0.12028856  1
  Sr2+  Sr57  1  0.38782307  0.11631607  0.63404471  1
  Sr2+  Sr58  1  0.38962079  0.61735226  0.12410627  1
  Sr2+  Sr59  1  0.38827770  0.61994970  0.62270178  1
  Sr2+  Sr60  1  0.87131005  0.11743504  0.12896116  1
  Sr2+  Sr61  1  0.88289001  0.12451042  0.61872453  1
  Sr2+  Sr62  1  0.87122180  0.62362802  0.12863315  1
  Sr2+  Sr63  1  0.86528651  0.62174749  0.63401049  1
  Ca2+  Ca64  1  0.50116110  -0.00253671  0.00129176  1
  Ca2+  Ca65  1  0.00271559  -0.00243400  0.49632483  1
  Ca2+  Ca66  1  0.50233299  0.49590547  0.50035652  1
  Ca2+  Ca67  1  0.50240621  0.50360473  -0.00268316  1
  Ca2+  Ca68  1  -0.00334509  0.49825446  0.50026151  1
  Ca2+  Ca69  1  0.75192484  0.25178571  0.00077421  1
  Ca2+  Ca70  1  0.25542580  0.24609573  0.49995103  1
  Ca2+  Ca71  1  0.24839873  0.75503903  0.49868121  1
  Ca2+  Ca72  1  0.24817947  0.25025623  -0.00119446  1
  Ca2+  Ca73  1  0.74904065  0.74919496  0.49780917  1
  Ca2+  Ca74  1  0.24823024  0.50324657  0.24610085  1
  Ca2+  Ca75  1  0.25018574  0.50454141  0.74810403  1
  Ca2+  Ca76  1  0.25052696  0.00079255  0.75034317  1
  Ca2+  Ca77  1  0.50571885  0.24910220  0.74676879  1
  Ca2+  Ca78  1  0.74758551  0.00172855  0.75069276  1
  Ca2+  Ca79  1  0.50069772  0.74861240  0.75222602  1
  Ca2+  Ca80  1  0.49748742  0.24684679  0.25623061  1
  Ca2+  Ca81  1  0.49820778  0.75098139  0.24926910  1
  Ca2+  Ca82  1  0.00166374  0.25052067  0.24906138  1
  Ca2+  Ca83  1  -0.00397573  0.25314813  0.75223290  1
  Ca2+  Ca84  1  0.00267634  0.74655066  0.75549596  1
  Nb5+  Nb85  1  -0.00225315  -0.00649274  0.00495639  1
  Nb5+  Nb86  1  -0.00116054  0.49285412  0.00356420  1
  Nb5+  Nb87  1  0.49542049  0.00289965  0.50040733  1
  Nb5+  Nb88  1  0.24006706  0.75251045  -0.00174471  1
  Nb5+  Nb89  1  0.74659604  0.24921153  0.49772522  1
  Nb5+  Nb90  1  0.74727790  0.75136123  -0.00062971  1
  Nb5+  Nb91  1  0.75185965  0.49616815  0.25564127  1
  Nb5+  Nb92  1  0.75015083  0.49831344  0.75936724  1
  Nb5+  Nb93  1  0.74483698  -0.00417182  0.25052097  1
  Nb5+  Nb94  1  0.24252824  -0.00191491  0.24963806  1
  Nb5+  Nb95  1  -0.00137455  0.75270708  0.24849589  1
  Nb5+  Nb96  1  -0.00470358  -0.00169083  0.25214498  1
  Nb5+  Nb97  1  -0.00533199  0.00013847  0.74583945  1
  Nb5+  Nb98  1  -0.00178065  0.49675405  0.24450354  1
  Nb5+  Nb99  1  0.00000546  0.50210096  0.74352568  1
  Nb5+  Nb100  1  0.49080349  -0.00094124  0.24862651  1
  Nb5+  Nb101  1  0.50622372  -0.00004025  0.75606220  1
  Nb5+  Nb102  1  0.49578814  0.50414256  0.25351951  1
  Nb5+  Nb103  1  0.49592023  0.50255219  0.75362652  1
  Nb5+  Nb104  1  0.25448802  0.25924267  0.24680556  1
  Nb5+  Nb105  1  0.24925277  0.25077146  0.74837296  1
  Nb5+  Nb106  1  0.25071750  0.74951081  0.24459459  1
  Nb5+  Nb107  1  0.24576323  0.74922790  0.74145854  1
  Nb5+  Nb108  1  0.74866915  0.24565425  0.25226526  1
  Nb5+  Nb109  1  0.75199139  0.24636908  0.75927878  1
  Nb5+  Nb110  1  0.75344392  0.74910147  0.25237144  1
  Nb5+  Nb111  1  0.74812162  0.75264680  0.74724065  1
  Nb5+  Nb112  1  0.00530010  0.25142682  0.49858553  1
  Nb5+  Nb113  1  0.00123742  0.24225476  1.00282335  1
  Nb5+  Nb114  1  0.00066541  0.74980216  0.50784848  1
  Nb5+  Nb115  1  -0.00491581  0.74428309  1.00251708  1
  Nb5+  Nb116  1  0.49625714  0.24842055  0.49825052  1
  Nb5+  Nb117  1  0.50113356  0.24699609  0.99782903  1
  Nb5+  Nb118  1  0.50356939  0.74320826  0.50084450  1
  Nb5+  Nb119  1  0.48674862  0.74924049  1.00066207  1
  Nb5+  Nb120  1  0.24758171  -0.00081560  -0.00011134  1
  Nb5+  Nb121  1  0.24685987  -0.00029547  0.50610882  1
  Nb5+  Nb122  1  0.25608131  0.50059661  0.00370555  1
  Nb5+  Nb123  1  0.25297361  0.50012851  0.49989049  1
  Nb5+  Nb124  1  0.74560988  -0.00358218  0.00127894  1
  Nb5+  Nb125  1  0.75175880  0.00390122  0.50144557  1
  Nb5+  Nb126  1  0.75615326  0.49840727  0.00623898  1
  Nb5+  Nb127  1  0.74899389  0.49982741  0.50449745  1
  O2-  O128  1  -0.01201985  0.01473255  0.12523749  1
  O2-  O129  1  -0.01310511  0.00960352  0.63200883  1
  O2-  O130  1  -0.02193248  0.51974827  0.12290952  1
  O2-  O131  1  -0.01520684  0.53018824  0.63439385  1
  O2-  O132  1  0.48778740  -0.02441049  0.13661110  1
  O2-  O133  1  0.48556341  -0.01589988  0.61723976  1
  O2-  O134  1  0.48569332  0.48056836  0.13509285  1
  O2-  O135  1  0.48266555  0.47695449  0.63649118  1
  O2-  O136  1  0.00724187  -0.03091391  0.36150194  1
  O2-  O137  1  0.00551704  -0.00938534  0.88752595  1
  O2-  O138  1  0.01576587  0.50083858  0.35878577  1
  O2-  O139  1  0.01413845  0.48086631  0.88751136  1
  O2-  O140  1  0.51040273  0.01371091  0.37771999  1
  O2-  O141  1  0.53256286  0.01331756  0.86719594  1
  O2-  O142  1  0.53616246  0.51410849  0.36401492  1
  O2-  O143  1  0.53814792  0.51616079  0.86475279  1
  O2-  O144  1  0.22325156  0.23231857  0.13502329  1
  O2-  O145  1  0.22361456  0.23325548  0.63174536  1
  O2-  O146  1  0.22201056  0.74326121  0.12191991  1
  O2-  O147  1  0.21876540  0.73784580  0.63138865  1
  O2-  O148  1  0.72615520  0.25805859  0.13712726  1
  O2-  O149  1  0.72825316  0.24845222  0.61299833  1
  O2-  O150  1  0.73599892  0.74728687  0.12315020  1
  O2-  O151  1  0.72330977  0.74627997  0.63546995  1
  O2-  O152  1  0.28113784  0.25904375  0.36395061  1
  O2-  O153  1  0.27238510  0.27050021  0.86703734  1
  O2-  O154  1  0.26585051  0.76984946  0.35830529  1
  O2-  O155  1  0.26892882  0.77176542  0.88787530  1
  O2-  O156  1  0.77504082  0.25382032  0.37058690  1
  O2-  O157  1  0.78500226  0.25015639  0.86726543  1
  O2-  O158  1  0.78415230  0.74908693  0.36264795  1
  O2-  O159  1  0.77494533  0.74910240  0.88442401  1
  O2-  O160  1  0.03167030  0.24395866  0.11758046  1
  O2-  O161  1  0.01029890  0.24086320  0.61603826  1
  O2-  O162  1  0.02039496  0.74482752  0.12074390  1
  O2-  O163  1  0.02843380  0.74595830  0.61827784  1
  O2-  O164  1  0.51974364  0.26398120  0.11853492  1
  O2-  O165  1  0.53338809  0.26204434  0.61034344  1
  O2-  O166  1  0.50761788  0.78395930  0.11374438  1
  O2-  O167  1  0.51694536  0.77497467  0.61535483  1
  O2-  O168  1  0.25064870  -0.02685764  0.36374695  1
  O2-  O169  1  0.23338931  -0.02404444  0.88837090  1
  O2-  O170  1  0.23631622  0.47706149  0.37988503  1
  O2-  O171  1  0.22249651  0.49124459  0.89063308  1
  O2-  O172  1  0.73944729  -0.01079216  0.36742591  1
  O2-  O173  1  0.74260558  -0.02146362  0.88861371  1
  O2-  O174  1  0.73030176  0.49754877  0.36735889  1
  O2-  O175  1  0.73893933  0.49783030  0.87499982  1
  O2-  O176  1  -0.02354031  0.25199940  0.38199938  1
  O2-  O177  1  -0.03058741  0.25748681  0.88901698  1
  O2-  O178  1  -0.02604049  0.76085269  0.36037459  1
  O2-  O179  1  -0.01967487  0.76873566  0.89112052  1
  O2-  O180  1  0.48472144  0.21013167  0.38764406  1
  O2-  O181  1  0.48946215  0.22384216  0.88064224  1
  O2-  O182  1  0.47912517  0.72986646  0.38334943  1
  O2-  O183  1  0.48972226  0.71488931  0.88784402  1
  O2-  O184  1  0.25519703  0.01334449  0.12840622  1
  O2-  O185  1  0.25287081  0.02984237  0.61520534  1
  O2-  O186  1  0.25856210  0.53959531  0.11384988  1
  O2-  O187  1  0.26257509  0.53388722  0.61531703  1
  O2-  O188  1  0.76715720  0.00046675  0.13021894  1
  O2-  O189  1  0.76025938  0.02652182  0.61327172  1
  O2-  O190  1  0.77380136  0.50498136  0.12177025  1
  O2-  O191  1  0.77019999  0.49984986  0.61939505  1
  O2-  O192  1  0.13749197  0.27061079  0.27748878  1
  O2-  O193  1  0.13024851  0.27287671  0.76377556  1
  O2-  O194  1  0.11619467  0.77212523  0.25999907  1
  O2-  O195  1  0.13404359  0.78105024  0.77103521  1
  O2-  O196  1  0.63505457  0.26157835  0.27661527  1
  O2-  O197  1  0.64127432  0.28431215  0.76387262  1
  O2-  O198  1  0.64035869  0.76916707  0.26618264  1
  O2-  O199  1  0.63768795  0.76001445  0.78674946  1
  O2-  O200  1  0.36641866  0.22236976  0.22495860  1
  O2-  O201  1  0.36872428  0.23134318  0.72925302  1
  O2-  O202  1  0.36181147  0.73384363  0.21954780  1
  O2-  O203  1  0.36411037  0.72445302  0.73463041  1
  O2-  O204  1  0.86578648  0.23197939  0.22908454  1
  O2-  O205  1  0.86006027  0.23597611  0.71394314  1
  O2-  O206  1  0.87725131  0.74501285  0.21953363  1
  O2-  O207  1  0.86514938  0.72570302  0.73957966  1
  O2-  O208  1  0.27657430  0.36977510  0.22559780  1
  O2-  O209  1  0.26800634  0.37041590  0.72850916  1
  O2-  O210  1  0.25845020  0.87518012  0.22486260  1
  O2-  O211  1  0.27601387  0.86625443  0.73509063  1
  O2-  O212  1  0.77010277  0.37946958  0.25030732  1
  O2-  O213  1  0.77334577  0.38178029  0.74694198  1
  O2-  O214  1  0.77023047  0.87636916  0.24300478  1
  O2-  O215  1  0.77512378  0.86525148  0.74520680  1
  O2-  O216  1  0.23142984  0.11444358  0.26413256  1
  O2-  O217  1  0.23126382  0.13381879  0.77487245  1
  O2-  O218  1  0.21973072  0.63876360  0.26029666  1
  O2-  O219  1  0.22967621  0.63841815  0.78085974  1
  O2-  O220  1  0.73772271  0.12209122  0.25213347  1
  O2-  O221  1  0.71846971  0.13624561  0.76046460  1
  O2-  O222  1  0.74009633  0.62945641  0.24803268  1
  O2-  O223  1  0.73413763  0.62094878  0.75144329  1
  O2-  O224  1  0.11040353  0.48298463  0.22006989  1
  O2-  O225  1  0.11278764  0.48003695  0.73509663  1
  O2-  O226  1  0.12598409  0.97950306  0.23797276  1
  O2-  O227  1  0.11269248  0.97563638  0.74838819  1
  O2-  O228  1  0.63957084  0.49041314  0.22292385  1
  O2-  O229  1  0.63660879  0.48710585  0.72817298  1
  O2-  O230  1  0.63133869  0.97867561  0.23919780  1
  O2-  O231  1  0.61745534  0.96622892  0.72965204  1
  O2-  O232  1  0.37439209  0.01591657  0.25510779  1
  O2-  O233  1  0.38644389  0.02543845  0.76869983  1
  O2-  O234  1  0.38469784  0.52762500  0.27298257  1
  O2-  O235  1  0.38470357  0.51811987  0.78066629  1
  O2-  O236  1  0.87817675  0.01407546  0.26062056  1
  O2-  O237  1  0.88146554  0.02658743  0.77250847  1
  O2-  O238  1  0.87040703  0.52622145  0.26041946  1
  O2-  O239  1  0.86822990  0.52312624  0.76383534  1
  O2-  O240  1  0.49037251  0.38433929  0.27045196  1
  O2-  O241  1  0.49132071  0.38308828  0.77368862  1
  O2-  O242  1  0.49097248  0.88500712  0.27990504  1
  O2-  O243  1  0.47456025  0.88352375  0.76298540  1
  O2-  O244  1  0.96842853  0.38653596  0.24036090  1
  O2-  O245  1  0.96619140  0.38980482  0.74750334  1
  O2-  O246  1  0.98842355  0.87567253  0.22349491  1
  O2-  O247  1  0.97002275  0.88265714  0.74631886  1
  O2-  O248  1  0.02290725  0.11070419  0.25947403  1
  O2-  O249  1  0.02182004  0.11741201  0.76300798  1
  O2-  O250  1  0.00879998  0.63349131  0.24989527  1
  O2-  O251  1  0.00676796  0.61239577  0.78645384  1
  O2-  O252  1  0.52745294  0.10983384  0.23946803  1
  O2-  O253  1  0.52338514  0.11358726  0.72447907  1
  O2-  O254  1  0.52494370  0.61828077  0.22854806  1
  O2-  O255  1  0.51757137  0.61559481  0.72326900  1
  O2-  O256  1  0.11615786  0.49478745  0.02432999  1
  O2-  O257  1  0.13170542  0.48010422  0.51740555  1
  O2-  O258  1  0.11714082  0.98437518  0.01952452  1
  O2-  O259  1  0.13719577  0.96428822  0.50675448  1
  O2-  O260  1  0.64198911  0.48546832  0.01797343  1
  O2-  O261  1  0.63734610  0.46464559  0.51157724  1
  O2-  O262  1  0.63702376  0.96550942  0.02036776  1
  O2-  O263  1  0.62749173  0.98721732  0.50349276  1
  O2-  O264  1  0.36248141  0.01050597  -0.00516120  1
  O2-  O265  1  0.38084100  0.02518089  0.48745583  1
  O2-  O266  1  0.36578715  0.52414034  -0.02046224  1
  O2-  O267  1  0.36969383  0.51975774  0.47728403  1
  O2-  O268  1  0.87653548  0.01359991  -0.00233676  1
  O2-  O269  1  0.86478992  0.02138284  0.47627601  1
  O2-  O270  1  0.88056772  0.52338971  -0.01737270  1
  O2-  O271  1  0.86134954  0.50751131  0.46932756  1
  O2-  O272  1  0.48087527  0.36710750  -0.01766251  1
  O2-  O273  1  0.48458080  0.36027252  0.47059323  1
  O2-  O274  1  0.48376758  0.86295617  -0.03395156  1
  O2-  O275  1  0.48928287  0.88231065  0.48369354  1
  O2-  O276  1  0.98133187  0.38026923  0.02115053  1
  O2-  O277  1  0.96874911  0.36523154  0.50605070  1
  O2-  O278  1  0.98563410  0.87741420  0.01821562  1
  O2-  O279  1  0.96755422  0.86363210  0.50298777  1
  O2-  O280  1  0.01392378  0.12425719  -0.00827412  1
  O2-  O281  1  0.02081944  0.13165240  0.49004916  1
  O2-  O282  1  0.01436818  0.62974651  -0.00871272  1
  O2-  O283  1  0.01164059  0.63436458  0.47797167  1
  O2-  O284  1  0.52786333  0.12950422  0.01584246  1
  O2-  O285  1  0.52323256  0.11851966  0.51723546  1
  O2-  O286  1  0.51790184  0.63735506  0.03160009  1
  O2-  O287  1  0.52533894  0.63134818  0.52095211  1
  O2-  O288  1  0.11279331  0.27577005  -0.02220015  1
  O2-  O289  1  0.11787712  0.27516183  0.48120175  1
  O2-  O290  1  0.12265820  0.76795108  -0.01408312  1
  O2-  O291  1  0.11182053  0.76837061  0.46961159  1
  O2-  O292  1  0.62051324  0.26911480  -0.02254324  1
  O2-  O293  1  0.63041238  0.25890156  0.46986304  1
  O2-  O294  1  0.63370532  0.76424495  -0.01495616  1
  O2-  O295  1  0.61710608  0.76978851  0.47129158  1
  O2-  O296  1  0.38309606  0.22906330  0.01797628  1
  O2-  O297  1  0.38789986  0.23061552  0.53259594  1
  O2-  O298  1  0.37039626  0.73655832  0.02035543  1
  O2-  O299  1  0.38397003  0.73413388  0.51928517  1
  O2-  O300  1  0.88555029  0.23361119  0.03430105  1
  O2-  O301  1  0.86589850  0.22529330  0.51094918  1
  O2-  O302  1  0.87994968  0.73501482  0.02330885  1
  O2-  O303  1  0.88163259  0.72529032  0.52577302  1
  O2-  O304  1  0.26472428  0.38857735  0.02834241  1
  O2-  O305  1  0.27348143  0.38355910  0.52236645  1
  O2-  O306  1  0.25377782  0.87462398  0.02473647  1
  O2-  O307  1  0.28864551  0.88938938  0.51032291  1
  O2-  O308  1  0.78376110  0.38709057  -0.00142410  1
  O2-  O309  1  0.76877118  0.36733032  0.49598385  1
  O2-  O310  1  0.77632717  0.86729762  0.00918513  1
  O2-  O311  1  0.76677509  0.88726600  0.51065323  1
  O2-  O312  1  0.22338688  0.11292681  -0.00795484  1
  O2-  O313  1  0.23613120  0.10954373  0.46361683  1
  O2-  O314  1  0.23115680  0.63605295  -0.01563771  1
  O2-  O315  1  0.22786343  0.61985257  0.47498866  1
  O2-  O316  1  0.73093482  0.11117784  -0.00110760  1
  O2-  O317  1  0.73077843  0.12665673  0.47882037  1
  O2-  O318  1  0.74412296  0.62717574  -0.00045280  1
  O2-  O319  1  0.72423164  0.61221090  0.49675094  1
