# generated using pymatgen
data_Sr64Ca21Nb43O192
_symmetry_space_group_name_H-M   'P 1'
_cell_length_a   16.63723129
_cell_length_b   16.57916811
_cell_length_c   16.73209043
_cell_angle_alpha   89.97730830
_cell_angle_beta   90.07374382
_cell_angle_gamma   89.99818276
_symmetry_Int_Tables_number   1
_chemical_formula_structural   Sr64Ca21Nb43O192
_chemical_formula_sum   'Sr64 Ca21 Nb43 O192'
_cell_volume   4615.23265068
_cell_formula_units_Z   1
loop_
 _symmetry_equiv_pos_site_id
 _symmetry_equiv_pos_as_xyz
  1  'x, y, z'
loop_
 _atom_type_symbol
 _atom_type_oxidation_number
  Sr2+  2.0
  Ca2+  2.0
  Nb5+  5.0
  O2-  -2.0
loop_
 _atom_site_type_symbol
 _atom_site_label
 _atom_site_symmetry_multiplicity
 _atom_site_fract_x
 _atom_site_fract_y
 _atom_site_fract_z
 _atom_site_occupancy
  Sr2+  Sr0  1  0.12244811  0.10637789  0.12531422  1
  Sr2+  Sr1  1  0.12387618  0.11591251  0.61761282  1
  Sr2+  Sr2  1  0.11099393  0.62052172  0.12868233  1
  Sr2+  Sr3  1  0.12261136  0.61724783  0.62383619  1
  Sr2+  Sr4  1  0.61314567  0.11809837  0.12783758  1
  Sr2+  Sr5  1  0.61719231  0.11238827  0.62400476  1
  Sr2+  Sr6  1  0.62238332  0.61219884  0.12143541  1
  Sr2+  Sr7  1  0.61849533  0.61125162  0.62329696  1
  Sr2+  Sr8  1  0.37188230  0.36629619  0.12491638  1
  Sr2+  Sr9  1  0.36931212  0.36299847  0.62338579  1
  Sr2+  Sr10  1  0.35780974  0.87436925  0.13169951  1
  Sr2+  Sr11  1  0.36464928  0.86077972  0.62422260  1
  Sr2+  Sr12  1  0.86483875  0.36786752  0.12325269  1
  Sr2+  Sr13  1  0.86638386  0.36745416  0.62075355  1
  Sr2+  Sr14  1  0.87053502  0.86040870  0.12750874  1
  Sr2+  Sr15  1  0.86525845  0.86372355  0.62123876  1
  Sr2+  Sr16  1  0.12875355  0.38076178  0.38596070  1
  Sr2+  Sr17  1  0.12919519  0.37915519  0.87501649  1
  Sr2+  Sr18  1  0.13667223  0.87668255  0.36738423  1
  Sr2+  Sr19  1  0.13600748  0.88230078  0.87391182  1
  Sr2+  Sr20  1  0.64271087  0.37506130  0.36881033  1
  Sr2+  Sr21  1  0.63494635  0.37684381  0.86940661  1
  Sr2+  Sr22  1  0.62033963  0.88243782  0.38215133  1
  Sr2+  Sr23  1  0.63465109  0.87597070  0.87689079  1
  Sr2+  Sr24  1  0.38669668  0.12965168  0.36795474  1
  Sr2+  Sr25  1  0.38449070  0.13438912  0.86858244  1
  Sr2+  Sr26  1  0.38634221  0.63716249  0.37668404  1
  Sr2+  Sr27  1  0.38361958  0.63577367  0.87428426  1
  Sr2+  Sr28  1  0.88598629  0.13250435  0.37659005  1
  Sr2+  Sr29  1  0.88143155  0.12696777  0.87318320  1
  Sr2+  Sr30  1  0.89424812  0.63207744  0.37888713  1
  Sr2+  Sr31  1  0.87811481  0.63319178  0.87166352  1
  Sr2+  Sr32  1  0.13313627  0.13537078  0.37798320  1
  Sr2+  Sr33  1  0.12851160  0.13335828  0.87524367  1
  Sr2+  Sr34  1  0.13165540  0.62573459  0.36376189  1
  Sr2+  Sr35  1  0.13545864  0.62974056  0.86912961  1
  Sr2+  Sr36  1  0.62810663  0.12979633  0.36534404  1
  Sr2+  Sr37  1  0.63127997  0.11921558  0.86920229  1
  Sr2+  Sr38  1  0.62894281  0.64420191  0.38017586  1
  Sr2+  Sr39  1  0.63258324  0.63543767  0.88010584  1
  Sr2+  Sr40  1  0.37908741  0.39107718  0.37367465  1
  Sr2+  Sr41  1  0.37625126  0.38406501  0.87721222  1
  Sr2+  Sr42  1  0.38335355  0.88925312  0.37665390  1
  Sr2+  Sr43  1  0.38446620  0.88064119  0.87393589  1
  Sr2+  Sr44  1  0.88280172  0.38567668  0.38242759  1
  Sr2+  Sr45  1  0.88237975  0.38578085  0.86930486  1
  Sr2+  Sr46  1  0.88189858  0.88245508  0.38164293  1
  Sr2+  Sr47  1  0.87840414  0.88414081  0.87229150  1
  Sr2+  Sr48  1  0.11611741  0.36752010  0.12303874  1
  Sr2+  Sr49  1  0.11881243  0.36299906  0.61880783  1
  Sr2+  Sr50  1  0.11145201  0.86762313  0.12466596  1
  Sr2+  Sr51  1  0.12532988  0.86489795  0.62542772  1
  Sr2+  Sr52  1  0.61039508  0.36921595  0.12299316  1
  Sr2+  Sr53  1  0.61551539  0.36984461  0.62569442  1
  Sr2+  Sr54  1  0.62003713  0.86468612  0.12955228  1
  Sr2+  Sr55  1  0.61094636  0.86393040  0.62024643  1
  Sr2+  Sr56  1  0.36156044  0.12182368  0.12834060  1
  Sr2+  Sr57  1  0.36474707  0.11891726  0.61843368  1
  Sr2+  Sr58  1  0.36445187  0.60822720  0.13103742  1
  Sr2+  Sr59  1  0.36619069  0.62319472  0.62062194  1
  Sr2+  Sr60  1  0.86650942  0.10990457  0.12628660  1
  Sr2+  Sr61  1  0.85982815  0.11411553  0.62199555  1
  Sr2+  Sr62  1  0.86523841  0.62325379  0.12782326  1
  Sr2+  Sr63  1  0.86109890  0.61970160  0.61997127  1
  Ca2+  Ca64  1  0.49986572  0.00002035  0.00111603  1
  Ca2+  Ca65  1  0.00291733  0.50380426  0.50155617  1
  Ca2+  Ca66  1  0.50001363  0.49946265  0.49977364  1
  Ca2+  Ca67  1  0.49764507  0.00280821  0.50223528  1
  Ca2+  Ca68  1  0.00146129  -0.00102418  0.50269498  1
  Ca2+  Ca69  1  0.24672727  0.74862260  0.49597890  1
  Ca2+  Ca70  1  0.74660663  0.24852692  0.50034860  1
  Ca2+  Ca71  1  0.24903966  0.74868320  0.00258960  1
  Ca2+  Ca72  1  0.74646025  0.24958486  0.00171675  1
  Ca2+  Ca73  1  0.75158038  0.75029618  0.49997862  1
  Ca2+  Ca74  1  0.00277807  0.24989512  0.24976860  1
  Ca2+  Ca75  1  0.50029031  0.74548741  0.74993885  1
  Ca2+  Ca76  1  0.75010720  -0.00153123  0.24806014  1
  Ca2+  Ca77  1  0.50183027  0.75007073  0.24875402  1
  Ca2+  Ca78  1  0.25205564  -0.00308973  0.75008748  1
  Ca2+  Ca79  1  0.24822648  0.49800017  0.24892330  1
  Ca2+  Ca80  1  -0.00085372  0.75205067  0.75315307  1
  Ca2+  Ca81  1  0.24687289  -0.00015459  0.25345496  1
  Ca2+  Ca82  1  0.75070786  0.50233694  0.24866368  1
  Ca2+  Ca83  1  -0.00053706  0.24957416  0.74995150  1
  Ca2+  Ca84  1  0.25280331  0.49799864  0.74746666  1
  Nb5+  Nb85  1  -0.00199131  -0.00782092  0.00010900  1
  Nb5+  Nb86  1  0.49229510  0.50124372  -0.00199063  1
  Nb5+  Nb87  1  -0.00740210  0.49579324  0.00002869  1
  Nb5+  Nb88  1  0.25056693  0.24946334  -0.00560038  1
  Nb5+  Nb89  1  0.25411737  0.24824549  0.49071869  1
  Nb5+  Nb90  1  0.75020151  0.75169018  -0.00007719  1
  Nb5+  Nb91  1  -0.00135384  0.75294716  0.25164727  1
  Nb5+  Nb92  1  0.75177605  0.49517966  0.75042748  1
  Nb5+  Nb93  1  0.49948210  0.25150397  0.24333339  1
  Nb5+  Nb94  1  0.75078001  -0.00850303  0.74844319  1
  Nb5+  Nb95  1  0.50118165  0.24861497  0.74306950  1
  Nb5+  Nb96  1  0.00264647  0.00077306  0.25544855  1
  Nb5+  Nb97  1  0.00097470  0.00074884  0.74720007  1
  Nb5+  Nb98  1  -0.00246751  0.49622658  0.24777872  1
  Nb5+  Nb99  1  0.00159365  0.50177508  0.74639590  1
  Nb5+  Nb100  1  0.49704225  -0.00315333  0.24379798  1
  Nb5+  Nb101  1  0.49691250  -0.00342360  0.75084967  1
  Nb5+  Nb102  1  0.50711822  0.50085263  0.25635272  1
  Nb5+  Nb103  1  0.49911512  0.50152213  0.75483727  1
  Nb5+  Nb104  1  0.24794262  0.25463909  0.24378343  1
  Nb5+  Nb105  1  0.24825573  0.25112284  0.74372165  1
  Nb5+  Nb106  1  0.25502655  0.74656230  0.24646226  1
  Nb5+  Nb107  1  0.25003125  0.74704440  0.75277180  1
  Nb5+  Nb108  1  0.75691619  0.24750050  0.24753071  1
  Nb5+  Nb109  1  0.74949387  0.24157451  0.74812413  1
  Nb5+  Nb110  1  0.75227933  0.74976269  0.25625993  1
  Nb5+  Nb111  1  0.74605933  0.74278545  0.74789781  1
  Nb5+  Nb112  1  -0.00433363  0.24731086  0.50400356  1
  Nb5+  Nb113  1  -0.00268393  0.24068612  1.00208325  1
  Nb5+  Nb114  1  0.00470988  0.75121508  0.50682178  1
  Nb5+  Nb115  1  -0.00041796  0.74394003  0.99746321  1
  Nb5+  Nb116  1  0.50019928  0.25589600  0.48825840  1
  Nb5+  Nb117  1  0.49966472  0.25259644  0.99163327  1
  Nb5+  Nb118  1  0.49810673  0.74989150  0.50005676  1
  Nb5+  Nb119  1  0.49323377  0.75054090  1.00760932  1
  Nb5+  Nb120  1  0.25534007  0.00013474  -0.00571635  1
  Nb5+  Nb121  1  0.25183495  -0.00531390  0.49990359  1
  Nb5+  Nb122  1  0.23811703  0.49954905  0.00349783  1
  Nb5+  Nb123  1  0.25107019  0.50279007  0.50014114  1
  Nb5+  Nb124  1  0.74721750  -0.00318407  0.00183573  1
  Nb5+  Nb125  1  0.74650496  0.00164364  0.49431024  1
  Nb5+  Nb126  1  0.74609417  0.49754650  -0.00246005  1
  Nb5+  Nb127  1  0.74551439  0.50320425  0.49270718  1
  O2-  O128  1  -0.01330436  0.02132563  0.11642418  1
  O2-  O129  1  -0.01468945  0.03198764  0.63822231  1
  O2-  O130  1  -0.01628901  0.52452681  0.11521241  1
  O2-  O131  1  -0.01479351  0.53174589  0.63701839  1
  O2-  O132  1  0.48371090  0.03588739  0.13111078  1
  O2-  O133  1  0.49095511  0.03360602  0.63955659  1
  O2-  O134  1  0.48888410  0.51512359  0.11563568  1
  O2-  O135  1  0.48668753  0.51913849  0.64200113  1
  O2-  O136  1  0.01185921  -0.02902765  0.36520170  1
  O2-  O137  1  0.00893349  -0.02418033  0.88165391  1
  O2-  O138  1  0.01548796  0.48295304  0.36126810  1
  O2-  O139  1  0.01622002  0.47997667  0.88454032  1
  O2-  O140  1  0.51419480  -0.01235006  0.36259360  1
  O2-  O141  1  0.52634226  -0.01575851  0.86602956  1
  O2-  O142  1  0.52135378  0.46726435  0.36408611  1
  O2-  O143  1  0.51877637  0.47151602  0.88344936  1
  O2-  O144  1  0.24239768  0.26917452  0.12612346  1
  O2-  O145  1  0.24223743  0.26653763  0.62821306  1
  O2-  O146  1  0.23459208  0.78263940  0.13366701  1
  O2-  O147  1  0.24011468  0.76907494  0.63405658  1
  O2-  O148  1  0.73538732  0.28390829  0.13507005  1
  O2-  O149  1  0.73394659  0.27803120  0.63769747  1
  O2-  O150  1  0.74085783  0.77223120  0.11580312  1
  O2-  O151  1  0.73450438  0.77139383  0.63728821  1
  O2-  O152  1  0.26555001  0.23027529  0.37641213  1
  O2-  O153  1  0.26716569  0.23266865  0.88008525  1
  O2-  O154  1  0.25047231  0.71910506  0.36195230  1
  O2-  O155  1  0.26175527  0.72108296  0.87100090  1
  O2-  O156  1  0.75449088  0.21997277  0.36500725  1
  O2-  O157  1  0.75289214  0.23307657  0.86570754  1
  O2-  O158  1  0.76984718  0.72063403  0.36518849  1
  O2-  O159  1  0.76417974  0.73534125  0.87697758  1
  O2-  O160  1  0.03449860  0.23993348  0.11311322  1
  O2-  O161  1  0.03288077  0.23716714  0.61758724  1
  O2-  O162  1  0.00997258  0.74218433  0.12005249  1
  O2-  O163  1  0.02793918  0.73759746  0.61841082  1
  O2-  O164  1  0.51194915  0.24032363  0.12583906  1
  O2-  O165  1  0.51588836  0.23774258  0.63004598  1
  O2-  O166  1  0.53631871  0.73277282  0.11526505  1
  O2-  O167  1  0.52263766  0.72858955  0.61670528  1
  O2-  O168  1  0.21514221  0.01158111  0.38702976  1
  O2-  O169  1  0.21738973  0.01750839  0.88460643  1
  O2-  O170  1  0.21891006  0.50061471  0.38283855  1
  O2-  O171  1  0.22941439  0.50140212  0.88659525  1
  O2-  O172  1  0.72107109  0.01024277  0.38274342  1
  O2-  O173  1  0.73526792  0.00611446  0.87551540  1
  O2-  O174  1  0.71514181  0.51621912  0.38342138  1
  O2-  O175  1  0.73273397  0.51762752  0.87573739  1
  O2-  O176  1  -0.01843145  0.26766324  0.38528712  1
  O2-  O177  1  -0.01166919  0.27333972  0.88995127  1
  O2-  O178  1  -0.02014405  0.76560329  0.36514903  1
  O2-  O179  1  -0.03085142  0.76392850  0.88828581  1
  O2-  O180  1  0.47782599  0.26729890  0.37408415  1
  O2-  O181  1  0.47770605  0.26716682  0.87837383  1
  O2-  O182  1  0.47975843  0.77355103  0.38083188  1
  O2-  O183  1  0.48427182  0.76075531  0.88970945  1
  O2-  O184  1  0.26382560  -0.00406846  0.11236617  1
  O2-  O185  1  0.28208093  -0.00908358  0.61773879  1
  O2-  O186  1  0.27703641  0.48010152  0.11230494  1
  O2-  O187  1  0.28741987  0.48687493  0.61395544  1
  O2-  O188  1  0.77898605  -0.01810970  0.11130198  1
  O2-  O189  1  0.77206964  -0.01404521  0.63490059  1
  O2-  O190  1  0.77725350  0.49256926  0.10897009  1
  O2-  O191  1  0.77484415  0.48969853  0.63752354  1
  O2-  O192  1  0.13780070  0.27984292  0.26765810  1
  O2-  O193  1  0.13737487  0.26837942  0.77055662  1
  O2-  O194  1  0.11645051  0.77034648  0.25717695  1
  O2-  O195  1  0.13267724  0.77521081  0.77112238  1
  O2-  O196  1  0.61557351  0.26912819  0.26353001  1
  O2-  O197  1  0.62005764  0.26621305  0.76473960  1
  O2-  O198  1  0.63894051  0.77590724  0.26907383  1
  O2-  O199  1  0.63413247  0.76628904  0.77566304  1
  O2-  O200  1  0.37812641  0.23093701  0.23541646  1
  O2-  O201  1  0.38155035  0.23049519  0.73656366  1
  O2-  O202  1  0.36733619  0.72446614  0.22989407  1
  O2-  O203  1  0.36761669  0.71630827  0.73753371  1
  O2-  O204  1  0.86839831  0.22512092  0.22941739  1
  O2-  O205  1  0.86336679  0.23011896  0.73455768  1
  O2-  O206  1  0.87944426  0.73316923  0.22955158  1
  O2-  O207  1  0.86294462  0.72934801  0.73664737  1
  O2-  O208  1  0.28277039  0.36491877  0.26475864  1
  O2-  O209  1  0.28045276  0.36242259  0.76570433  1
  O2-  O210  1  0.27138915  0.86405059  0.27532294  1
  O2-  O211  1  0.27995465  0.86354964  0.77280940  1
  O2-  O212  1  0.77045705  0.36530267  0.27909794  1
  O2-  O213  1  0.76378764  0.37937282  0.77098631  1
  O2-  O214  1  0.78211466  0.86435446  0.26001601  1
  O2-  O215  1  0.76427156  0.87715412  0.76762281  1
  O2-  O216  1  0.23271974  0.13728207  0.23569695  1
  O2-  O217  1  0.23970349  0.13395016  0.73727456  1
  O2-  O218  1  0.22519770  0.63260465  0.22126128  1
  O2-  O219  1  0.21749660  0.62918603  0.73502110  1
  O2-  O220  1  0.72318770  0.13519526  0.22362458  1
  O2-  O221  1  0.72761815  0.12650626  0.73428623  1
  O2-  O222  1  0.73523814  0.63863625  0.21737102  1
  O2-  O223  1  0.72816711  0.62486799  0.73856229  1
  O2-  O224  1  0.11191343  0.49029751  0.21702400  1
  O2-  O225  1  0.11295736  0.47269659  0.73573857  1
  O2-  O226  1  0.11414910  0.97772217  0.22254989  1
  O2-  O227  1  0.11269184  0.97525390  0.73726469  1
  O2-  O228  1  0.61750445  0.48027987  0.21799279  1
  O2-  O229  1  0.62999922  0.48002862  0.73929253  1
  O2-  O230  1  0.61515415  0.98824762  0.22346881  1
  O2-  O231  1  0.63088985  0.99066008  0.73555669  1
  O2-  O232  1  0.38117801  0.02121799  0.26447910  1
  O2-  O233  1  0.38722758  0.01632719  0.77848176  1
  O2-  O234  1  0.38938739  0.51893822  0.26019204  1
  O2-  O235  1  0.38844305  0.51052424  0.78357837  1
  O2-  O236  1  0.88634095  0.02587246  0.25935344  1
  O2-  O237  1  0.86414803  0.02357175  0.76915369  1
  O2-  O238  1  0.88505983  0.52965359  0.26047924  1
  O2-  O239  1  0.86730169  0.51891900  0.77443611  1
  O2-  O240  1  0.48210208  0.37146832  0.23051822  1
  O2-  O241  1  0.48886137  0.37122173  0.73954079  1
  O2-  O242  1  0.47819442  0.88469894  0.22208496  1
  O2-  O243  1  0.48488454  0.88415100  0.72843604  1
  O2-  O244  1  0.97471792  0.38541268  0.22417197  1
  O2-  O245  1  0.96552858  0.38788214  0.74029912  1
  O2-  O246  1  0.98115225  0.87323539  0.22862205  1
  O2-  O247  1  0.96250179  0.88925620  0.73852214  1
  O2-  O248  1  0.02910710  0.11458049  0.26733150  1
  O2-  O249  1  0.00944626  0.11413002  0.78614745  1
  O2-  O250  1  0.01778623  0.63248924  0.25762085  1
  O2-  O251  1  0.01229713  0.61360220  0.78318626  1
  O2-  O252  1  0.51496949  0.13482879  0.26678697  1
  O2-  O253  1  0.51680491  0.13386754  0.77396082  1
  O2-  O254  1  0.52808496  0.61436449  0.26962330  1
  O2-  O255  1  0.52557088  0.61043392  0.77963303  1
  O2-  O256  1  0.12338352  0.47920432  0.01961261  1
  O2-  O257  1  0.13661666  0.47268056  0.52554220  1
  O2-  O258  1  0.11722369  0.98745312  0.01535362  1
  O2-  O259  1  0.13665141  0.98701761  0.53519203  1
  O2-  O260  1  0.63136245  0.48543097  0.01513976  1
  O2-  O261  1  0.63515133  0.48207994  0.53323907  1
  O2-  O262  1  0.63622657  0.96780128  0.01564216  1
  O2-  O263  1  0.63327481  0.97655800  0.52521072  1
  O2-  O264  1  0.36550505  0.02517737  -0.02612633  1
  O2-  O265  1  0.36427547  0.02940236  0.47572759  1
  O2-  O266  1  0.37865969  0.51526739  -0.02028655  1
  O2-  O267  1  0.36524951  0.51563927  0.46450362  1
  O2-  O268  1  0.87823018  0.01790276  -0.01996016  1
  O2-  O269  1  0.86447067  0.02941179  0.48431258  1
  O2-  O270  1  0.88030620  0.51659987  -0.02388969  1
  O2-  O271  1  0.86540319  0.52185973  0.48122899  1
  O2-  O272  1  0.47939701  0.37763742  0.01740054  1
  O2-  O273  1  0.47495281  0.36577113  0.52350615  1
  O2-  O274  1  0.47333216  0.86363639  0.02439786  1
  O2-  O275  1  0.47939874  0.86775287  0.52539642  1
  O2-  O276  1  0.98363697  0.38056404  0.02215941  1
  O2-  O277  1  0.98670259  0.36757980  0.52025244  1
  O2-  O278  1  0.97957572  0.87832273  0.01858052  1
  O2-  O279  1  0.96884434  0.86608788  0.51310199  1
  O2-  O280  1  0.01479952  0.12705506  -0.01977544  1
  O2-  O281  1  0.02427671  0.13425285  0.47915284  1
  O2-  O282  1  0.01705124  0.62700433  -0.01398414  1
  O2-  O283  1  0.02858065  0.63788807  0.47283848  1
  O2-  O284  1  0.51947604  0.13906649  -0.01870904  1
  O2-  O285  1  0.52010595  0.13988498  0.48493506  1
  O2-  O286  1  0.52043598  0.61650262  -0.01734193  1
  O2-  O287  1  0.51765783  0.63174840  0.47329766  1
  O2-  O288  1  0.13259433  0.26520256  -0.01841464  1
  O2-  O289  1  0.13574669  0.26724205  0.48398169  1
  O2-  O290  1  0.11068919  0.77238263  -0.01640827  1
  O2-  O291  1  0.11474287  0.78798494  0.48171953  1
  O2-  O292  1  0.61131396  0.28136474  -0.01081641  1
  O2-  O293  1  0.61269754  0.28161481  0.48497232  1
  O2-  O294  1  0.63201048  0.76406147  -0.01693493  1
  O2-  O295  1  0.61804733  0.77114364  0.47983048  1
  O2-  O296  1  0.37426793  0.23843021  0.01651258  1
  O2-  O297  1  0.37388581  0.23131642  0.51469988  1
  O2-  O298  1  0.38560982  0.71588865  0.02472926  1
  O2-  O299  1  0.38148837  0.72432197  0.51270423  1
  O2-  O300  1  0.88500686  0.23153792  0.02425665  1
  O2-  O301  1  0.88381257  0.22871465  0.52474396  1
  O2-  O302  1  0.87236880  0.73365550  0.01792676  1
  O2-  O303  1  0.88719026  0.72262207  0.51366099  1
  O2-  O304  1  0.26406539  0.36979125  -0.01299104  1
  O2-  O305  1  0.27264401  0.36641198  0.48787041  1
  O2-  O306  1  0.26939579  0.88582156  -0.02062715  1
  O2-  O307  1  0.27592717  0.88302501  0.48398549  1
  O2-  O308  1  0.77046110  0.38651961  -0.02411359  1
  O2-  O309  1  0.77219001  0.38552033  0.48735077  1
  O2-  O310  1  0.77039912  0.87044107  -0.02133164  1
  O2-  O311  1  0.77621028  0.88577364  0.49155329  1
  O2-  O312  1  0.23431013  0.13266032  0.01760174  1
  O2-  O313  1  0.23416273  0.13304504  0.51817012  1
  O2-  O314  1  0.22694200  0.61258483  0.01970616  1
  O2-  O315  1  0.22950409  0.61440802  0.51876778  1
  O2-  O316  1  0.72741247  0.11148376  0.01290588  1
  O2-  O317  1  0.72915077  0.11552988  0.52945505  1
  O2-  O318  1  0.73802783  0.62731336  0.00900892  1
  O2-  O319  1  0.73304318  0.61655858  0.52826344  1
