# generated using pymatgen
data_Sr64Ca21Nb43O192
_symmetry_space_group_name_H-M   'P 1'
_cell_length_a   16.58525728
_cell_length_b   16.57618056
_cell_length_c   16.73786619
_cell_angle_alpha   89.91855875
_cell_angle_beta   90.02480013
_cell_angle_gamma   90.00211493
_symmetry_Int_Tables_number   1
_chemical_formula_structural   Sr64Ca21Nb43O192
_chemical_formula_sum   'Sr64 Ca21 Nb43 O192'
_cell_volume   4601.57276181
_cell_formula_units_Z   1
loop_
 _symmetry_equiv_pos_site_id
 _symmetry_equiv_pos_as_xyz
  1  'x, y, z'
loop_
 _atom_type_symbol
 _atom_type_oxidation_number
  Sr2+  2.0
  Ca2+  2.0
  Nb5+  5.0
  O2-  -2.0
loop_
 _atom_site_type_symbol
 _atom_site_label
 _atom_site_symmetry_multiplicity
 _atom_site_fract_x
 _atom_site_fract_y
 _atom_site_fract_z
 _atom_site_occupancy
  Sr2+  Sr0  1  0.11137537  0.11814403  0.12667589  1
  Sr2+  Sr1  1  0.11080942  0.11785390  0.62630413  1
  Sr2+  Sr2  1  0.11770126  0.63473271  0.12580046  1
  Sr2+  Sr3  1  0.11935170  0.63928653  0.62183820  1
  Sr2+  Sr4  1  0.62344803  0.10795327  0.12476753  1
  Sr2+  Sr5  1  0.61309740  0.13191470  0.61765890  1
  Sr2+  Sr6  1  0.62303946  0.61196993  0.12216411  1
  Sr2+  Sr7  1  0.61906712  0.63118143  0.63150697  1
  Sr2+  Sr8  1  0.37572458  0.37643674  0.13130540  1
  Sr2+  Sr9  1  0.37272102  0.38124153  0.62983256  1
  Sr2+  Sr10  1  0.37405583  0.87687139  0.12385659  1
  Sr2+  Sr11  1  0.37632061  0.86796033  0.62204592  1
  Sr2+  Sr12  1  0.86820146  0.38317884  0.13061022  1
  Sr2+  Sr13  1  0.86652205  0.38607318  0.62105816  1
  Sr2+  Sr14  1  0.86900831  0.87290347  0.13151829  1
  Sr2+  Sr15  1  0.86684160  0.87954265  0.62497992  1
  Sr2+  Sr16  1  0.11575277  0.37064212  0.37345216  1
  Sr2+  Sr17  1  0.12458786  0.36837362  0.87266928  1
  Sr2+  Sr18  1  0.13005636  0.86810310  0.37767626  1
  Sr2+  Sr19  1  0.12193842  0.87703089  0.87064918  1
  Sr2+  Sr20  1  0.63594535  0.36520725  0.37521247  1
  Sr2+  Sr21  1  0.63050498  0.36562377  0.87349098  1
  Sr2+  Sr22  1  0.64424965  0.87136678  0.37217800  1
  Sr2+  Sr23  1  0.63122874  0.87311927  0.87603519  1
  Sr2+  Sr24  1  0.38689669  0.11785840  0.36926603  1
  Sr2+  Sr25  1  0.36489709  0.12113012  0.87759911  1
  Sr2+  Sr26  1  0.37215443  0.62773816  0.38615711  1
  Sr2+  Sr27  1  0.37596557  0.62467145  0.87030241  1
  Sr2+  Sr28  1  0.90268312  0.13743712  0.37744597  1
  Sr2+  Sr29  1  0.89697388  0.12778746  0.86956745  1
  Sr2+  Sr30  1  0.88055043  0.62202513  0.36666003  1
  Sr2+  Sr31  1  0.89315083  0.61478915  0.88103464  1
  Sr2+  Sr32  1  0.13229572  0.11399152  0.37784462  1
  Sr2+  Sr33  1  0.12946488  0.13074494  0.87324584  1
  Sr2+  Sr34  1  0.13378721  0.61163341  0.37638524  1
  Sr2+  Sr35  1  0.13093438  0.61044120  0.87672151  1
  Sr2+  Sr36  1  0.62309735  0.12792807  0.38279128  1
  Sr2+  Sr37  1  0.62302434  0.12829250  0.87630369  1
  Sr2+  Sr38  1  0.63020724  0.61968115  0.37783733  1
  Sr2+  Sr39  1  0.62278324  0.61508075  0.87408660  1
  Sr2+  Sr40  1  0.37857651  0.35009044  0.37184318  1
  Sr2+  Sr41  1  0.37213085  0.36397194  0.87484496  1
  Sr2+  Sr42  1  0.37929889  0.86546232  0.37498258  1
  Sr2+  Sr43  1  0.38594717  0.87174551  0.87259023  1
  Sr2+  Sr44  1  0.88360745  0.36959236  0.38439109  1
  Sr2+  Sr45  1  0.87621245  0.36508644  0.87250576  1
  Sr2+  Sr46  1  0.88368672  0.87479294  0.37085909  1
  Sr2+  Sr47  1  0.89005371  0.87232768  0.87689236  1
  Sr2+  Sr48  1  0.11266309  0.38551822  0.12824006  1
  Sr2+  Sr49  1  0.10705988  0.38290442  0.62669577  1
  Sr2+  Sr50  1  0.10019476  0.87430943  0.12644387  1
  Sr2+  Sr51  1  0.09497995  0.87463142  0.62563145  1
  Sr2+  Sr52  1  0.61946635  0.37300693  0.12314445  1
  Sr2+  Sr53  1  0.62993622  0.37954834  0.61916660  1
  Sr2+  Sr54  1  0.64597846  0.87107829  0.12329637  1
  Sr2+  Sr55  1  0.63406689  0.87682930  0.62675297  1
  Sr2+  Sr56  1  0.36488361  0.12140733  0.12669248  1
  Sr2+  Sr57  1  0.37233309  0.12202592  0.60157562  1
  Sr2+  Sr58  1  0.37987493  0.62273725  0.12243019  1
  Sr2+  Sr59  1  0.36899015  0.63675817  0.62445098  1
  Sr2+  Sr60  1  0.86409822  0.12813249  0.13012676  1
  Sr2+  Sr61  1  0.88075672  0.12515262  0.62065204  1
  Sr2+  Sr62  1  0.87195855  0.64364400  0.12318356  1
  Sr2+  Sr63  1  0.85718724  0.63181114  0.62441233  1
  Ca2+  Ca64  1  0.00059813  0.50524982  0.50123664  1
  Ca2+  Ca65  1  0.00345793  0.49787809  0.00067417  1
  Ca2+  Ca66  1  0.00085010  -0.00198758  0.49632429  1
  Ca2+  Ca67  1  0.50021963  0.50117582  0.50107489  1
  Ca2+  Ca68  1  -0.00319565  0.00225987  0.00173529  1
  Ca2+  Ca69  1  0.75220052  0.24604275  0.50364109  1
  Ca2+  Ca70  1  0.74893637  0.74583791  -0.00631194  1
  Ca2+  Ca71  1  0.25079345  0.75081550  -0.00351010  1
  Ca2+  Ca72  1  0.24753934  0.24902378  0.49974055  1
  Ca2+  Ca73  1  0.74780667  0.74976618  0.50015328  1
  Ca2+  Ca74  1  0.74953901  0.49851608  0.24801135  1
  Ca2+  Ca75  1  0.00167363  0.25317045  0.75023143  1
  Ca2+  Ca76  1  0.74637999  0.00228010  0.75236438  1
  Ca2+  Ca77  1  0.24975684  -0.00278305  0.75026620  1
  Ca2+  Ca78  1  0.00216859  0.25118891  0.24579857  1
  Ca2+  Ca79  1  0.74988894  0.00344271  0.25497864  1
  Ca2+  Ca80  1  0.50024514  0.75019944  0.24728747  1
  Ca2+  Ca81  1  -0.00303511  0.74609408  0.75169481  1
  Ca2+  Ca82  1  0.00243588  0.74980246  0.25345286  1
  Ca2+  Ca83  1  0.50475277  0.25032829  0.24822023  1
  Ca2+  Ca84  1  0.49928579  0.24950864  0.75000105  1
  Nb5+  Nb85  1  0.49953220  0.49130053  -0.00599455  1
  Nb5+  Nb86  1  0.50075180  -0.00742297  0.49171446  1
  Nb5+  Nb87  1  0.49809212  -0.00346669  -0.00112026  1
  Nb5+  Nb88  1  0.24650092  0.74968913  0.50106468  1
  Nb5+  Nb89  1  0.24380183  0.25257033  0.00647769  1
  Nb5+  Nb90  1  0.74344951  0.24984503  0.00120129  1
  Nb5+  Nb91  1  0.25515361  0.49284990  0.25813647  1
  Nb5+  Nb92  1  0.74440642  0.50003321  0.75249310  1
  Nb5+  Nb93  1  0.25137796  -0.00807193  0.24884646  1
  Nb5+  Nb94  1  0.24772131  0.49854108  0.75287741  1
  Nb5+  Nb95  1  0.50068393  0.75238239  0.74885839  1
  Nb5+  Nb96  1  -0.00474269  0.00364008  0.25295895  1
  Nb5+  Nb97  1  -0.00257984  -0.00062579  0.75076112  1
  Nb5+  Nb98  1  -0.00419414  0.50503233  0.24562339  1
  Nb5+  Nb99  1  -0.00916086  0.50216051  0.74724015  1
  Nb5+  Nb100  1  0.49986940  -0.00439467  0.24346679  1
  Nb5+  Nb101  1  0.50000586  0.00248332  0.74297258  1
  Nb5+  Nb102  1  0.49839065  0.50200235  0.25572556  1
  Nb5+  Nb103  1  0.49514235  0.50103444  0.74864177  1
  Nb5+  Nb104  1  0.24704141  0.24118376  0.24934212  1
  Nb5+  Nb105  1  0.25420768  0.24816791  0.74303515  1
  Nb5+  Nb106  1  0.25334160  0.74167675  0.24546129  1
  Nb5+  Nb107  1  0.24941768  0.75064339  0.75102089  1
  Nb5+  Nb108  1  0.75116995  0.24951086  0.25501177  1
  Nb5+  Nb109  1  0.74802574  0.24826652  0.74766574  1
  Nb5+  Nb110  1  0.74718288  0.74624912  0.25073035  1
  Nb5+  Nb111  1  0.75318617  0.75035591  0.75796088  1
  Nb5+  Nb112  1  0.00411842  0.25229516  0.50458271  1
  Nb5+  Nb113  1  -0.00990161  0.24947661  1.00314311  1
  Nb5+  Nb114  1  -0.01014765  0.74548854  0.49884331  1
  Nb5+  Nb115  1  0.00222380  0.75101166  0.99761468  1
  Nb5+  Nb116  1  0.49571868  0.25477376  0.50268764  1
  Nb5+  Nb117  1  0.49559322  0.24331077  0.99929167  1
  Nb5+  Nb118  1  0.50347562  0.74985389  0.49928361  1
  Nb5+  Nb119  1  0.49777873  0.74520302  1.00074348  1
  Nb5+  Nb120  1  0.24882295  -0.00130439  0.00256328  1
  Nb5+  Nb121  1  0.25085814  -0.00621888  0.50503848  1
  Nb5+  Nb122  1  0.25204798  0.49696926  0.00834530  1
  Nb5+  Nb123  1  0.25396984  0.49371791  0.50703069  1
  Nb5+  Nb124  1  0.75394054  -0.00066286  -0.00497146  1
  Nb5+  Nb125  1  0.75352652  0.00268866  0.49628432  1
  Nb5+  Nb126  1  0.75264006  0.49973364  -0.00101868  1
  Nb5+  Nb127  1  0.75007108  0.50338969  0.49454990  1
  O2-  O128  1  -0.01335609  0.02665863  0.13545512  1
  O2-  O129  1  -0.00405992  0.01973823  0.63042636  1
  O2-  O130  1  0.03223069  0.51753893  0.13218115  1
  O2-  O131  1  0.03008713  0.52001674  0.63714122  1
  O2-  O132  1  0.48244300  0.00973888  0.12738488  1
  O2-  O133  1  0.48503842  0.00370732  0.62684343  1
  O2-  O134  1  0.51094839  0.48850986  0.11086672  1
  O2-  O135  1  0.52803356  0.50008092  0.63851830  1
  O2-  O136  1  0.02406931  -0.02456259  0.36472358  1
  O2-  O137  1  0.00390201  -0.02393359  0.86850555  1
  O2-  O138  1  -0.01324089  0.48252167  0.36358570  1
  O2-  O139  1  -0.01438258  0.47440063  0.86441773  1
  O2-  O140  1  0.50325941  -0.01467552  0.37561730  1
  O2-  O141  1  0.51033546  0.00050922  0.88466590  1
  O2-  O142  1  0.48487598  0.52679625  0.36525535  1
  O2-  O143  1  0.48517883  0.51268192  0.87333038  1
  O2-  O144  1  0.27642235  0.26067334  0.12285569  1
  O2-  O145  1  0.28334157  0.25785353  0.63365861  1
  O2-  O146  1  0.27968020  0.75146811  0.13454135  1
  O2-  O147  1  0.27058794  0.75607566  0.62488326  1
  O2-  O148  1  0.76685979  0.26997838  0.11448562  1
  O2-  O149  1  0.77041926  0.26705026  0.63743151  1
  O2-  O150  1  0.76330156  0.76320501  0.12893632  1
  O2-  O151  1  0.76232204  0.76326144  0.63867664  1
  O2-  O152  1  0.22821918  0.23970651  0.36291959  1
  O2-  O153  1  0.23543865  0.24724448  0.88725520  1
  O2-  O154  1  0.23290421  0.73801621  0.38321203  1
  O2-  O155  1  0.23665948  0.71809361  0.86076930  1
  O2-  O156  1  0.73191876  0.23770178  0.36773754  1
  O2-  O157  1  0.73119428  0.24277013  0.88051069  1
  O2-  O158  1  0.73044205  0.72933594  0.36785437  1
  O2-  O159  1  0.70699124  0.73630022  0.86351285  1
  O2-  O160  1  -0.00888466  0.21479796  0.11458757  1
  O2-  O161  1  0.00073865  0.22145977  0.61988407  1
  O2-  O162  1  -0.00200364  0.72870607  0.11768051  1
  O2-  O163  1  -0.01087146  0.72516352  0.61772533  1
  O2-  O164  1  0.49179269  0.27020447  0.11245720  1
  O2-  O165  1  0.47782053  0.22703716  0.61767870  1
  O2-  O166  1  0.46912929  0.75077330  0.11049579  1
  O2-  O167  1  0.48150711  0.74702555  0.62723794  1
  O2-  O168  1  0.24220978  0.00580599  0.36720040  1
  O2-  O169  1  0.24004746  0.02506645  0.88940015  1
  O2-  O170  1  0.26882345  0.51623689  0.37052490  1
  O2-  O171  1  0.26953225  0.51106569  0.86792793  1
  O2-  O172  1  0.71419806  0.00966337  0.38460670  1
  O2-  O173  1  0.71337944  0.01412153  0.88722652  1
  O2-  O174  1  0.76259714  0.52608200  0.38245796  1
  O2-  O175  1  0.76652585  0.51645016  0.87272378  1
  O2-  O176  1  0.00130965  0.27206167  0.38237875  1
  O2-  O177  1  0.00873737  0.27710285  0.88715201  1
  O2-  O178  1  0.00835095  0.77872860  0.38627601  1
  O2-  O179  1  0.01013005  0.77968485  0.88187830  1
  O2-  O180  1  0.52128866  0.25883202  0.38566093  1
  O2-  O181  1  0.52231153  0.25073150  0.88597427  1
  O2-  O182  1  0.51029606  0.75096380  0.38481293  1
  O2-  O183  1  0.51452852  0.75988879  0.86700999  1
  O2-  O184  1  0.27241117  -0.00392050  0.12478646  1
  O2-  O185  1  0.27499836  -0.01620567  0.61617538  1
  O2-  O186  1  0.24394492  0.48042372  0.12251035  1
  O2-  O187  1  0.23929250  0.47921848  0.62242936  1
  O2-  O188  1  0.75745418  -0.01015060  0.11439312  1
  O2-  O189  1  0.75075398  -0.02199491  0.61468009  1
  O2-  O190  1  0.72835677  0.47849847  0.11087366  1
  O2-  O191  1  0.73741213  0.48337991  0.63555775  1
  O2-  O192  1  0.13922238  0.27917828  0.22658826  1
  O2-  O193  1  0.14226199  0.28406945  0.74563584  1
  O2-  O194  1  0.14125712  0.77601950  0.24207327  1
  O2-  O195  1  0.13624783  0.76174616  0.72762343  1
  O2-  O196  1  0.63719398  0.28387761  0.23605893  1
  O2-  O197  1  0.63469958  0.28744233  0.74185094  1
  O2-  O198  1  0.63096929  0.78033486  0.23931805  1
  O2-  O199  1  0.61631031  0.76222438  0.72658358  1
  O2-  O200  1  0.36620470  0.23435344  0.26404176  1
  O2-  O201  1  0.36471180  0.23969727  0.78506775  1
  O2-  O202  1  0.36389405  0.73781295  0.28350680  1
  O2-  O203  1  0.37619392  0.72715754  0.75751277  1
  O2-  O204  1  0.86739236  0.21951208  0.25333866  1
  O2-  O205  1  0.86348395  0.24001724  0.77605038  1
  O2-  O206  1  0.86698450  0.72300384  0.25860305  1
  O2-  O207  1  0.86165402  0.72078225  0.77763979  1
  O2-  O208  1  0.27562491  0.37857874  0.26226834  1
  O2-  O209  1  0.27988868  0.38319456  0.75439737  1
  O2-  O210  1  0.27195500  0.87834336  0.25688490  1
  O2-  O211  1  0.26936017  0.86115864  0.77425999  1
  O2-  O212  1  0.78536815  0.36627522  0.26326619  1
  O2-  O213  1  0.76934588  0.38436074  0.76785478  1
  O2-  O214  1  0.77311744  0.86684150  0.26770596  1
  O2-  O215  1  0.76702348  0.86462359  0.77474457  1
  O2-  O216  1  0.23112052  0.12720906  0.23090404  1
  O2-  O217  1  0.22918135  0.13560564  0.74007510  1
  O2-  O218  1  0.23357011  0.62538019  0.24034899  1
  O2-  O219  1  0.24099431  0.61515841  0.72663007  1
  O2-  O220  1  0.72644876  0.13668637  0.22351398  1
  O2-  O221  1  0.71754749  0.13766404  0.73824581  1
  O2-  O222  1  0.71915042  0.63074360  0.23114333  1
  O2-  O223  1  0.73108489  0.62072731  0.73636351  1
  O2-  O224  1  0.13861476  0.48109671  0.26272549  1
  O2-  O225  1  0.13520018  0.48140834  0.76729868  1
  O2-  O226  1  0.13587891  0.98649091  0.22805351  1
  O2-  O227  1  0.11710083  0.97136642  0.74119725  1
  O2-  O228  1  0.61183905  0.47822331  0.26249801  1
  O2-  O229  1  0.62766540  0.48867009  0.77371789  1
  O2-  O230  1  0.61208246  0.97481820  0.23193286  1
  O2-  O231  1  0.60885798  0.96018731  0.75019468  1
  O2-  O232  1  0.36854729  0.02632880  0.25327072  1
  O2-  O233  1  0.38740241  0.01027478  0.77488447  1
  O2-  O234  1  0.36896739  0.51965346  0.22733308  1
  O2-  O235  1  0.38046599  0.52035531  0.72902323  1
  O2-  O236  1  0.88408875  0.02107582  0.27747001  1
  O2-  O237  1  0.87999066  0.02999820  0.75567157  1
  O2-  O238  1  0.88454512  0.52926223  0.22619636  1
  O2-  O239  1  0.87522056  0.52110085  0.73353783  1
  O2-  O240  1  0.46748651  0.38833938  0.25265202  1
  O2-  O241  1  0.47774079  0.38709701  0.75613732  1
  O2-  O242  1  0.46218413  0.88505402  0.24689586  1
  O2-  O243  1  0.47248084  0.86857412  0.74510844  1
  O2-  O244  1  0.98898968  0.38666680  0.22529000  1
  O2-  O245  1  0.98575282  0.38575857  0.72208773  1
  O2-  O246  1  0.98530437  0.88606184  0.22696186  1
  O2-  O247  1  0.96992492  0.88168639  0.73109989  1
  O2-  O248  1  0.03118100  0.11690464  0.27099453  1
  O2-  O249  1  0.02588008  0.11745685  0.76967404  1
  O2-  O250  1  0.03075809  0.61668558  0.26938198  1
  O2-  O251  1  0.01885442  0.61323456  0.77979345  1
  O2-  O252  1  0.51510754  0.11278675  0.26543060  1
  O2-  O253  1  0.53003759  0.11294205  0.75307694  1
  O2-  O254  1  0.50745746  0.61428661  0.21821688  1
  O2-  O255  1  0.51477873  0.62728859  0.75480219  1
  O2-  O256  1  0.14260544  0.47622511  -0.02208477  1
  O2-  O257  1  0.14101218  0.48670589  0.47597455  1
  O2-  O258  1  0.13611138  0.98792459  0.02248091  1
  O2-  O259  1  0.13795584  0.96839349  0.50700651  1
  O2-  O260  1  0.61666452  0.48256293  -0.02384323  1
  O2-  O261  1  0.63254919  0.47299211  0.48313924  1
  O2-  O262  1  0.61442551  0.98879811  0.02293073  1
  O2-  O263  1  0.61215749  0.97172168  0.51053318  1
  O2-  O264  1  0.37982467  0.02899942  -0.00228124  1
  O2-  O265  1  0.37422357  0.01390095  0.48442891  1
  O2-  O266  1  0.37757189  0.51552004  0.00578395  1
  O2-  O267  1  0.36550069  0.53262015  0.51391165  1
  O2-  O268  1  0.86208114  0.03086908  -0.01922465  1
  O2-  O269  1  0.86493266  0.03099150  0.48709867  1
  O2-  O270  1  0.86485317  0.51772728  0.01638067  1
  O2-  O271  1  0.86493293  0.52210607  0.52335727  1
  O2-  O272  1  0.48147749  0.37756436  -0.01584053  1
  O2-  O273  1  0.47111813  0.36677616  0.51260829  1
  O2-  O274  1  0.47470221  0.88278978  0.00208455  1
  O2-  O275  1  0.47009080  0.87580938  0.50633642  1
  O2-  O276  1  0.98653465  0.36419293  0.03293724  1
  O2-  O277  1  0.97745332  0.36967687  0.52318978  1
  O2-  O278  1  0.97060983  0.86764039  0.02220169  1
  O2-  O279  1  0.97644938  0.86383257  0.52403104  1
  O2-  O280  1  0.02254550  0.13705041  -0.02631229  1
  O2-  O281  1  0.03105565  0.13374290  0.48097236  1
  O2-  O282  1  0.02829656  0.63277224  -0.02113835  1
  O2-  O283  1  0.03496427  0.63758126  0.48171607  1
  O2-  O284  1  0.51921210  0.12893609  0.00718224  1
  O2-  O285  1  0.51358645  0.11217370  0.49338962  1
  O2-  O286  1  0.51517030  0.62767708  -0.00127940  1
  O2-  O287  1  0.52233768  0.63637344  0.50775599  1
  O2-  O288  1  0.13151845  0.27104621  0.01954681  1
  O2-  O289  1  0.11971882  0.28580956  0.51063107  1
  O2-  O290  1  0.12026133  0.77965639  0.00996236  1
  O2-  O291  1  0.13350573  0.77322122  0.51931166  1
  O2-  O292  1  0.62704827  0.27016612  0.01214381  1
  O2-  O293  1  0.61339371  0.26080905  0.52496637  1
  O2-  O294  1  0.60927304  0.77899075  0.00816239  1
  O2-  O295  1  0.61341132  0.78130400  0.51488105  1
  O2-  O296  1  0.38026657  0.23272559  -0.01455962  1
  O2-  O297  1  0.38273694  0.22189557  0.47575438  1
  O2-  O298  1  0.38544465  0.74201793  -0.03666358  1
  O2-  O299  1  0.37394705  0.73543383  0.49218566  1
  O2-  O300  1  0.87283404  0.23696124  -0.01444641  1
  O2-  O301  1  0.88498194  0.22583362  0.49596192  1
  O2-  O302  1  0.88333830  0.72135777  -0.01479053  1
  O2-  O303  1  0.88003883  0.71589418  0.48523774  1
  O2-  O304  1  0.27861561  0.37257221  -0.00517887  1
  O2-  O305  1  0.28368961  0.38515961  0.48688445  1
  O2-  O306  1  0.27780215  0.88899209  -0.01297623  1
  O2-  O307  1  0.27288308  0.87017315  0.48487380  1
  O2-  O308  1  0.75974943  0.37676482  -0.02246127  1
  O2-  O309  1  0.77096780  0.38424972  0.49120723  1
  O2-  O310  1  0.76498584  0.88515096  -0.01900958  1
  O2-  O311  1  0.77113602  0.88352965  0.47683943  1
  O2-  O312  1  0.24020764  0.13319977  0.01898848  1
  O2-  O313  1  0.23156724  0.10982064  0.51250796  1
  O2-  O314  1  0.23885998  0.61195904  0.01569793  1
  O2-  O315  1  0.23371932  0.63015707  0.51345405  1
  O2-  O316  1  0.72861663  0.13293128  0.01533448  1
  O2-  O317  1  0.71568052  0.11367910  0.51611153  1
  O2-  O318  1  0.71810496  0.61106798  0.00470683  1
  O2-  O319  1  0.71948748  0.61486175  0.52448317  1
