# generated using pymatgen
data_Sr64Ca21Nb43O192
_symmetry_space_group_name_H-M   'P 1'
_cell_length_a   16.56147923
_cell_length_b   16.56417971
_cell_length_c   16.71735879
_cell_angle_alpha   89.92608709
_cell_angle_beta   90.01686312
_cell_angle_gamma   89.97552216
_symmetry_Int_Tables_number   1
_chemical_formula_structural   Sr64Ca21Nb43O192
_chemical_formula_sum   'Sr64 Ca21 Nb43 O192'
_cell_volume   4586.02376998
_cell_formula_units_Z   1
loop_
 _symmetry_equiv_pos_site_id
 _symmetry_equiv_pos_as_xyz
  1  'x, y, z'
loop_
 _atom_type_symbol
 _atom_type_oxidation_number
  Sr2+  2.0
  Ca2+  2.0
  Nb5+  5.0
  O2-  -2.0
loop_
 _atom_site_type_symbol
 _atom_site_label
 _atom_site_symmetry_multiplicity
 _atom_site_fract_x
 _atom_site_fract_y
 _atom_site_fract_z
 _atom_site_occupancy
  Sr2+  Sr0  1  0.12284643  0.10164861  0.12392275  1
  Sr2+  Sr1  1  0.11153688  0.11666823  0.61933696  1
  Sr2+  Sr2  1  0.11611549  0.61845034  0.12481947  1
  Sr2+  Sr3  1  0.12068743  0.62514416  0.62723522  1
  Sr2+  Sr4  1  0.61565858  0.12259997  0.12758981  1
  Sr2+  Sr5  1  0.62472108  0.10638224  0.62300788  1
  Sr2+  Sr6  1  0.61980217  0.62108843  0.12348400  1
  Sr2+  Sr7  1  0.61737169  0.62789846  0.63133593  1
  Sr2+  Sr8  1  0.37167846  0.37180155  0.13636383  1
  Sr2+  Sr9  1  0.36185408  0.36719531  0.62459301  1
  Sr2+  Sr10  1  0.36406931  0.87172516  0.11706540  1
  Sr2+  Sr11  1  0.37085261  0.86497138  0.62077211  1
  Sr2+  Sr12  1  0.87533964  0.36339304  0.11890351  1
  Sr2+  Sr13  1  0.86618419  0.36666776  0.61432390  1
  Sr2+  Sr14  1  0.86994853  0.87414024  0.13278145  1
  Sr2+  Sr15  1  0.87145160  0.88291421  0.63273982  1
  Sr2+  Sr16  1  0.13940713  0.38937502  0.37350463  1
  Sr2+  Sr17  1  0.13459547  0.38405142  0.86957252  1
  Sr2+  Sr18  1  0.14262428  0.87754771  0.37021774  1
  Sr2+  Sr19  1  0.13893394  0.88785156  0.87887828  1
  Sr2+  Sr20  1  0.63754090  0.37586801  0.37122167  1
  Sr2+  Sr21  1  0.62012744  0.38093986  0.87796588  1
  Sr2+  Sr22  1  0.62871703  0.88419914  0.37743596  1
  Sr2+  Sr23  1  0.63394587  0.87982796  0.87621435  1
  Sr2+  Sr24  1  0.38183262  0.13066805  0.37954906  1
  Sr2+  Sr25  1  0.37638976  0.12750857  0.86790512  1
  Sr2+  Sr26  1  0.37938008  0.62591735  0.37680725  1
  Sr2+  Sr27  1  0.37531407  0.62659845  0.87555027  1
  Sr2+  Sr28  1  0.88526916  0.13173977  0.37317542  1
  Sr2+  Sr29  1  0.87650628  0.12979977  0.86569165  1
  Sr2+  Sr30  1  0.87925639  0.62165818  0.37431125  1
  Sr2+  Sr31  1  0.87528623  0.62691980  0.87511011  1
  Sr2+  Sr32  1  0.13608815  0.13577943  0.37996262  1
  Sr2+  Sr33  1  0.13618326  0.13742084  0.88052707  1
  Sr2+  Sr34  1  0.12827867  0.63331163  0.36659374  1
  Sr2+  Sr35  1  0.12776009  0.62481142  0.87782287  1
  Sr2+  Sr36  1  0.62594092  0.13134405  0.37053294  1
  Sr2+  Sr37  1  0.63228228  0.14240494  0.86897795  1
  Sr2+  Sr38  1  0.63488903  0.61326255  0.37555341  1
  Sr2+  Sr39  1  0.62826584  0.62887941  0.87276216  1
  Sr2+  Sr40  1  0.38340262  0.36659307  0.37832514  1
  Sr2+  Sr41  1  0.37763289  0.37634755  0.86764315  1
  Sr2+  Sr42  1  0.37867129  0.89426245  0.37669726  1
  Sr2+  Sr43  1  0.38434969  0.88878067  0.87562329  1
  Sr2+  Sr44  1  0.87903955  0.38307749  0.38212061  1
  Sr2+  Sr45  1  0.88024441  0.38463155  0.87331811  1
  Sr2+  Sr46  1  0.88624388  0.88350171  0.36871198  1
  Sr2+  Sr47  1  0.88443636  0.88967677  0.87473476  1
  Sr2+  Sr48  1  0.12025025  0.37294995  0.12469578  1
  Sr2+  Sr49  1  0.11651888  0.37616828  0.63395521  1
  Sr2+  Sr50  1  0.12043573  0.86732694  0.12765872  1
  Sr2+  Sr51  1  0.10774842  0.86367388  0.62196577  1
  Sr2+  Sr52  1  0.61418551  0.37440829  0.12710784  1
  Sr2+  Sr53  1  0.62385195  0.37257451  0.60997812  1
  Sr2+  Sr54  1  0.62537573  0.86757634  0.12969618  1
  Sr2+  Sr55  1  0.61116343  0.87038298  0.62273870  1
  Sr2+  Sr56  1  0.35696333  0.12506354  0.12437197  1
  Sr2+  Sr57  1  0.36461186  0.11246086  0.62208499  1
  Sr2+  Sr58  1  0.35866941  0.61999669  0.12206884  1
  Sr2+  Sr59  1  0.36000163  0.62353580  0.62417307  1
  Sr2+  Sr60  1  0.86809535  0.11423700  0.12242702  1
  Sr2+  Sr61  1  0.86912345  0.11542988  0.61735316  1
  Sr2+  Sr62  1  0.86725022  0.62334171  0.12673007  1
  Sr2+  Sr63  1  0.86989923  0.62230366  0.62401991  1
  Ca2+  Ca64  1  -0.00124692  -0.00444252  0.49748479  1
  Ca2+  Ca65  1  0.49680241  0.50058827  0.50149126  1
  Ca2+  Ca66  1  0.00558482  0.50152675  0.50280241  1
  Ca2+  Ca67  1  0.50296168  0.00361844  -0.00084550  1
  Ca2+  Ca68  1  -0.00121253  -0.00301101  0.00096360  1
  Ca2+  Ca69  1  0.24963965  0.75088639  -0.00171046  1
  Ca2+  Ca70  1  0.24760371  0.74998088  0.49992157  1
  Ca2+  Ca71  1  0.75210476  0.75053533  0.50123849  1
  Ca2+  Ca72  1  0.25056023  0.25289182  0.50193366  1
  Ca2+  Ca73  1  0.25027683  0.25449227  -0.00043811  1
  Ca2+  Ca74  1  0.75446731  0.49610234  0.24682381  1
  Ca2+  Ca75  1  0.50235695  0.25309934  0.74687544  1
  Ca2+  Ca76  1  0.50106984  0.75127641  0.24931188  1
  Ca2+  Ca77  1  -0.00275634  0.24996127  0.74958410  1
  Ca2+  Ca78  1  0.74966164  0.49526772  0.74819058  1
  Ca2+  Ca79  1  0.25233602  0.00153920  0.25159825  1
  Ca2+  Ca80  1  0.74756211  0.00010887  0.75257175  1
  Ca2+  Ca81  1  -0.00178356  0.25109899  0.25055487  1
  Ca2+  Ca82  1  0.25083164  0.50031898  0.24717740  1
  Ca2+  Ca83  1  0.74987936  -0.00023664  0.25134060  1
  Ca2+  Ca84  1  0.24745568  -0.00370925  0.74650347  1
  Nb5+  Nb85  1  0.49468315  0.50089328  0.00107946  1
  Nb5+  Nb86  1  -0.00578850  0.50172489  -0.00017173  1
  Nb5+  Nb87  1  0.50045733  0.00045380  0.50017159  1
  Nb5+  Nb88  1  0.75236377  0.75502754  -0.00368978  1
  Nb5+  Nb89  1  0.75240696  0.25578394  -0.00482665  1
  Nb5+  Nb90  1  0.75153414  0.24467608  0.49067282  1
  Nb5+  Nb91  1  0.25134135  0.50327744  0.75102120  1
  Nb5+  Nb92  1  -0.00763478  0.74693380  0.74805959  1
  Nb5+  Nb93  1  0.49227029  0.75014090  0.75095722  1
  Nb5+  Nb94  1  0.50102141  0.24899439  0.25064395  1
  Nb5+  Nb95  1  0.00021611  0.74760011  0.24389884  1
  Nb5+  Nb96  1  0.00440798  0.00316952  0.25466809  1
  Nb5+  Nb97  1  0.00533140  0.00349509  0.75380279  1
  Nb5+  Nb98  1  -0.00240499  0.49656928  0.25140998  1
  Nb5+  Nb99  1  -0.00279394  0.50551634  0.75019243  1
  Nb5+  Nb100  1  0.49537927  -0.00143529  0.24168135  1
  Nb5+  Nb101  1  0.50283237  0.00333637  0.75380549  1
  Nb5+  Nb102  1  0.50123269  0.50121178  0.25384626  1
  Nb5+  Nb103  1  0.49744667  0.50211154  0.74737984  1
  Nb5+  Nb104  1  0.24461617  0.25473837  0.25088627  1
  Nb5+  Nb105  1  0.24568505  0.24383016  0.74494212  1
  Nb5+  Nb106  1  0.25740333  0.74638327  0.24918861  1
  Nb5+  Nb107  1  0.24091207  0.75251092  0.75564518  1
  Nb5+  Nb108  1  0.75054045  0.24861397  0.24062652  1
  Nb5+  Nb109  1  0.74888312  0.25131509  0.73642283  1
  Nb5+  Nb110  1  0.74922983  0.74584449  0.25569001  1
  Nb5+  Nb111  1  0.74431847  0.75198801  0.74980576  1
  Nb5+  Nb112  1  0.00658117  0.25460266  0.49469159  1
  Nb5+  Nb113  1  0.00288788  0.24843034  0.99689581  1
  Nb5+  Nb114  1  -0.00269262  0.74834224  0.48904329  1
  Nb5+  Nb115  1  -0.00282215  0.75165528  0.99505560  1
  Nb5+  Nb116  1  0.50411205  0.24574328  0.50711576  1
  Nb5+  Nb117  1  0.50035716  0.25001398  1.00113173  1
  Nb5+  Nb118  1  0.50023662  0.75075785  0.49262378  1
  Nb5+  Nb119  1  0.50041526  0.75062002  1.00071138  1
  Nb5+  Nb120  1  0.25260924  0.00270557  -0.00148312  1
  Nb5+  Nb121  1  0.24322098  -0.00212418  0.50496214  1
  Nb5+  Nb122  1  0.24376584  0.49733643  0.00030049  1
  Nb5+  Nb123  1  0.25042773  0.50361382  0.49737696  1
  Nb5+  Nb124  1  0.74545365  0.01115837  0.00028021  1
  Nb5+  Nb125  1  0.75189691  -0.00324931  0.49445486  1
  Nb5+  Nb126  1  0.74555894  0.50302629  0.00104727  1
  Nb5+  Nb127  1  0.74798027  0.50388753  0.50359751  1
  O2-  O128  1  -0.02126199  0.01155169  0.13724560  1
  O2-  O129  1  -0.01948458  0.01071322  0.63553246  1
  O2-  O130  1  -0.00145557  0.51172647  0.11740100  1
  O2-  O131  1  0.00575578  0.52485823  0.63765158  1
  O2-  O132  1  0.48134126  0.03138114  0.13319915  1
  O2-  O133  1  0.48874919  0.01903303  0.62299482  1
  O2-  O134  1  0.51097439  0.51199914  0.11806615  1
  O2-  O135  1  0.49729388  0.53153118  0.63656298  1
  O2-  O136  1  0.01943360  -0.03557022  0.36631129  1
  O2-  O137  1  0.01606924  -0.02881506  0.86807488  1
  O2-  O138  1  0.00730913  0.49172329  0.36610359  1
  O2-  O139  1  0.00456830  0.49705431  0.87807674  1
  O2-  O140  1  0.51631968  -0.01588523  0.38208089  1
  O2-  O141  1  0.51525378  -0.02708904  0.86507585  1
  O2-  O142  1  0.48589707  0.48248813  0.36547545  1
  O2-  O143  1  0.49695531  0.48259728  0.88165293  1
  O2-  O144  1  0.24631825  0.28369891  0.13390508  1
  O2-  O145  1  0.23348720  0.28593626  0.63423500  1
  O2-  O146  1  0.24322758  0.77766309  0.13308600  1
  O2-  O147  1  0.23913577  0.77137533  0.63921678  1
  O2-  O148  1  0.73622828  0.27342239  0.12727408  1
  O2-  O149  1  0.73423611  0.26805060  0.62261076  1
  O2-  O150  1  0.74436635  0.76753033  0.11391553  1
  O2-  O151  1  0.74835042  0.78015776  0.63811865  1
  O2-  O152  1  0.26781935  0.22730266  0.36556579  1
  O2-  O153  1  0.26679386  0.22888755  0.86309421  1
  O2-  O154  1  0.25510180  0.71613291  0.36589520  1
  O2-  O155  1  0.25264767  0.71457959  0.86682385  1
  O2-  O156  1  0.75917090  0.22429895  0.37717644  1
  O2-  O157  1  0.76127960  0.22987782  0.88410529  1
  O2-  O158  1  0.75519858  0.71500168  0.36593157  1
  O2-  O159  1  0.75509695  0.71982891  0.87829815  1
  O2-  O160  1  0.01049160  0.26169881  0.11338375  1
  O2-  O161  1  0.02343284  0.24527296  0.61375776  1
  O2-  O162  1  0.00831314  0.73539154  0.12428404  1
  O2-  O163  1  0.00804769  0.73218285  0.63365148  1
  O2-  O164  1  0.52213636  0.24605549  0.12635195  1
  O2-  O165  1  0.53441206  0.23239116  0.61609433  1
  O2-  O166  1  0.52694839  0.73744597  0.11261698  1
  O2-  O167  1  0.51569020  0.73788757  0.63508355  1
  O2-  O168  1  0.23044150  0.01897312  0.38739691  1
  O2-  O169  1  0.22597783  0.01942694  0.88128900  1
  O2-  O170  1  0.23469862  0.52110327  0.38362937  1
  O2-  O171  1  0.24639558  0.52590864  0.87465379  1
  O2-  O172  1  0.71607784  0.01483490  0.38421501  1
  O2-  O173  1  0.71442742  0.01506399  0.88625102  1
  O2-  O174  1  0.75498547  0.51692841  0.38365262  1
  O2-  O175  1  0.75396736  0.50889402  0.88470573  1
  O2-  O176  1  -0.03583971  0.25970540  0.38286851  1
  O2-  O177  1  -0.03904287  0.25832410  0.88684370  1
  O2-  O178  1  -0.01732344  0.75434308  0.37219384  1
  O2-  O179  1  -0.02002176  0.75556496  0.87836828  1
  O2-  O180  1  0.49012799  0.25516882  0.37151519  1
  O2-  O181  1  0.49367558  0.27324942  0.88698527  1
  O2-  O182  1  0.48023813  0.77597893  0.38343624  1
  O2-  O183  1  0.49289063  0.76172713  0.87367210  1
  O2-  O184  1  0.27961955  -0.00865839  0.11675312  1
  O2-  O185  1  0.28375673  -0.01647826  0.61574209  1
  O2-  O186  1  0.25393344  0.47122320  0.11128511  1
  O2-  O187  1  0.26491352  0.48604663  0.63577557  1
  O2-  O188  1  0.77604982  -0.01066075  0.11472225  1
  O2-  O189  1  0.76656853  -0.00714995  0.61411706  1
  O2-  O190  1  0.76447201  0.47213921  0.11204698  1
  O2-  O191  1  0.74525090  0.46562198  0.61626992  1
  O2-  O192  1  0.13264752  0.27870694  0.26709284  1
  O2-  O193  1  0.13250269  0.27182752  0.77298011  1
  O2-  O194  1  0.11797363  0.76526739  0.26223260  1
  O2-  O195  1  0.12191900  0.76315889  0.76506484  1
  O2-  O196  1  0.62322405  0.26918611  0.26149870  1
  O2-  O197  1  0.63757891  0.28000711  0.77039141  1
  O2-  O198  1  0.63660723  0.77562012  0.25936434  1
  O2-  O199  1  0.62596017  0.76415471  0.76316632  1
  O2-  O200  1  0.38433722  0.23453653  0.23302856  1
  O2-  O201  1  0.36618676  0.23974428  0.72843530  1
  O2-  O202  1  0.36935742  0.72060818  0.23603577  1
  O2-  O203  1  0.37644283  0.73199160  0.74332926  1
  O2-  O204  1  0.86306284  0.22118048  0.23045795  1
  O2-  O205  1  0.86377542  0.21393569  0.73193099  1
  O2-  O206  1  0.87907348  0.72643779  0.24007330  1
  O2-  O207  1  0.87563811  0.72628625  0.74526840  1
  O2-  O208  1  0.27866589  0.36895014  0.27523506  1
  O2-  O209  1  0.26374302  0.38663687  0.77118439  1
  O2-  O210  1  0.26664259  0.86280464  0.27653971  1
  O2-  O211  1  0.26630639  0.86148748  0.78345947  1
  O2-  O212  1  0.76705006  0.36003181  0.27789829  1
  O2-  O213  1  0.78729256  0.36093658  0.76177375  1
  O2-  O214  1  0.77990115  0.86073935  0.25943465  1
  O2-  O215  1  0.76746449  0.86238887  0.78435459  1
  O2-  O216  1  0.23367611  0.13850608  0.22386294  1
  O2-  O217  1  0.22735269  0.13301836  0.72046917  1
  O2-  O218  1  0.22585031  0.63283636  0.22081810  1
  O2-  O219  1  0.23776051  0.62509765  0.72920731  1
  O2-  O220  1  0.71961755  0.13440845  0.23539720  1
  O2-  O221  1  0.71807151  0.13515536  0.74155057  1
  O2-  O222  1  0.73428655  0.63420067  0.21738770  1
  O2-  O223  1  0.73212505  0.63415832  0.73098465  1
  O2-  O224  1  0.11473640  0.47863605  0.23391087  1
  O2-  O225  1  0.12929460  0.49389373  0.75268149  1
  O2-  O226  1  0.11842360  0.97734844  0.22625750  1
  O2-  O227  1  0.11512297  0.96580221  0.72982410  1
  O2-  O228  1  0.61817047  0.47557422  0.24646309  1
  O2-  O229  1  0.61219832  0.48881413  0.75976287  1
  O2-  O230  1  0.61252717  0.97781282  0.23797337  1
  O2-  O231  1  0.61456612  0.97572797  0.72617963  1
  O2-  O232  1  0.38660852  0.02037706  0.28200862  1
  O2-  O233  1  0.38429856  0.01203998  0.76395762  1
  O2-  O234  1  0.38672140  0.51615604  0.22818873  1
  O2-  O235  1  0.37394442  0.52342611  0.76466999  1
  O2-  O236  1  0.88522190  0.01236566  0.27730535  1
  O2-  O237  1  0.88438940  0.00934826  0.77110822  1
  O2-  O238  1  0.88571705  0.53479381  0.24862990  1
  O2-  O239  1  0.88441652  0.52837117  0.75579696  1
  O2-  O240  1  0.48588314  0.37098474  0.23755828  1
  O2-  O241  1  0.47402703  0.38981115  0.73278954  1
  O2-  O242  1  0.47252991  0.88579711  0.22474543  1
  O2-  O243  1  0.48071206  0.86785398  0.73534293  1
  O2-  O244  1  0.96589044  0.38626160  0.23798803  1
  O2-  O245  1  0.98752426  0.38968129  0.74335255  1
  O2-  O246  1  0.98200165  0.86463358  0.23440966  1
  O2-  O247  1  0.97873281  0.86269287  0.73934998  1
  O2-  O248  1  0.02642873  0.11563865  0.27284423  1
  O2-  O249  1  0.03019057  0.11487581  0.76917840  1
  O2-  O250  1  0.02306380  0.62694236  0.25511451  1
  O2-  O251  1  0.02007401  0.62959330  0.77230536  1
  O2-  O252  1  0.52103730  0.13012411  0.25994887  1
  O2-  O253  1  0.51804741  0.11688515  0.77197571  1
  O2-  O254  1  0.52638402  0.61502273  0.26722666  1
  O2-  O255  1  0.51231807  0.62918214  0.77281057  1
  O2-  O256  1  0.12390361  0.48518677  0.00000224  1
  O2-  O257  1  0.13836725  0.46512994  0.51498691  1
  O2-  O258  1  0.13445358  0.97476898  0.02225250  1
  O2-  O259  1  0.13207832  0.97979179  0.52940030  1
  O2-  O260  1  0.62973539  0.47983403  0.00018237  1
  O2-  O261  1  0.63103494  0.47541169  0.48942322  1
  O2-  O262  1  0.63546539  0.97238945  0.02575212  1
  O2-  O263  1  0.62276150  0.98337224  0.52022564  1
  O2-  O264  1  0.36987234  0.02677406  -0.02508830  1
  O2-  O265  1  0.38398335  0.02092452  0.48444288  1
  O2-  O266  1  0.37843802  0.51748889  0.00058694  1
  O2-  O267  1  0.36700542  0.53626918  0.49773699  1
  O2-  O268  1  0.86159896  0.01808664  -0.02810483  1
  O2-  O269  1  0.86340683  0.02527101  0.47742891  1
  O2-  O270  1  0.87742717  0.52169213  -0.00514562  1
  O2-  O271  1  0.86700368  0.51493821  0.50688519  1
  O2-  O272  1  0.49047839  0.37943383  0.01917458  1
  O2-  O273  1  0.48585118  0.36152730  0.51764516  1
  O2-  O274  1  0.48135311  0.86369839  0.01123999  1
  O2-  O275  1  0.48332353  0.88177908  0.51936529  1
  O2-  O276  1  0.97774857  0.38454909  0.00373111  1
  O2-  O277  1  0.97243730  0.36798632  0.51094862  1
  O2-  O278  1  0.96685358  0.86063676  0.01579026  1
  O2-  O279  1  0.96660311  0.86003467  0.52060704  1
  O2-  O280  1  0.02036153  0.13459202  -0.00576367  1
  O2-  O281  1  0.01565110  0.13360871  0.48606333  1
  O2-  O282  1  0.01593421  0.62539652  -0.00870853  1
  O2-  O283  1  0.03582053  0.63582629  0.48967812  1
  O2-  O284  1  0.53293679  0.13965177  -0.01207156  1
  O2-  O285  1  0.52427172  0.12215227  0.48549193  1
  O2-  O286  1  0.52395344  0.61737300  -0.01595899  1
  O2-  O287  1  0.52283696  0.63806944  0.47601946  1
  O2-  O288  1  0.11248618  0.27672610  -0.02562269  1
  O2-  O289  1  0.11697695  0.27259690  0.46585640  1
  O2-  O290  1  0.11082483  0.77030592  -0.01201533  1
  O2-  O291  1  0.11236882  0.78354243  0.48941198  1
  O2-  O292  1  0.63318505  0.27546333  -0.00604296  1
  O2-  O293  1  0.62742376  0.26529817  0.47963100  1
  O2-  O294  1  0.62991160  0.75849604  -0.01898152  1
  O2-  O295  1  0.61517330  0.77946899  0.49864607  1
  O2-  O296  1  0.38818577  0.23393916  0.01710310  1
  O2-  O297  1  0.38986899  0.22328367  0.51412689  1
  O2-  O298  1  0.38903091  0.71980036  0.00772371  1
  O2-  O299  1  0.38693222  0.73757143  0.52544615  1
  O2-  O300  1  0.86673202  0.23425739  0.02569118  1
  O2-  O301  1  0.86557191  0.23180693  0.51972010  1
  O2-  O302  1  0.86895815  0.72112024  0.00532722  1
  O2-  O303  1  0.88450293  0.71128594  0.50663551  1
  O2-  O304  1  0.26531363  0.38749527  -0.03614028  1
  O2-  O305  1  0.28724488  0.38794294  0.48917693  1
  O2-  O306  1  0.27549157  0.88390699  -0.02101050  1
  O2-  O307  1  0.27172182  0.88439945  0.47839189  1
  O2-  O308  1  0.77292264  0.37099348  -0.01781155  1
  O2-  O309  1  0.76530898  0.36527441  0.48207837  1
  O2-  O310  1  0.76733279  0.86721114  -0.02259218  1
  O2-  O311  1  0.76825828  0.88383914  0.47418121  1
  O2-  O312  1  0.22727056  0.12092922  0.01928575  1
  O2-  O313  1  0.23344033  0.11806544  0.52440349  1
  O2-  O314  1  0.23503277  0.61428823  0.02100721  1
  O2-  O315  1  0.22834576  0.61606290  0.53114397  1
  O2-  O316  1  0.73044875  0.12761005  0.02019659  1
  O2-  O317  1  0.72926273  0.12926646  0.51675200  1
  O2-  O318  1  0.73219386  0.61799982  0.01854123  1
  O2-  O319  1  0.72500677  0.61519048  0.52827398  1
