# generated using pymatgen
data_Sr64Ca21Nb43O192
_symmetry_space_group_name_H-M   'P 1'
_cell_length_a   16.57329443
_cell_length_b   16.54399445
_cell_length_c   16.71439112
_cell_angle_alpha   89.99937113
_cell_angle_beta   90.01920375
_cell_angle_gamma   90.02399284
_symmetry_Int_Tables_number   1
_chemical_formula_structural   Sr64Ca21Nb43O192
_chemical_formula_sum   'Sr64 Ca21 Nb43 O192'
_cell_volume   4582.89302207
_cell_formula_units_Z   1
loop_
 _symmetry_equiv_pos_site_id
 _symmetry_equiv_pos_as_xyz
  1  'x, y, z'
loop_
 _atom_type_symbol
 _atom_type_oxidation_number
  Sr2+  2.0
  Ca2+  2.0
  Nb5+  5.0
  O2-  -2.0
loop_
 _atom_site_type_symbol
 _atom_site_label
 _atom_site_symmetry_multiplicity
 _atom_site_fract_x
 _atom_site_fract_y
 _atom_site_fract_z
 _atom_site_occupancy
  Sr2+  Sr0  1  0.12375653  0.12539392  0.12580360  1
  Sr2+  Sr1  1  0.11880531  0.12668653  0.62108416  1
  Sr2+  Sr2  1  0.11115182  0.62780694  0.12092121  1
  Sr2+  Sr3  1  0.11832551  0.61280809  0.63258008  1
  Sr2+  Sr4  1  0.62440437  0.12683894  0.12480773  1
  Sr2+  Sr5  1  0.62391610  0.12737745  0.63399193  1
  Sr2+  Sr6  1  0.62593274  0.62916111  0.12642667  1
  Sr2+  Sr7  1  0.62903287  0.62692831  0.61852073  1
  Sr2+  Sr8  1  0.37677266  0.37727472  0.11981206  1
  Sr2+  Sr9  1  0.37168425  0.36389748  0.62321291  1
  Sr2+  Sr10  1  0.37221619  0.88482331  0.12024128  1
  Sr2+  Sr11  1  0.37604070  0.87793959  0.63495955  1
  Sr2+  Sr12  1  0.87800334  0.37701936  0.12850529  1
  Sr2+  Sr13  1  0.88021948  0.36952417  0.62584837  1
  Sr2+  Sr14  1  0.87635371  0.88795200  0.12857522  1
  Sr2+  Sr15  1  0.87550062  0.87176192  0.62150828  1
  Sr2+  Sr16  1  0.10503805  0.37433309  0.38155599  1
  Sr2+  Sr17  1  0.12714896  0.38647432  0.87088511  1
  Sr2+  Sr18  1  0.14518924  0.86650246  0.37569136  1
  Sr2+  Sr19  1  0.12140064  0.87056955  0.86859978  1
  Sr2+  Sr20  1  0.61518551  0.38520093  0.37215789  1
  Sr2+  Sr21  1  0.63013425  0.37912287  0.86749448  1
  Sr2+  Sr22  1  0.63171796  0.87073467  0.37824523  1
  Sr2+  Sr23  1  0.62453409  0.87294567  0.87666787  1
  Sr2+  Sr24  1  0.37793819  0.12533926  0.37445751  1
  Sr2+  Sr25  1  0.38426401  0.12312119  0.87546308  1
  Sr2+  Sr26  1  0.36082956  0.62294676  0.37749741  1
  Sr2+  Sr27  1  0.35274576  0.62566618  0.87361344  1
  Sr2+  Sr28  1  0.88094023  0.12813874  0.36044361  1
  Sr2+  Sr29  1  0.88014277  0.13157531  0.87411923  1
  Sr2+  Sr30  1  0.89585659  0.62870174  0.36937428  1
  Sr2+  Sr31  1  0.90476358  0.62729671  0.87751457  1
  Sr2+  Sr32  1  0.13581571  0.12978389  0.37999135  1
  Sr2+  Sr33  1  0.12562826  0.13841370  0.87927256  1
  Sr2+  Sr34  1  0.11906774  0.62431429  0.37989828  1
  Sr2+  Sr35  1  0.12475642  0.62013622  0.87171363  1
  Sr2+  Sr36  1  0.62191875  0.14763790  0.36976608  1
  Sr2+  Sr37  1  0.62561592  0.13778887  0.86987206  1
  Sr2+  Sr38  1  0.62094125  0.62768837  0.37650064  1
  Sr2+  Sr39  1  0.62807005  0.62864709  0.87651292  1
  Sr2+  Sr40  1  0.37738274  0.37459307  0.37924724  1
  Sr2+  Sr41  1  0.38069106  0.38681995  0.87149932  1
  Sr2+  Sr42  1  0.38652374  0.86427903  0.36556825  1
  Sr2+  Sr43  1  0.38446891  0.86334311  0.87408293  1
  Sr2+  Sr44  1  0.87446015  0.38172801  0.37373725  1
  Sr2+  Sr45  1  0.88148679  0.37422758  0.87245648  1
  Sr2+  Sr46  1  0.87453827  0.88764353  0.37994270  1
  Sr2+  Sr47  1  0.88338578  0.86923912  0.87258356  1
  Sr2+  Sr48  1  0.12135963  0.35974579  0.11572747  1
  Sr2+  Sr49  1  0.12458698  0.36813037  0.62483872  1
  Sr2+  Sr50  1  0.13437739  0.88236841  0.12891432  1
  Sr2+  Sr51  1  0.11567128  0.89404300  0.62581598  1
  Sr2+  Sr52  1  0.63259158  0.37615215  0.12634364  1
  Sr2+  Sr53  1  0.62859843  0.36872508  0.62426449  1
  Sr2+  Sr54  1  0.62269384  0.87617905  0.12148866  1
  Sr2+  Sr55  1  0.63540007  0.87449902  0.62420322  1
  Sr2+  Sr56  1  0.36287793  0.12148577  0.12201867  1
  Sr2+  Sr57  1  0.36126289  0.12474902  0.62466056  1
  Sr2+  Sr58  1  0.35994958  0.62254619  0.11934364  1
  Sr2+  Sr59  1  0.36335597  0.62520538  0.62192531  1
  Sr2+  Sr60  1  0.90430501  0.12388182  0.12719567  1
  Sr2+  Sr61  1  0.87518062  0.10745407  0.62224193  1
  Sr2+  Sr62  1  0.87315247  0.62692164  0.12693822  1
  Sr2+  Sr63  1  0.87895867  0.62671219  0.62920124  1
  Ca2+  Ca64  1  0.00070178  -0.00375955  0.00048944  1
  Ca2+  Ca65  1  -0.00275361  0.50235323  0.50146365  1
  Ca2+  Ca66  1  -0.00219211  0.49888509  0.00254730  1
  Ca2+  Ca67  1  0.00024564  0.00094891  0.49490853  1
  Ca2+  Ca68  1  0.50125193  -0.00095933  0.50047784  1
  Ca2+  Ca69  1  0.25337185  0.24937271  -0.00359164  1
  Ca2+  Ca70  1  0.75257063  0.24826405  0.00036061  1
  Ca2+  Ca71  1  0.74763916  0.25063265  0.49893717  1
  Ca2+  Ca72  1  0.25099266  0.74993703  0.50420870  1
  Ca2+  Ca73  1  0.25025738  0.75407632  -0.00030715  1
  Ca2+  Ca74  1  0.75262739  0.00038493  0.75538515  1
  Ca2+  Ca75  1  -0.00040010  0.75407754  0.24921921  1
  Ca2+  Ca76  1  0.00196757  0.25130181  0.25093771  1
  Ca2+  Ca77  1  0.49776676  0.74619571  0.24711882  1
  Ca2+  Ca78  1  -0.00010508  0.75265726  0.74518707  1
  Ca2+  Ca79  1  0.49745085  0.25057656  0.24773475  1
  Ca2+  Ca80  1  0.75131098  0.50528513  0.74920758  1
  Ca2+  Ca81  1  0.24877383  0.49670504  0.24866096  1
  Ca2+  Ca82  1  0.00199372  0.24743214  0.74697138  1
  Ca2+  Ca83  1  0.25260890  0.49733786  0.74717235  1
  Ca2+  Ca84  1  0.24830707  0.00175834  0.75140305  1
  Nb5+  Nb85  1  0.49950920  0.50339016  0.49696880  1
  Nb5+  Nb86  1  0.50261603  0.00508076  0.00003769  1
  Nb5+  Nb87  1  0.50440724  0.50698087  -0.00630213  1
  Nb5+  Nb88  1  0.75071418  0.74834463  0.00677455  1
  Nb5+  Nb89  1  0.75356490  0.74519527  0.50300037  1
  Nb5+  Nb90  1  0.24972649  0.25168876  0.49963605  1
  Nb5+  Nb91  1  0.49887489  0.24939679  0.75024900  1
  Nb5+  Nb92  1  0.25813423  0.00204537  0.25343690  1
  Nb5+  Nb93  1  0.74529130  0.50861082  0.25306760  1
  Nb5+  Nb94  1  0.74659089  0.00578723  0.24831322  1
  Nb5+  Nb95  1  0.50348949  0.74152660  0.75039057  1
  Nb5+  Nb96  1  0.01205528  -0.00501721  0.25465175  1
  Nb5+  Nb97  1  -0.00137691  0.00183960  0.75400095  1
  Nb5+  Nb98  1  0.00642923  0.49667090  0.24681635  1
  Nb5+  Nb99  1  -0.00318686  0.49793708  0.74972732  1
  Nb5+  Nb100  1  0.50619568  -0.00457411  0.25138436  1
  Nb5+  Nb101  1  0.50136489  -0.00588503  0.75003295  1
  Nb5+  Nb102  1  0.49661077  0.50478355  0.24158141  1
  Nb5+  Nb103  1  0.50046555  0.49781773  0.74162945  1
  Nb5+  Nb104  1  0.25338661  0.25267226  0.25007495  1
  Nb5+  Nb105  1  0.25073679  0.24926493  0.75276470  1
  Nb5+  Nb106  1  0.24605105  0.74427053  0.24847197  1
  Nb5+  Nb107  1  0.24545856  0.75495004  0.74572548  1
  Nb5+  Nb108  1  0.75058762  0.25948225  0.24867795  1
  Nb5+  Nb109  1  0.75761883  0.24884978  0.74316700  1
  Nb5+  Nb110  1  0.74954700  0.75560465  0.25435168  1
  Nb5+  Nb111  1  0.74987286  0.74827345  0.75722368  1
  Nb5+  Nb112  1  -0.00991853  0.24616858  0.50178113  1
  Nb5+  Nb113  1  -0.00126373  0.24939213  0.99671046  1
  Nb5+  Nb114  1  0.00798355  0.75487904  0.50249537  1
  Nb5+  Nb115  1  0.00542570  0.75601502  1.00210329  1
  Nb5+  Nb116  1  0.50102285  0.24916617  0.50089210  1
  Nb5+  Nb117  1  0.50259053  0.25899199  0.99939704  1
  Nb5+  Nb118  1  0.49901218  0.75073694  0.50075071  1
  Nb5+  Nb119  1  0.49970540  0.75055612  1.00027117  1
  Nb5+  Nb120  1  0.24845587  0.00000466  -0.00652402  1
  Nb5+  Nb121  1  0.25702572  -0.00603655  0.49731372  1
  Nb5+  Nb122  1  0.24626420  0.49642518  0.00480380  1
  Nb5+  Nb123  1  0.24675564  0.49748230  0.50319110  1
  Nb5+  Nb124  1  0.74850961  -0.00068468  0.00161083  1
  Nb5+  Nb125  1  0.74092161  0.00556196  0.49816573  1
  Nb5+  Nb126  1  0.74996684  0.50255654  -0.00020526  1
  Nb5+  Nb127  1  0.75170563  0.50311440  0.49979494  1
  O2-  O128  1  0.01528077  -0.00551103  0.13510219  1
  O2-  O129  1  0.00293812  0.00901501  0.63047529  1
  O2-  O130  1  -0.03017263  0.50745890  0.13527314  1
  O2-  O131  1  -0.02482257  0.50737824  0.63231699  1
  O2-  O132  1  0.50965915  0.00263475  0.12057008  1
  O2-  O133  1  0.51724185  0.00046321  0.63714350  1
  O2-  O134  1  0.48990987  0.50268834  0.12408345  1
  O2-  O135  1  0.48765926  0.51170472  0.62826720  1
  O2-  O136  1  -0.02483642  0.00485991  0.36408634  1
  O2-  O137  1  -0.01268293  -0.01580845  0.87033284  1
  O2-  O138  1  0.01123008  0.50233718  0.36608558  1
  O2-  O139  1  0.01661309  0.49069015  0.86967310  1
  O2-  O140  1  0.48609804  -0.01158691  0.36399463  1
  O2-  O141  1  0.48806821  -0.01235005  0.88346843  1
  O2-  O142  1  0.50974739  0.50148469  0.37965765  1
  O2-  O143  1  0.52110422  0.49058894  0.88000376  1
  O2-  O144  1  0.23291145  0.25892878  0.13593094  1
  O2-  O145  1  0.24261364  0.27097288  0.61889109  1
  O2-  O146  1  0.26902137  0.77438478  0.13568495  1
  O2-  O147  1  0.28558682  0.76402877  0.63447967  1
  O2-  O148  1  0.71706495  0.24702485  0.13499612  1
  O2-  O149  1  0.71597431  0.24478579  0.63096181  1
  O2-  O150  1  0.75514994  0.73602756  0.12348753  1
  O2-  O151  1  0.75654607  0.73602766  0.61993744  1
  O2-  O152  1  0.27483984  0.23608611  0.38221979  1
  O2-  O153  1  0.26847509  0.22012370  0.86280684  1
  O2-  O154  1  0.22760627  0.73018087  0.36903077  1
  O2-  O155  1  0.23224168  0.73268646  0.86455240  1
  O2-  O156  1  0.77585443  0.24672005  0.36494088  1
  O2-  O157  1  0.77535923  0.25714938  0.86247482  1
  O2-  O158  1  0.73564750  0.75620100  0.37164492  1
  O2-  O159  1  0.73625344  0.76073963  0.87470861  1
  O2-  O160  1  0.02541543  0.24526692  0.11718024  1
  O2-  O161  1  0.03079082  0.25244424  0.61416730  1
  O2-  O162  1  -0.01489620  0.73253265  0.11535473  1
  O2-  O163  1  -0.02926460  0.74613029  0.61427019  1
  O2-  O164  1  0.52639968  0.25540602  0.11199746  1
  O2-  O165  1  0.51691086  0.25574797  0.62854664  1
  O2-  O166  1  0.49315738  0.72848293  0.11247823  1
  O2-  O167  1  0.49338676  0.73901337  0.63246755  1
  O2-  O168  1  0.25740431  0.02712625  0.37206149  1
  O2-  O169  1  0.25455859  0.03143773  0.88465442  1
  O2-  O170  1  0.25107548  0.51209550  0.38463842  1
  O2-  O171  1  0.23772492  0.51227980  0.88546710  1
  O2-  O172  1  0.74705920  -0.01434444  0.36646038  1
  O2-  O173  1  0.76492358  -0.02586725  0.89150583  1
  O2-  O174  1  0.72382726  0.49308208  0.37295364  1
  O2-  O175  1  0.72662711  0.49675525  0.88781851  1
  O2-  O176  1  -0.02235038  0.25083268  0.38353652  1
  O2-  O177  1  -0.02472641  0.24967481  0.87963534  1
  O2-  O178  1  0.00582548  0.74263777  0.38470985  1
  O2-  O179  1  0.00440647  0.76183145  0.88133299  1
  O2-  O180  1  0.47805426  0.25080747  0.38652937  1
  O2-  O181  1  0.47543859  0.25693775  0.86845064  1
  O2-  O182  1  0.51731230  0.75934765  0.38609528  1
  O2-  O183  1  0.51975204  0.75646774  0.87487307  1
  O2-  O184  1  0.24740258  -0.01754019  0.13441100  1
  O2-  O185  1  0.25282844  -0.02412181  0.61273493  1
  O2-  O186  1  0.28199675  0.48804128  0.11746991  1
  O2-  O187  1  0.27833149  0.48372667  0.61527289  1
  O2-  O188  1  0.72124660  -0.00464244  0.13108773  1
  O2-  O189  1  0.74283708  0.00524863  0.61450635  1
  O2-  O190  1  0.75355201  0.51351832  0.13232831  1
  O2-  O191  1  0.75971462  0.52733021  0.61199435  1
  O2-  O192  1  0.13931431  0.26184263  0.28267589  1
  O2-  O193  1  0.13842834  0.27516468  0.76548942  1
  O2-  O194  1  0.13354614  0.78470031  0.24115069  1
  O2-  O195  1  0.13479847  0.77807737  0.72576366  1
  O2-  O196  1  0.63259130  0.26756896  0.27890785  1
  O2-  O197  1  0.61536303  0.27095492  0.76739411  1
  O2-  O198  1  0.63461111  0.76687802  0.23155437  1
  O2-  O199  1  0.61859663  0.77833173  0.74335506  1
  O2-  O200  1  0.36490455  0.21217638  0.24085660  1
  O2-  O201  1  0.38107563  0.23504035  0.72741236  1
  O2-  O202  1  0.36319126  0.73609023  0.27431316  1
  O2-  O203  1  0.38808769  0.73485899  0.77144911  1
  O2-  O204  1  0.86190809  0.22768403  0.22489609  1
  O2-  O205  1  0.86694516  0.22791803  0.71581228  1
  O2-  O206  1  0.86088634  0.71905371  0.25205909  1
  O2-  O207  1  0.86132962  0.72194215  0.76214019  1
  O2-  O208  1  0.28571113  0.36324352  0.25827985  1
  O2-  O209  1  0.28243221  0.36384125  0.76055982  1
  O2-  O210  1  0.26729438  0.88491652  0.27586575  1
  O2-  O211  1  0.27927006  0.86709549  0.77042450  1
  O2-  O212  1  0.76730774  0.37607972  0.24324522  1
  O2-  O213  1  0.76430252  0.36898510  0.73432298  1
  O2-  O214  1  0.77009637  0.87074242  0.24445859  1
  O2-  O215  1  0.76119698  0.86276109  0.72922077  1
  O2-  O216  1  0.22420246  0.11796702  0.24016024  1
  O2-  O217  1  0.23800070  0.13632103  0.71592124  1
  O2-  O218  1  0.22493579  0.63323478  0.22303025  1
  O2-  O219  1  0.24235414  0.63442802  0.72991296  1
  O2-  O220  1  0.72032237  0.11805888  0.25570499  1
  O2-  O221  1  0.72181622  0.13489626  0.75675412  1
  O2-  O222  1  0.72256057  0.62300713  0.25736563  1
  O2-  O223  1  0.70905167  0.63895914  0.74945860  1
  O2-  O224  1  0.11537126  0.46444521  0.22819464  1
  O2-  O225  1  0.11722847  0.47676946  0.72952287  1
  O2-  O226  1  0.12609916  0.97646101  0.26765774  1
  O2-  O227  1  0.11634056  0.96584933  0.75590931  1
  O2-  O228  1  0.62588774  0.47369633  0.24007493  1
  O2-  O229  1  0.61532841  0.47809455  0.74081193  1
  O2-  O230  1  0.61998629  0.96617855  0.25619453  1
  O2-  O231  1  0.61546214  0.99073931  0.77722005  1
  O2-  O232  1  0.37314081  0.02122452  0.24130799  1
  O2-  O233  1  0.38754440  0.02547400  0.75095713  1
  O2-  O234  1  0.38638349  0.53598541  0.25526001  1
  O2-  O235  1  0.39025023  0.51971747  0.77581402  1
  O2-  O236  1  0.85954034  0.02050218  0.23494589  1
  O2-  O237  1  0.88261151  0.03982075  0.75164871  1
  O2-  O238  1  0.86123890  0.51745727  0.26924354  1
  O2-  O239  1  0.88195602  0.52889172  0.77102247  1
  O2-  O240  1  0.47845004  0.38743553  0.25452251  1
  O2-  O241  1  0.47990935  0.37896837  0.74496125  1
  O2-  O242  1  0.47282281  0.88241377  0.23174036  1
  O2-  O243  1  0.48162967  0.87690476  0.74919342  1
  O2-  O244  1  0.96696067  0.38325616  0.25418584  1
  O2-  O245  1  0.96944897  0.38113256  0.74748087  1
  O2-  O246  1  0.96484992  0.88582758  0.25121315  1
  O2-  O247  1  0.96365858  0.88425278  0.74044957  1
  O2-  O248  1  0.01035258  0.11432027  0.24728174  1
  O2-  O249  1  0.03743119  0.11615146  0.76200563  1
  O2-  O250  1  0.02575371  0.61576984  0.25071981  1
  O2-  O251  1  0.02755328  0.61863676  0.75659979  1
  O2-  O252  1  0.52585181  0.11265915  0.24921114  1
  O2-  O253  1  0.51733467  0.13111131  0.75718940  1
  O2-  O254  1  0.53729585  0.61432559  0.25234011  1
  O2-  O255  1  0.52469502  0.62558179  0.75628986  1
  O2-  O256  1  0.13457069  0.47346141  0.01989619  1
  O2-  O257  1  0.13515967  0.46879766  0.50951649  1
  O2-  O258  1  0.13779062  0.96846526  -0.00664511  1
  O2-  O259  1  0.13855356  0.98532276  0.48620136  1
  O2-  O260  1  0.62103379  0.48420131  0.02154388  1
  O2-  O261  1  0.62093940  0.48443018  0.51426383  1
  O2-  O262  1  0.62053761  0.97087466  -0.00413208  1
  O2-  O263  1  0.63199842  0.95888194  0.49288863  1
  O2-  O264  1  0.38372692  0.01881102  0.01125791  1
  O2-  O265  1  0.36874087  0.03399358  0.50202874  1
  O2-  O266  1  0.38780684  0.52301853  -0.01161680  1
  O2-  O267  1  0.38302076  0.52403919  0.49245337  1
  O2-  O268  1  0.85893654  0.01319014  0.03155954  1
  O2-  O269  1  0.85787005  0.02048441  0.49022350  1
  O2-  O270  1  0.86101017  0.53020239  -0.00836295  1
  O2-  O271  1  0.86115287  0.52432244  0.47171709  1
  O2-  O272  1  0.48333049  0.37573427  0.00053440  1
  O2-  O273  1  0.47973603  0.38431084  0.50654336  1
  O2-  O274  1  0.48515177  0.86846821  0.00883311  1
  O2-  O275  1  0.47160770  0.86230159  0.51478151  1
  O2-  O276  1  0.97039735  0.36596350  0.00804173  1
  O2-  O277  1  0.98103222  0.36705891  0.49726626  1
  O2-  O278  1  0.95833389  0.86357347  0.00594375  1
  O2-  O279  1  0.96497532  0.86667056  0.49828234  1
  O2-  O280  1  0.02821518  0.12952193  -0.00512655  1
  O2-  O281  1  0.02941609  0.13490130  0.49280757  1
  O2-  O282  1  0.02332986  0.63497069  -0.01302971  1
  O2-  O283  1  0.03304372  0.63501323  0.50511201  1
  O2-  O284  1  0.52415690  0.11985965  -0.00900179  1
  O2-  O285  1  0.52552709  0.13658803  0.50292266  1
  O2-  O286  1  0.52689113  0.62165840  -0.00885483  1
  O2-  O287  1  0.52622126  0.62283216  0.50241891  1
  O2-  O288  1  0.11858346  0.27520834  -0.02670320  1
  O2-  O289  1  0.13607577  0.27018099  0.48075450  1
  O2-  O290  1  0.11628122  0.78419407  0.01404850  1
  O2-  O291  1  0.11733093  0.78905025  0.51548171  1
  O2-  O292  1  0.61482502  0.26138875  -0.03598890  1
  O2-  O293  1  0.61220157  0.28278721  0.48438032  1
  O2-  O294  1  0.62496384  0.76465677  0.00544762  1
  O2-  O295  1  0.62366107  0.76467433  0.51679088  1
  O2-  O296  1  0.39099748  0.22349257  0.01121102  1
  O2-  O297  1  0.37944172  0.23972527  0.52288377  1
  O2-  O298  1  0.38747710  0.72784956  -0.02039636  1
  O2-  O299  1  0.38779004  0.71577806  0.49270806  1
  O2-  O300  1  0.88355115  0.21766614  0.01620317  1
  O2-  O301  1  0.88069020  0.22694360  0.52938100  1
  O2-  O302  1  0.86253709  0.72505406  -0.01283756  1
  O2-  O303  1  0.86479175  0.71924348  0.48757944  1
  O2-  O304  1  0.28446435  0.38325896  -0.01128393  1
  O2-  O305  1  0.27694486  0.37295136  0.48846962  1
  O2-  O306  1  0.28725169  0.88812132  -0.01120393  1
  O2-  O307  1  0.27877974  0.88432121  0.46841836  1
  O2-  O308  1  0.76469178  0.38775012  0.01749640  1
  O2-  O309  1  0.76829919  0.38844438  0.51068258  1
  O2-  O310  1  0.75832938  0.86667422  0.02015167  1
  O2-  O311  1  0.76788223  0.86375154  0.50121189  1
  O2-  O312  1  0.23885497  0.11306620  0.02998361  1
  O2-  O313  1  0.23445758  0.13278748  0.51435393  1
  O2-  O314  1  0.23753734  0.61655289  0.02043519  1
  O2-  O315  1  0.23008244  0.61301257  0.52169636  1
  O2-  O316  1  0.71956294  0.11009527  -0.00832825  1
  O2-  O317  1  0.71008677  0.11494595  0.48798960  1
  O2-  O318  1  0.71962663  0.62741476  0.00135977  1
  O2-  O319  1  0.71972323  0.62862997  0.48674940  1
