# generated using pymatgen
data_Sr64Ca21Nb43O192
_symmetry_space_group_name_H-M   'P 1'
_cell_length_a   16.57800645
_cell_length_b   16.57227892
_cell_length_c   16.73012842
_cell_angle_alpha   90.05358848
_cell_angle_beta   90.04824577
_cell_angle_gamma   90.03961222
_symmetry_Int_Tables_number   1
_chemical_formula_structural   Sr64Ca21Nb43O192
_chemical_formula_sum   'Sr64 Ca21 Nb43 O192'
_cell_volume   4596.35289112
_cell_formula_units_Z   1
loop_
 _symmetry_equiv_pos_site_id
 _symmetry_equiv_pos_as_xyz
  1  'x, y, z'
loop_
 _atom_type_symbol
 _atom_type_oxidation_number
  Sr2+  2.0
  Ca2+  2.0
  Nb5+  5.0
  O2-  -2.0
loop_
 _atom_site_type_symbol
 _atom_site_label
 _atom_site_symmetry_multiplicity
 _atom_site_fract_x
 _atom_site_fract_y
 _atom_site_fract_z
 _atom_site_occupancy
  Sr2+  Sr0  1  0.12242707  0.11291778  0.12916705  1
  Sr2+  Sr1  1  0.13372335  0.11323825  0.62846640  1
  Sr2+  Sr2  1  0.12227371  0.61422428  0.12428877  1
  Sr2+  Sr3  1  0.13387400  0.61816837  0.63233759  1
  Sr2+  Sr4  1  0.62878741  0.11160569  0.12330399  1
  Sr2+  Sr5  1  0.63331621  0.11586076  0.62528803  1
  Sr2+  Sr6  1  0.64020356  0.63140656  0.12420965  1
  Sr2+  Sr7  1  0.62531448  0.63969220  0.62330422  1
  Sr2+  Sr8  1  0.37687470  0.36694222  0.12102896  1
  Sr2+  Sr9  1  0.37954579  0.37673162  0.62145980  1
  Sr2+  Sr10  1  0.38829566  0.86263800  0.12448399  1
  Sr2+  Sr11  1  0.38151240  0.85307050  0.62849918  1
  Sr2+  Sr12  1  0.87736131  0.37386372  0.11790167  1
  Sr2+  Sr13  1  0.87040828  0.37796353  0.62604415  1
  Sr2+  Sr14  1  0.86371264  0.85441133  0.12825643  1
  Sr2+  Sr15  1  0.87197901  0.88008887  0.62430921  1
  Sr2+  Sr16  1  0.12937679  0.37506336  0.37866262  1
  Sr2+  Sr17  1  0.11951375  0.37260936  0.88196512  1
  Sr2+  Sr18  1  0.12572445  0.87466834  0.36936650  1
  Sr2+  Sr19  1  0.13427623  0.87512198  0.87701035  1
  Sr2+  Sr20  1  0.62082241  0.38093562  0.37475772  1
  Sr2+  Sr21  1  0.62195010  0.38270049  0.87016730  1
  Sr2+  Sr22  1  0.61491343  0.88397759  0.37951836  1
  Sr2+  Sr23  1  0.61391032  0.88286010  0.87627581  1
  Sr2+  Sr24  1  0.37312819  0.13210089  0.37583292  1
  Sr2+  Sr25  1  0.36368093  0.12886850  0.88157418  1
  Sr2+  Sr26  1  0.35997338  0.62650447  0.37701698  1
  Sr2+  Sr27  1  0.36060116  0.63759279  0.87006754  1
  Sr2+  Sr28  1  0.88620599  0.13338587  0.37484585  1
  Sr2+  Sr29  1  0.88169683  0.13347653  0.86416631  1
  Sr2+  Sr30  1  0.88833496  0.63150183  0.37961737  1
  Sr2+  Sr31  1  0.87899235  0.62934059  0.87720644  1
  Sr2+  Sr32  1  0.12448262  0.09951045  0.37395115  1
  Sr2+  Sr33  1  0.12257336  0.10530028  0.87741030  1
  Sr2+  Sr34  1  0.12625464  0.64765459  0.37268130  1
  Sr2+  Sr35  1  0.12008118  0.64479722  0.87519781  1
  Sr2+  Sr36  1  0.63018514  0.13586039  0.37286549  1
  Sr2+  Sr37  1  0.62115482  0.12507406  0.86972297  1
  Sr2+  Sr38  1  0.61834332  0.63267914  0.37709151  1
  Sr2+  Sr39  1  0.62810254  0.64069658  0.87414632  1
  Sr2+  Sr40  1  0.37444185  0.38811725  0.37757441  1
  Sr2+  Sr41  1  0.36769859  0.38479224  0.87723842  1
  Sr2+  Sr42  1  0.35971286  0.88806979  0.36957312  1
  Sr2+  Sr43  1  0.37051829  0.88226937  0.87474587  1
  Sr2+  Sr44  1  0.87525900  0.37940155  0.38195629  1
  Sr2+  Sr45  1  0.87672498  0.38903598  0.87098890  1
  Sr2+  Sr46  1  0.88088014  0.86807300  0.37491709  1
  Sr2+  Sr47  1  0.87807544  0.88589743  0.86989097  1
  Sr2+  Sr48  1  0.12729142  0.37088440  0.12093721  1
  Sr2+  Sr49  1  0.14338672  0.36541047  0.63094560  1
  Sr2+  Sr50  1  0.12734785  0.86106782  0.12979938  1
  Sr2+  Sr51  1  0.13296954  0.86278822  0.62597170  1
  Sr2+  Sr52  1  0.62109571  0.36571670  0.12524120  1
  Sr2+  Sr53  1  0.62683916  0.37243995  0.62919007  1
  Sr2+  Sr54  1  0.63426857  0.87356121  0.11406536  1
  Sr2+  Sr55  1  0.62496111  0.87373365  0.63294037  1
  Sr2+  Sr56  1  0.39014586  0.12262513  0.12757316  1
  Sr2+  Sr57  1  0.38766616  0.12448906  0.62121525  1
  Sr2+  Sr58  1  0.38248455  0.61469354  0.12093762  1
  Sr2+  Sr59  1  0.39062117  0.61746593  0.62595984  1
  Sr2+  Sr60  1  0.87771285  0.12167858  0.13439220  1
  Sr2+  Sr61  1  0.87009500  0.12090837  0.62085218  1
  Sr2+  Sr62  1  0.87304144  0.61635082  0.13178925  1
  Sr2+  Sr63  1  0.86158923  0.62239140  0.62267882  1
  Ca2+  Ca64  1  0.00138799  0.50032566  0.50151483  1
  Ca2+  Ca65  1  -0.00275613  -0.00103397  0.50103875  1
  Ca2+  Ca66  1  -0.00147926  -0.00078410  0.00182454  1
  Ca2+  Ca67  1  0.49941751  0.00104204  0.50015009  1
  Ca2+  Ca68  1  0.50157972  0.49836321  -0.00102155  1
  Ca2+  Ca69  1  0.75304354  0.75052516  -0.00380796  1
  Ca2+  Ca70  1  0.25107152  0.75014101  0.49971890  1
  Ca2+  Ca71  1  0.25087918  0.74987156  0.00350710  1
  Ca2+  Ca72  1  0.75110374  0.25006199  -0.00262592  1
  Ca2+  Ca73  1  0.75076595  0.75127982  0.49829492  1
  Ca2+  Ca74  1  0.49711849  0.24861454  0.75050914  1
  Ca2+  Ca75  1  0.25233801  0.00293469  0.24349310  1
  Ca2+  Ca76  1  0.50157211  0.74909635  0.25142565  1
  Ca2+  Ca77  1  0.50009729  0.74820825  0.75337728  1
  Ca2+  Ca78  1  0.25100866  0.49790546  0.75140316  1
  Ca2+  Ca79  1  0.00142873  0.25063324  0.74830118  1
  Ca2+  Ca80  1  -0.00418253  0.75005664  0.75011451  1
  Ca2+  Ca81  1  0.75023634  0.00040608  0.25066902  1
  Ca2+  Ca82  1  0.25034141  0.49810343  0.24797451  1
  Ca2+  Ca83  1  0.25375561  0.00276338  0.74574705  1
  Ca2+  Ca84  1  0.74891892  0.49921696  0.25323209  1
  Nb5+  Nb85  1  0.00037877  0.50144447  -0.00100506  1
  Nb5+  Nb86  1  0.49794386  -0.00141086  0.00098911  1
  Nb5+  Nb87  1  0.50343028  0.50017513  0.50047042  1
  Nb5+  Nb88  1  0.24764735  0.24685700  0.00912386  1
  Nb5+  Nb89  1  0.75396700  0.24837623  0.50189445  1
  Nb5+  Nb90  1  0.25404734  0.24782080  0.50321692  1
  Nb5+  Nb91  1  0.74808209  0.00484304  0.75301891  1
  Nb5+  Nb92  1  0.00855618  0.24986006  0.25279128  1
  Nb5+  Nb93  1  0.00155111  0.74179273  0.24674459  1
  Nb5+  Nb94  1  0.74684910  0.50577837  0.75053312  1
  Nb5+  Nb95  1  0.50577908  0.25117599  0.25167667  1
  Nb5+  Nb96  1  -0.00380473  -0.01108419  0.24641901  1
  Nb5+  Nb97  1  0.00325462  -0.00380028  0.74776005  1
  Nb5+  Nb98  1  -0.00033567  0.49091828  0.25081388  1
  Nb5+  Nb99  1  0.00012996  0.50139641  0.74468384  1
  Nb5+  Nb100  1  0.50137157  -0.00062802  0.25377283  1
  Nb5+  Nb101  1  0.49465005  0.00104639  0.74904830  1
  Nb5+  Nb102  1  0.50300932  0.50109853  0.24747296  1
  Nb5+  Nb103  1  0.50217588  0.50285580  0.75761464  1
  Nb5+  Nb104  1  0.25476509  0.25083547  0.25530383  1
  Nb5+  Nb105  1  0.25064027  0.25022624  0.76068156  1
  Nb5+  Nb106  1  0.25672203  0.74692025  0.24326093  1
  Nb5+  Nb107  1  0.24867537  0.75077780  0.74838629  1
  Nb5+  Nb108  1  0.75813525  0.25195662  0.24832203  1
  Nb5+  Nb109  1  0.75333417  0.25590590  0.75210151  1
  Nb5+  Nb110  1  0.74553539  0.75166659  0.25791058  1
  Nb5+  Nb111  1  0.75273116  0.75974833  0.75048417  1
  Nb5+  Nb112  1  0.00973652  0.24969419  0.50248702  1
  Nb5+  Nb113  1  -0.00207761  0.24826854  1.00085732  1
  Nb5+  Nb114  1  0.00290738  0.74649846  0.50804273  1
  Nb5+  Nb115  1  -0.00504370  0.75585539  1.00215089  1
  Nb5+  Nb116  1  0.50661063  0.25332085  0.50078980  1
  Nb5+  Nb117  1  0.49863004  0.24825897  0.99564411  1
  Nb5+  Nb118  1  0.49650468  0.75473018  0.49207429  1
  Nb5+  Nb119  1  0.50259089  0.74220186  1.00402300  1
  Nb5+  Nb120  1  0.25169872  -0.00201817  0.00578056  1
  Nb5+  Nb121  1  0.25425109  -0.00231403  0.50340679  1
  Nb5+  Nb122  1  0.25059133  0.50346003  -0.00567334  1
  Nb5+  Nb123  1  0.24651474  0.49991618  0.50115028  1
  Nb5+  Nb124  1  0.75486090  0.00712887  -0.00336642  1
  Nb5+  Nb125  1  0.74754289  -0.00083364  0.49433473  1
  Nb5+  Nb126  1  0.74790420  0.49479152  0.00134992  1
  Nb5+  Nb127  1  0.74489546  0.50044769  0.49850059  1
  O2-  O128  1  -0.01388688  0.02593575  0.13482903  1
  O2-  O129  1  -0.02957963  0.01476336  0.63527424  1
  O2-  O130  1  -0.02097496  0.50763543  0.11976800  1
  O2-  O131  1  -0.02400859  0.52519463  0.63522739  1
  O2-  O132  1  0.47684419  -0.00814967  0.12125877  1
  O2-  O133  1  0.47579004  -0.02007978  0.63661357  1
  O2-  O134  1  0.47569277  0.48348080  0.13607455  1
  O2-  O135  1  0.48846150  0.48105642  0.61969098  1
  O2-  O136  1  0.01653600  -0.01805135  0.36431936  1
  O2-  O137  1  0.02099731  -0.02312498  0.86755097  1
  O2-  O138  1  0.01766790  0.47784169  0.36360358  1
  O2-  O139  1  0.00997424  0.47774159  0.88203712  1
  O2-  O140  1  0.53019655  0.01900175  0.36419525  1
  O2-  O141  1  0.51791379  0.01640605  0.88290775  1
  O2-  O142  1  0.52675505  0.50505793  0.38063290  1
  O2-  O143  1  0.53397094  0.51799308  0.86682410  1
  O2-  O144  1  0.23351172  0.23058379  0.12189237  1
  O2-  O145  1  0.23361849  0.23297925  0.61432098  1
  O2-  O146  1  0.21696779  0.73223347  0.13348127  1
  O2-  O147  1  0.22252208  0.73842812  0.63175348  1
  O2-  O148  1  0.73548008  0.26057346  0.13610407  1
  O2-  O149  1  0.72787284  0.24762399  0.62103931  1
  O2-  O150  1  0.73311967  0.75498093  0.13576678  1
  O2-  O151  1  0.72264941  0.75659490  0.63311481  1
  O2-  O152  1  0.26107859  0.27348284  0.36974857  1
  O2-  O153  1  0.26846233  0.26568781  0.87433625  1
  O2-  O154  1  0.26684538  0.76762120  0.36285834  1
  O2-  O155  1  0.26996474  0.76678679  0.86805170  1
  O2-  O156  1  0.75874307  0.24853343  0.38192495  1
  O2-  O157  1  0.78034966  0.25140868  0.86323577  1
  O2-  O158  1  0.78747973  0.74256435  0.36686302  1
  O2-  O159  1  0.78247156  0.74827418  0.86380690  1
  O2-  O160  1  0.01716584  0.24425155  0.13347517  1
  O2-  O161  1  0.02094086  0.22555221  0.61263984  1
  O2-  O162  1  0.02447349  0.73814512  0.12704561  1
  O2-  O163  1  0.03067688  0.73155128  0.61743909  1
  O2-  O164  1  0.50252115  0.26605974  0.13180590  1
  O2-  O165  1  0.50296850  0.27685524  0.61373587  1
  O2-  O166  1  0.52173925  0.77813760  0.11823294  1
  O2-  O167  1  0.51852744  0.76678304  0.61205178  1
  O2-  O168  1  0.23322654  -0.01642877  0.38336458  1
  O2-  O169  1  0.23941199  -0.01067035  0.88518205  1
  O2-  O170  1  0.24425872  0.47047895  0.38569344  1
  O2-  O171  1  0.23461644  0.46429018  0.88304781  1
  O2-  O172  1  0.71711387  0.00203892  0.38470687  1
  O2-  O173  1  0.72402385  -0.00566831  0.87226119  1
  O2-  O174  1  0.72488483  0.49118565  0.38716252  1
  O2-  O175  1  0.73453352  0.48958509  0.86811878  1
  O2-  O176  1  -0.01531176  0.27333110  0.36798959  1
  O2-  O177  1  -0.02005992  0.26441583  0.88830890  1
  O2-  O178  1  -0.01539506  0.75883398  0.36300387  1
  O2-  O179  1  -0.02716571  0.75798602  0.88857695  1
  O2-  O180  1  0.49320756  0.23147529  0.37322107  1
  O2-  O181  1  0.48573921  0.22199584  0.88576600  1
  O2-  O182  1  0.48169201  0.71225553  0.38270220  1
  O2-  O183  1  0.47983761  0.72967824  0.88813287  1
  O2-  O184  1  0.26513850  0.04145055  0.11262596  1
  O2-  O185  1  0.26809393  0.03981876  0.61310441  1
  O2-  O186  1  0.26655163  0.51493256  0.11094105  1
  O2-  O187  1  0.27909540  0.51183738  0.61388288  1
  O2-  O188  1  0.76558515  0.01822168  0.11254704  1
  O2-  O189  1  0.76501044  0.00558842  0.63366867  1
  O2-  O190  1  0.76770635  0.50258821  0.11514762  1
  O2-  O191  1  0.76301051  0.49605759  0.62864945  1
  O2-  O192  1  0.12112006  0.27876413  0.26180354  1
  O2-  O193  1  0.13395507  0.28495540  0.75806398  1
  O2-  O194  1  0.11965927  0.76989414  0.26374953  1
  O2-  O195  1  0.13003216  0.77558216  0.76940942  1
  O2-  O196  1  0.62090593  0.27010660  0.26324673  1
  O2-  O197  1  0.63586018  0.26489352  0.76749615  1
  O2-  O198  1  0.63496133  0.77196111  0.28450325  1
  O2-  O199  1  0.63562482  0.76176627  0.77771757  1
  O2-  O200  1  0.37027048  0.22977367  0.24358427  1
  O2-  O201  1  0.36226054  0.21802310  0.73508996  1
  O2-  O202  1  0.36888722  0.72734964  0.22026648  1
  O2-  O203  1  0.36635457  0.72577946  0.72930409  1
  O2-  O204  1  0.87467091  0.23101693  0.24063139  1
  O2-  O205  1  0.86479306  0.23242714  0.71913593  1
  O2-  O206  1  0.88418758  0.73260844  0.22727970  1
  O2-  O207  1  0.86311018  0.73189429  0.71848054  1
  O2-  O208  1  0.25855492  0.36207045  0.21822662  1
  O2-  O209  1  0.27451046  0.36295137  0.72447549  1
  O2-  O210  1  0.26783567  0.86743269  0.22711362  1
  O2-  O211  1  0.27206999  0.86938125  0.73001387  1
  O2-  O212  1  0.77544905  0.36615814  0.26508857  1
  O2-  O213  1  0.76663808  0.37307135  0.74314711  1
  O2-  O214  1  0.77871264  0.86762046  0.25270423  1
  O2-  O215  1  0.76556133  0.87726581  0.74871603  1
  O2-  O216  1  0.21866798  0.14040024  0.26217414  1
  O2-  O217  1  0.21390077  0.13729829  0.76227270  1
  O2-  O218  1  0.23518778  0.63194343  0.27145857  1
  O2-  O219  1  0.22502470  0.63199253  0.76655982  1
  O2-  O220  1  0.72819632  0.13784436  0.25700727  1
  O2-  O221  1  0.73331559  0.12379912  0.75393565  1
  O2-  O222  1  0.72890490  0.63315328  0.24852685  1
  O2-  O223  1  0.72934993  0.62096779  0.74812001  1
  O2-  O224  1  0.11348468  0.48818968  0.22014599  1
  O2-  O225  1  0.11297319  0.48509200  0.72503293  1
  O2-  O226  1  0.11541883  0.98835727  0.22999830  1
  O2-  O227  1  0.11543418  0.98389667  0.72161028  1
  O2-  O228  1  0.61380105  0.46002027  0.23980131  1
  O2-  O229  1  0.62972308  0.47628538  0.73584013  1
  O2-  O230  1  0.61381213  0.98630730  0.21737194  1
  O2-  O231  1  0.62772725  0.98218885  0.73893945  1
  O2-  O232  1  0.38648077  0.03104633  0.26403683  1
  O2-  O233  1  0.38548359  0.02451021  0.77540608  1
  O2-  O234  1  0.38884042  0.51337999  0.27922545  1
  O2-  O235  1  0.38787605  0.52109751  0.77053630  1
  O2-  O236  1  0.88521999  0.02538692  0.26869612  1
  O2-  O237  1  0.86387065  0.01253650  0.77667827  1
  O2-  O238  1  0.88701730  0.52538293  0.26505102  1
  O2-  O239  1  0.86507658  0.51635942  0.76715234  1
  O2-  O240  1  0.47586577  0.36553514  0.26629629  1
  O2-  O241  1  0.48763605  0.38435815  0.76983356  1
  O2-  O242  1  0.47805687  0.88656170  0.27084607  1
  O2-  O243  1  0.49024348  0.88462355  0.77636434  1
  O2-  O244  1  0.97700737  0.37632598  0.23360192  1
  O2-  O245  1  0.96890135  0.38709516  0.74338429  1
  O2-  O246  1  0.98097773  0.87410935  0.23050953  1
  O2-  O247  1  0.96642950  0.88332405  0.74087079  1
  O2-  O248  1  0.01741425  0.13564842  0.26663312  1
  O2-  O249  1  0.00456725  0.11411247  0.77426085  1
  O2-  O250  1  0.02032643  0.62589163  0.25597575  1
  O2-  O251  1  0.00564007  0.61330911  0.78239929  1
  O2-  O252  1  0.51764110  0.13242591  0.23359115  1
  O2-  O253  1  0.52757661  0.11419527  0.73290467  1
  O2-  O254  1  0.53199281  0.61211672  0.23441975  1
  O2-  O255  1  0.52230051  0.61427675  0.72377852  1
  O2-  O256  1  0.12246218  0.48510972  0.01646508  1
  O2-  O257  1  0.13567954  0.47988692  0.52685034  1
  O2-  O258  1  0.13609081  0.98585902  0.01972009  1
  O2-  O259  1  0.13472613  0.99774253  0.52133925  1
  O2-  O260  1  0.63602247  0.46579664  0.01223755  1
  O2-  O261  1  0.62315746  0.46998128  0.51733157  1
  O2-  O262  1  0.61642963  0.98709893  0.01683558  1
  O2-  O263  1  0.63380713  0.98511666  0.53156271  1
  O2-  O264  1  0.37813299  0.02092367  -0.01627382  1
  O2-  O265  1  0.36766440  0.02500183  0.47569632  1
  O2-  O266  1  0.36640922  0.51543942  -0.02583148  1
  O2-  O267  1  0.38448905  0.50922759  0.48247930  1
  O2-  O268  1  0.86492290  0.02606550  -0.03079891  1
  O2-  O269  1  0.85978245  0.03400032  0.48832799  1
  O2-  O270  1  0.88085205  0.51502428  -0.01894189  1
  O2-  O271  1  0.86123161  0.50984069  0.48446428  1
  O2-  O272  1  0.46961794  0.36220740  -0.01070262  1
  O2-  O273  1  0.48488582  0.37219772  0.47854853  1
  O2-  O274  1  0.48080790  0.88269277  -0.01404420  1
  O2-  O275  1  0.47772011  0.86625830  0.46830936  1
  O2-  O276  1  0.99351610  0.37368037  0.01862855  1
  O2-  O277  1  0.97470794  0.36207613  0.51166366  1
  O2-  O278  1  0.97582170  0.86668486  0.02429813  1
  O2-  O279  1  0.97340614  0.86307212  0.50887508  1
  O2-  O280  1  0.02732038  0.13632488  -0.00588559  1
  O2-  O281  1  0.00782537  0.13852079  0.46574335  1
  O2-  O282  1  0.01894666  0.61819160  -0.00825007  1
  O2-  O283  1  0.01758263  0.63202506  0.47163120  1
  O2-  O284  1  0.51097139  0.12781535  0.02435212  1
  O2-  O285  1  0.51280550  0.13785187  0.52060737  1
  O2-  O286  1  0.52342086  0.63082256  0.02763394  1
  O2-  O287  1  0.52137660  0.61420870  0.51558987  1
  O2-  O288  1  0.12870759  0.26981062  -0.00693288  1
  O2-  O289  1  0.12502143  0.27181634  0.48719808  1
  O2-  O290  1  0.11336419  0.76625965  -0.01714653  1
  O2-  O291  1  0.11650986  0.77299528  0.47592942  1
  O2-  O292  1  0.61191807  0.27310858  -0.00962312  1
  O2-  O293  1  0.62182955  0.26727413  0.48494991  1
  O2-  O294  1  0.61715059  0.76902229  -0.02215208  1
  O2-  O295  1  0.61529522  0.76036706  0.47249390  1
  O2-  O296  1  0.36958283  0.23064569  0.01725886  1
  O2-  O297  1  0.37252456  0.23682292  0.50430207  1
  O2-  O298  1  0.38480557  0.73422233  0.02812274  1
  O2-  O299  1  0.38442098  0.72569157  0.52238880  1
  O2-  O300  1  0.88697910  0.23154595  0.02908903  1
  O2-  O301  1  0.86920037  0.23141806  0.51136032  1
  O2-  O302  1  0.88466130  0.72242391  0.02971974  1
  O2-  O303  1  0.88518066  0.72127031  0.51440313  1
  O2-  O304  1  0.26504480  0.36708871  0.01588397  1
  O2-  O305  1  0.26555514  0.36899350  0.51533685  1
  O2-  O306  1  0.27531352  0.88679949  0.02317397  1
  O2-  O307  1  0.27353316  0.88638989  0.52483047  1
  O2-  O308  1  0.78454040  0.38259142  -0.00771703  1
  O2-  O309  1  0.76333391  0.36894636  0.50746129  1
  O2-  O310  1  0.76149359  0.88839665  0.00417506  1
  O2-  O311  1  0.77564073  0.88703094  0.49745224  1
  O2-  O312  1  0.23596785  0.13354721  -0.02584873  1
  O2-  O313  1  0.23553968  0.13716961  0.47022417  1
  O2-  O314  1  0.23084137  0.61494180  -0.02689893  1
  O2-  O315  1  0.23495727  0.61286158  0.47834187  1
  O2-  O316  1  0.71546267  0.11921806  -0.01194329  1
  O2-  O317  1  0.72368910  0.13096803  0.50200580  1
  O2-  O318  1  0.73136607  0.61212192  -0.01271703  1
  O2-  O319  1  0.72361585  0.61306952  0.50785637  1
