# generated using pymatgen
data_Sr64Ca21Nb43O192
_symmetry_space_group_name_H-M   'P 1'
_cell_length_a   16.57605728
_cell_length_b   16.58027069
_cell_length_c   16.71893877
_cell_angle_alpha   89.99246720
_cell_angle_beta   89.99537413
_cell_angle_gamma   90.02392353
_symmetry_Int_Tables_number   1
_chemical_formula_structural   Sr64Ca21Nb43O192
_chemical_formula_sum   'Sr64 Ca21 Nb43 O192'
_cell_volume   4594.95772193
_cell_formula_units_Z   1
loop_
 _symmetry_equiv_pos_site_id
 _symmetry_equiv_pos_as_xyz
  1  'x, y, z'
loop_
 _atom_type_symbol
 _atom_type_oxidation_number
  Sr2+  2.0
  Ca2+  2.0
  Nb5+  5.0
  O2-  -2.0
loop_
 _atom_site_type_symbol
 _atom_site_label
 _atom_site_symmetry_multiplicity
 _atom_site_fract_x
 _atom_site_fract_y
 _atom_site_fract_z
 _atom_site_occupancy
  Sr2+  Sr0  1  0.13593906  0.12397776  0.12799464  1
  Sr2+  Sr1  1  0.13154085  0.11786004  0.63513116  1
  Sr2+  Sr2  1  0.12517811  0.62037296  0.12192855  1
  Sr2+  Sr3  1  0.13051838  0.60776790  0.62578985  1
  Sr2+  Sr4  1  0.62413217  0.12182353  0.12016386  1
  Sr2+  Sr5  1  0.62851958  0.12617112  0.62313934  1
  Sr2+  Sr6  1  0.62308427  0.61775257  0.12351656  1
  Sr2+  Sr7  1  0.62277388  0.61639450  0.63242615  1
  Sr2+  Sr8  1  0.37404487  0.37355495  0.11894780  1
  Sr2+  Sr9  1  0.37666978  0.38816145  0.62366080  1
  Sr2+  Sr10  1  0.38589493  0.86496539  0.12759858  1
  Sr2+  Sr11  1  0.38499112  0.86664399  0.62674811  1
  Sr2+  Sr12  1  0.88571920  0.37201464  0.12628316  1
  Sr2+  Sr13  1  0.87626913  0.36052887  0.61828106  1
  Sr2+  Sr14  1  0.87550811  0.86299208  0.12473047  1
  Sr2+  Sr15  1  0.88450851  0.86601453  0.63213523  1
  Sr2+  Sr16  1  0.11337238  0.37874183  0.37858539  1
  Sr2+  Sr17  1  0.10725483  0.37777966  0.87413019  1
  Sr2+  Sr18  1  0.10171827  0.87692539  0.37418074  1
  Sr2+  Sr19  1  0.11215797  0.89120080  0.87582897  1
  Sr2+  Sr20  1  0.62949022  0.37888078  0.37994858  1
  Sr2+  Sr21  1  0.61713524  0.38190801  0.87129573  1
  Sr2+  Sr22  1  0.61657364  0.88488592  0.37666155  1
  Sr2+  Sr23  1  0.62367599  0.87944006  0.87134301  1
  Sr2+  Sr24  1  0.36683043  0.12517194  0.38090001  1
  Sr2+  Sr25  1  0.36295215  0.12595991  0.87893990  1
  Sr2+  Sr26  1  0.36039061  0.63298562  0.37494879  1
  Sr2+  Sr27  1  0.36944754  0.63570958  0.86320005  1
  Sr2+  Sr28  1  0.87123029  0.13278995  0.36842878  1
  Sr2+  Sr29  1  0.88308341  0.13051302  0.86338896  1
  Sr2+  Sr30  1  0.86996071  0.62994747  0.37637526  1
  Sr2+  Sr31  1  0.85737517  0.62797132  0.88084190  1
  Sr2+  Sr32  1  0.11912187  0.12302539  0.38465562  1
  Sr2+  Sr33  1  0.11617269  0.13750339  0.87373419  1
  Sr2+  Sr34  1  0.11527153  0.63839443  0.37718743  1
  Sr2+  Sr35  1  0.11804397  0.63028672  0.87060235  1
  Sr2+  Sr36  1  0.61699667  0.13597975  0.37481655  1
  Sr2+  Sr37  1  0.61587519  0.13440173  0.87810875  1
  Sr2+  Sr38  1  0.62239929  0.62019731  0.37198745  1
  Sr2+  Sr39  1  0.62153348  0.63256532  0.86903152  1
  Sr2+  Sr40  1  0.36563577  0.38176088  0.38185179  1
  Sr2+  Sr41  1  0.36379864  0.38855231  0.87397360  1
  Sr2+  Sr42  1  0.37328985  0.88180515  0.37243143  1
  Sr2+  Sr43  1  0.37527094  0.88509147  0.87035341  1
  Sr2+  Sr44  1  0.86618810  0.38674273  0.37269180  1
  Sr2+  Sr45  1  0.87268115  0.38948543  0.88210535  1
  Sr2+  Sr46  1  0.86939151  0.88486228  0.37157719  1
  Sr2+  Sr47  1  0.86447750  0.88753473  0.86745613  1
  Sr2+  Sr48  1  0.13690341  0.37259089  0.12259559  1
  Sr2+  Sr49  1  0.14132415  0.36890951  0.63107322  1
  Sr2+  Sr50  1  0.13471487  0.86135491  0.12078256  1
  Sr2+  Sr51  1  0.13743226  0.87378594  0.62774336  1
  Sr2+  Sr52  1  0.62364463  0.36750113  0.13334893  1
  Sr2+  Sr53  1  0.63572298  0.36546884  0.62905966  1
  Sr2+  Sr54  1  0.63359427  0.87493405  0.11981524  1
  Sr2+  Sr55  1  0.63705612  0.86892902  0.62103839  1
  Sr2+  Sr56  1  0.38567068  0.12152828  0.11865687  1
  Sr2+  Sr57  1  0.38297987  0.11751927  0.62703567  1
  Sr2+  Sr58  1  0.36265062  0.62282388  0.13233145  1
  Sr2+  Sr59  1  0.36966223  0.62195820  0.63387139  1
  Sr2+  Sr60  1  0.88004853  0.11647999  0.12762599  1
  Sr2+  Sr61  1  0.89089898  0.11560843  0.62571079  1
  Sr2+  Sr62  1  0.88221870  0.61689308  0.12057683  1
  Sr2+  Sr63  1  0.88732034  0.61722671  0.62429085  1
  Ca2+  Ca64  1  0.50087493  0.50169577  0.49818683  1
  Ca2+  Ca65  1  -0.00079020  0.49615322  0.49746709  1
  Ca2+  Ca66  1  -0.00276026  0.00105052  0.00198002  1
  Ca2+  Ca67  1  -0.00242656  -0.00165289  0.49986759  1
  Ca2+  Ca68  1  0.49771268  0.50631863  -0.00250852  1
  Ca2+  Ca69  1  0.74812357  0.75233834  0.00144873  1
  Ca2+  Ca70  1  0.75057402  0.74950745  0.50133189  1
  Ca2+  Ca71  1  0.25324389  0.75232973  -0.00166402  1
  Ca2+  Ca72  1  0.74948468  0.25074251  0.00225996  1
  Ca2+  Ca73  1  0.24910509  0.75151805  0.50277329  1
  Ca2+  Ca74  1  0.25095318  0.00005009  0.75100575  1
  Ca2+  Ca75  1  -0.00098374  0.25472507  0.74664731  1
  Ca2+  Ca76  1  0.74699547  0.00446867  0.74563820  1
  Ca2+  Ca77  1  0.49322458  0.24762713  0.25122206  1
  Ca2+  Ca78  1  0.00053744  0.74844958  0.75323040  1
  Ca2+  Ca79  1  0.00516319  0.25088681  0.25059718  1
  Ca2+  Ca80  1  0.25042822  0.49440031  0.25210244  1
  Ca2+  Ca81  1  0.49749003  0.24770562  0.75070770  1
  Ca2+  Ca82  1  0.75184264  0.49791688  0.74927461  1
  Ca2+  Ca83  1  0.24746539  0.49778550  0.75282179  1
  Ca2+  Ca84  1  0.24970180  0.00285925  0.24749741  1
  Nb5+  Nb85  1  0.50007570  -0.00203543  0.00161308  1
  Nb5+  Nb86  1  0.50138513  0.00046785  0.50381811  1
  Nb5+  Nb87  1  0.00062321  0.50257074  -0.00126537  1
  Nb5+  Nb88  1  0.75684347  0.24636384  0.49831728  1
  Nb5+  Nb89  1  0.25583610  0.24515763  0.50867357  1
  Nb5+  Nb90  1  0.24847724  0.24898579  0.00379648  1
  Nb5+  Nb91  1  0.74997511  0.50758239  0.24747915  1
  Nb5+  Nb92  1  0.50043471  0.74855449  0.24829173  1
  Nb5+  Nb93  1  -0.01055923  0.74774529  0.24598973  1
  Nb5+  Nb94  1  0.50216446  0.75275498  0.74380383  1
  Nb5+  Nb95  1  0.74703889  0.00611988  0.25184349  1
  Nb5+  Nb96  1  0.00337712  -0.00129905  0.24248471  1
  Nb5+  Nb97  1  0.00008486  -0.00123511  0.75015984  1
  Nb5+  Nb98  1  0.00283975  0.49927733  0.24751677  1
  Nb5+  Nb99  1  -0.00504515  0.49770808  0.74385703  1
  Nb5+  Nb100  1  0.50261856  0.00124987  0.25183232  1
  Nb5+  Nb101  1  0.50611341  0.00176544  0.75344982  1
  Nb5+  Nb102  1  0.49729488  0.49965620  0.24889251  1
  Nb5+  Nb103  1  0.49887954  0.49715734  0.74979151  1
  Nb5+  Nb104  1  0.25182133  0.24926122  0.26146990  1
  Nb5+  Nb105  1  0.25319444  0.24941638  0.76032178  1
  Nb5+  Nb106  1  0.24140839  0.75255576  0.25399312  1
  Nb5+  Nb107  1  0.24404826  0.75376512  0.75437305  1
  Nb5+  Nb108  1  0.74825279  0.25660897  0.24910518  1
  Nb5+  Nb109  1  0.75268930  0.25175070  0.75710383  1
  Nb5+  Nb110  1  0.74256968  0.75558023  0.25324302  1
  Nb5+  Nb111  1  0.75427383  0.74788143  0.74572786  1
  Nb5+  Nb112  1  0.01105317  0.24981241  0.49942812  1
  Nb5+  Nb113  1  -0.00186116  0.24664080  1.00681356  1
  Nb5+  Nb114  1  0.00246967  0.75058257  0.50734824  1
  Nb5+  Nb115  1  -0.00427289  0.75159695  0.99414495  1
  Nb5+  Nb116  1  0.50282107  0.25237095  0.49995335  1
  Nb5+  Nb117  1  0.49712467  0.25524433  0.99612047  1
  Nb5+  Nb118  1  0.50308159  0.74803509  0.49451360  1
  Nb5+  Nb119  1  0.50106330  0.75017499  0.99283917  1
  Nb5+  Nb120  1  0.24891251  -0.00436668  0.00569456  1
  Nb5+  Nb121  1  0.25058527  -0.00352627  0.50139943  1
  Nb5+  Nb122  1  0.24841494  0.50448169  -0.00450080  1
  Nb5+  Nb123  1  0.24697041  0.50178133  0.49478654  1
  Nb5+  Nb124  1  0.75000675  0.00497933  -0.00435555  1
  Nb5+  Nb125  1  0.75360710  0.00251779  0.49955245  1
  Nb5+  Nb126  1  0.74309879  0.49461619  0.00253436  1
  Nb5+  Nb127  1  0.74957933  0.50306869  0.50145978  1
  O2-  O128  1  -0.03621638  -0.01955547  0.13326824  1
  O2-  O129  1  -0.01876742  -0.02007429  0.63219939  1
  O2-  O130  1  -0.02297100  0.49210169  0.12501713  1
  O2-  O131  1  -0.03358253  0.48406576  0.63297295  1
  O2-  O132  1  0.49358294  -0.01214366  0.12596224  1
  O2-  O133  1  0.49303223  -0.00473767  0.62305495  1
  O2-  O134  1  0.48355816  0.52389158  0.13349879  1
  O2-  O135  1  0.47402213  0.51170919  0.63270135  1
  O2-  O136  1  0.01122369  0.00791034  0.36051718  1
  O2-  O137  1  0.01698974  0.02132121  0.86929004  1
  O2-  O138  1  0.01941108  0.52093106  0.36040841  1
  O2-  O139  1  0.02241979  0.51494962  0.88506819  1
  O2-  O140  1  0.51276454  0.00243209  0.37272772  1
  O2-  O141  1  0.51493685  0.00140595  0.87594275  1
  O2-  O142  1  0.53335125  0.49785149  0.36162318  1
  O2-  O143  1  0.53226722  0.50849224  0.86438099  1
  O2-  O144  1  0.23427497  0.24116695  0.11902495  1
  O2-  O145  1  0.23036513  0.23534705  0.62028071  1
  O2-  O146  1  0.23491397  0.72872990  0.13673755  1
  O2-  O147  1  0.22259207  0.72939803  0.63711969  1
  O2-  O148  1  0.71912756  0.23957647  0.13828438  1
  O2-  O149  1  0.72709785  0.24022822  0.61048273  1
  O2-  O150  1  0.72313522  0.73736620  0.13962545  1
  O2-  O151  1  0.71336897  0.73680316  0.63423495  1
  O2-  O152  1  0.26976476  0.25685881  0.37676014  1
  O2-  O153  1  0.27256383  0.26259910  0.87486264  1
  O2-  O154  1  0.27769757  0.76553670  0.36669374  1
  O2-  O155  1  0.28574480  0.76683883  0.86689368  1
  O2-  O156  1  0.76987251  0.26193494  0.37397021  1
  O2-  O157  1  0.78126232  0.26240328  0.86743122  1
  O2-  O158  1  0.78115692  0.75881175  0.36452854  1
  O2-  O159  1  0.77055602  0.76585619  0.86514169  1
  O2-  O160  1  0.01939878  0.28232218  0.11698456  1
  O2-  O161  1  0.01117954  0.28547333  0.61216151  1
  O2-  O162  1  0.01706924  0.76721153  0.13019706  1
  O2-  O163  1  0.01907314  0.77769675  0.61700784  1
  O2-  O164  1  0.51053868  0.24930567  0.11359406  1
  O2-  O165  1  0.51591724  0.23955224  0.61506325  1
  O2-  O166  1  0.52540297  0.76144729  0.13651051  1
  O2-  O167  1  0.52080403  0.76402393  0.62975171  1
  O2-  O168  1  0.26228211  -0.00818666  0.38368275  1
  O2-  O169  1  0.24915272  -0.02161478  0.88836631  1
  O2-  O170  1  0.23261928  0.46461997  0.38281213  1
  O2-  O171  1  0.22615502  0.47034369  0.88598093  1
  O2-  O172  1  0.73548471  -0.01915393  0.37304922  1
  O2-  O173  1  0.73646146  -0.01781131  0.88446393  1
  O2-  O174  1  0.73398579  0.48497786  0.36365784  1
  O2-  O175  1  0.73734431  0.47361672  0.88772590  1
  O2-  O176  1  -0.00320207  0.21522298  0.38374375  1
  O2-  O177  1  -0.00827434  0.23625174  0.88804220  1
  O2-  O178  1  -0.01231800  0.72619972  0.36188729  1
  O2-  O179  1  -0.01758131  0.71538239  0.88671753  1
  O2-  O180  1  0.47581387  0.23498303  0.38603917  1
  O2-  O181  1  0.48268665  0.22039373  0.88485148  1
  O2-  O182  1  0.48094886  0.74541797  0.37943147  1
  O2-  O183  1  0.48009184  0.74689629  0.87943801  1
  O2-  O184  1  0.26230112  0.03926583  0.11497553  1
  O2-  O185  1  0.25884606  0.03099469  0.61394999  1
  O2-  O186  1  0.26851824  0.50124806  0.11397210  1
  O2-  O187  1  0.26870481  0.50848049  0.61349805  1
  O2-  O188  1  0.75201064  0.02185606  0.13444138  1
  O2-  O189  1  0.75436947  0.03499413  0.60969029  1
  O2-  O190  1  0.76578765  0.51830938  0.12848552  1
  O2-  O191  1  0.77195199  0.51559182  0.61211055  1
  O2-  O192  1  0.13934792  0.29169314  0.25871723  1
  O2-  O193  1  0.13542365  0.27496132  0.76263800  1
  O2-  O194  1  0.12528798  0.76487221  0.26746763  1
  O2-  O195  1  0.13415017  0.77139343  0.78524258  1
  O2-  O196  1  0.63248978  0.26432312  0.27870994  1
  O2-  O197  1  0.63411504  0.28050887  0.76374996  1
  O2-  O198  1  0.62881168  0.76240213  0.28295147  1
  O2-  O199  1  0.61718954  0.76477537  0.77624201  1
  O2-  O200  1  0.36072366  0.20545374  0.23784219  1
  O2-  O201  1  0.36415735  0.21496945  0.73574912  1
  O2-  O202  1  0.38676633  0.73424116  0.23490491  1
  O2-  O203  1  0.38262077  0.73501697  0.73158292  1
  O2-  O204  1  0.86299163  0.22843830  0.23506885  1
  O2-  O205  1  0.86381207  0.22421795  0.72187223  1
  O2-  O206  1  0.87443223  0.73580898  0.22677886  1
  O2-  O207  1  0.86607832  0.73064791  0.71910226  1
  O2-  O208  1  0.29296428  0.36062761  0.24012488  1
  O2-  O209  1  0.27729781  0.36293704  0.73156668  1
  O2-  O210  1  0.27164249  0.86481757  0.22979094  1
  O2-  O211  1  0.26903360  0.86569314  0.72219951  1
  O2-  O212  1  0.76354498  0.37471078  0.23610033  1
  O2-  O213  1  0.76957318  0.36536002  0.72134411  1
  O2-  O214  1  0.76157705  0.87186829  0.23599086  1
  O2-  O215  1  0.76520494  0.86716798  0.72876808  1
  O2-  O216  1  0.20651127  0.13673866  0.26480140  1
  O2-  O217  1  0.22174399  0.13340876  0.76757108  1
  O2-  O218  1  0.24504205  0.63292680  0.27182970  1
  O2-  O219  1  0.24099611  0.63364679  0.77235188  1
  O2-  O220  1  0.73240971  0.12072672  0.27058568  1
  O2-  O221  1  0.71826648  0.13770130  0.76189942  1
  O2-  O222  1  0.73803766  0.62510416  0.26586477  1
  O2-  O223  1  0.72953776  0.63247621  0.76804775  1
  O2-  O224  1  0.11512500  0.48951200  0.22231942  1
  O2-  O225  1  0.11399332  0.47780867  0.73151793  1
  O2-  O226  1  0.11359595  0.97019450  0.22630282  1
  O2-  O227  1  0.11743222  0.97310132  0.73692764  1
  O2-  O228  1  0.63204923  0.49334368  0.22407523  1
  O2-  O229  1  0.61580307  0.48680337  0.71925732  1
  O2-  O230  1  0.62830397  0.97458655  0.24165514  1
  O2-  O231  1  0.61522118  0.96277875  0.73735603  1
  O2-  O232  1  0.38893930  0.01347924  0.25753386  1
  O2-  O233  1  0.38843980  0.01484126  0.75938161  1
  O2-  O234  1  0.38746885  0.52124308  0.27463635  1
  O2-  O235  1  0.38309282  0.51993196  0.77371165  1
  O2-  O236  1  0.86521625  0.00947158  0.26641590  1
  O2-  O237  1  0.87994531  0.02040708  0.76455069  1
  O2-  O238  1  0.87062444  0.51787361  0.26157263  1
  O2-  O239  1  0.88438521  0.52549062  0.77911762  1
  O2-  O240  1  0.49281282  0.38550838  0.23298542  1
  O2-  O241  1  0.47758597  0.38310323  0.75624414  1
  O2-  O242  1  0.49243462  0.87100147  0.26349093  1
  O2-  O243  1  0.47948661  0.87125897  0.75986880  1
  O2-  O244  1  0.97727652  0.38733020  0.26492226  1
  O2-  O245  1  0.98031153  0.38587672  0.78031387  1
  O2-  O246  1  0.97918630  0.86746447  0.26475249  1
  O2-  O247  1  0.97715089  0.88137682  0.77504370  1
  O2-  O248  1  0.01108671  0.11277356  0.22371224  1
  O2-  O249  1  0.01744255  0.11813763  0.73140659  1
  O2-  O250  1  0.00885767  0.62801412  0.22630154  1
  O2-  O251  1  0.02398363  0.61529591  0.73260311  1
  O2-  O252  1  0.53049957  0.11222291  0.24173494  1
  O2-  O253  1  0.53290854  0.11229126  0.74393704  1
  O2-  O254  1  0.52640344  0.63316989  0.25361367  1
  O2-  O255  1  0.51571396  0.63360263  0.74848010  1
  O2-  O256  1  0.12058596  0.48629643  0.02324266  1
  O2-  O257  1  0.13324888  0.47335111  0.52048694  1
  O2-  O258  1  0.13396432  0.97998340  0.01686605  1
  O2-  O259  1  0.13551584  0.98014374  0.50104513  1
  O2-  O260  1  0.63204047  0.47475293  0.02674521  1
  O2-  O261  1  0.63652834  0.46888547  0.51121561  1
  O2-  O262  1  0.61784242  0.97911466  0.01058749  1
  O2-  O263  1  0.62396711  0.98485667  0.50624766  1
  O2-  O264  1  0.38005256  0.01869142  -0.00999727  1
  O2-  O265  1  0.38406328  0.02201238  0.49418508  1
  O2-  O266  1  0.36250712  0.51968584  -0.02749441  1
  O2-  O267  1  0.36623797  0.50905499  0.47231774  1
  O2-  O268  1  0.86134083  0.03537825  -0.01234027  1
  O2-  O269  1  0.86394482  0.02670544  0.47648723  1
  O2-  O270  1  0.88029262  0.51816138  -0.01318522  1
  O2-  O271  1  0.86375831  0.50775999  0.46760752  1
  O2-  O272  1  0.46978680  0.36759045  -0.01193430  1
  O2-  O273  1  0.47599775  0.36401898  0.50179293  1
  O2-  O274  1  0.47361409  0.87902473  -0.00560858  1
  O2-  O275  1  0.48020142  0.88165028  0.49141516  1
  O2-  O276  1  0.98640028  0.38158972  -0.01334494  1
  O2-  O277  1  0.98028160  0.36064071  0.46627969  1
  O2-  O278  1  0.97448581  0.86519102  -0.02387841  1
  O2-  O279  1  0.97636957  0.86270326  0.47221424  1
  O2-  O280  1  0.02425016  0.13583992  0.02574851  1
  O2-  O281  1  0.01823022  0.13440902  0.52983689  1
  O2-  O282  1  0.01499252  0.62234606  0.02179770  1
  O2-  O283  1  0.02520227  0.63189392  0.51523890  1
  O2-  O284  1  0.51480939  0.11645098  0.01146572  1
  O2-  O285  1  0.52097940  0.11867333  0.50102185  1
  O2-  O286  1  0.53364940  0.63987507  0.00096457  1
  O2-  O287  1  0.53290011  0.63724743  0.50324129  1
  O2-  O288  1  0.13117955  0.26672558  -0.01732609  1
  O2-  O289  1  0.12838271  0.26374081  0.48359077  1
  O2-  O290  1  0.11408075  0.77045510  -0.00979645  1
  O2-  O291  1  0.11600788  0.76707781  0.47005039  1
  O2-  O292  1  0.61226330  0.27199313  -0.02190904  1
  O2-  O293  1  0.61979979  0.26382719  0.47953113  1
  O2-  O294  1  0.61316386  0.78701348  -0.00934609  1
  O2-  O295  1  0.61500392  0.78494535  0.48719285  1
  O2-  O296  1  0.37050238  0.22984074  0.01367876  1
  O2-  O297  1  0.37190550  0.22425955  0.51770296  1
  O2-  O298  1  0.39123238  0.73529641  0.03437514  1
  O2-  O299  1  0.38973969  0.73594872  0.52835105  1
  O2-  O300  1  0.88496893  0.23309763  0.02642771  1
  O2-  O301  1  0.87088627  0.22885503  0.51356019  1
  O2-  O302  1  0.88298204  0.73490187  0.02998906  1
  O2-  O303  1  0.88567918  0.72240059  0.51571501  1
  O2-  O304  1  0.26762219  0.36820532  0.01080319  1
  O2-  O305  1  0.27199888  0.36276436  0.51286066  1
  O2-  O306  1  0.27168464  0.88593650  0.03417566  1
  O2-  O307  1  0.27577254  0.88584484  0.52291878  1
  O2-  O308  1  0.77920452  0.38395434  0.02430045  1
  O2-  O309  1  0.76654337  0.36749971  0.50211693  1
  O2-  O310  1  0.76402757  0.89135019  0.02821476  1
  O2-  O311  1  0.77107350  0.88967874  0.51996403  1
  O2-  O312  1  0.23473933  0.13035330  -0.02309292  1
  O2-  O313  1  0.23641655  0.12891113  0.48022230  1
  O2-  O314  1  0.22356615  0.61678608  -0.01383801  1
  O2-  O315  1  0.23091461  0.61468678  0.47654734  1
  O2-  O316  1  0.71123984  0.11671113  -0.00403357  1
  O2-  O317  1  0.72935145  0.13111617  0.47296474  1
  O2-  O318  1  0.73428396  0.61361814  -0.01290745  1
  O2-  O319  1  0.72687909  0.61421204  0.47964001  1
