# generated using pymatgen
data_Sr64Ca21Nb43O192
_symmetry_space_group_name_H-M   'P 1'
_cell_length_a   16.57938369
_cell_length_b   16.57269140
_cell_length_c   16.74198315
_cell_angle_alpha   89.95255042
_cell_angle_beta   89.96115748
_cell_angle_gamma   89.99391831
_symmetry_Int_Tables_number   1
_chemical_formula_structural   Sr64Ca21Nb43O192
_chemical_formula_sum   'Sr64 Ca21 Nb43 O192'
_cell_volume   4600.10850165
_cell_formula_units_Z   1
loop_
 _symmetry_equiv_pos_site_id
 _symmetry_equiv_pos_as_xyz
  1  'x, y, z'
loop_
 _atom_type_symbol
 _atom_type_oxidation_number
  Sr2+  2.0
  Ca2+  2.0
  Nb5+  5.0
  O2-  -2.0
loop_
 _atom_site_type_symbol
 _atom_site_label
 _atom_site_symmetry_multiplicity
 _atom_site_fract_x
 _atom_site_fract_y
 _atom_site_fract_z
 _atom_site_occupancy
  Sr2+  Sr0  1  0.11644986  0.11766722  0.12541608  1
  Sr2+  Sr1  1  0.11639413  0.12252550  0.62166610  1
  Sr2+  Sr2  1  0.12299147  0.63983934  0.12707381  1
  Sr2+  Sr3  1  0.12442635  0.63348677  0.63628718  1
  Sr2+  Sr4  1  0.62272791  0.11484847  0.12416674  1
  Sr2+  Sr5  1  0.61774404  0.12645626  0.62603048  1
  Sr2+  Sr6  1  0.61451477  0.63700130  0.12823568  1
  Sr2+  Sr7  1  0.61166421  0.63342245  0.62426064  1
  Sr2+  Sr8  1  0.36490199  0.36728316  0.12990594  1
  Sr2+  Sr9  1  0.36614575  0.37927250  0.62335148  1
  Sr2+  Sr10  1  0.36862861  0.87110152  0.11846983  1
  Sr2+  Sr11  1  0.37110051  0.87247276  0.62583579  1
  Sr2+  Sr12  1  0.86412740  0.37704082  0.11567256  1
  Sr2+  Sr13  1  0.86961158  0.36743568  0.62444264  1
  Sr2+  Sr14  1  0.87465600  0.87356933  0.12585501  1
  Sr2+  Sr15  1  0.87328389  0.86723761  0.63488276  1
  Sr2+  Sr16  1  0.13163915  0.37877802  0.37138902  1
  Sr2+  Sr17  1  0.12694871  0.37379022  0.86919029  1
  Sr2+  Sr18  1  0.13100312  0.87512427  0.38538911  1
  Sr2+  Sr19  1  0.13207223  0.87661867  0.86351502  1
  Sr2+  Sr20  1  0.62052610  0.38065372  0.38141547  1
  Sr2+  Sr21  1  0.63959579  0.36898520  0.87550352  1
  Sr2+  Sr22  1  0.63498861  0.87500745  0.37579287  1
  Sr2+  Sr23  1  0.63013115  0.87666194  0.86734601  1
  Sr2+  Sr24  1  0.36789196  0.12940554  0.36859687  1
  Sr2+  Sr25  1  0.40157179  0.12828963  0.87594976  1
  Sr2+  Sr26  1  0.38866984  0.61182827  0.37702274  1
  Sr2+  Sr27  1  0.37888321  0.61591736  0.87573656  1
  Sr2+  Sr28  1  0.88456115  0.13410880  0.37620567  1
  Sr2+  Sr29  1  0.89101025  0.13292736  0.87188366  1
  Sr2+  Sr30  1  0.88303212  0.63236119  0.37228793  1
  Sr2+  Sr31  1  0.87818658  0.62162913  0.87501847  1
  Sr2+  Sr32  1  0.12788470  0.12666536  0.37750659  1
  Sr2+  Sr33  1  0.12991751  0.13442294  0.88217788  1
  Sr2+  Sr34  1  0.12702972  0.61676714  0.37285698  1
  Sr2+  Sr35  1  0.13418130  0.61280722  0.87555375  1
  Sr2+  Sr36  1  0.63291505  0.13538529  0.36477489  1
  Sr2+  Sr37  1  0.63010362  0.13432130  0.87258089  1
  Sr2+  Sr38  1  0.62550560  0.63194716  0.38080728  1
  Sr2+  Sr39  1  0.63199988  0.60712623  0.86531659  1
  Sr2+  Sr40  1  0.38058969  0.37324350  0.37338135  1
  Sr2+  Sr41  1  0.37398040  0.36163562  0.86612406  1
  Sr2+  Sr42  1  0.37690949  0.87858281  0.37976458  1
  Sr2+  Sr43  1  0.39043796  0.87592427  0.87465962  1
  Sr2+  Sr44  1  0.88460929  0.38942951  0.38330866  1
  Sr2+  Sr45  1  0.88147536  0.38110079  0.87686410  1
  Sr2+  Sr46  1  0.88023962  0.87689518  0.37580553  1
  Sr2+  Sr47  1  0.88768031  0.88335904  0.86965812  1
  Sr2+  Sr48  1  0.12164122  0.37731826  0.12923905  1
  Sr2+  Sr49  1  0.10690104  0.38512150  0.62848433  1
  Sr2+  Sr50  1  0.11252876  0.87561787  0.12382757  1
  Sr2+  Sr51  1  0.13976800  0.87634170  0.62666802  1
  Sr2+  Sr52  1  0.62646188  0.37069778  0.11395853  1
  Sr2+  Sr53  1  0.61046588  0.37305536  0.62291841  1
  Sr2+  Sr54  1  0.61110130  0.87277394  0.12710230  1
  Sr2+  Sr55  1  0.62879950  0.86994685  0.62361051  1
  Sr2+  Sr56  1  0.37043142  0.11921026  0.12429740  1
  Sr2+  Sr57  1  0.36983127  0.13279241  0.63362019  1
  Sr2+  Sr58  1  0.37308000  0.62881030  0.12389375  1
  Sr2+  Sr59  1  0.37153308  0.62789683  0.63143379  1
  Sr2+  Sr60  1  0.87262302  0.12085937  0.12237096  1
  Sr2+  Sr61  1  0.87300109  0.12760082  0.62412297  1
  Sr2+  Sr62  1  0.87649615  0.62987091  0.12217353  1
  Sr2+  Sr63  1  0.86031871  0.63126886  0.62870449  1
  Ca2+  Ca64  1  0.49732024  0.49699951  -0.00000275  1
  Ca2+  Ca65  1  -0.00262385  -0.00316599  0.49754642  1
  Ca2+  Ca66  1  0.00058377  0.50626993  0.50050385  1
  Ca2+  Ca67  1  0.50081657  0.00130929  0.49535858  1
  Ca2+  Ca68  1  0.00709275  0.50013076  0.00126045  1
  Ca2+  Ca69  1  0.24741709  0.74757220  -0.00143510  1
  Ca2+  Ca70  1  0.25100168  0.25239264  0.49985067  1
  Ca2+  Ca71  1  0.25200074  0.25390218  0.00156227  1
  Ca2+  Ca72  1  0.24914592  0.74728945  0.49756589  1
  Ca2+  Ca73  1  0.74834927  0.75135850  -0.00012987  1
  Ca2+  Ca74  1  0.50122122  0.25186769  0.75119004  1
  Ca2+  Ca75  1  0.49743299  0.75153615  0.25337035  1
  Ca2+  Ca76  1  0.74928495  0.49474774  0.74565593  1
  Ca2+  Ca77  1  0.00212439  0.74889157  0.75102357  1
  Ca2+  Ca78  1  0.49890556  0.75019515  0.75160491  1
  Ca2+  Ca79  1  0.50220642  0.25206485  0.24879023  1
  Ca2+  Ca80  1  0.74750385  0.49787720  0.24939271  1
  Ca2+  Ca81  1  0.75149728  -0.00004106  0.75149315  1
  Ca2+  Ca82  1  0.00104481  0.25073471  0.74839712  1
  Ca2+  Ca83  1  0.25224206  0.00492703  0.75494495  1
  Ca2+  Ca84  1  -0.00420641  0.25212546  0.24913015  1
  Nb5+  Nb85  1  0.50809640  -0.00116906  0.00064305  1
  Nb5+  Nb86  1  0.00538938  -0.00106060  -0.00073705  1
  Nb5+  Nb87  1  0.49711925  0.49932359  0.50425251  1
  Nb5+  Nb88  1  0.75428125  0.24488517  -0.00665742  1
  Nb5+  Nb89  1  0.75067521  0.75483862  0.49972043  1
  Nb5+  Nb90  1  0.75112628  0.25505729  0.49252377  1
  Nb5+  Nb91  1  0.25141718  0.49848406  0.75399094  1
  Nb5+  Nb92  1  0.24365402  -0.00575973  0.24821651  1
  Nb5+  Nb93  1  0.00224745  0.75378285  0.25115058  1
  Nb5+  Nb94  1  0.25298320  0.49880067  0.25365375  1
  Nb5+  Nb95  1  0.74254957  -0.00036512  0.24943824  1
  Nb5+  Nb96  1  -0.00652666  0.00125563  0.25152642  1
  Nb5+  Nb97  1  0.00105902  0.00257670  0.74517298  1
  Nb5+  Nb98  1  -0.00320858  0.50170715  0.24424429  1
  Nb5+  Nb99  1  -0.00396502  0.50464781  0.74862576  1
  Nb5+  Nb100  1  0.49259527  -0.00187269  0.25147928  1
  Nb5+  Nb101  1  0.49922489  0.00188553  0.74250461  1
  Nb5+  Nb102  1  0.50347113  0.49851641  0.24575709  1
  Nb5+  Nb103  1  0.49787495  0.49523767  0.75408291  1
  Nb5+  Nb104  1  0.24624320  0.24440984  0.24665214  1
  Nb5+  Nb105  1  0.24582102  0.24733446  0.74772333  1
  Nb5+  Nb106  1  0.25118480  0.74511426  0.25630685  1
  Nb5+  Nb107  1  0.25250336  0.75181114  0.75375295  1
  Nb5+  Nb108  1  0.75589494  0.25398221  0.24483027  1
  Nb5+  Nb109  1  0.75016824  0.24916402  0.73959925  1
  Nb5+  Nb110  1  0.74969092  0.75065622  0.24774981  1
  Nb5+  Nb111  1  0.74809751  0.74385161  0.75688654  1
  Nb5+  Nb112  1  0.00267351  0.25373438  0.49792909  1
  Nb5+  Nb113  1  0.00058609  0.25373454  1.00443130  1
  Nb5+  Nb114  1  -0.00064743  0.75063173  0.50468156  1
  Nb5+  Nb115  1  0.00116809  0.74891580  0.99428810  1
  Nb5+  Nb116  1  0.49976139  0.24213319  0.49740170  1
  Nb5+  Nb117  1  0.50025242  0.25120846  1.00724159  1
  Nb5+  Nb118  1  0.49424979  0.75110647  0.49782971  1
  Nb5+  Nb119  1  0.50431773  0.74477099  0.99331053  1
  Nb5+  Nb120  1  0.25561695  0.00427194  -0.00213400  1
  Nb5+  Nb121  1  0.25237116  0.00254245  0.50297199  1
  Nb5+  Nb122  1  0.25435985  0.49699074  0.00829608  1
  Nb5+  Nb123  1  0.24596046  0.49796036  0.50610613  1
  Nb5+  Nb124  1  0.75596400  0.00046911  -0.00220875  1
  Nb5+  Nb125  1  0.75038831  0.00602043  0.50132540  1
  Nb5+  Nb126  1  0.74779671  0.50568704  0.00440205  1
  Nb5+  Nb127  1  0.74680750  0.50624560  0.50011541  1
  O2-  O128  1  -0.01170975  0.01530082  0.12597492  1
  O2-  O129  1  -0.01171170  0.02647331  0.63314510  1
  O2-  O130  1  0.01218970  0.53854400  0.13394139  1
  O2-  O131  1  0.02082282  0.52254143  0.63281366  1
  O2-  O132  1  0.49025717  0.02405398  0.12149144  1
  O2-  O133  1  0.48871051  0.02873505  0.63092682  1
  O2-  O134  1  0.50429924  0.52800238  0.13496669  1
  O2-  O135  1  0.50238751  0.51897955  0.62205692  1
  O2-  O136  1  0.01408144  -0.02577155  0.36100280  1
  O2-  O137  1  0.01446296  -0.02241106  0.88620481  1
  O2-  O138  1  0.01054312  0.48405698  0.36084172  1
  O2-  O139  1  0.00119928  0.47604819  0.86557910  1
  O2-  O140  1  0.50845558  -0.03381593  0.36055347  1
  O2-  O141  1  0.51113246  -0.01973203  0.88456981  1
  O2-  O142  1  0.49097486  0.48341726  0.38205459  1
  O2-  O143  1  0.47323306  0.47962901  0.86550954  1
  O2-  O144  1  0.23736443  0.27996804  0.13434718  1
  O2-  O145  1  0.27173488  0.25771981  0.63234498  1
  O2-  O146  1  0.26932276  0.75462068  0.13961694  1
  O2-  O147  1  0.27510093  0.75612153  0.63229449  1
  O2-  O148  1  0.74604749  0.26639520  0.12922672  1
  O2-  O149  1  0.74286571  0.26777100  0.62402654  1
  O2-  O150  1  0.76539741  0.77050200  0.13623560  1
  O2-  O151  1  0.76277676  0.76592946  0.61726341  1
  O2-  O152  1  0.26301642  0.24195249  0.36341787  1
  O2-  O153  1  0.23766765  0.25471866  0.86711733  1
  O2-  O154  1  0.20841348  0.74572334  0.36483818  1
  O2-  O155  1  0.21650491  0.73921500  0.86591471  1
  O2-  O156  1  0.75876961  0.22595720  0.38081523  1
  O2-  O157  1  0.75906825  0.22316877  0.88058668  1
  O2-  O158  1  0.74037324  0.73536263  0.37753191  1
  O2-  O159  1  0.73606747  0.71819278  0.86777003  1
  O2-  O160  1  0.00371980  0.21934052  0.11673740  1
  O2-  O161  1  0.00372985  0.22476700  0.61312341  1
  O2-  O162  1  -0.01825403  0.73843304  0.13212367  1
  O2-  O163  1  -0.01640544  0.72293032  0.61398795  1
  O2-  O164  1  0.52937852  0.22734468  0.11858141  1
  O2-  O165  1  0.51322848  0.23602280  0.61517504  1
  O2-  O166  1  0.49091984  0.72881193  0.11552932  1
  O2-  O167  1  0.49053894  0.72703393  0.61427761  1
  O2-  O168  1  0.23380652  0.01465890  0.36368222  1
  O2-  O169  1  0.22334071  0.01249068  0.88933738  1
  O2-  O170  1  0.25224833  0.51284022  0.37127094  1
  O2-  O171  1  0.25689481  0.50832829  0.87148723  1
  O2-  O172  1  0.72744582  0.01300932  0.36708504  1
  O2-  O173  1  0.72744352  0.01808803  0.88910557  1
  O2-  O174  1  0.72612316  0.50688879  0.38436258  1
  O2-  O175  1  0.75991325  0.51750867  0.88522720  1
  O2-  O176  1  -0.02763575  0.26990055  0.38284438  1
  O2-  O177  1  -0.02012504  0.26113473  0.88662004  1
  O2-  O178  1  0.00469507  0.77992751  0.36713060  1
  O2-  O179  1  0.00972276  0.78412329  0.88609664  1
  O2-  O180  1  0.49985671  0.27786629  0.38516872  1
  O2-  O181  1  0.50214488  0.27004518  0.89020300  1
  O2-  O182  1  0.52721278  0.76579849  0.38617542  1
  O2-  O183  1  0.51207098  0.78518687  0.88295046  1
  O2-  O184  1  0.27151617  -0.00648906  0.13232987  1
  O2-  O185  1  0.27305052  -0.00455899  0.61642293  1
  O2-  O186  1  0.25365112  0.48623123  0.12714971  1
  O2-  O187  1  0.24690624  0.48884918  0.62263719  1
  O2-  O188  1  0.76398989  -0.01186408  0.12852917  1
  O2-  O189  1  0.77568083  -0.01496332  0.61183076  1
  O2-  O190  1  0.74363726  0.46532781  0.11706956  1
  O2-  O191  1  0.74928324  0.46644297  0.61049563  1
  O2-  O192  1  0.13107927  0.27301506  0.26247739  1
  O2-  O193  1  0.13396972  0.28670667  0.73879524  1
  O2-  O194  1  0.11918454  0.76654896  0.22958139  1
  O2-  O195  1  0.13516805  0.76286852  0.72113953  1
  O2-  O196  1  0.64131921  0.26342983  0.27050649  1
  O2-  O197  1  0.63577026  0.27164989  0.76166520  1
  O2-  O198  1  0.63493259  0.77322586  0.24381734  1
  O2-  O199  1  0.63384255  0.77215563  0.73511896  1
  O2-  O200  1  0.36578927  0.23179851  0.23037213  1
  O2-  O201  1  0.36625970  0.22769495  0.76476793  1
  O2-  O202  1  0.36192447  0.74031373  0.28638577  1
  O2-  O203  1  0.36532385  0.72117065  0.77092563  1
  O2-  O204  1  0.86431648  0.20902018  0.24532650  1
  O2-  O205  1  0.86635065  0.22116251  0.73997236  1
  O2-  O206  1  0.87473650  0.74498102  0.26541155  1
  O2-  O207  1  0.86620273  0.72127796  0.75243907  1
  O2-  O208  1  0.26844673  0.38326109  0.26387391  1
  O2-  O209  1  0.27682584  0.38166718  0.75337834  1
  O2-  O210  1  0.26053549  0.87842999  0.26305868  1
  O2-  O211  1  0.27021893  0.86701791  0.76611716  1
  O2-  O212  1  0.78862347  0.36172787  0.26683408  1
  O2-  O213  1  0.77667996  0.36131932  0.77324800  1
  O2-  O214  1  0.76532216  0.88113616  0.26941531  1
  O2-  O215  1  0.77282010  0.86211243  0.76870569  1
  O2-  O216  1  0.23018654  0.12660845  0.23621379  1
  O2-  O217  1  0.21512309  0.13584131  0.73847695  1
  O2-  O218  1  0.23088943  0.62828401  0.24206817  1
  O2-  O219  1  0.23308019  0.61800893  0.73893550  1
  O2-  O220  1  0.72967600  0.11802860  0.23541964  1
  O2-  O221  1  0.72346023  0.13250784  0.73263364  1
  O2-  O222  1  0.73447461  0.63609582  0.23384946  1
  O2-  O223  1  0.72643673  0.62995918  0.72084139  1
  O2-  O224  1  0.13200974  0.49011217  0.24709092  1
  O2-  O225  1  0.13421278  0.47833481  0.75398590  1
  O2-  O226  1  0.12850611  0.98691296  0.22888474  1
  O2-  O227  1  0.11708779  0.97197876  0.74043993  1
  O2-  O228  1  0.61267046  0.46300424  0.24921680  1
  O2-  O229  1  0.61364809  0.47338034  0.76336275  1
  O2-  O230  1  0.62632597  0.98302621  0.23296095  1
  O2-  O231  1  0.61497828  0.97036832  0.73940065  1
  O2-  O232  1  0.37425989  0.01579703  0.26158508  1
  O2-  O233  1  0.38450946  0.02689722  0.77171847  1
  O2-  O234  1  0.36818368  0.52968923  0.24595239  1
  O2-  O235  1  0.37194388  0.52117359  0.73804873  1
  O2-  O236  1  0.87620508  0.01356044  0.26097541  1
  O2-  O237  1  0.88580187  0.01802618  0.77727837  1
  O2-  O238  1  0.88425557  0.52800279  0.25189056  1
  O2-  O239  1  0.88339232  0.52906626  0.74507417  1
  O2-  O240  1  0.46168257  0.38858134  0.24112385  1
  O2-  O241  1  0.47734759  0.38356723  0.72037075  1
  O2-  O242  1  0.48254884  0.88494433  0.21704659  1
  O2-  O243  1  0.46739070  0.88615775  0.73704460  1
  O2-  O244  1  0.98463310  0.38991286  0.21689094  1
  O2-  O245  1  0.98167971  0.38601684  0.72426366  1
  O2-  O246  1  0.98804828  0.87808217  0.22670472  1
  O2-  O247  1  0.97578129  0.88410140  0.74080371  1
  O2-  O248  1  0.02190228  0.11292915  0.26520347  1
  O2-  O249  1  0.02634712  0.11487235  0.77756259  1
  O2-  O250  1  0.01461701  0.63699409  0.27020642  1
  O2-  O251  1  0.02903363  0.61650599  0.77299369  1
  O2-  O252  1  0.51693499  0.11279598  0.26806005  1
  O2-  O253  1  0.52526208  0.11594535  0.77288117  1
  O2-  O254  1  0.51649415  0.61381087  0.27771516  1
  O2-  O255  1  0.51935801  0.61284336  0.76308575  1
  O2-  O256  1  0.14123827  0.45723127  -0.00334270  1
  O2-  O257  1  0.13488390  0.46956964  0.49327239  1
  O2-  O258  1  0.12036205  0.99071884  0.02307389  1
  O2-  O259  1  0.13342179  0.97408904  0.50800125  1
  O2-  O260  1  0.63395995  0.47079221  -0.01255743  1
  O2-  O261  1  0.61820519  0.47995380  0.50470635  1
  O2-  O262  1  0.62469113  0.98659282  0.02017829  1
  O2-  O263  1  0.63710426  0.97211691  0.50623961  1
  O2-  O264  1  0.37284609  0.01953231  -0.01233824  1
  O2-  O265  1  0.36549861  0.02233011  0.47083706  1
  O2-  O266  1  0.36633357  0.54108553  0.00630667  1
  O2-  O267  1  0.37649188  0.52401125  0.50680780  1
  O2-  O268  1  0.87330540  0.01974206  -0.00944762  1
  O2-  O269  1  0.86130161  0.01128208  0.46436026  1
  O2-  O270  1  0.86803989  0.51096248  0.01265605  1
  O2-  O271  1  0.86197350  0.51714669  0.48614075  1
  O2-  O272  1  0.48968322  0.36345568  0.03555421  1
  O2-  O273  1  0.48323163  0.37895289  0.51943881  1
  O2-  O274  1  0.47959283  0.88586489  0.02044903  1
  O2-  O275  1  0.47901127  0.86513790  0.51850908  1
  O2-  O276  1  0.98130336  0.36509088  0.02544680  1
  O2-  O277  1  0.97288844  0.36890149  0.51974078  1
  O2-  O278  1  0.98101885  0.88171830  0.02075125  1
  O2-  O279  1  0.95958847  0.86210413  0.50985570  1
  O2-  O280  1  0.01095492  0.11792493  -0.01659830  1
  O2-  O281  1  0.01092024  0.13397695  0.47270221  1
  O2-  O282  1  0.01799371  0.63586030  -0.02603782  1
  O2-  O283  1  0.00929009  0.64017470  0.46280654  1
  O2-  O284  1  0.51947142  0.11994625  -0.01866614  1
  O2-  O285  1  0.53486601  0.13401874  0.47792983  1
  O2-  O286  1  0.53004616  0.63412229  -0.02697331  1
  O2-  O287  1  0.51739615  0.61974999  0.48354921  1
  O2-  O288  1  0.11429760  0.26093876  -0.00880775  1
  O2-  O289  1  0.11525418  0.27661098  0.48708222  1
  O2-  O290  1  0.11230415  0.76481448  0.02985080  1
  O2-  O291  1  0.11109478  0.77615684  0.51477788  1
  O2-  O292  1  0.63493567  0.25966395  -0.00676097  1
  O2-  O293  1  0.63234500  0.27076999  0.49712299  1
  O2-  O294  1  0.61648641  0.78041889  0.01400999  1
  O2-  O295  1  0.63011892  0.75622084  0.51398821  1
  O2-  O296  1  0.38811576  0.22290949  0.01241386  1
  O2-  O297  1  0.38760589  0.21725207  0.50004322  1
  O2-  O298  1  0.38487424  0.73813919  -0.01772694  1
  O2-  O299  1  0.38400098  0.72885239  0.47392878  1
  O2-  O300  1  0.87119397  0.22806114  0.01389702  1
  O2-  O301  1  0.86488937  0.23102148  0.51547428  1
  O2-  O302  1  0.88364462  0.72971077  -0.00304201  1
  O2-  O303  1  0.86497417  0.72325229  0.49040290  1
  O2-  O304  1  0.29809013  0.38688633  -0.00886327  1
  O2-  O305  1  0.28265096  0.38658254  0.48571188  1
  O2-  O306  1  0.26066502  0.88715269  0.00119224  1
  O2-  O307  1  0.26992037  0.88395358  0.48217600  1
  O2-  O308  1  0.77128700  0.36198488  -0.01677501  1
  O2-  O309  1  0.76704301  0.36863138  0.47699061  1
  O2-  O310  1  0.77077529  0.88729176  -0.01526126  1
  O2-  O311  1  0.76280166  0.86887805  0.47938445  1
  O2-  O312  1  0.23258877  0.11697385  0.02718240  1
  O2-  O313  1  0.21872944  0.11736152  0.50398083  1
  O2-  O314  1  0.21488283  0.61081355  0.00937889  1
  O2-  O315  1  0.22346936  0.61387501  0.50600730  1
  O2-  O316  1  0.73839483  0.12418160  0.02487206  1
  O2-  O317  1  0.73160818  0.12168480  0.51547619  1
  O2-  O318  1  0.72742161  0.61531712  0.03080472  1
  O2-  O319  1  0.72887269  0.62018931  0.51889815  1
