# generated using pymatgen
data_Sr64Ca21Nb43O192
_symmetry_space_group_name_H-M   'P 1'
_cell_length_a   16.54739873
_cell_length_b   16.54819090
_cell_length_c   16.72743052
_cell_angle_alpha   90.02304395
_cell_angle_beta   89.95323426
_cell_angle_gamma   89.98099250
_symmetry_Int_Tables_number   1
_chemical_formula_structural   Sr64Ca21Nb43O192
_chemical_formula_sum   'Sr64 Ca21 Nb43 O192'
_cell_volume   4580.46200631
_cell_formula_units_Z   1
loop_
 _symmetry_equiv_pos_site_id
 _symmetry_equiv_pos_as_xyz
  1  'x, y, z'
loop_
 _atom_type_symbol
 _atom_type_oxidation_number
  Sr2+  2.0
  Ca2+  2.0
  Nb5+  5.0
  O2-  -2.0
loop_
 _atom_site_type_symbol
 _atom_site_label
 _atom_site_symmetry_multiplicity
 _atom_site_fract_x
 _atom_site_fract_y
 _atom_site_fract_z
 _atom_site_occupancy
  Sr2+  Sr0  1  0.11639764  0.13591628  0.12969457  1
  Sr2+  Sr1  1  0.12756247  0.11033148  0.62276932  1
  Sr2+  Sr2  1  0.11595909  0.62956426  0.12410280  1
  Sr2+  Sr3  1  0.12974971  0.62926462  0.62027136  1
  Sr2+  Sr4  1  0.62886169  0.13316533  0.12996316  1
  Sr2+  Sr5  1  0.63125796  0.13615176  0.61991989  1
  Sr2+  Sr6  1  0.62483724  0.63693411  0.12691741  1
  Sr2+  Sr7  1  0.63207392  0.62653076  0.62346848  1
  Sr2+  Sr8  1  0.38283274  0.37971639  0.13139353  1
  Sr2+  Sr9  1  0.37571031  0.37954094  0.62912061  1
  Sr2+  Sr10  1  0.36680980  0.86783281  0.12171384  1
  Sr2+  Sr11  1  0.38046517  0.88106466  0.63042887  1
  Sr2+  Sr12  1  0.88654440  0.38132266  0.12000047  1
  Sr2+  Sr13  1  0.88398433  0.38108024  0.62962083  1
  Sr2+  Sr14  1  0.87838793  0.88165340  0.12937009  1
  Sr2+  Sr15  1  0.88719479  0.88564592  0.62483227  1
  Sr2+  Sr16  1  0.13992601  0.36860213  0.37731451  1
  Sr2+  Sr17  1  0.12749979  0.36138370  0.87825094  1
  Sr2+  Sr18  1  0.12337601  0.85996261  0.38096769  1
  Sr2+  Sr19  1  0.09825877  0.87373283  0.87247250  1
  Sr2+  Sr20  1  0.61562816  0.36505127  0.37605143  1
  Sr2+  Sr21  1  0.63011461  0.37118404  0.87085367  1
  Sr2+  Sr22  1  0.63350553  0.87828914  0.37161068  1
  Sr2+  Sr23  1  0.60475148  0.86724844  0.87639028  1
  Sr2+  Sr24  1  0.37473148  0.12671559  0.37293319  1
  Sr2+  Sr25  1  0.37204737  0.11696064  0.87546826  1
  Sr2+  Sr26  1  0.37578366  0.62770211  0.36547087  1
  Sr2+  Sr27  1  0.37371057  0.62548970  0.87815612  1
  Sr2+  Sr28  1  0.85895642  0.11762829  0.37028214  1
  Sr2+  Sr29  1  0.87831545  0.12553235  0.87237047  1
  Sr2+  Sr30  1  0.88575567  0.63079245  0.36720946  1
  Sr2+  Sr31  1  0.86253681  0.62628410  0.87894278  1
  Sr2+  Sr32  1  0.12939281  0.12824741  0.37362673  1
  Sr2+  Sr33  1  0.11647353  0.11270566  0.88246139  1
  Sr2+  Sr34  1  0.12104107  0.62056362  0.37228772  1
  Sr2+  Sr35  1  0.12561372  0.62179268  0.88201834  1
  Sr2+  Sr36  1  0.61720930  0.11745702  0.37211849  1
  Sr2+  Sr37  1  0.61826666  0.12290064  0.88514344  1
  Sr2+  Sr38  1  0.61565806  0.62976415  0.37922472  1
  Sr2+  Sr39  1  0.61989112  0.62669393  0.87988192  1
  Sr2+  Sr40  1  0.37359630  0.37515569  0.37652394  1
  Sr2+  Sr41  1  0.37835866  0.35580316  0.87217232  1
  Sr2+  Sr42  1  0.37507702  0.88762822  0.37444698  1
  Sr2+  Sr43  1  0.36773985  0.86920714  0.87311955  1
  Sr2+  Sr44  1  0.87839001  0.36915848  0.37842875  1
  Sr2+  Sr45  1  0.86949230  0.36012459  0.87114048  1
  Sr2+  Sr46  1  0.87064123  0.88473228  0.36597399  1
  Sr2+  Sr47  1  0.87730193  0.87123169  0.87749555  1
  Sr2+  Sr48  1  0.11769639  0.38054906  0.12613823  1
  Sr2+  Sr49  1  0.12642329  0.37826080  0.62049158  1
  Sr2+  Sr50  1  0.11922896  0.87018934  0.11567457  1
  Sr2+  Sr51  1  0.12379206  0.87045788  0.63383221  1
  Sr2+  Sr52  1  0.63639381  0.37808749  0.13075565  1
  Sr2+  Sr53  1  0.64246584  0.38220801  0.62607004  1
  Sr2+  Sr54  1  0.63358715  0.87425535  0.12142356  1
  Sr2+  Sr55  1  0.63048345  0.87726797  0.61249534  1
  Sr2+  Sr56  1  0.38538197  0.13262815  0.11586076  1
  Sr2+  Sr57  1  0.37639079  0.12814120  0.62798026  1
  Sr2+  Sr58  1  0.34809924  0.62392251  0.12268485  1
  Sr2+  Sr59  1  0.39388305  0.62739350  0.62450834  1
  Sr2+  Sr60  1  0.88486913  0.13572710  0.12691958  1
  Sr2+  Sr61  1  0.88715784  0.13977295  0.62745744  1
  Sr2+  Sr62  1  0.85509636  0.62676883  0.12705028  1
  Sr2+  Sr63  1  0.89364049  0.62722092  0.62362313  1
  Ca2+  Ca64  1  0.00066339  0.00115032  0.49534738  1
  Ca2+  Ca65  1  -0.00167464  0.00186497  0.00711999  1
  Ca2+  Ca66  1  0.49935073  0.50031217  0.00028496  1
  Ca2+  Ca67  1  -0.00366807  0.50276079  -0.00795446  1
  Ca2+  Ca68  1  0.50147929  -0.00212783  0.00015548  1
  Ca2+  Ca69  1  0.75159564  0.25037237  0.49911843  1
  Ca2+  Ca70  1  0.75371743  0.74779272  0.49932639  1
  Ca2+  Ca71  1  0.25294584  0.74845890  0.50254145  1
  Ca2+  Ca72  1  0.74997432  0.24973143  0.00307787  1
  Ca2+  Ca73  1  0.24918894  0.24741134  0.00055177  1
  Ca2+  Ca74  1  0.74905172  -0.00125246  0.75159365  1
  Ca2+  Ca75  1  0.00151800  0.25644445  0.25378775  1
  Ca2+  Ca76  1  0.24581440  0.49899545  0.24993018  1
  Ca2+  Ca77  1  0.25050655  -0.00141686  0.25081653  1
  Ca2+  Ca78  1  0.00567330  0.25233867  0.74854751  1
  Ca2+  Ca79  1  0.74922621  0.49977941  0.25529263  1
  Ca2+  Ca80  1  0.49726320  0.75315244  0.24748065  1
  Ca2+  Ca81  1  0.50273370  0.74767554  0.74857484  1
  Ca2+  Ca82  1  0.00227168  0.75364472  0.24748329  1
  Ca2+  Ca83  1  0.50095775  0.24780725  0.74530828  1
  Ca2+  Ca84  1  -0.00400979  0.74502614  0.75104504  1
  Nb5+  Nb85  1  0.00754794  0.49814854  0.49892698  1
  Nb5+  Nb86  1  0.50007763  0.00498436  0.50213725  1
  Nb5+  Nb87  1  0.50769166  0.49935634  0.50052642  1
  Nb5+  Nb88  1  0.24202958  0.75204282  -0.00386928  1
  Nb5+  Nb89  1  0.25169285  0.24745511  0.50391901  1
  Nb5+  Nb90  1  0.74498506  0.75366195  -0.00144932  1
  Nb5+  Nb91  1  0.49925448  0.25009923  0.25038627  1
  Nb5+  Nb92  1  0.75932881  0.50097615  0.74872499  1
  Nb5+  Nb93  1  0.25124200  -0.00796735  0.75158709  1
  Nb5+  Nb94  1  0.74787066  0.00497386  0.24644051  1
  Nb5+  Nb95  1  0.25514351  0.49623321  0.75057468  1
  Nb5+  Nb96  1  0.01065540  0.00112425  0.25789123  1
  Nb5+  Nb97  1  -0.00482235  0.00374766  0.74759398  1
  Nb5+  Nb98  1  -0.00172110  0.50182632  0.24689583  1
  Nb5+  Nb99  1  0.00793500  0.50207758  0.75145702  1
  Nb5+  Nb100  1  0.49980587  -0.00124502  0.24561765  1
  Nb5+  Nb101  1  0.50472251  -0.00186061  0.74867261  1
  Nb5+  Nb102  1  0.50430890  0.50184537  0.24766623  1
  Nb5+  Nb103  1  0.50665583  0.49707506  0.75079453  1
  Nb5+  Nb104  1  0.25303936  0.25121536  0.24382002  1
  Nb5+  Nb105  1  0.24640116  0.23853405  0.75106596  1
  Nb5+  Nb106  1  0.24858607  0.75188340  0.25195368  1
  Nb5+  Nb107  1  0.24788520  0.74052322  0.74889827  1
  Nb5+  Nb108  1  0.75502569  0.25391965  0.25030216  1
  Nb5+  Nb109  1  0.74651725  0.24253924  0.75155145  1
  Nb5+  Nb110  1  0.74843001  0.75106251  0.25343673  1
  Nb5+  Nb111  1  0.75184531  0.75156033  0.74798510  1
  Nb5+  Nb112  1  0.00195171  0.24752574  0.49615468  1
  Nb5+  Nb113  1  0.00047715  0.25220412  0.99826712  1
  Nb5+  Nb114  1  -0.00414556  0.75563540  0.49881950  1
  Nb5+  Nb115  1  -0.01108780  0.74565708  1.00162243  1
  Nb5+  Nb116  1  0.49739857  0.25489333  0.50189959  1
  Nb5+  Nb117  1  0.50178962  0.25321256  0.99669525  1
  Nb5+  Nb118  1  0.49874683  0.75884090  0.49521378  1
  Nb5+  Nb119  1  0.49014336  0.74775386  1.00160089  1
  Nb5+  Nb120  1  0.24590813  -0.00069097  0.00713141  1
  Nb5+  Nb121  1  0.25360657  -0.00494710  0.50076669  1
  Nb5+  Nb122  1  0.24931354  0.49301766  -0.00501945  1
  Nb5+  Nb123  1  0.25699579  0.50111366  0.50219337  1
  Nb5+  Nb124  1  0.75219702  0.00206140  -0.00260683  1
  Nb5+  Nb125  1  0.75283256  0.00466702  0.50535493  1
  Nb5+  Nb126  1  0.74753076  0.49963335  0.00269602  1
  Nb5+  Nb127  1  0.76128799  0.49941688  0.49995261  1
  O2-  O128  1  0.03100968  -0.00550693  0.13990771  1
  O2-  O129  1  0.01882368  -0.01770128  0.63094632  1
  O2-  O130  1  0.01200021  0.49234170  0.13161705  1
  O2-  O131  1  0.00891660  0.47960241  0.61943228  1
  O2-  O132  1  0.51910241  -0.01687150  0.13519354  1
  O2-  O133  1  0.50827727  -0.02794311  0.61886699  1
  O2-  O134  1  0.51854961  0.47478748  0.13708683  1
  O2-  O135  1  0.50736369  0.47350900  0.61662300  1
  O2-  O136  1  -0.03614680  0.01349687  0.36684928  1
  O2-  O137  1  -0.01064995  0.01532771  0.86690004  1
  O2-  O138  1  -0.01604732  0.51298647  0.38430849  1
  O2-  O139  1  -0.01218668  0.53456543  0.85822926  1
  O2-  O140  1  0.48242264  0.01645464  0.38482923  1
  O2-  O141  1  0.49661447  0.02868296  0.86129936  1
  O2-  O142  1  0.47854040  0.50964432  0.38399426  1
  O2-  O143  1  0.48885906  0.52039697  0.86094885  1
  O2-  O144  1  0.28404281  0.25693974  0.13375865  1
  O2-  O145  1  0.27587742  0.25465092  0.62403393  1
  O2-  O146  1  0.24347910  0.75984696  0.11509691  1
  O2-  O147  1  0.23495524  0.75706554  0.63681477  1
  O2-  O148  1  0.75331976  0.21925127  0.13700175  1
  O2-  O149  1  0.76339465  0.22327739  0.63361825  1
  O2-  O150  1  0.73772271  0.74011113  0.12011070  1
  O2-  O151  1  0.72892548  0.74222377  0.63576137  1
  O2-  O152  1  0.23728056  0.24292075  0.38453971  1
  O2-  O153  1  0.22363497  0.23337813  0.86398948  1
  O2-  O154  1  0.24465706  0.73828360  0.36680461  1
  O2-  O155  1  0.26747419  0.74155440  0.87729601  1
  O2-  O156  1  0.73498712  0.27565872  0.36499925  1
  O2-  O157  1  0.73904236  0.27301229  0.86760922  1
  O2-  O158  1  0.76526279  0.77034618  0.36481885  1
  O2-  O159  1  0.77149701  0.76061931  0.88327373  1
  O2-  O160  1  -0.01932159  0.26183593  0.11878758  1
  O2-  O161  1  -0.01574681  0.26420467  0.61216192  1
  O2-  O162  1  0.02112936  0.75394442  0.11493732  1
  O2-  O163  1  -0.00976553  0.76835377  0.61771278  1
  O2-  O164  1  0.48034536  0.25845351  0.13485042  1
  O2-  O165  1  0.46817990  0.25772092  0.61270606  1
  O2-  O166  1  0.50717570  0.78115964  0.11340145  1
  O2-  O167  1  0.51617869  0.76367620  0.61255232  1
  O2-  O168  1  0.27772511  0.01064922  0.38845072  1
  O2-  O169  1  0.26600691  0.00878881  0.86724898  1
  O2-  O170  1  0.26674006  0.50527302  0.38772140  1
  O2-  O171  1  0.26011985  0.52054494  0.86482489  1
  O2-  O172  1  0.75917963  -0.01273107  0.37435747  1
  O2-  O173  1  0.78657766  -0.00504698  0.88803619  1
  O2-  O174  1  0.77199382  0.47819163  0.38829643  1
  O2-  O175  1  0.77111860  0.48587646  0.86755470  1
  O2-  O176  1  0.04023501  0.25606697  0.38491782  1
  O2-  O177  1  0.02481488  0.24155635  0.88143606  1
  O2-  O178  1  0.01174251  0.73286323  0.38246418  1
  O2-  O179  1  -0.01740003  0.74448663  0.88392459  1
  O2-  O180  1  0.51220246  0.23547071  0.37860626  1
  O2-  O181  1  0.52407350  0.24710869  0.88283360  1
  O2-  O182  1  0.49092252  0.72384980  0.38140074  1
  O2-  O183  1  0.49545898  0.72383354  0.88366829  1
  O2-  O184  1  0.23463416  -0.02615722  0.11749351  1
  O2-  O185  1  0.23745541  -0.00834094  0.62694381  1
  O2-  O186  1  0.23654453  0.48182390  0.11017565  1
  O2-  O187  1  0.23244561  0.49023385  0.62876712  1
  O2-  O188  1  0.71731812  0.00813640  0.13346915  1
  O2-  O189  1  0.72083534  0.01325098  0.61623331  1
  O2-  O190  1  0.72427145  0.52079290  0.11508044  1
  O2-  O191  1  0.73298779  0.51325678  0.62928748  1
  O2-  O192  1  0.13871943  0.27252496  0.22765867  1
  O2-  O193  1  0.13960002  0.27849084  0.72677736  1
  O2-  O194  1  0.13691860  0.79224594  0.24628264  1
  O2-  O195  1  0.13386165  0.76676499  0.77137694  1
  O2-  O196  1  0.61867731  0.26687329  0.24018938  1
  O2-  O197  1  0.63313514  0.27457419  0.72928058  1
  O2-  O198  1  0.63347421  0.78102739  0.24893464  1
  O2-  O199  1  0.63825140  0.75587448  0.78072625  1
  O2-  O200  1  0.37925970  0.23108145  0.26865084  1
  O2-  O201  1  0.36417446  0.23463277  0.77166854  1
  O2-  O202  1  0.36510698  0.71887118  0.23486897  1
  O2-  O203  1  0.36573532  0.72784427  0.74304296  1
  O2-  O204  1  0.86587112  0.23017975  0.26965122  1
  O2-  O205  1  0.86714944  0.23257879  0.76434952  1
  O2-  O206  1  0.86475626  0.73904691  0.23012575  1
  O2-  O207  1  0.86074727  0.70758859  0.74910282  1
  O2-  O208  1  0.27187688  0.36523875  0.27016956  1
  O2-  O209  1  0.26855290  0.38035518  0.76164877  1
  O2-  O210  1  0.29040806  0.86535462  0.25320259  1
  O2-  O211  1  0.26990174  0.87598169  0.75221031  1
  O2-  O212  1  0.76512305  0.36586732  0.21831278  1
  O2-  O213  1  0.76592123  0.38011680  0.73313162  1
  O2-  O214  1  0.76352714  0.88437776  0.23710965  1
  O2-  O215  1  0.78352633  0.86314019  0.74216400  1
  O2-  O216  1  0.22968980  0.13515529  0.25321233  1
  O2-  O217  1  0.23401119  0.12325140  0.73410219  1
  O2-  O218  1  0.22172645  0.63410351  0.23275201  1
  O2-  O219  1  0.22597913  0.62396308  0.74385162  1
  O2-  O220  1  0.72869104  0.12428318  0.27105877  1
  O2-  O221  1  0.71990805  0.13160220  0.77461027  1
  O2-  O222  1  0.72481737  0.63736711  0.26344728  1
  O2-  O223  1  0.72531956  0.61395338  0.76646517  1
  O2-  O224  1  0.11235327  0.47106308  0.27193022  1
  O2-  O225  1  0.12415219  0.48139430  0.76157120  1
  O2-  O226  1  0.11792770  0.98443594  0.29499191  1
  O2-  O227  1  0.13242936  0.98162516  0.76177369  1
  O2-  O228  1  0.61514590  0.47392019  0.27970273  1
  O2-  O229  1  0.62143572  0.47577077  0.75726309  1
  O2-  O230  1  0.62117414  0.99515423  0.27477483  1
  O2-  O231  1  0.61562281  0.96609641  0.75637541  1
  O2-  O232  1  0.38717744  0.02831126  0.23573200  1
  O2-  O233  1  0.37030217  0.01658677  0.73315910  1
  O2-  O234  1  0.38524262  0.51394778  0.23694815  1
  O2-  O235  1  0.36809187  0.51774010  0.73033620  1
  O2-  O236  1  0.86168273  0.02556905  0.23251067  1
  O2-  O237  1  0.88309080  0.02699793  0.72704007  1
  O2-  O238  1  0.88199533  0.53681600  0.24385712  1
  O2-  O239  1  0.87259932  0.51711268  0.72932769  1
  O2-  O240  1  0.48144310  0.36829481  0.26909607  1
  O2-  O241  1  0.47048450  0.38477980  0.75434947  1
  O2-  O242  1  0.48525868  0.88855623  0.27531129  1
  O2-  O243  1  0.46962385  0.88386939  0.76172564  1
  O2-  O244  1  0.96141481  0.38819377  0.25869316  1
  O2-  O245  1  0.97616562  0.38848673  0.76029474  1
  O2-  O246  1  0.97029083  0.88839273  0.25431292  1
  O2-  O247  1  0.98202903  0.88435264  0.76267430  1
  O2-  O248  1  0.01787186  0.12040800  0.24596406  1
  O2-  O249  1  0.03010528  0.11738014  0.73658986  1
  O2-  O250  1  0.02975723  0.61766098  0.25247336  1
  O2-  O251  1  0.01749189  0.61389099  0.71379403  1
  O2-  O252  1  0.51943191  0.12868960  0.24437675  1
  O2-  O253  1  0.51363593  0.11174373  0.71397324  1
  O2-  O254  1  0.52863716  0.61438175  0.24382430  1
  O2-  O255  1  0.51310424  0.61001054  0.71639991  1
  O2-  O256  1  0.13384572  0.48945005  -0.03096711  1
  O2-  O257  1  0.12517336  0.47849278  0.48812863  1
  O2-  O258  1  0.13587747  0.97459693  -0.02653376  1
  O2-  O259  1  0.13918004  0.98182340  0.48642951  1
  O2-  O260  1  0.63519043  0.48990262  -0.03357278  1
  O2-  O261  1  0.62006298  0.47470688  0.48687160  1
  O2-  O262  1  0.63861080  0.96817356  -0.01621582  1
  O2-  O263  1  0.61575040  0.97989290  0.48734910  1
  O2-  O264  1  0.36484344  0.01896841  0.00708975  1
  O2-  O265  1  0.37929531  0.01635569  0.52447496  1
  O2-  O266  1  0.36238255  0.52968139  0.00232701  1
  O2-  O267  1  0.37278761  0.50792823  0.52301031  1
  O2-  O268  1  0.86193316  0.01236373  0.04219530  1
  O2-  O269  1  0.86460679  0.02842997  0.52194250  1
  O2-  O270  1  0.86197708  0.53164011  0.00737654  1
  O2-  O271  1  0.87621237  0.51514573  0.51867869  1
  O2-  O272  1  0.46287382  0.36615695  0.00023142  1
  O2-  O273  1  0.48233421  0.37063796  0.48274687  1
  O2-  O274  1  0.48227461  0.86478101  -0.03008137  1
  O2-  O275  1  0.47859469  0.87419890  0.48383600  1
  O2-  O276  1  0.97034815  0.36999287  -0.01515903  1
  O2-  O277  1  0.98505493  0.37780838  0.48936254  1
  O2-  O278  1  0.98239259  0.86651591  -0.00389243  1
  O2-  O279  1  0.96752334  0.86682991  0.48185526  1
  O2-  O280  1  0.02603315  0.13420990  0.01219887  1
  O2-  O281  1  0.02897039  0.13497422  0.50819768  1
  O2-  O282  1  0.02970169  0.63518248  0.00099225  1
  O2-  O283  1  0.02361371  0.61620011  0.51393163  1
  O2-  O284  1  0.52324785  0.13605172  0.02122321  1
  O2-  O285  1  0.51391937  0.12212917  0.51486261  1
  O2-  O286  1  0.52322246  0.63521672  0.02152156  1
  O2-  O287  1  0.52061656  0.61388181  0.51534331  1
  O2-  O288  1  0.11786314  0.28278646  0.01839494  1
  O2-  O289  1  0.13555403  0.26660949  0.52096949  1
  O2-  O290  1  0.12942431  0.77231670  -0.01786701  1
  O2-  O291  1  0.11536150  0.77186621  0.50769700  1
  O2-  O292  1  0.61452264  0.28321386  0.02010113  1
  O2-  O293  1  0.61193626  0.26485087  0.51911619  1
  O2-  O294  1  0.62968681  0.76940061  -0.00956471  1
  O2-  O295  1  0.61718841  0.76390070  0.47820354  1
  O2-  O296  1  0.38393579  0.22113125  -0.01894391  1
  O2-  O297  1  0.37345159  0.23550702  0.48024305  1
  O2-  O298  1  0.37429736  0.72950606  0.01065035  1
  O2-  O299  1  0.38630975  0.72121749  0.50870691  1
  O2-  O300  1  0.88258135  0.22333693  -0.01764713  1
  O2-  O301  1  0.88929187  0.23231670  0.47072217  1
  O2-  O302  1  0.87401094  0.72861226  0.01704170  1
  O2-  O303  1  0.88530442  0.71059026  0.49741941  1
  O2-  O304  1  0.26769709  0.38273390  -0.03078483  1
  O2-  O305  1  0.26452644  0.37338913  0.49939255  1
  O2-  O306  1  0.27522257  0.86962119  -0.00809405  1
  O2-  O307  1  0.28119369  0.88282686  0.50004860  1
  O2-  O308  1  0.76846942  0.38720809  0.01988496  1
  O2-  O309  1  0.76308602  0.38414474  0.53017794  1
  O2-  O310  1  0.77209199  0.87034762  0.01567774  1
  O2-  O311  1  0.76442389  0.88601063  0.51442426  1
  O2-  O312  1  0.22233442  0.11293716  0.01546647  1
  O2-  O313  1  0.24087719  0.12661269  0.51375801  1
  O2-  O314  1  0.22844040  0.63131396  0.00477468  1
  O2-  O315  1  0.22963066  0.61247577  0.50934563  1
  O2-  O316  1  0.72257554  0.11389524  -0.00769293  1
  O2-  O317  1  0.72304070  0.11675527  0.47772467  1
  O2-  O318  1  0.73258922  0.63256691  -0.01469874  1
  O2-  O319  1  0.72193992  0.60969007  0.49041049  1
