# generated using pymatgen
data_Sr64Ca21Nb43O192
_symmetry_space_group_name_H-M   'P 1'
_cell_length_a   16.58923749
_cell_length_b   16.58610704
_cell_length_c   16.72045798
_cell_angle_alpha   90.04901988
_cell_angle_beta   90.01348466
_cell_angle_gamma   89.95008091
_symmetry_Int_Tables_number   1
_chemical_formula_structural   Sr64Ca21Nb43O192
_chemical_formula_sum   'Sr64 Ca21 Nb43 O192'
_cell_volume   4600.64498139
_cell_formula_units_Z   1
loop_
 _symmetry_equiv_pos_site_id
 _symmetry_equiv_pos_as_xyz
  1  'x, y, z'
loop_
 _atom_type_symbol
 _atom_type_oxidation_number
  Sr2+  2.0
  Ca2+  2.0
  Nb5+  5.0
  O2-  -2.0
loop_
 _atom_site_type_symbol
 _atom_site_label
 _atom_site_symmetry_multiplicity
 _atom_site_fract_x
 _atom_site_fract_y
 _atom_site_fract_z
 _atom_site_occupancy
  Sr2+  Sr0  1  0.12179113  0.11964722  0.12386487  1
  Sr2+  Sr1  1  0.12363537  0.10952261  0.63132428  1
  Sr2+  Sr2  1  0.12217708  0.61588911  0.12353261  1
  Sr2+  Sr3  1  0.12028452  0.62344844  0.62503668  1
  Sr2+  Sr4  1  0.61817213  0.11409396  0.12158550  1
  Sr2+  Sr5  1  0.61503875  0.11511452  0.62410111  1
  Sr2+  Sr6  1  0.62636164  0.63802257  0.12743888  1
  Sr2+  Sr7  1  0.62029808  0.61534497  0.62179027  1
  Sr2+  Sr8  1  0.37168886  0.37022022  0.12834571  1
  Sr2+  Sr9  1  0.37940725  0.37623194  0.62273041  1
  Sr2+  Sr10  1  0.38640435  0.86637547  0.11879986  1
  Sr2+  Sr11  1  0.36940266  0.87194684  0.62639672  1
  Sr2+  Sr12  1  0.87507823  0.36966584  0.11869333  1
  Sr2+  Sr13  1  0.86535834  0.36570142  0.62135337  1
  Sr2+  Sr14  1  0.86045231  0.86173914  0.12724953  1
  Sr2+  Sr15  1  0.87031742  0.86466263  0.62632572  1
  Sr2+  Sr16  1  0.13064851  0.37939481  0.37185365  1
  Sr2+  Sr17  1  0.12184753  0.37803896  0.87819355  1
  Sr2+  Sr18  1  0.11121128  0.87266768  0.38340004  1
  Sr2+  Sr19  1  0.13302581  0.88020820  0.86984001  1
  Sr2+  Sr20  1  0.62917575  0.38490675  0.37591073  1
  Sr2+  Sr21  1  0.64122890  0.38182450  0.86966050  1
  Sr2+  Sr22  1  0.63750515  0.88044440  0.37849399  1
  Sr2+  Sr23  1  0.63557298  0.88599122  0.87301568  1
  Sr2+  Sr24  1  0.37248228  0.13128000  0.37457214  1
  Sr2+  Sr25  1  0.37578871  0.13045650  0.87026293  1
  Sr2+  Sr26  1  0.36951642  0.62852616  0.37527578  1
  Sr2+  Sr27  1  0.37128157  0.62885654  0.87214897  1
  Sr2+  Sr28  1  0.89300580  0.12921196  0.37746961  1
  Sr2+  Sr29  1  0.88607163  0.13873890  0.87239097  1
  Sr2+  Sr30  1  0.88456110  0.63851759  0.36620376  1
  Sr2+  Sr31  1  0.88084041  0.62621559  0.88962435  1
  Sr2+  Sr32  1  0.12306734  0.11104146  0.36826608  1
  Sr2+  Sr33  1  0.13479797  0.12067711  0.87353536  1
  Sr2+  Sr34  1  0.12974061  0.63511087  0.37269995  1
  Sr2+  Sr35  1  0.11881773  0.63935069  0.88099409  1
  Sr2+  Sr36  1  0.63386029  0.12859284  0.36363571  1
  Sr2+  Sr37  1  0.62670970  0.13307347  0.86963849  1
  Sr2+  Sr38  1  0.62398660  0.63738083  0.37522821  1
  Sr2+  Sr39  1  0.63471146  0.63655912  0.87253041  1
  Sr2+  Sr40  1  0.37382779  0.38573847  0.37492088  1
  Sr2+  Sr41  1  0.37532535  0.37823462  0.86949084  1
  Sr2+  Sr42  1  0.37113829  0.87265457  0.37948047  1
  Sr2+  Sr43  1  0.37809429  0.88182931  0.87488366  1
  Sr2+  Sr44  1  0.88513919  0.37959840  0.38070375  1
  Sr2+  Sr45  1  0.88166409  0.39263588  0.86937625  1
  Sr2+  Sr46  1  0.87795665  0.89111818  0.37585573  1
  Sr2+  Sr47  1  0.88195793  0.88405813  0.87437485  1
  Sr2+  Sr48  1  0.12572376  0.36902487  0.12398606  1
  Sr2+  Sr49  1  0.11651145  0.36983131  0.61724268  1
  Sr2+  Sr50  1  0.11991366  0.86738007  0.12081277  1
  Sr2+  Sr51  1  0.11356214  0.86599045  0.62938192  1
  Sr2+  Sr52  1  0.62457717  0.36508164  0.12612803  1
  Sr2+  Sr53  1  0.62506696  0.37070330  0.62017116  1
  Sr2+  Sr54  1  0.62645497  0.87909447  0.11330697  1
  Sr2+  Sr55  1  0.62375971  0.86350059  0.62890458  1
  Sr2+  Sr56  1  0.38182611  0.12309434  0.12535533  1
  Sr2+  Sr57  1  0.37035983  0.12484443  0.63123047  1
  Sr2+  Sr58  1  0.37038835  0.61677907  0.12615929  1
  Sr2+  Sr59  1  0.37906872  0.61989013  0.62503381  1
  Sr2+  Sr60  1  0.85811856  0.11765007  0.12988692  1
  Sr2+  Sr61  1  0.86377437  0.11784316  0.62049587  1
  Sr2+  Sr62  1  0.86129420  0.61140817  0.12763029  1
  Sr2+  Sr63  1  0.85298711  0.62325234  0.62479496  1
  Ca2+  Ca64  1  0.50088776  -0.00017029  0.49909971  1
  Ca2+  Ca65  1  0.00085335  0.00255574  -0.00067093  1
  Ca2+  Ca66  1  0.00000146  0.00280546  0.50288734  1
  Ca2+  Ca67  1  -0.00304871  0.50281881  0.49683046  1
  Ca2+  Ca68  1  0.49942164  0.49756438  0.00131509  1
  Ca2+  Ca69  1  0.75153167  0.25033303  0.00040097  1
  Ca2+  Ca70  1  0.75088212  0.74976157  -0.00061217  1
  Ca2+  Ca71  1  0.25116038  0.74996347  0.00111679  1
  Ca2+  Ca72  1  0.74907865  0.24884058  0.49692842  1
  Ca2+  Ca73  1  0.24888927  0.25092784  0.49979943  1
  Ca2+  Ca74  1  0.74602030  0.49628300  0.25373652  1
  Ca2+  Ca75  1  0.74713063  0.00079608  0.24905257  1
  Ca2+  Ca76  1  0.00342260  0.25223193  0.75200119  1
  Ca2+  Ca77  1  0.49954908  0.75019913  0.25023426  1
  Ca2+  Ca78  1  0.00119773  0.74963863  0.24667950  1
  Ca2+  Ca79  1  0.74910155  0.00167716  0.74829596  1
  Ca2+  Ca80  1  0.75073406  0.50154568  0.75048238  1
  Ca2+  Ca81  1  0.24515900  0.49835835  0.74944346  1
  Ca2+  Ca82  1  0.50066796  0.75025829  0.75120945  1
  Ca2+  Ca83  1  -0.00181821  0.74791752  0.74969464  1
  Ca2+  Ca84  1  0.25022875  -0.00225972  0.24685752  1
  Nb5+  Nb85  1  0.49912743  0.49900417  0.49966253  1
  Nb5+  Nb86  1  0.49777370  0.00048458  -0.00296439  1
  Nb5+  Nb87  1  0.00289817  0.49963936  0.00167570  1
  Nb5+  Nb88  1  0.25267681  0.25049400  0.00009656  1
  Nb5+  Nb89  1  0.74371665  0.75081329  0.49769305  1
  Nb5+  Nb90  1  0.24586489  0.74947725  0.50035848  1
  Nb5+  Nb91  1  0.50112620  0.25136744  0.74470013  1
  Nb5+  Nb92  1  0.00891596  0.25356692  0.25041578  1
  Nb5+  Nb93  1  0.24832893  0.49971033  0.25031732  1
  Nb5+  Nb94  1  0.50419106  0.25182980  0.24856710  1
  Nb5+  Nb95  1  0.25309171  -0.00120204  0.74837940  1
  Nb5+  Nb96  1  -0.00342133  -0.00278191  0.23992085  1
  Nb5+  Nb97  1  -0.00586523  0.00457719  0.75198913  1
  Nb5+  Nb98  1  -0.00113890  0.49953798  0.25096087  1
  Nb5+  Nb99  1  -0.00264631  0.50327612  0.74027804  1
  Nb5+  Nb100  1  0.49663052  -0.00393214  0.25463312  1
  Nb5+  Nb101  1  0.49799603  -0.00085810  0.74752539  1
  Nb5+  Nb102  1  0.49947415  0.49826387  0.24880161  1
  Nb5+  Nb103  1  0.50274360  0.50028170  0.75544305  1
  Nb5+  Nb104  1  0.25476458  0.24875292  0.25020780  1
  Nb5+  Nb105  1  0.25012541  0.25173660  0.74838674  1
  Nb5+  Nb106  1  0.25212247  0.75318949  0.24662807  1
  Nb5+  Nb107  1  0.25207441  0.74690188  0.75426655  1
  Nb5+  Nb108  1  0.76310224  0.24987877  0.25243303  1
  Nb5+  Nb109  1  0.75540209  0.24591196  0.74930895  1
  Nb5+  Nb110  1  0.74675358  0.74999488  0.25076879  1
  Nb5+  Nb111  1  0.75331952  0.74940037  0.75501256  1
  Nb5+  Nb112  1  0.00523525  0.24884929  0.50690527  1
  Nb5+  Nb113  1  0.00093777  0.24930027  1.00290241  1
  Nb5+  Nb114  1  -0.01001625  0.74801293  0.50012279  1
  Nb5+  Nb115  1  -0.00266314  0.75604114  1.00473773  1
  Nb5+  Nb116  1  0.49962052  0.24881870  0.49096115  1
  Nb5+  Nb117  1  0.49726881  0.25345343  0.99345116  1
  Nb5+  Nb118  1  0.49202735  0.74929312  0.50184300  1
  Nb5+  Nb119  1  0.50237698  0.74420634  0.99707842  1
  Nb5+  Nb120  1  0.25528062  -0.00125129  0.00317351  1
  Nb5+  Nb121  1  0.24678136  -0.00020147  0.49481152  1
  Nb5+  Nb122  1  0.24979469  0.49955751  -0.00314178  1
  Nb5+  Nb123  1  0.24972685  0.50159284  0.50410893  1
  Nb5+  Nb124  1  0.75616503  0.00481611  -0.00671251  1
  Nb5+  Nb125  1  0.74649143  0.00359297  0.50167056  1
  Nb5+  Nb126  1  0.74279163  0.49427268  0.00477989  1
  Nb5+  Nb127  1  0.75351614  0.50133113  0.49314793  1
  O2-  O128  1  -0.01819696  0.03628557  0.12976403  1
  O2-  O129  1  -0.01002471  0.03393299  0.63569859  1
  O2-  O130  1  -0.00428415  0.51237762  0.12700930  1
  O2-  O131  1  -0.02154854  0.52729213  0.63045007  1
  O2-  O132  1  0.47593955  0.00414729  0.11539805  1
  O2-  O133  1  0.47824518  0.02053663  0.63445076  1
  O2-  O134  1  0.47178540  0.49695446  0.13726279  1
  O2-  O135  1  0.48278001  0.50296200  0.62155430  1
  O2-  O136  1  0.02035684  -0.00864205  0.35937695  1
  O2-  O137  1  0.02003848  -0.02553308  0.86597616  1
  O2-  O138  1  0.01391251  0.47146746  0.36269638  1
  O2-  O139  1  0.01559407  0.48392752  0.88577878  1
  O2-  O140  1  0.52606484  -0.00534681  0.36422968  1
  O2-  O141  1  0.51232144  0.00143566  0.87366003  1
  O2-  O142  1  0.50497149  0.48785055  0.37787326  1
  O2-  O143  1  0.51075061  0.47625093  0.86699678  1
  O2-  O144  1  0.23649228  0.24724730  0.12564740  1
  O2-  O145  1  0.22753813  0.24066150  0.63700943  1
  O2-  O146  1  0.22439439  0.74292056  0.13579494  1
  O2-  O147  1  0.22998077  0.73775366  0.61838138  1
  O2-  O148  1  0.74342155  0.28055044  0.13842279  1
  O2-  O149  1  0.73827360  0.27479310  0.63408088  1
  O2-  O150  1  0.72826872  0.76974470  0.13625872  1
  O2-  O151  1  0.73963205  0.76900584  0.61535000  1
  O2-  O152  1  0.27459124  0.25984348  0.36448584  1
  O2-  O153  1  0.27654773  0.25669871  0.88371823  1
  O2-  O154  1  0.27431559  0.75372983  0.38121246  1
  O2-  O155  1  0.27687001  0.76341867  0.86550318  1
  O2-  O156  1  0.76394159  0.21237576  0.36555465  1
  O2-  O157  1  0.75641173  0.21987117  0.86700846  1
  O2-  O158  1  0.76357173  0.72485127  0.38179087  1
  O2-  O159  1  0.76608616  0.72120881  0.86590756  1
  O2-  O160  1  0.02870449  0.24461102  0.12626433  1
  O2-  O161  1  0.03154878  0.23513438  0.61784962  1
  O2-  O162  1  0.03601503  0.73843431  0.11573465  1
  O2-  O163  1  0.02342919  0.73485874  0.61223957  1
  O2-  O164  1  0.51493190  0.24885508  0.13140220  1
  O2-  O165  1  0.51867139  0.24638964  0.63012558  1
  O2-  O166  1  0.52736395  0.76311781  0.11496913  1
  O2-  O167  1  0.52367378  0.73570088  0.61485467  1
  O2-  O168  1  0.22102686  -0.01953260  0.38355414  1
  O2-  O169  1  0.23939214  -0.00518988  0.87182576  1
  O2-  O170  1  0.23978544  0.49129040  0.37347838  1
  O2-  O171  1  0.23939734  0.47613161  0.88550546  1
  O2-  O172  1  0.71951451  0.00716708  0.38415830  1
  O2-  O173  1  0.71620388  0.01565028  0.88270447  1
  O2-  O174  1  0.70802210  0.51486159  0.38615249  1
  O2-  O175  1  0.73103959  0.51977357  0.88708999  1
  O2-  O176  1  -0.01470467  0.26835517  0.36416690  1
  O2-  O177  1  -0.01810596  0.27218683  0.88995967  1
  O2-  O178  1  -0.01834554  0.77250998  0.38182524  1
  O2-  O179  1  -0.02688575  0.75074319  0.88632453  1
  O2-  O180  1  0.47374286  0.25296945  0.37638945  1
  O2-  O181  1  0.47810135  0.25212294  0.87876367  1
  O2-  O182  1  0.47909379  0.74321646  0.38593012  1
  O2-  O183  1  0.46536292  0.74920760  0.88435754  1
  O2-  O184  1  0.27510979  0.01794270  0.11343365  1
  O2-  O185  1  0.27349511  0.00887908  0.62929350  1
  O2-  O186  1  0.26414506  0.50456919  0.13004878  1
  O2-  O187  1  0.26280097  0.52453397  0.61619456  1
  O2-  O188  1  0.76503131  -0.02105718  0.11195504  1
  O2-  O189  1  0.77945721  -0.01760180  0.61515722  1
  O2-  O190  1  0.77080225  0.47778980  0.12012118  1
  O2-  O191  1  0.76608641  0.49050866  0.61206750  1
  O2-  O192  1  0.12650716  0.27393412  0.26211953  1
  O2-  O193  1  0.14076144  0.26237712  0.78371648  1
  O2-  O194  1  0.13891943  0.76447953  0.28173708  1
  O2-  O195  1  0.13768732  0.77743503  0.75860007  1
  O2-  O196  1  0.61569048  0.27014230  0.27137567  1
  O2-  O197  1  0.61332326  0.26817160  0.77242125  1
  O2-  O198  1  0.63182166  0.76370032  0.28206994  1
  O2-  O199  1  0.63539768  0.77770516  0.76245057  1
  O2-  O200  1  0.37147236  0.23421153  0.23041439  1
  O2-  O201  1  0.37680300  0.22794840  0.74151899  1
  O2-  O202  1  0.36425997  0.71419672  0.23998040  1
  O2-  O203  1  0.36442462  0.73870211  0.71738733  1
  O2-  O204  1  0.87900160  0.23695133  0.23216336  1
  O2-  O205  1  0.86765425  0.22153203  0.73445567  1
  O2-  O206  1  0.86516748  0.72638045  0.23553352  1
  O2-  O207  1  0.86616276  0.73491912  0.72010358  1
  O2-  O208  1  0.26451723  0.37543640  0.24377393  1
  O2-  O209  1  0.27875824  0.36373776  0.74350549  1
  O2-  O210  1  0.28154879  0.86421013  0.24142770  1
  O2-  O211  1  0.27058903  0.88123602  0.74314653  1
  O2-  O212  1  0.76317110  0.36196421  0.28883852  1
  O2-  O213  1  0.76308363  0.36346107  0.77497313  1
  O2-  O214  1  0.76897994  0.86561805  0.27425377  1
  O2-  O215  1  0.77500255  0.86733863  0.76768341  1
  O2-  O216  1  0.22786971  0.13640439  0.25822906  1
  O2-  O217  1  0.24388008  0.12437115  0.75948282  1
  O2-  O218  1  0.23112930  0.61695701  0.25676631  1
  O2-  O219  1  0.23435990  0.63435727  0.77171116  1
  O2-  O220  1  0.72444837  0.13840940  0.22614029  1
  O2-  O221  1  0.71586226  0.13510213  0.72834902  1
  O2-  O222  1  0.72662817  0.63058423  0.23749552  1
  O2-  O223  1  0.72538272  0.63531224  0.72556988  1
  O2-  O224  1  0.13094955  0.47823776  0.23704076  1
  O2-  O225  1  0.11258982  0.46503701  0.73377646  1
  O2-  O226  1  0.11619376  0.99037459  0.21687106  1
  O2-  O227  1  0.13592360  0.98949626  0.73333854  1
  O2-  O228  1  0.60878908  0.46318051  0.23845479  1
  O2-  O229  1  0.61416889  0.46877322  0.73129117  1
  O2-  O230  1  0.60854577  0.99116352  0.21604931  1
  O2-  O231  1  0.61162745  0.98238881  0.73077697  1
  O2-  O232  1  0.38430728  0.03353264  0.26392639  1
  O2-  O233  1  0.37383171  0.01882381  0.76873952  1
  O2-  O234  1  0.37071190  0.51085920  0.26948177  1
  O2-  O235  1  0.38422378  0.52030497  0.76030491  1
  O2-  O236  1  0.88266112  0.02564197  0.26664891  1
  O2-  O237  1  0.88286555  0.02268741  0.77457208  1
  O2-  O238  1  0.88501154  0.51610322  0.26289931  1
  O2-  O239  1  0.88645459  0.52482487  0.77954072  1
  O2-  O240  1  0.47024818  0.36765286  0.25328747  1
  O2-  O241  1  0.47242328  0.36734072  0.74348352  1
  O2-  O242  1  0.46757823  0.88488963  0.24906530  1
  O2-  O243  1  0.47290539  0.88621215  0.74501356  1
  O2-  O244  1  0.98719694  0.37375358  0.22675325  1
  O2-  O245  1  0.96814614  0.38457510  0.73394436  1
  O2-  O246  1  0.97851439  0.88502631  0.22188463  1
  O2-  O247  1  0.98859612  0.88740005  0.72444127  1
  O2-  O248  1  0.02006868  0.13720072  0.26050407  1
  O2-  O249  1  0.02639308  0.11826502  0.77508080  1
  O2-  O250  1  0.02568881  0.61240611  0.26265656  1
  O2-  O251  1  0.03658300  0.61416989  0.76262704  1
  O2-  O252  1  0.51365530  0.13349934  0.25636979  1
  O2-  O253  1  0.51159013  0.12984651  0.76002791  1
  O2-  O254  1  0.52268562  0.61079185  0.25302256  1
  O2-  O255  1  0.52741010  0.61333122  0.76048700  1
  O2-  O256  1  0.12798285  0.47930520  0.01946907  1
  O2-  O257  1  0.13442199  0.48807763  0.51476542  1
  O2-  O258  1  0.13976094  0.98325803  0.01397014  1
  O2-  O259  1  0.13667163  0.97997237  0.53241642  1
  O2-  O260  1  0.63205116  0.46697716  0.01804254  1
  O2-  O261  1  0.61575822  0.48331265  0.51822837  1
  O2-  O262  1  0.61415500  0.99034100  0.01320339  1
  O2-  O263  1  0.63366528  0.96955737  0.52546460  1
  O2-  O264  1  0.37630026  0.02165740  -0.02552792  1
  O2-  O265  1  0.36462667  0.00672385  0.47424025  1
  O2-  O266  1  0.36393246  0.52562114  -0.01099351  1
  O2-  O267  1  0.37621604  0.52022399  0.48688704  1
  O2-  O268  1  0.86702747  0.02455114  -0.03097668  1
  O2-  O269  1  0.86462397  0.01326819  0.47371891  1
  O2-  O270  1  0.88548897  0.51259234  -0.00635493  1
  O2-  O271  1  0.86234812  0.52595667  0.46621426  1
  O2-  O272  1  0.46750554  0.36340976  0.00922768  1
  O2-  O273  1  0.47488153  0.37816100  0.50379481  1
  O2-  O274  1  0.47982664  0.88358935  -0.00425685  1
  O2-  O275  1  0.47775310  0.86350376  0.50862534  1
  O2-  O276  1  0.99546935  0.37578879  0.02133687  1
  O2-  O277  1  0.97587603  0.36739237  0.51610172  1
  O2-  O278  1  0.97333727  0.86807364  0.02141281  1
  O2-  O279  1  0.99313410  0.86687997  0.51546283  1
  O2-  O280  1  0.03224320  0.13896363  -0.01434462  1
  O2-  O281  1  0.02186561  0.13684933  0.47156614  1
  O2-  O282  1  0.02266528  0.61683596  -0.00612191  1
  O2-  O283  1  0.01622867  0.63590148  0.47127757  1
  O2-  O284  1  0.50919331  0.12872746  -0.00040800  1
  O2-  O285  1  0.52813755  0.13685270  0.48911530  1
  O2-  O286  1  0.52931162  0.63159123  -0.00286507  1
  O2-  O287  1  0.51478757  0.61854469  0.49396029  1
  O2-  O288  1  0.13531169  0.27236756  -0.01101984  1
  O2-  O289  1  0.11741712  0.28267265  0.48092805  1
  O2-  O290  1  0.11541926  0.77196646  -0.02698506  1
  O2-  O291  1  0.13189839  0.76115736  0.48168677  1
  O2-  O292  1  0.61142680  0.27115473  -0.01135846  1
  O2-  O293  1  0.61172777  0.28373148  0.48783728  1
  O2-  O294  1  0.61557631  0.77314068  -0.02991289  1
  O2-  O295  1  0.62577317  0.76273402  0.48210212  1
  O2-  O296  1  0.37253662  0.23096217  0.02169565  1
  O2-  O297  1  0.38702179  0.23312039  0.52606997  1
  O2-  O298  1  0.38607339  0.73346806  0.03225787  1
  O2-  O299  1  0.37603828  0.72880811  0.51974032  1
  O2-  O300  1  0.89010673  0.22946881  0.02720058  1
  O2-  O301  1  0.88610866  0.22771572  0.51544501  1
  O2-  O302  1  0.88530956  0.72197867  0.02859022  1
  O2-  O303  1  0.87423594  0.73236490  0.51542005  1
  O2-  O304  1  0.26989689  0.37293718  0.01427475  1
  O2-  O305  1  0.27373503  0.38782931  0.50981777  1
  O2-  O306  1  0.27948993  0.88591352  0.00534057  1
  O2-  O307  1  0.26987482  0.86697434  0.50878969  1
  O2-  O308  1  0.77787507  0.38306620  -0.02279499  1
  O2-  O309  1  0.76829826  0.38595145  0.48178223  1
  O2-  O310  1  0.76378606  0.88418792  -0.02354567  1
  O2-  O311  1  0.76627694  0.86585869  0.47864371  1
  O2-  O312  1  0.23610478  0.13061333  -0.00766979  1
  O2-  O313  1  0.23317212  0.11451994  0.48851847  1
  O2-  O314  1  0.22364960  0.61359252  -0.00578353  1
  O2-  O315  1  0.24011241  0.62675881  0.48276057  1
  O2-  O316  1  0.73171610  0.11720006  0.02515397  1
  O2-  O317  1  0.72704282  0.11538555  0.52285124  1
  O2-  O318  1  0.73727565  0.61301221  0.02682370  1
  O2-  O319  1  0.73136084  0.62816616  0.51762098  1
