# generated using pymatgen
data_Sr64Ca21Nb43O192
_symmetry_space_group_name_H-M   'P 1'
_cell_length_a   16.53280840
_cell_length_b   16.55213545
_cell_length_c   16.68106787
_cell_angle_alpha   89.99156263
_cell_angle_beta   90.00942067
_cell_angle_gamma   90.01188608
_symmetry_Int_Tables_number   1
_chemical_formula_structural   Sr64Ca21Nb43O192
_chemical_formula_sum   'Sr64 Ca21 Nb43 O192'
_cell_volume   4564.82879286
_cell_formula_units_Z   1
loop_
 _symmetry_equiv_pos_site_id
 _symmetry_equiv_pos_as_xyz
  1  'x, y, z'
loop_
 _atom_type_symbol
 _atom_type_oxidation_number
  Sr2+  2.0
  Ca2+  2.0
  Nb5+  5.0
  O2-  -2.0
loop_
 _atom_site_type_symbol
 _atom_site_label
 _atom_site_symmetry_multiplicity
 _atom_site_fract_x
 _atom_site_fract_y
 _atom_site_fract_z
 _atom_site_occupancy
  Sr2+  Sr0  1  0.12598940  0.12753767  0.12482962  1
  Sr2+  Sr1  1  0.12782802  0.12322477  0.63036127  1
  Sr2+  Sr2  1  0.12901401  0.60358999  0.12164442  1
  Sr2+  Sr3  1  0.12027398  0.62527160  0.61914952  1
  Sr2+  Sr4  1  0.62579233  0.12483264  0.12290437  1
  Sr2+  Sr5  1  0.61993433  0.12681255  0.62765128  1
  Sr2+  Sr6  1  0.62549975  0.61709457  0.12960442  1
  Sr2+  Sr7  1  0.62674197  0.63589625  0.62132106  1
  Sr2+  Sr8  1  0.37596783  0.40100559  0.12410811  1
  Sr2+  Sr9  1  0.38325886  0.37065559  0.62350069  1
  Sr2+  Sr10  1  0.37747218  0.87619336  0.12701984  1
  Sr2+  Sr11  1  0.37004559  0.86773099  0.62514798  1
  Sr2+  Sr12  1  0.87388462  0.37025604  0.13221441  1
  Sr2+  Sr13  1  0.87585054  0.39150215  0.62580197  1
  Sr2+  Sr14  1  0.87208917  0.87332334  0.12213916  1
  Sr2+  Sr15  1  0.86749388  0.88773642  0.62228664  1
  Sr2+  Sr16  1  0.11858029  0.37630152  0.37491569  1
  Sr2+  Sr17  1  0.11407158  0.37581876  0.87769723  1
  Sr2+  Sr18  1  0.12373621  0.87281260  0.36716245  1
  Sr2+  Sr19  1  0.10697390  0.87582408  0.87334893  1
  Sr2+  Sr20  1  0.60426952  0.38047868  0.38014035  1
  Sr2+  Sr21  1  0.60317850  0.37934736  0.87254958  1
  Sr2+  Sr22  1  0.62712707  0.87191167  0.37477503  1
  Sr2+  Sr23  1  0.62129517  0.87087931  0.87612103  1
  Sr2+  Sr24  1  0.37198916  0.12436782  0.37159821  1
  Sr2+  Sr25  1  0.36998476  0.12639825  0.87751745  1
  Sr2+  Sr26  1  0.36821554  0.61654620  0.37564479  1
  Sr2+  Sr27  1  0.35928378  0.61657685  0.87544868  1
  Sr2+  Sr28  1  0.86876275  0.12791472  0.37731746  1
  Sr2+  Sr29  1  0.85951959  0.12757979  0.87268787  1
  Sr2+  Sr30  1  0.86548129  0.62128510  0.37461790  1
  Sr2+  Sr31  1  0.86762541  0.62629622  0.87854758  1
  Sr2+  Sr32  1  0.12854398  0.13056682  0.36651442  1
  Sr2+  Sr33  1  0.12520783  0.13166778  0.87746134  1
  Sr2+  Sr34  1  0.12617854  0.62571292  0.37811306  1
  Sr2+  Sr35  1  0.12668813  0.60984800  0.88049022  1
  Sr2+  Sr36  1  0.62105174  0.13380563  0.37256125  1
  Sr2+  Sr37  1  0.61621087  0.12825651  0.87681407  1
  Sr2+  Sr38  1  0.62852294  0.63152333  0.37288208  1
  Sr2+  Sr39  1  0.63588687  0.62588211  0.87474223  1
  Sr2+  Sr40  1  0.38283428  0.37197096  0.37354130  1
  Sr2+  Sr41  1  0.37308632  0.37745567  0.87470142  1
  Sr2+  Sr42  1  0.37533807  0.86478075  0.37330305  1
  Sr2+  Sr43  1  0.37503923  0.87057162  0.87374825  1
  Sr2+  Sr44  1  0.87784636  0.36793864  0.37774338  1
  Sr2+  Sr45  1  0.87291867  0.37676870  0.86259064  1
  Sr2+  Sr46  1  0.87114466  0.88046832  0.37423294  1
  Sr2+  Sr47  1  0.87230423  0.86552825  0.88126510  1
  Sr2+  Sr48  1  0.12520398  0.37139819  0.12686115  1
  Sr2+  Sr49  1  0.11250681  0.37744405  0.62044227  1
  Sr2+  Sr50  1  0.10539220  0.88003241  0.12584624  1
  Sr2+  Sr51  1  0.12835665  0.87868252  0.62917681  1
  Sr2+  Sr52  1  0.62139454  0.38746590  0.13186998  1
  Sr2+  Sr53  1  0.60660332  0.37253113  0.62804036  1
  Sr2+  Sr54  1  0.61142293  0.87158931  0.12484258  1
  Sr2+  Sr55  1  0.61567114  0.87578579  0.62047770  1
  Sr2+  Sr56  1  0.36774692  0.11555398  0.12447018  1
  Sr2+  Sr57  1  0.36850303  0.11821522  0.62282523  1
  Sr2+  Sr58  1  0.37188824  0.62486119  0.12142684  1
  Sr2+  Sr59  1  0.35531590  0.62760928  0.62627537  1
  Sr2+  Sr60  1  0.85872684  0.12683778  0.12746263  1
  Sr2+  Sr61  1  0.85734103  0.12563714  0.62131045  1
  Sr2+  Sr62  1  0.85854497  0.62572560  0.13027455  1
  Sr2+  Sr63  1  0.86951251  0.62547758  0.62492789  1
  Ca2+  Ca64  1  0.49922853  0.00073336  0.49943380  1
  Ca2+  Ca65  1  -0.00783653  0.49759267  0.00142144  1
  Ca2+  Ca66  1  0.50147502  0.50474123  -0.00295212  1
  Ca2+  Ca67  1  0.00382545  0.00041883  0.50059164  1
  Ca2+  Ca68  1  0.49636188  0.50387153  0.50332753  1
  Ca2+  Ca69  1  0.74726370  0.25450617  0.50263747  1
  Ca2+  Ca70  1  0.24871688  0.24751072  0.50066692  1
  Ca2+  Ca71  1  0.74875879  0.25374046  -0.00462188  1
  Ca2+  Ca72  1  0.25402308  0.24987388  0.00221049  1
  Ca2+  Ca73  1  0.24805555  0.75157743  0.00322085  1
  Ca2+  Ca74  1  0.49748675  0.25159129  0.24077206  1
  Ca2+  Ca75  1  0.74866574  0.49734824  0.25465779  1
  Ca2+  Ca76  1  0.49842856  0.75039497  0.25220338  1
  Ca2+  Ca77  1  0.74924681  -0.00132339  0.24847038  1
  Ca2+  Ca78  1  0.24719963  0.49549608  0.74609853  1
  Ca2+  Ca79  1  -0.00229052  0.75023949  0.74901406  1
  Ca2+  Ca80  1  0.24815661  0.49849725  0.25364992  1
  Ca2+  Ca81  1  0.74918735  -0.00368160  0.75315915  1
  Ca2+  Ca82  1  0.50068442  0.75005404  0.74896254  1
  Ca2+  Ca83  1  0.00084071  0.74722113  0.24882730  1
  Ca2+  Ca84  1  0.74434672  0.50038637  0.74809502  1
  Nb5+  Nb85  1  -0.00051397  0.50055826  0.49736121  1
  Nb5+  Nb86  1  -0.00619585  0.00735161  -0.00048704  1
  Nb5+  Nb87  1  0.49348228  0.00042826  -0.00032077  1
  Nb5+  Nb88  1  0.74789143  0.75088646  0.00281008  1
  Nb5+  Nb89  1  0.74834846  0.75360575  0.50073348  1
  Nb5+  Nb90  1  0.23902791  0.75527625  0.49948749  1
  Nb5+  Nb91  1  -0.00614788  0.24567300  0.74992467  1
  Nb5+  Nb92  1  0.48802018  0.24512154  0.75153622  1
  Nb5+  Nb93  1  0.25002443  -0.00013893  0.75020271  1
  Nb5+  Nb94  1  -0.00023910  0.24866562  0.25270979  1
  Nb5+  Nb95  1  0.24981119  -0.00275892  0.24507319  1
  Nb5+  Nb96  1  -0.00220526  0.00460381  0.25060704  1
  Nb5+  Nb97  1  -0.00149984  0.00452665  0.75044877  1
  Nb5+  Nb98  1  0.00241894  0.50095856  0.24846337  1
  Nb5+  Nb99  1  0.00384145  0.50407483  0.75044686  1
  Nb5+  Nb100  1  0.50213233  0.00061950  0.25223063  1
  Nb5+  Nb101  1  0.49829866  -0.00129986  0.74988173  1
  Nb5+  Nb102  1  0.49791849  0.50328131  0.25202972  1
  Nb5+  Nb103  1  0.49897919  0.50781451  0.74890141  1
  Nb5+  Nb104  1  0.25408534  0.25013770  0.24886678  1
  Nb5+  Nb105  1  0.24526588  0.25140546  0.74994454  1
  Nb5+  Nb106  1  0.24942105  0.74837454  0.24712960  1
  Nb5+  Nb107  1  0.24599334  0.74917927  0.75381116  1
  Nb5+  Nb108  1  0.74442894  0.25458339  0.25290481  1
  Nb5+  Nb109  1  0.73834061  0.25096684  0.75218465  1
  Nb5+  Nb110  1  0.75168978  0.75265743  0.25051479  1
  Nb5+  Nb111  1  0.75188354  0.75269720  0.74939851  1
  Nb5+  Nb112  1  0.00461784  0.24442032  0.50394847  1
  Nb5+  Nb113  1  -0.00302979  0.24999854  1.00217660  1
  Nb5+  Nb114  1  -0.00746369  0.75180927  0.49891484  1
  Nb5+  Nb115  1  0.00311805  0.74639485  1.00150276  1
  Nb5+  Nb116  1  0.49887655  0.24561726  0.49657042  1
  Nb5+  Nb117  1  0.50219362  0.25236494  1.00306377  1
  Nb5+  Nb118  1  0.49259328  0.74797811  0.49954754  1
  Nb5+  Nb119  1  0.49945672  0.74555558  0.99718015  1
  Nb5+  Nb120  1  0.24469022  -0.00635580  -0.00391283  1
  Nb5+  Nb121  1  0.24577433  -0.00000375  0.49232014  1
  Nb5+  Nb122  1  0.24820253  0.49625097  -0.00028349  1
  Nb5+  Nb123  1  0.25138666  0.49749950  0.50182121  1
  Nb5+  Nb124  1  0.74279936  -0.00179747  -0.00162210  1
  Nb5+  Nb125  1  0.74621771  0.00366196  0.49769187  1
  Nb5+  Nb126  1  0.75395916  0.49425247  -0.00047588  1
  Nb5+  Nb127  1  0.74649068  0.49788228  0.50138530  1
  O2-  O128  1  0.00884828  0.00635158  0.12097995  1
  O2-  O129  1  0.01998153  0.00013355  0.63718066  1
  O2-  O130  1  0.00052094  0.48520649  0.13426971  1
  O2-  O131  1  0.00396566  0.50064688  0.62127130  1
  O2-  O132  1  0.49673670  -0.00747046  0.11921586  1
  O2-  O133  1  0.49858987  0.01369021  0.63571694  1
  O2-  O134  1  0.50676083  0.50155480  0.13075569  1
  O2-  O135  1  0.49336600  0.48004320  0.63468909  1
  O2-  O136  1  0.01092658  0.00433320  0.36482580  1
  O2-  O137  1  0.00828268  0.01169321  0.87865906  1
  O2-  O138  1  0.00204205  0.48966423  0.37724990  1
  O2-  O139  1  0.00091222  0.49239298  0.86649749  1
  O2-  O140  1  0.49718488  0.01900482  0.36522646  1
  O2-  O141  1  0.49581432  0.00430476  0.87761099  1
  O2-  O142  1  0.48479351  0.48999507  0.37038691  1
  O2-  O143  1  0.48589589  0.48643165  0.86472448  1
  O2-  O144  1  0.22365700  0.24840610  0.13513231  1
  O2-  O145  1  0.24268934  0.22846562  0.63478807  1
  O2-  O146  1  0.28126190  0.75113474  0.13637157  1
  O2-  O147  1  0.24868592  0.75827939  0.62188144  1
  O2-  O148  1  0.75323741  0.25601330  0.13228648  1
  O2-  O149  1  0.74059144  0.22545609  0.63638416  1
  O2-  O150  1  0.75848026  0.75256761  0.12393602  1
  O2-  O151  1  0.75890547  0.75350592  0.62255182  1
  O2-  O152  1  0.25155340  0.23042631  0.36605225  1
  O2-  O153  1  0.26672998  0.24128248  0.86567847  1
  O2-  O154  1  0.23136352  0.75667836  0.38033329  1
  O2-  O155  1  0.25996605  0.75405910  0.86772084  1
  O2-  O156  1  0.76928970  0.24155876  0.36854891  1
  O2-  O157  1  0.77898964  0.25937680  0.86317090  1
  O2-  O158  1  0.74687929  0.75169639  0.37658751  1
  O2-  O159  1  0.74620110  0.75036129  0.87636275  1
  O2-  O160  1  0.00915352  0.25395957  0.12415560  1
  O2-  O161  1  0.01694740  0.24613472  0.62608873  1
  O2-  O162  1  -0.01951576  0.76248715  0.11506993  1
  O2-  O163  1  0.00427548  0.73466673  0.61409680  1
  O2-  O164  1  0.54109629  0.25443369  0.11116048  1
  O2-  O165  1  0.50743728  0.24801291  0.63107748  1
  O2-  O166  1  0.49640217  0.76224308  0.11509192  1
  O2-  O167  1  0.51494433  0.74582136  0.61588536  1
  O2-  O168  1  0.24767209  0.00043901  0.37390091  1
  O2-  O169  1  0.25434877  -0.00192650  0.87838322  1
  O2-  O170  1  0.24304767  0.51698923  0.38618240  1
  O2-  O171  1  0.24835986  0.50254914  0.87955532  1
  O2-  O172  1  0.76068039  -0.01116334  0.38128552  1
  O2-  O173  1  0.77025878  -0.01274185  0.88606603  1
  O2-  O174  1  0.74945566  0.52162218  0.38688725  1
  O2-  O175  1  0.75400940  0.51948952  0.88245267  1
  O2-  O176  1  -0.00627147  0.24642561  0.37512694  1
  O2-  O177  1  -0.00824541  0.24706427  0.86982464  1
  O2-  O178  1  0.02053419  0.74907042  0.38466005  1
  O2-  O179  1  -0.00604051  0.75909736  0.88487456  1
  O2-  O180  1  0.49248364  0.24516533  0.37901975  1
  O2-  O181  1  0.47838524  0.24319051  0.87098397  1
  O2-  O182  1  0.51705661  0.76584141  0.38604942  1
  O2-  O183  1  0.51171075  0.76605048  0.88203973  1
  O2-  O184  1  0.25326227  -0.00774422  0.12573378  1
  O2-  O185  1  0.24639099  -0.00035108  0.63003927  1
  O2-  O186  1  0.24474005  0.49831815  0.12013611  1
  O2-  O187  1  0.23331597  0.51696396  0.61542051  1
  O2-  O188  1  0.76241429  -0.00001351  0.11379459  1
  O2-  O189  1  0.74937821  -0.00609856  0.61783913  1
  O2-  O190  1  0.74100973  0.50396873  0.11819072  1
  O2-  O191  1  0.76292228  0.51659016  0.61530204  1
  O2-  O192  1  0.12096972  0.26690888  0.26300638  1
  O2-  O193  1  0.12942714  0.26937608  0.76067381  1
  O2-  O194  1  0.13714702  0.78637226  0.23916216  1
  O2-  O195  1  0.13392345  0.78833998  0.74972187  1
  O2-  O196  1  0.63370537  0.28206339  0.26574677  1
  O2-  O197  1  0.62236702  0.26929708  0.76138184  1
  O2-  O198  1  0.63646504  0.78284674  0.24691603  1
  O2-  O199  1  0.63834237  0.78996664  0.74540997  1
  O2-  O200  1  0.36415047  0.21550082  0.23794960  1
  O2-  O201  1  0.37569385  0.21886178  0.73778833  1
  O2-  O202  1  0.36294368  0.73532608  0.28400840  1
  O2-  O203  1  0.36420196  0.73439982  0.73623745  1
  O2-  O204  1  0.88536958  0.22025933  0.24453396  1
  O2-  O205  1  0.88351512  0.22048067  0.73755606  1
  O2-  O206  1  0.86816011  0.71835382  0.25854793  1
  O2-  O207  1  0.86621405  0.71129236  0.75288430  1
  O2-  O208  1  0.27745098  0.36294879  0.25587693  1
  O2-  O209  1  0.28113644  0.36109190  0.74135846  1
  O2-  O210  1  0.27418339  0.88042822  0.25728726  1
  O2-  O211  1  0.27544600  0.88297037  0.75088413  1
  O2-  O212  1  0.78843630  0.36572872  0.25488698  1
  O2-  O213  1  0.77476248  0.36271621  0.73434011  1
  O2-  O214  1  0.78859680  0.86615142  0.24885316  1
  O2-  O215  1  0.79411970  0.86457660  0.75099075  1
  O2-  O216  1  0.22646626  0.11623433  0.24534513  1
  O2-  O217  1  0.22889869  0.11945254  0.75740268  1
  O2-  O218  1  0.21944726  0.63675644  0.24840965  1
  O2-  O219  1  0.21875026  0.63671700  0.75068791  1
  O2-  O220  1  0.72507093  0.13466461  0.24505526  1
  O2-  O221  1  0.73031176  0.13145910  0.77231180  1
  O2-  O222  1  0.72506032  0.63559796  0.24440457  1
  O2-  O223  1  0.71664992  0.63790804  0.74565338  1
  O2-  O224  1  0.11606365  0.46095566  0.25187357  1
  O2-  O225  1  0.11448622  0.46035754  0.74713424  1
  O2-  O226  1  0.12946449  0.97968546  0.24524587  1
  O2-  O227  1  0.13177537  0.98179827  0.76109653  1
  O2-  O228  1  0.61495918  0.46877542  0.25822336  1
  O2-  O229  1  0.61287282  0.46487146  0.75121580  1
  O2-  O230  1  0.61466750  0.97103805  0.24765347  1
  O2-  O231  1  0.61250038  0.97692329  0.75819932  1
  O2-  O232  1  0.36880092  0.02431457  0.24841770  1
  O2-  O233  1  0.37089841  0.02788638  0.75559047  1
  O2-  O234  1  0.38025809  0.53523265  0.24240978  1
  O2-  O235  1  0.38018534  0.53356744  0.74488655  1
  O2-  O236  1  0.88681815  0.03370348  0.24967357  1
  O2-  O237  1  0.88822838  0.03506249  0.74398431  1
  O2-  O238  1  0.88620761  0.52168254  0.25507136  1
  O2-  O239  1  0.88629928  0.50991262  0.74274331  1
  O2-  O240  1  0.46545435  0.38287998  0.24387903  1
  O2-  O241  1  0.47361062  0.36207402  0.75217536  1
  O2-  O242  1  0.46722373  0.88729114  0.24986469  1
  O2-  O243  1  0.46717657  0.88739037  0.74788073  1
  O2-  O244  1  0.97666691  0.36520417  0.25431201  1
  O2-  O245  1  0.97948829  0.36356436  0.74341362  1
  O2-  O246  1  0.98196566  0.88909794  0.24331713  1
  O2-  O247  1  0.98147226  0.89048569  0.76153675  1
  O2-  O248  1  0.03062920  0.12760642  0.24512960  1
  O2-  O249  1  0.03405024  0.12890966  0.75342697  1
  O2-  O250  1  0.03553250  0.61174825  0.24907415  1
  O2-  O251  1  0.03330416  0.61476487  0.75229268  1
  O2-  O252  1  0.52002453  0.11629494  0.22961282  1
  O2-  O253  1  0.52216317  0.12683931  0.75571249  1
  O2-  O254  1  0.53172717  0.61847360  0.25621539  1
  O2-  O255  1  0.53511738  0.61644165  0.75170525  1
  O2-  O256  1  0.12945862  0.46921200  0.00023516  1
  O2-  O257  1  0.12224620  0.47912439  0.49822086  1
  O2-  O258  1  0.12995048  0.97398574  -0.00098634  1
  O2-  O259  1  0.13655931  0.95577929  0.49948704  1
  O2-  O260  1  0.63570464  0.46979054  -0.00659320  1
  O2-  O261  1  0.63380507  0.47443074  0.50664210  1
  O2-  O262  1  0.62748258  0.97477862  -0.00221755  1
  O2-  O263  1  0.63434283  0.96326542  0.49600091  1
  O2-  O264  1  0.37902883  0.02245469  -0.00019864  1
  O2-  O265  1  0.36188880  0.02155915  0.50169047  1
  O2-  O266  1  0.36640868  0.53077436  0.00445346  1
  O2-  O267  1  0.36214454  0.53373896  0.50670721  1
  O2-  O268  1  0.88154624  0.02752240  0.00151725  1
  O2-  O269  1  0.86868694  0.02420370  0.50513931  1
  O2-  O270  1  0.86484730  0.54185812  0.00667373  1
  O2-  O271  1  0.88315769  0.52483322  0.49834755  1
  O2-  O272  1  0.47572938  0.36440447  -0.00211109  1
  O2-  O273  1  0.46935180  0.36399428  0.50075580  1
  O2-  O274  1  0.48380092  0.88058153  -0.00368340  1
  O2-  O275  1  0.47642261  0.86683601  0.51222115  1
  O2-  O276  1  0.96864911  0.36086177  -0.00487394  1
  O2-  O277  1  0.97876040  0.37861777  0.50557966  1
  O2-  O278  1  0.98059002  0.88873327  -0.00205321  1
  O2-  O279  1  0.97068426  0.86449527  0.50290552  1
  O2-  O280  1  0.03355702  0.12204724  0.00133719  1
  O2-  O281  1  0.03502302  0.13430184  0.49820320  1
  O2-  O282  1  0.02827058  0.63415621  0.00249666  1
  O2-  O283  1  0.02499871  0.61905266  0.49404721  1
  O2-  O284  1  0.52773492  0.11552973  0.00291039  1
  O2-  O285  1  0.53789406  0.13354069  0.50247637  1
  O2-  O286  1  0.53920404  0.63736178  -0.00246196  1
  O2-  O287  1  0.53277585  0.63532763  0.49295531  1
  O2-  O288  1  0.11463786  0.26503490  -0.01665842  1
  O2-  O289  1  0.11595491  0.28578787  0.49436265  1
  O2-  O290  1  0.11368199  0.78413706  0.00565892  1
  O2-  O291  1  0.12552559  0.77586756  0.50937611  1
  O2-  O292  1  0.61425455  0.25738320  -0.04012867  1
  O2-  O293  1  0.61481399  0.28389850  0.49843173  1
  O2-  O294  1  0.63189034  0.78146820  0.00360277  1
  O2-  O295  1  0.63555939  0.77623308  0.50409022  1
  O2-  O296  1  0.39126213  0.21410057  0.01416081  1
  O2-  O297  1  0.38341650  0.21495776  0.50847427  1
  O2-  O298  1  0.38750541  0.72019212  -0.00999073  1
  O2-  O299  1  0.37592345  0.72616872  0.49521823  1
  O2-  O300  1  0.88717103  0.20897774  0.00342453  1
  O2-  O301  1  0.88747784  0.22903250  0.50907047  1
  O2-  O302  1  0.87016562  0.73390479  -0.00721194  1
  O2-  O303  1  0.87854788  0.72171586  0.49220103  1
  O2-  O304  1  0.28309074  0.38194672  -0.00028970  1
  O2-  O305  1  0.27661424  0.38496417  0.50170043  1
  O2-  O306  1  0.28772447  0.88459806  0.00155301  1
  O2-  O307  1  0.27985815  0.87063751  0.49889306  1
  O2-  O308  1  0.79130937  0.38605171  -0.00306405  1
  O2-  O309  1  0.78357492  0.38822054  0.49950501  1
  O2-  O310  1  0.77436039  0.87335354  0.00321933  1
  O2-  O311  1  0.78377016  0.86770874  0.49859363  1
  O2-  O312  1  0.23706406  0.11094462  0.00730663  1
  O2-  O313  1  0.21373929  0.11001994  0.50019164  1
  O2-  O314  1  0.21909692  0.61810304  0.00027732  1
  O2-  O315  1  0.22674157  0.63771028  0.50198107  1
  O2-  O316  1  0.72750484  0.11413316  -0.00711588  1
  O2-  O317  1  0.72071972  0.11588777  0.49318205  1
  O2-  O318  1  0.72378181  0.63582569  0.00560665  1
  O2-  O319  1  0.73398126  0.63403423  0.50341048  1
