# generated using pymatgen
data_Sr64Ca21Nb43O192
_symmetry_space_group_name_H-M   'P 1'
_cell_length_a   16.56367120
_cell_length_b   16.57409425
_cell_length_c   16.72820588
_cell_angle_alpha   89.95404309
_cell_angle_beta   89.95780857
_cell_angle_gamma   90.01509400
_symmetry_Int_Tables_number   1
_chemical_formula_structural   Sr64Ca21Nb43O192
_chemical_formula_sum   'Sr64 Ca21 Nb43 O192'
_cell_volume   4592.35547344
_cell_formula_units_Z   1
loop_
 _symmetry_equiv_pos_site_id
 _symmetry_equiv_pos_as_xyz
  1  'x, y, z'
loop_
 _atom_type_symbol
 _atom_type_oxidation_number
  Sr2+  2.0
  Ca2+  2.0
  Nb5+  5.0
  O2-  -2.0
loop_
 _atom_site_type_symbol
 _atom_site_label
 _atom_site_symmetry_multiplicity
 _atom_site_fract_x
 _atom_site_fract_y
 _atom_site_fract_z
 _atom_site_occupancy
  Sr2+  Sr0  1  0.11387848  0.11660894  0.12637766  1
  Sr2+  Sr1  1  0.12147913  0.12124037  0.62126371  1
  Sr2+  Sr2  1  0.11751068  0.62696710  0.12340247  1
  Sr2+  Sr3  1  0.11231486  0.63375910  0.62455683  1
  Sr2+  Sr4  1  0.62464073  0.11999455  0.13743181  1
  Sr2+  Sr5  1  0.60899401  0.11752803  0.61711419  1
  Sr2+  Sr6  1  0.61839829  0.61003143  0.13053208  1
  Sr2+  Sr7  1  0.61954711  0.62382499  0.62254043  1
  Sr2+  Sr8  1  0.36605768  0.37979359  0.13734105  1
  Sr2+  Sr9  1  0.36841011  0.36055991  0.62267433  1
  Sr2+  Sr10  1  0.37670342  0.87148746  0.12643738  1
  Sr2+  Sr11  1  0.37716220  0.88326246  0.62888246  1
  Sr2+  Sr12  1  0.86895157  0.35856453  0.12119293  1
  Sr2+  Sr13  1  0.86615237  0.36580830  0.62498940  1
  Sr2+  Sr14  1  0.87235295  0.88650641  0.12265108  1
  Sr2+  Sr15  1  0.87240508  0.85899110  0.62809956  1
  Sr2+  Sr16  1  0.13780688  0.38212406  0.37827130  1
  Sr2+  Sr17  1  0.13123937  0.38553849  0.87226790  1
  Sr2+  Sr18  1  0.13563480  0.87094714  0.36609318  1
  Sr2+  Sr19  1  0.13574009  0.87913527  0.87139217  1
  Sr2+  Sr20  1  0.63553995  0.38117175  0.36744712  1
  Sr2+  Sr21  1  0.64015337  0.37510771  0.87334880  1
  Sr2+  Sr22  1  0.63955183  0.87431548  0.37618982  1
  Sr2+  Sr23  1  0.62972349  0.87352582  0.87866331  1
  Sr2+  Sr24  1  0.38486544  0.13278684  0.37485573  1
  Sr2+  Sr25  1  0.38445181  0.12675216  0.87306501  1
  Sr2+  Sr26  1  0.38622394  0.62176890  0.36862748  1
  Sr2+  Sr27  1  0.36911386  0.63212912  0.87859716  1
  Sr2+  Sr28  1  0.88640493  0.13032917  0.36563765  1
  Sr2+  Sr29  1  0.87931605  0.13688511  0.88373607  1
  Sr2+  Sr30  1  0.88742230  0.62712832  0.38315990  1
  Sr2+  Sr31  1  0.87526864  0.61991353  0.87216015  1
  Sr2+  Sr32  1  0.12300236  0.14521832  0.37205047  1
  Sr2+  Sr33  1  0.13609481  0.13045691  0.87824951  1
  Sr2+  Sr34  1  0.12469843  0.62010318  0.37711041  1
  Sr2+  Sr35  1  0.12646689  0.63581844  0.87869643  1
  Sr2+  Sr36  1  0.63634817  0.13566614  0.37564823  1
  Sr2+  Sr37  1  0.62674773  0.14019196  0.87673406  1
  Sr2+  Sr38  1  0.62702229  0.62567626  0.37604011  1
  Sr2+  Sr39  1  0.62977270  0.61821525  0.87530351  1
  Sr2+  Sr40  1  0.37643331  0.39454033  0.37675419  1
  Sr2+  Sr41  1  0.38863502  0.38337089  0.87542419  1
  Sr2+  Sr42  1  0.38133677  0.86259990  0.36982894  1
  Sr2+  Sr43  1  0.38080330  0.87454686  0.87554157  1
  Sr2+  Sr44  1  0.88933993  0.37457267  0.37704316  1
  Sr2+  Sr45  1  0.87845179  0.38628580  0.86802871  1
  Sr2+  Sr46  1  0.88307655  0.87105950  0.37716602  1
  Sr2+  Sr47  1  0.88101452  0.87509700  0.87569196  1
  Sr2+  Sr48  1  0.11551705  0.38188973  0.11731072  1
  Sr2+  Sr49  1  0.12613100  0.36219480  0.61779654  1
  Sr2+  Sr50  1  0.13716547  0.87281798  0.11747940  1
  Sr2+  Sr51  1  0.10624144  0.88204646  0.63168513  1
  Sr2+  Sr52  1  0.61404841  0.36639087  0.13071078  1
  Sr2+  Sr53  1  0.61146847  0.37722695  0.63064084  1
  Sr2+  Sr54  1  0.62638914  0.88212815  0.12882736  1
  Sr2+  Sr55  1  0.62036454  0.87085032  0.62298126  1
  Sr2+  Sr56  1  0.37024858  0.11948179  0.12918818  1
  Sr2+  Sr57  1  0.36244787  0.12074711  0.62027894  1
  Sr2+  Sr58  1  0.36526829  0.62335668  0.13448717  1
  Sr2+  Sr59  1  0.37301282  0.62545587  0.61542052  1
  Sr2+  Sr60  1  0.86479097  0.12027896  0.13032633  1
  Sr2+  Sr61  1  0.86413790  0.11401624  0.62499678  1
  Sr2+  Sr62  1  0.87411094  0.61621171  0.11967917  1
  Sr2+  Sr63  1  0.86562128  0.62644611  0.62281576  1
  Ca2+  Ca64  1  0.50000186  0.49890040  0.00121100  1
  Ca2+  Ca65  1  0.50278660  0.49800460  0.50234849  1
  Ca2+  Ca66  1  0.00038251  0.00045783  0.49785520  1
  Ca2+  Ca67  1  0.49769470  -0.00242643  0.49839208  1
  Ca2+  Ca68  1  -0.00035393  0.49966881  0.50592272  1
  Ca2+  Ca69  1  0.24909881  0.24872949  -0.00213838  1
  Ca2+  Ca70  1  0.25216227  0.75328583  0.50192516  1
  Ca2+  Ca71  1  0.74713792  0.24921273  0.00163261  1
  Ca2+  Ca72  1  0.74804997  0.24983595  0.50140852  1
  Ca2+  Ca73  1  0.74947330  0.74840071  0.00185186  1
  Ca2+  Ca74  1  -0.00081571  0.74833242  0.75388738  1
  Ca2+  Ca75  1  -0.00074249  0.74981320  0.24761014  1
  Ca2+  Ca76  1  0.24950848  0.00341860  0.24913849  1
  Ca2+  Ca77  1  0.49759772  0.24965313  0.25165409  1
  Ca2+  Ca78  1  0.25171378  0.49957093  0.74771346  1
  Ca2+  Ca79  1  0.50674868  0.75127496  0.24599125  1
  Ca2+  Ca80  1  0.75787017  0.50185156  0.25011483  1
  Ca2+  Ca81  1  -0.00012315  0.25065070  0.75127469  1
  Ca2+  Ca82  1  0.74774604  -0.00005010  0.75137746  1
  Ca2+  Ca83  1  0.24435398  0.50000416  0.24941797  1
  Ca2+  Ca84  1  0.00235546  0.25597152  0.24659687  1
  Nb5+  Nb85  1  0.00354612  0.00435310  -0.00233776  1
  Nb5+  Nb86  1  0.50487035  0.00008076  0.00069103  1
  Nb5+  Nb87  1  0.00036099  0.50673616  -0.00422398  1
  Nb5+  Nb88  1  0.25131999  0.75064747  -0.00062212  1
  Nb5+  Nb89  1  0.25230723  0.24728030  0.49471584  1
  Nb5+  Nb90  1  0.74800762  0.74886023  0.49867710  1
  Nb5+  Nb91  1  0.24989604  -0.00113475  0.74835700  1
  Nb5+  Nb92  1  0.49864057  0.75416775  0.75087157  1
  Nb5+  Nb93  1  0.49734306  0.25418043  0.74937106  1
  Nb5+  Nb94  1  0.75087487  0.49919952  0.74867198  1
  Nb5+  Nb95  1  0.75102065  0.00045907  0.25432210  1
  Nb5+  Nb96  1  0.00457156  -0.00586224  0.25158125  1
  Nb5+  Nb97  1  -0.00716202  0.00708773  0.75288574  1
  Nb5+  Nb98  1  -0.00031004  0.50149246  0.25243676  1
  Nb5+  Nb99  1  0.00312915  0.49966542  0.74551362  1
  Nb5+  Nb100  1  0.50112500  -0.00240082  0.25774000  1
  Nb5+  Nb101  1  0.50090815  0.00308006  0.75341178  1
  Nb5+  Nb102  1  0.50260552  0.49926409  0.24825485  1
  Nb5+  Nb103  1  0.49940797  0.51022408  0.75671075  1
  Nb5+  Nb104  1  0.24696888  0.25349333  0.24061092  1
  Nb5+  Nb105  1  0.25172570  0.25175767  0.75311334  1
  Nb5+  Nb106  1  0.24816500  0.74878648  0.25453318  1
  Nb5+  Nb107  1  0.25154514  0.75154406  0.74432599  1
  Nb5+  Nb108  1  0.75360941  0.25511021  0.25490902  1
  Nb5+  Nb109  1  0.74765672  0.24275929  0.74279127  1
  Nb5+  Nb110  1  0.75471709  0.74862697  0.24590814  1
  Nb5+  Nb111  1  0.74782591  0.74810526  0.75401998  1
  Nb5+  Nb112  1  -0.00657355  0.24628426  0.50531706  1
  Nb5+  Nb113  1  -0.00048917  0.25936875  0.99762768  1
  Nb5+  Nb114  1  0.00665954  0.75485392  0.50301183  1
  Nb5+  Nb115  1  -0.00342978  0.75615288  0.99727201  1
  Nb5+  Nb116  1  0.50001397  0.25469960  0.49376842  1
  Nb5+  Nb117  1  0.49412478  0.24859572  1.00387662  1
  Nb5+  Nb118  1  0.50155200  0.75086225  0.49557138  1
  Nb5+  Nb119  1  0.50100554  0.74938191  1.00000975  1
  Nb5+  Nb120  1  0.25586663  0.00095404  -0.00178016  1
  Nb5+  Nb121  1  0.24542392  0.00173589  0.48948788  1
  Nb5+  Nb122  1  0.25406449  0.49673851  -0.00830249  1
  Nb5+  Nb123  1  0.24932612  0.50537396  0.50564006  1
  Nb5+  Nb124  1  0.75222860  0.00327579  -0.00348201  1
  Nb5+  Nb125  1  0.75181534  -0.00108721  0.50438683  1
  Nb5+  Nb126  1  0.74934714  0.49364766  0.00508381  1
  Nb5+  Nb127  1  0.75174382  0.49760269  0.49846484  1
  O2-  O128  1  -0.01721882  0.01612112  0.11396613  1
  O2-  O129  1  -0.00802737  0.02530338  0.63887091  1
  O2-  O130  1  -0.00467419  0.51855629  0.11412660  1
  O2-  O131  1  -0.00917042  0.53470672  0.63756695  1
  O2-  O132  1  0.49469330  0.02380832  0.11443751  1
  O2-  O133  1  0.48350673  0.01505779  0.63825832  1
  O2-  O134  1  0.48682148  0.53133010  0.13099147  1
  O2-  O135  1  0.48861449  0.51799733  0.64118899  1
  O2-  O136  1  0.01855286  -0.02756103  0.36297124  1
  O2-  O137  1  0.00108151  -0.02572381  0.88160504  1
  O2-  O138  1  0.00334031  0.48654244  0.36736978  1
  O2-  O139  1  0.00680250  0.47563842  0.87896119  1
  O2-  O140  1  0.50467883  -0.03694976  0.36576193  1
  O2-  O141  1  0.50356612  -0.02303638  0.87444894  1
  O2-  O142  1  0.51661145  0.47380981  0.36612079  1
  O2-  O143  1  0.52523910  0.47348761  0.86687004  1
  O2-  O144  1  0.23478822  0.28615853  0.13077531  1
  O2-  O145  1  0.24449493  0.25910252  0.62925614  1
  O2-  O146  1  0.26698435  0.76932760  0.11487088  1
  O2-  O147  1  0.28403285  0.76759067  0.63536980  1
  O2-  O148  1  0.73260858  0.27254140  0.13683698  1
  O2-  O149  1  0.72831415  0.28484317  0.63459557  1
  O2-  O150  1  0.78599924  0.76089473  0.13595889  1
  O2-  O151  1  0.75354611  0.76320055  0.62773594  1
  O2-  O152  1  0.26409578  0.22142170  0.38281409  1
  O2-  O153  1  0.26440570  0.21636818  0.86268497  1
  O2-  O154  1  0.22837970  0.73054023  0.36679555  1
  O2-  O155  1  0.24036939  0.74048330  0.87441914  1
  O2-  O156  1  0.76694305  0.21990121  0.36883240  1
  O2-  O157  1  0.75510539  0.22893452  0.86101324  1
  O2-  O158  1  0.72682948  0.74041941  0.38385311  1
  O2-  O159  1  0.72391767  0.73254420  0.86621501  1
  O2-  O160  1  0.03246161  0.24283114  0.11134109  1
  O2-  O161  1  0.03046490  0.24125080  0.61826691  1
  O2-  O162  1  -0.01091322  0.72278847  0.10944701  1
  O2-  O163  1  -0.01681782  0.72893737  0.61983276  1
  O2-  O164  1  0.51802568  0.22584614  0.11381117  1
  O2-  O165  1  0.51620995  0.23354617  0.63312750  1
  O2-  O166  1  0.47991479  0.73088834  0.11077368  1
  O2-  O167  1  0.48901708  0.72689835  0.63540204  1
  O2-  O168  1  0.21556068  0.02170669  0.38195370  1
  O2-  O169  1  0.23883418  0.01085821  0.87600080  1
  O2-  O170  1  0.22948451  0.51013138  0.38568184  1
  O2-  O171  1  0.22288481  0.52326187  0.88052445  1
  O2-  O172  1  0.72768697  0.01001788  0.36915652  1
  O2-  O173  1  0.73214179  0.02436340  0.88530581  1
  O2-  O174  1  0.73042852  0.51630984  0.38684321  1
  O2-  O175  1  0.74005800  0.51505949  0.87317135  1
  O2-  O176  1  -0.01835661  0.25812285  0.38544842  1
  O2-  O177  1  -0.03585663  0.26107424  0.88347058  1
  O2-  O178  1  0.01450722  0.77627057  0.38628277  1
  O2-  O179  1  0.03053179  0.77051262  0.88528538  1
  O2-  O180  1  0.46680686  0.26937269  0.38571394  1
  O2-  O181  1  0.47625624  0.25520321  0.86895290  1
  O2-  O182  1  0.51597085  0.77393204  0.38435602  1
  O2-  O183  1  0.51115403  0.77365404  0.87141731  1
  O2-  O184  1  0.26443126  -0.02380147  0.11137244  1
  O2-  O185  1  0.26813558  -0.01437973  0.63448674  1
  O2-  O186  1  0.25930463  0.48762461  0.10928212  1
  O2-  O187  1  0.27647065  0.47707748  0.61688810  1
  O2-  O188  1  0.75662685  -0.01642072  0.12603887  1
  O2-  O189  1  0.77843473  -0.01961378  0.61566476  1
  O2-  O190  1  0.77954885  0.48085622  0.11528312  1
  O2-  O191  1  0.77023934  0.48888550  0.63307221  1
  O2-  O192  1  0.13539662  0.26659382  0.28018277  1
  O2-  O193  1  0.13823541  0.27237895  0.76355585  1
  O2-  O194  1  0.13492280  0.77950277  0.23141937  1
  O2-  O195  1  0.13729581  0.76869540  0.73175718  1
  O2-  O196  1  0.63344513  0.26089161  0.27226497  1
  O2-  O197  1  0.61644947  0.26235270  0.76855576  1
  O2-  O198  1  0.64079498  0.78225052  0.24093110  1
  O2-  O199  1  0.61942851  0.76269994  0.73728580  1
  O2-  O200  1  0.36399998  0.22529800  0.23507157  1
  O2-  O201  1  0.38012065  0.22420505  0.73372279  1
  O2-  O202  1  0.36892789  0.73495134  0.26159211  1
  O2-  O203  1  0.38020450  0.73722778  0.77035762  1
  O2-  O204  1  0.86771039  0.23122643  0.22942532  1
  O2-  O205  1  0.86180330  0.23028626  0.72563081  1
  O2-  O206  1  0.86396585  0.74231262  0.28936725  1
  O2-  O207  1  0.86233977  0.72775816  0.76015802  1
  O2-  O208  1  0.27439566  0.36511938  0.27468951  1
  O2-  O209  1  0.28237771  0.36170328  0.76890445  1
  O2-  O210  1  0.27125649  0.86826233  0.26773839  1
  O2-  O211  1  0.26784946  0.87598325  0.76920508  1
  O2-  O212  1  0.76977621  0.36742023  0.28094444  1
  O2-  O213  1  0.75906838  0.37990621  0.76842233  1
  O2-  O214  1  0.76758243  0.88176937  0.26609798  1
  O2-  O215  1  0.76472470  0.86406400  0.77028708  1
  O2-  O216  1  0.22570539  0.13553343  0.22113303  1
  O2-  O217  1  0.23750345  0.11665693  0.73372914  1
  O2-  O218  1  0.23544833  0.63596683  0.21956447  1
  O2-  O219  1  0.24080863  0.63628759  0.73171966  1
  O2-  O220  1  0.73819667  0.11966833  0.23423992  1
  O2-  O221  1  0.72140419  0.13306188  0.71791816  1
  O2-  O222  1  0.72577607  0.63720327  0.23758427  1
  O2-  O223  1  0.73020322  0.62286539  0.73512788  1
  O2-  O224  1  0.11320805  0.46578550  0.23575472  1
  O2-  O225  1  0.11518674  0.47086529  0.73667706  1
  O2-  O226  1  0.11444085  0.98183832  0.21902891  1
  O2-  O227  1  0.13133797  0.97842373  0.74744117  1
  O2-  O228  1  0.62198085  0.48349599  0.22602739  1
  O2-  O229  1  0.62775255  0.48909505  0.73786738  1
  O2-  O230  1  0.62757438  0.98851500  0.23448915  1
  O2-  O231  1  0.61290556  0.97465248  0.74200325  1
  O2-  O232  1  0.38656561  0.02209759  0.25457439  1
  O2-  O233  1  0.37423778  0.00689672  0.76844028  1
  O2-  O234  1  0.38228734  0.51404327  0.26277151  1
  O2-  O235  1  0.38672260  0.51399655  0.78055965  1
  O2-  O236  1  0.87063800  0.01733742  0.25800475  1
  O2-  O237  1  0.88161599  0.03175627  0.77001763  1
  O2-  O238  1  0.88772516  0.54702509  0.25234810  1
  O2-  O239  1  0.86893209  0.51812239  0.76461583  1
  O2-  O240  1  0.48740415  0.38206185  0.21990072  1
  O2-  O241  1  0.48329193  0.36949707  0.73704577  1
  O2-  O242  1  0.49253531  0.88687964  0.21507355  1
  O2-  O243  1  0.48221518  0.87031882  0.73626988  1
  O2-  O244  1  0.96069880  0.38989597  0.23183985  1
  O2-  O245  1  0.96656925  0.38693056  0.73616910  1
  O2-  O246  1  0.97074965  0.88410269  0.22749560  1
  O2-  O247  1  0.98069427  0.88719547  0.73808479  1
  O2-  O248  1  0.01024186  0.11366052  0.26055811  1
  O2-  O249  1  0.03091988  0.11508285  0.77796881  1
  O2-  O250  1  0.04014290  0.61685467  0.25575065  1
  O2-  O251  1  0.01422772  0.61307216  0.78291319  1
  O2-  O252  1  0.52476907  0.11348931  0.27310378  1
  O2-  O253  1  0.51520445  0.11846234  0.76975298  1
  O2-  O254  1  0.52163120  0.61811051  0.27264915  1
  O2-  O255  1  0.51685834  0.62572588  0.77330145  1
  O2-  O256  1  0.12100299  0.49156540  0.00718499  1
  O2-  O257  1  0.13465238  0.47280602  0.51643289  1
  O2-  O258  1  0.11898653  0.98210698  0.00599391  1
  O2-  O259  1  0.13659031  0.98688353  0.53231449  1
  O2-  O260  1  0.63511036  0.47414604  0.01976901  1
  O2-  O261  1  0.63856046  0.48831445  0.53158171  1
  O2-  O262  1  0.62026457  0.97954495  0.00610462  1
  O2-  O263  1  0.63427583  0.97450208  0.51043662  1
  O2-  O264  1  0.37198095  0.01298180  -0.01398210  1
  O2-  O265  1  0.36201580  0.02760925  0.49007372  1
  O2-  O266  1  0.36708159  0.51298838  -0.02608214  1
  O2-  O267  1  0.36777381  0.51829810  0.47964465  1
  O2-  O268  1  0.87179703  0.01385700  -0.01105013  1
  O2-  O269  1  0.86347017  0.01739225  0.46886311  1
  O2-  O270  1  0.87983303  0.51654904  -0.01489978  1
  O2-  O271  1  0.86429946  0.53299332  0.50021153  1
  O2-  O272  1  0.46786301  0.36071752  0.01699152  1
  O2-  O273  1  0.48508759  0.36483862  0.53324576  1
  O2-  O274  1  0.47772010  0.88106149  0.01051554  1
  O2-  O275  1  0.48541168  0.86269384  0.53159038  1
  O2-  O276  1  0.98650663  0.37583202  0.01503075  1
  O2-  O277  1  0.97697748  0.36573738  0.51548146  1
  O2-  O278  1  0.98620067  0.87216969  0.01817218  1
  O2-  O279  1  0.97475808  0.86856689  0.52390125  1
  O2-  O280  1  0.01491555  0.11803414  -0.02079802  1
  O2-  O281  1  0.02523449  0.13276539  0.48512047  1
  O2-  O282  1  0.01108029  0.62302915  -0.02326028  1
  O2-  O283  1  0.01732341  0.63669146  0.48044887  1
  O2-  O284  1  0.51313118  0.11492295  -0.02780723  1
  O2-  O285  1  0.51830635  0.13548941  0.48794903  1
  O2-  O286  1  0.51074334  0.63782214  -0.02902107  1
  O2-  O287  1  0.52693580  0.63450064  0.49308972  1
  O2-  O288  1  0.11330299  0.26204626  -0.03676670  1
  O2-  O289  1  0.13431720  0.26826725  0.48647658  1
  O2-  O290  1  0.13024177  0.75352402  0.01402777  1
  O2-  O291  1  0.11863098  0.77100668  0.52769540  1
  O2-  O292  1  0.60930944  0.26218948  -0.02599205  1
  O2-  O293  1  0.61427372  0.27268374  0.47508554  1
  O2-  O294  1  0.61295071  0.77611983  0.01273470  1
  O2-  O295  1  0.62649310  0.76835669  0.51655084  1
  O2-  O296  1  0.38173650  0.21099703  0.00749206  1
  O2-  O297  1  0.37351308  0.23091226  0.51907465  1
  O2-  O298  1  0.37331995  0.75142691  -0.02099479  1
  O2-  O299  1  0.38651095  0.72806804  0.48296625  1
  O2-  O300  1  0.88565724  0.22681563  0.02417076  1
  O2-  O301  1  0.88203033  0.22409552  0.52840406  1
  O2-  O302  1  0.88552869  0.74228994  -0.03267388  1
  O2-  O303  1  0.86691077  0.73553874  0.49297742  1
  O2-  O304  1  0.25904272  0.38337122  -0.03119466  1
  O2-  O305  1  0.27205749  0.36528372  0.48669503  1
  O2-  O306  1  0.25092684  0.87541438  -0.02131347  1
  O2-  O307  1  0.26841381  0.88757101  0.47226452  1
  O2-  O308  1  0.77168463  0.38150004  -0.02625223  1
  O2-  O309  1  0.77665717  0.38564579  0.48434752  1
  O2-  O310  1  0.76195445  0.88518635  -0.01699551  1
  O2-  O311  1  0.76521245  0.87124334  0.48377335  1
  O2-  O312  1  0.22451908  0.11085113  0.01636821  1
  O2-  O313  1  0.23362914  0.12778539  0.52199690  1
  O2-  O314  1  0.24943119  0.63231089  0.01044978  1
  O2-  O315  1  0.23066720  0.61759776  0.52872545  1
  O2-  O316  1  0.72941935  0.11495338  0.02717065  1
  O2-  O317  1  0.72739544  0.11272055  0.52066795  1
  O2-  O318  1  0.73411336  0.61288311  0.01663764  1
  O2-  O319  1  0.73136598  0.63210449  0.51858549  1
