# generated using pymatgen
data_Sr64Ca21Nb43O192
_symmetry_space_group_name_H-M   'P 1'
_cell_length_a   16.57388136
_cell_length_b   16.54929644
_cell_length_c   16.72670122
_cell_angle_alpha   89.97274743
_cell_angle_beta   90.03203402
_cell_angle_gamma   90.02817267
_symmetry_Int_Tables_number   1
_chemical_formula_structural   Sr64Ca21Nb43O192
_chemical_formula_sum   'Sr64 Ca21 Nb43 O192'
_cell_volume   4587.89944665
_cell_formula_units_Z   1
loop_
 _symmetry_equiv_pos_site_id
 _symmetry_equiv_pos_as_xyz
  1  'x, y, z'
loop_
 _atom_type_symbol
 _atom_type_oxidation_number
  Sr2+  2.0
  Ca2+  2.0
  Nb5+  5.0
  O2-  -2.0
loop_
 _atom_site_type_symbol
 _atom_site_label
 _atom_site_symmetry_multiplicity
 _atom_site_fract_x
 _atom_site_fract_y
 _atom_site_fract_z
 _atom_site_occupancy
  Sr2+  Sr0  1  0.12236807  0.12586889  0.13174197  1
  Sr2+  Sr1  1  0.11295526  0.13197421  0.62101080  1
  Sr2+  Sr2  1  0.11299170  0.62307133  0.12298864  1
  Sr2+  Sr3  1  0.12508859  0.63658426  0.62143247  1
  Sr2+  Sr4  1  0.62908753  0.12921549  0.12617415  1
  Sr2+  Sr5  1  0.63109702  0.11639364  0.62054735  1
  Sr2+  Sr6  1  0.63353657  0.62060092  0.13314031  1
  Sr2+  Sr7  1  0.62851727  0.60984527  0.62393870  1
  Sr2+  Sr8  1  0.37909108  0.36841977  0.12929988  1
  Sr2+  Sr9  1  0.38249208  0.37415937  0.61718472  1
  Sr2+  Sr10  1  0.37596931  0.86713299  0.12262402  1
  Sr2+  Sr11  1  0.37214279  0.86108413  0.61711603  1
  Sr2+  Sr12  1  0.88369091  0.38253388  0.11713048  1
  Sr2+  Sr13  1  0.87865792  0.36564548  0.62940464  1
  Sr2+  Sr14  1  0.88006943  0.85342589  0.12941878  1
  Sr2+  Sr15  1  0.87419565  0.85036960  0.62248398  1
  Sr2+  Sr16  1  0.13143047  0.38398414  0.37733986  1
  Sr2+  Sr17  1  0.13012075  0.38388083  0.87695564  1
  Sr2+  Sr18  1  0.11710883  0.88092103  0.37076620  1
  Sr2+  Sr19  1  0.10941636  0.87936656  0.88009412  1
  Sr2+  Sr20  1  0.61609923  0.37256183  0.36839799  1
  Sr2+  Sr21  1  0.62664843  0.37798058  0.87607708  1
  Sr2+  Sr22  1  0.63138037  0.87760267  0.37324527  1
  Sr2+  Sr23  1  0.61480617  0.88552991  0.87208563  1
  Sr2+  Sr24  1  0.37667100  0.12404921  0.37326376  1
  Sr2+  Sr25  1  0.37538058  0.12179593  0.87718417  1
  Sr2+  Sr26  1  0.36759812  0.61950373  0.38875219  1
  Sr2+  Sr27  1  0.37074928  0.63284589  0.86746092  1
  Sr2+  Sr28  1  0.90219804  0.12899303  0.37756862  1
  Sr2+  Sr29  1  0.88431880  0.12743429  0.87045756  1
  Sr2+  Sr30  1  0.86324389  0.63887787  0.37675253  1
  Sr2+  Sr31  1  0.87545591  0.62569178  0.87529492  1
  Sr2+  Sr32  1  0.12986444  0.11286650  0.37613149  1
  Sr2+  Sr33  1  0.12224919  0.12628072  0.86891604  1
  Sr2+  Sr34  1  0.11612678  0.62418608  0.38087446  1
  Sr2+  Sr35  1  0.12755586  0.64356536  0.86955012  1
  Sr2+  Sr36  1  0.61814577  0.12739087  0.37318403  1
  Sr2+  Sr37  1  0.62158930  0.11857240  0.87098900  1
  Sr2+  Sr38  1  0.61864793  0.63805384  0.37295793  1
  Sr2+  Sr39  1  0.61210214  0.63360574  0.86954339  1
  Sr2+  Sr40  1  0.37815362  0.37776867  0.37449682  1
  Sr2+  Sr41  1  0.37568225  0.39485884  0.87530856  1
  Sr2+  Sr42  1  0.37523862  0.85599001  0.37165861  1
  Sr2+  Sr43  1  0.37864687  0.86393245  0.87472636  1
  Sr2+  Sr44  1  0.88451285  0.39167955  0.37356835  1
  Sr2+  Sr45  1  0.87636920  0.38475668  0.87738482  1
  Sr2+  Sr46  1  0.88111775  0.87100266  0.36967655  1
  Sr2+  Sr47  1  0.87608903  0.87718240  0.87286527  1
  Sr2+  Sr48  1  0.15169681  0.37451473  0.12312406  1
  Sr2+  Sr49  1  0.12302822  0.36655015  0.62976093  1
  Sr2+  Sr50  1  0.12044543  0.87499748  0.13141726  1
  Sr2+  Sr51  1  0.11771579  0.87520600  0.61766322  1
  Sr2+  Sr52  1  0.64403195  0.36720505  0.12403652  1
  Sr2+  Sr53  1  0.63238886  0.36867409  0.62506460  1
  Sr2+  Sr54  1  0.63628737  0.87082442  0.12513533  1
  Sr2+  Sr55  1  0.63432883  0.87387395  0.62579689  1
  Sr2+  Sr56  1  0.37486244  0.12436577  0.12672710  1
  Sr2+  Sr57  1  0.36355004  0.12116618  0.61680440  1
  Sr2+  Sr58  1  0.36664312  0.62313196  0.12010113  1
  Sr2+  Sr59  1  0.37030404  0.61337182  0.62529453  1
  Sr2+  Sr60  1  0.87533250  0.12860085  0.12184719  1
  Sr2+  Sr61  1  0.87832309  0.12596286  0.62906716  1
  Sr2+  Sr62  1  0.86803936  0.61682097  0.14226142  1
  Sr2+  Sr63  1  0.87824966  0.61442816  0.62256966  1
  Ca2+  Ca64  1  0.00111025  0.50225530  0.00056770  1
  Ca2+  Ca65  1  -0.00021457  0.00084509  0.00185428  1
  Ca2+  Ca66  1  -0.00126423  0.00046058  0.50177703  1
  Ca2+  Ca67  1  0.49965684  0.49808508  0.00232746  1
  Ca2+  Ca68  1  -0.00250082  0.49895710  0.50400026  1
  Ca2+  Ca69  1  0.75315959  0.24991513  0.49798173  1
  Ca2+  Ca70  1  0.24766088  0.25094810  0.49890669  1
  Ca2+  Ca71  1  0.74884840  0.74979075  -0.00416954  1
  Ca2+  Ca72  1  0.24706906  0.75093021  0.49574736  1
  Ca2+  Ca73  1  0.74449863  0.74893068  0.50308998  1
  Ca2+  Ca74  1  0.00375477  0.74658816  0.25020487  1
  Ca2+  Ca75  1  0.24951081  -0.00170605  0.75022360  1
  Ca2+  Ca76  1  0.75135950  0.00539836  0.24900541  1
  Ca2+  Ca77  1  0.25015929  0.49923639  0.25193312  1
  Ca2+  Ca78  1  -0.00117591  0.75041608  0.74806530  1
  Ca2+  Ca79  1  0.50144395  0.75184382  0.74619550  1
  Ca2+  Ca80  1  0.49974851  0.24811474  0.75141695  1
  Ca2+  Ca81  1  0.24673100  0.49985717  0.75052134  1
  Ca2+  Ca82  1  0.00346701  0.25571606  0.24594510  1
  Ca2+  Ca83  1  0.74989064  0.49533887  0.25394605  1
  Ca2+  Ca84  1  0.49749678  0.75041661  0.24834421  1
  Nb5+  Nb85  1  0.49855964  -0.00620347  0.49312941  1
  Nb5+  Nb86  1  0.50230335  0.49413903  0.49993508  1
  Nb5+  Nb87  1  0.49901546  0.00152504  -0.00176227  1
  Nb5+  Nb88  1  0.75860049  0.24709223  -0.00287076  1
  Nb5+  Nb89  1  0.25831064  0.24997762  -0.00317344  1
  Nb5+  Nb90  1  0.25057212  0.76108782  -0.00035449  1
  Nb5+  Nb91  1  0.75084555  0.49365975  0.74939400  1
  Nb5+  Nb92  1  0.25611119  -0.00300366  0.24987075  1
  Nb5+  Nb93  1  0.00020502  0.25276294  0.75416735  1
  Nb5+  Nb94  1  0.50110847  0.24903560  0.24817723  1
  Nb5+  Nb95  1  0.75263076  -0.00502847  0.74927344  1
  Nb5+  Nb96  1  -0.00346842  0.00568215  0.24879736  1
  Nb5+  Nb97  1  0.00033326  -0.00290532  0.74819114  1
  Nb5+  Nb98  1  0.00241600  0.49794124  0.25151883  1
  Nb5+  Nb99  1  0.00393961  0.50063662  0.74917885  1
  Nb5+  Nb100  1  0.50021532  -0.00277682  0.24412992  1
  Nb5+  Nb101  1  0.49596242  0.00446861  0.73958761  1
  Nb5+  Nb102  1  0.49848865  0.50237050  0.24686212  1
  Nb5+  Nb103  1  0.49915494  0.50005226  0.75144462  1
  Nb5+  Nb104  1  0.25175299  0.24473141  0.25050272  1
  Nb5+  Nb105  1  0.25303203  0.24753431  0.75056109  1
  Nb5+  Nb106  1  0.24968969  0.74395931  0.24538219  1
  Nb5+  Nb107  1  0.24831904  0.75525026  0.74377789  1
  Nb5+  Nb108  1  0.75842302  0.24920528  0.25394438  1
  Nb5+  Nb109  1  0.74737760  0.24486591  0.75271456  1
  Nb5+  Nb110  1  0.74708327  0.75337000  0.24976284  1
  Nb5+  Nb111  1  0.74798592  0.73788867  0.75327604  1
  Nb5+  Nb112  1  -0.00031927  0.25531053  0.49374786  1
  Nb5+  Nb113  1  0.00997516  0.25067606  1.00051922  1
  Nb5+  Nb114  1  -0.00231236  0.74959091  0.49866215  1
  Nb5+  Nb115  1  -0.00709294  0.74459303  1.00096912  1
  Nb5+  Nb116  1  0.50366793  0.24364882  0.50245077  1
  Nb5+  Nb117  1  0.50446541  0.24754624  0.99878723  1
  Nb5+  Nb118  1  0.49962478  0.74137220  0.50272063  1
  Nb5+  Nb119  1  0.50446756  0.74817304  1.00277793  1
  Nb5+  Nb120  1  0.24936511  0.00365574  0.00259750  1
  Nb5+  Nb121  1  0.25208313  -0.00414986  0.50256507  1
  Nb5+  Nb122  1  0.24754825  0.51335777  0.00002394  1
  Nb5+  Nb123  1  0.24395085  0.49626238  0.50629187  1
  Nb5+  Nb124  1  0.75318453  0.00422836  0.00023940  1
  Nb5+  Nb125  1  0.75450709  0.00279606  0.49680756  1
  Nb5+  Nb126  1  0.74390439  0.50498084  -0.00261819  1
  Nb5+  Nb127  1  0.74788793  0.49659617  0.49592456  1
  O2-  O128  1  0.01628350  0.01231298  0.13354578  1
  O2-  O129  1  -0.00188734  0.02501526  0.63404690  1
  O2-  O130  1  -0.02341716  0.51247618  0.13363120  1
  O2-  O131  1  -0.03237272  0.48983221  0.63774186  1
  O2-  O132  1  0.49683997  -0.01099917  0.12762532  1
  O2-  O133  1  0.49307791  -0.01004305  0.62411124  1
  O2-  O134  1  0.46803460  0.49528716  0.13687848  1
  O2-  O135  1  0.48685784  0.49278295  0.62302307  1
  O2-  O136  1  0.00815696  -0.00524370  0.36732910  1
  O2-  O137  1  0.00438415  0.00357367  0.86600272  1
  O2-  O138  1  0.02272966  0.48664286  0.37092407  1
  O2-  O139  1  0.00115038  0.49609531  0.86519463  1
  O2-  O140  1  0.50523423  0.01783179  0.37813668  1
  O2-  O141  1  0.50164210  0.02056557  0.88201880  1
  O2-  O142  1  0.52523311  0.50636823  0.38390196  1
  O2-  O143  1  0.52208286  0.50208253  0.86594347  1
  O2-  O144  1  0.26463247  0.25865453  0.11654564  1
  O2-  O145  1  0.25217030  0.27429087  0.63840665  1
  O2-  O146  1  0.23469573  0.77298681  0.11786926  1
  O2-  O147  1  0.22564644  0.77136564  0.63177230  1
  O2-  O148  1  0.74897941  0.22766644  0.11446566  1
  O2-  O149  1  0.74297715  0.23303652  0.63753957  1
  O2-  O150  1  0.72343751  0.73772795  0.13004951  1
  O2-  O151  1  0.71565507  0.74281248  0.63902808  1
  O2-  O152  1  0.24129822  0.22366950  0.36249415  1
  O2-  O153  1  0.24465868  0.21822760  0.88369094  1
  O2-  O154  1  0.26985375  0.73260788  0.35902138  1
  O2-  O155  1  0.26946660  0.74014601  0.88323670  1
  O2-  O156  1  0.75647058  0.27935763  0.36335896  1
  O2-  O157  1  0.75398583  0.26952002  0.87678380  1
  O2-  O158  1  0.76874640  0.76996156  0.36765149  1
  O2-  O159  1  0.78821670  0.75748185  0.86460869  1
  O2-  O160  1  -0.01436575  0.24206286  0.11210961  1
  O2-  O161  1  0.00219701  0.24872520  0.63388920  1
  O2-  O162  1  0.02584484  0.75484395  0.11463380  1
  O2-  O163  1  0.02578396  0.75842885  0.61693854  1
  O2-  O164  1  0.49483612  0.25470381  0.12614916  1
  O2-  O165  1  0.50613218  0.26252148  0.61507706  1
  O2-  O166  1  0.51328876  0.78204217  0.11460041  1
  O2-  O167  1  0.51757779  0.77863345  0.61333485  1
  O2-  O168  1  0.25521461  0.01807584  0.37019614  1
  O2-  O169  1  0.25445425  0.01669451  0.88815039  1
  O2-  O170  1  0.22752465  0.51836256  0.38672919  1
  O2-  O171  1  0.22008099  0.51407510  0.88550340  1
  O2-  O172  1  0.74967176  -0.02306253  0.38533229  1
  O2-  O173  1  0.74161570  -0.01146092  0.87321848  1
  O2-  O174  1  0.73246166  0.46659949  0.38691273  1
  O2-  O175  1  0.73556621  0.47979654  0.87017415  1
  O2-  O176  1  -0.00127917  0.26534896  0.38000021  1
  O2-  O177  1  -0.00387793  0.24731407  0.87529229  1
  O2-  O178  1  -0.02623976  0.74646559  0.38133273  1
  O2-  O179  1  -0.01850101  0.74699992  0.88181915  1
  O2-  O180  1  0.49961008  0.23659423  0.36824634  1
  O2-  O181  1  0.50248900  0.22281498  0.88713601  1
  O2-  O182  1  0.47029409  0.73357760  0.38516847  1
  O2-  O183  1  0.47629877  0.74051101  0.88619625  1
  O2-  O184  1  0.26384373  -0.01499547  0.12691915  1
  O2-  O185  1  0.26701891  -0.01936617  0.61543157  1
  O2-  O186  1  0.27628924  0.48205116  0.11288808  1
  O2-  O187  1  0.27822337  0.47990955  0.61947245  1
  O2-  O188  1  0.74561416  0.03051133  0.11197865  1
  O2-  O189  1  0.75234478  0.02513158  0.63429431  1
  O2-  O190  1  0.75379106  0.51791957  0.11391840  1
  O2-  O191  1  0.75660993  0.52238747  0.63425157  1
  O2-  O192  1  0.13974019  0.25918401  0.22443858  1
  O2-  O193  1  0.11729401  0.27154280  0.75928541  1
  O2-  O194  1  0.13945179  0.78297246  0.25804440  1
  O2-  O195  1  0.13549066  0.77463518  0.77982601  1
  O2-  O196  1  0.61776569  0.27085962  0.24569128  1
  O2-  O197  1  0.63553541  0.27596070  0.76005646  1
  O2-  O198  1  0.62959621  0.77369243  0.26849627  1
  O2-  O199  1  0.63708942  0.76801322  0.78499053  1
  O2-  O200  1  0.37714460  0.22567965  0.24641086  1
  O2-  O201  1  0.36399536  0.21769525  0.75248097  1
  O2-  O202  1  0.36502240  0.74234141  0.21560010  1
  O2-  O203  1  0.36553239  0.72391838  0.73358645  1
  O2-  O204  1  0.86723899  0.21506188  0.24961706  1
  O2-  O205  1  0.87247032  0.23510669  0.75135652  1
  O2-  O206  1  0.86680798  0.73503053  0.22974215  1
  O2-  O207  1  0.86323811  0.72917413  0.71923040  1
  O2-  O208  1  0.27400172  0.35981534  0.25858455  1
  O2-  O209  1  0.25835264  0.35967301  0.78870768  1
  O2-  O210  1  0.27861005  0.88191940  0.25797212  1
  O2-  O211  1  0.28590035  0.86727000  0.76016992  1
  O2-  O212  1  0.76578111  0.36067893  0.21387005  1
  O2-  O213  1  0.76984133  0.37734181  0.73769141  1
  O2-  O214  1  0.76589371  0.87152799  0.22482621  1
  O2-  O215  1  0.76921021  0.88103532  0.73826917  1
  O2-  O216  1  0.24317130  0.12103957  0.22598849  1
  O2-  O217  1  0.21229962  0.13558128  0.73763166  1
  O2-  O218  1  0.23243393  0.63304675  0.22003737  1
  O2-  O219  1  0.22369707  0.63531411  0.74197425  1
  O2-  O220  1  0.71370686  0.13966788  0.25896995  1
  O2-  O221  1  0.73556443  0.12959960  0.77189543  1
  O2-  O222  1  0.72895126  0.63247501  0.26583373  1
  O2-  O223  1  0.72922920  0.62230844  0.76936059  1
  O2-  O224  1  0.11706062  0.46177415  0.23493025  1
  O2-  O225  1  0.11320635  0.46719568  0.73781291  1
  O2-  O226  1  0.13896629  0.98343639  0.25040668  1
  O2-  O227  1  0.11409489  0.97085351  0.74414289  1
  O2-  O228  1  0.61108029  0.46736322  0.23812649  1
  O2-  O229  1  0.62846205  0.47699574  0.73475301  1
  O2-  O230  1  0.61492967  0.98269803  0.25145365  1
  O2-  O231  1  0.63159945  0.98387206  0.74497246  1
  O2-  O232  1  0.37923167  0.02722725  0.25271314  1
  O2-  O233  1  0.38572514  0.03465437  0.74882897  1
  O2-  O234  1  0.38701214  0.50932762  0.28757817  1
  O2-  O235  1  0.38438933  0.52260714  0.76556818  1
  O2-  O236  1  0.88488942  0.03305490  0.24895902  1
  O2-  O237  1  0.86939376  0.02413484  0.75871365  1
  O2-  O238  1  0.88335640  0.52826797  0.27772142  1
  O2-  O239  1  0.86637261  0.51845414  0.76721344  1
  O2-  O240  1  0.47666567  0.36679930  0.25829298  1
  O2-  O241  1  0.47447109  0.38230950  0.75229941  1
  O2-  O242  1  0.47561967  0.88762388  0.26596854  1
  O2-  O243  1  0.49206561  0.89184904  0.77226136  1
  O2-  O244  1  0.96126381  0.38393137  0.24463925  1
  O2-  O245  1  0.97335202  0.36932123  0.75611922  1
  O2-  O246  1  0.98268663  0.88600749  0.24409623  1
  O2-  O247  1  0.96552925  0.88654095  0.74438687  1
  O2-  O248  1  0.03230167  0.12029038  0.26319800  1
  O2-  O249  1  0.01100554  0.13051089  0.75782178  1
  O2-  O250  1  0.03729389  0.61500793  0.25378599  1
  O2-  O251  1  0.02351692  0.61481616  0.74216740  1
  O2-  O252  1  0.51755036  0.12604860  0.23974191  1
  O2-  O253  1  0.53686408  0.11489410  0.74090329  1
  O2-  O254  1  0.52527206  0.61484665  0.24275440  1
  O2-  O255  1  0.52678988  0.61614275  0.73724840  1
  O2-  O256  1  0.13628381  0.47863568  0.02175442  1
  O2-  O257  1  0.13273866  0.47898084  0.52912332  1
  O2-  O258  1  0.13927053  0.97122030  0.00513870  1
  O2-  O259  1  0.13803533  0.97426088  0.49755313  1
  O2-  O260  1  0.63241389  0.46386377  0.00776767  1
  O2-  O261  1  0.61982619  0.48193206  0.52472150  1
  O2-  O262  1  0.62028434  0.98951185  0.00150248  1
  O2-  O263  1  0.61537133  0.98118199  0.50936716  1
  O2-  O264  1  0.37893004  0.02126121  0.00522990  1
  O2-  O265  1  0.38300467  0.02897030  0.49758338  1
  O2-  O266  1  0.36437696  0.51625004  -0.02909059  1
  O2-  O267  1  0.38431020  0.51344957  0.49006536  1
  O2-  O268  1  0.86446671  0.03225270  -0.00965066  1
  O2-  O269  1  0.86447083  0.03268376  0.49766736  1
  O2-  O270  1  0.86053862  0.50838722  -0.02020909  1
  O2-  O271  1  0.86017197  0.52328430  0.48438905  1
  O2-  O272  1  0.47129116  0.35883077  -0.00669650  1
  O2-  O273  1  0.48421043  0.37692329  0.48915922  1
  O2-  O274  1  0.48153749  0.88563651  -0.01282345  1
  O2-  O275  1  0.47689226  0.88146391  0.48415473  1
  O2-  O276  1  0.97841891  0.36444193  -0.00706731  1
  O2-  O277  1  0.96175291  0.36675966  0.50595052  1
  O2-  O278  1  0.97850829  0.86548818  -0.00499987  1
  O2-  O279  1  0.96896152  0.86861361  0.50158155  1
  O2-  O280  1  0.02836899  0.13412069  -0.00925606  1
  O2-  O281  1  0.03167617  0.13624189  0.48849867  1
  O2-  O282  1  0.03640415  0.63464060  -0.00770202  1
  O2-  O283  1  0.02612024  0.63176770  0.50392480  1
  O2-  O284  1  0.51243140  0.12392844  0.02394500  1
  O2-  O285  1  0.52075429  0.12705546  0.50956330  1
  O2-  O286  1  0.52213705  0.63514264  0.02074229  1
  O2-  O287  1  0.51618832  0.62454174  0.51412466  1
  O2-  O288  1  0.12725750  0.27036792  0.00408049  1
  O2-  O289  1  0.11494454  0.28304676  0.50801677  1
  O2-  O290  1  0.13528731  0.77131080  -0.01990846  1
  O2-  O291  1  0.11526932  0.77400970  0.47310755  1
  O2-  O292  1  0.62040539  0.26565127  0.00247845  1
  O2-  O293  1  0.61616710  0.27181711  0.48334174  1
  O2-  O294  1  0.61429867  0.77581917  -0.02298649  1
  O2-  O295  1  0.61091645  0.76694350  0.47061556  1
  O2-  O296  1  0.37265385  0.22204891  -0.00301324  1
  O2-  O297  1  0.38543569  0.23554891  0.49449294  1
  O2-  O298  1  0.37408381  0.73810906  0.02024170  1
  O2-  O299  1  0.38209082  0.73617674  0.52649078  1
  O2-  O300  1  0.87196655  0.22473462  -0.00676852  1
  O2-  O301  1  0.88571144  0.21604512  0.50687996  1
  O2-  O302  1  0.88332661  0.71776317  0.02579178  1
  O2-  O303  1  0.87972645  0.72481849  0.52258053  1
  O2-  O304  1  0.26588738  0.36435524  -0.01908437  1
  O2-  O305  1  0.26999715  0.38364815  0.47562135  1
  O2-  O306  1  0.27898281  0.87647286  -0.00862975  1
  O2-  O307  1  0.28441432  0.88451388  0.48183511  1
  O2-  O308  1  0.76690254  0.36512072  0.01301638  1
  O2-  O309  1  0.75972164  0.38557570  0.53686970  1
  O2-  O310  1  0.76832148  0.88970972  0.01491432  1
  O2-  O311  1  0.75696091  0.88934302  0.53245974  1
  O2-  O312  1  0.23262246  0.11976062  0.02233351  1
  O2-  O313  1  0.23687926  0.11510975  0.51988506  1
  O2-  O314  1  0.23832896  0.62927795  0.01919555  1
  O2-  O315  1  0.24446206  0.61586643  0.52135472  1
  O2-  O316  1  0.72531067  0.13106029  -0.02323184  1
  O2-  O317  1  0.71270838  0.11367088  0.49113697  1
  O2-  O318  1  0.71856884  0.61482245  -0.02345524  1
  O2-  O319  1  0.71664775  0.61239900  0.48863032  1
