# generated using pymatgen
data_Sr64Ca21Nb43O192
_symmetry_space_group_name_H-M   'P 1'
_cell_length_a   16.58831977
_cell_length_b   16.56368237
_cell_length_c   16.73774442
_cell_angle_alpha   90.00697114
_cell_angle_beta   90.06147670
_cell_angle_gamma   89.92124052
_symmetry_Int_Tables_number   1
_chemical_formula_structural   Sr64Ca21Nb43O192
_chemical_formula_sum   'Sr64 Ca21 Nb43 O192'
_cell_volume   4598.91688751
_cell_formula_units_Z   1
loop_
 _symmetry_equiv_pos_site_id
 _symmetry_equiv_pos_as_xyz
  1  'x, y, z'
loop_
 _atom_type_symbol
 _atom_type_oxidation_number
  Sr2+  2.0
  Ca2+  2.0
  Nb5+  5.0
  O2-  -2.0
loop_
 _atom_site_type_symbol
 _atom_site_label
 _atom_site_symmetry_multiplicity
 _atom_site_fract_x
 _atom_site_fract_y
 _atom_site_fract_z
 _atom_site_occupancy
  Sr2+  Sr0  1  0.11081297  0.11309365  0.11918773  1
  Sr2+  Sr1  1  0.11434597  0.11383888  0.62811595  1
  Sr2+  Sr2  1  0.11668033  0.63168091  0.13244615  1
  Sr2+  Sr3  1  0.12301349  0.63963927  0.62189558  1
  Sr2+  Sr4  1  0.62545939  0.11084964  0.13014043  1
  Sr2+  Sr5  1  0.62599428  0.12264849  0.63349895  1
  Sr2+  Sr6  1  0.62137368  0.62700619  0.12189675  1
  Sr2+  Sr7  1  0.62008824  0.62661255  0.61509751  1
  Sr2+  Sr8  1  0.37004985  0.36367410  0.12168733  1
  Sr2+  Sr9  1  0.37593436  0.36669289  0.62648930  1
  Sr2+  Sr10  1  0.37345815  0.86824180  0.11425443  1
  Sr2+  Sr11  1  0.37133480  0.86897209  0.62536771  1
  Sr2+  Sr12  1  0.87539986  0.34986195  0.12493803  1
  Sr2+  Sr13  1  0.88288384  0.36824664  0.62405090  1
  Sr2+  Sr14  1  0.87933470  0.86549485  0.12027341  1
  Sr2+  Sr15  1  0.88532100  0.87998432  0.62893762  1
  Sr2+  Sr16  1  0.13733182  0.38100493  0.37944835  1
  Sr2+  Sr17  1  0.10685216  0.37843993  0.87001146  1
  Sr2+  Sr18  1  0.12740640  0.88179959  0.38802772  1
  Sr2+  Sr19  1  0.14360297  0.88630996  0.86326555  1
  Sr2+  Sr20  1  0.64541486  0.37700310  0.38021460  1
  Sr2+  Sr21  1  0.63179900  0.37858458  0.87143638  1
  Sr2+  Sr22  1  0.63092749  0.87194031  0.37824526  1
  Sr2+  Sr23  1  0.62219272  0.86777982  0.87524873  1
  Sr2+  Sr24  1  0.38190052  0.13687666  0.37308958  1
  Sr2+  Sr25  1  0.37657563  0.13020009  0.88718808  1
  Sr2+  Sr26  1  0.37546501  0.62861295  0.37637862  1
  Sr2+  Sr27  1  0.37727369  0.62243558  0.86808081  1
  Sr2+  Sr28  1  0.87453217  0.12949308  0.36764520  1
  Sr2+  Sr29  1  0.87838064  0.13695326  0.88247833  1
  Sr2+  Sr30  1  0.88574059  0.62039452  0.36487013  1
  Sr2+  Sr31  1  0.85718250  0.63714938  0.87734047  1
  Sr2+  Sr32  1  0.12460227  0.13850345  0.37511096  1
  Sr2+  Sr33  1  0.12433522  0.12569431  0.88145547  1
  Sr2+  Sr34  1  0.12798597  0.63958911  0.36687490  1
  Sr2+  Sr35  1  0.11871599  0.61873126  0.87008320  1
  Sr2+  Sr36  1  0.62438672  0.10089228  0.37453189  1
  Sr2+  Sr37  1  0.61782183  0.12923604  0.87271020  1
  Sr2+  Sr38  1  0.60960995  0.62400147  0.37006280  1
  Sr2+  Sr39  1  0.62119351  0.61726103  0.88062050  1
  Sr2+  Sr40  1  0.38112637  0.37811878  0.37500941  1
  Sr2+  Sr41  1  0.38010520  0.37478372  0.87077073  1
  Sr2+  Sr42  1  0.38174002  0.89426402  0.37686491  1
  Sr2+  Sr43  1  0.38445928  0.89318604  0.87767968  1
  Sr2+  Sr44  1  0.88224659  0.37335908  0.37429564  1
  Sr2+  Sr45  1  0.87999287  0.37788989  0.87504272  1
  Sr2+  Sr46  1  0.88113789  0.88684803  0.38135810  1
  Sr2+  Sr47  1  0.87447975  0.87339715  0.86192354  1
  Sr2+  Sr48  1  0.10750968  0.37539406  0.11747956  1
  Sr2+  Sr49  1  0.11769677  0.36905389  0.62281684  1
  Sr2+  Sr50  1  0.12647700  0.86430713  0.12280984  1
  Sr2+  Sr51  1  0.10787612  0.86907366  0.62660492  1
  Sr2+  Sr52  1  0.63635695  0.36968781  0.13318707  1
  Sr2+  Sr53  1  0.63201328  0.36512036  0.62898727  1
  Sr2+  Sr54  1  0.62437098  0.86435193  0.12710284  1
  Sr2+  Sr55  1  0.65145422  0.87593367  0.62570354  1
  Sr2+  Sr56  1  0.36310349  0.11435447  0.12502207  1
  Sr2+  Sr57  1  0.36868743  0.12955020  0.62652494  1
  Sr2+  Sr58  1  0.36891945  0.61847772  0.12426518  1
  Sr2+  Sr59  1  0.37234415  0.62635402  0.62198713  1
  Sr2+  Sr60  1  0.87755908  0.11565581  0.12714314  1
  Sr2+  Sr61  1  0.87537247  0.11639583  0.63223909  1
  Sr2+  Sr62  1  0.88668071  0.62429668  0.12420322  1
  Sr2+  Sr63  1  0.88027135  0.62953650  0.62575067  1
  Ca2+  Ca64  1  0.00199047  0.00193564  0.50084243  1
  Ca2+  Ca65  1  0.00373902  0.50233058  0.49817697  1
  Ca2+  Ca66  1  0.49935437  -0.00110558  0.50179537  1
  Ca2+  Ca67  1  -0.00093474  0.50514056  -0.00024891  1
  Ca2+  Ca68  1  -0.00338194  -0.00739991  -0.00319372  1
  Ca2+  Ca69  1  0.24751379  0.25445509  0.00011706  1
  Ca2+  Ca70  1  0.75191433  0.74677341  0.49380251  1
  Ca2+  Ca71  1  0.74592361  0.24909598  -0.00004117  1
  Ca2+  Ca72  1  0.74997979  0.24795148  0.50077618  1
  Ca2+  Ca73  1  0.24808914  0.74641566  -0.00327205  1
  Ca2+  Ca74  1  -0.00327278  0.75568403  0.25098246  1
  Ca2+  Ca75  1  0.74881081  0.50337272  0.74866698  1
  Ca2+  Ca76  1  0.24686758  0.00124983  0.25245076  1
  Ca2+  Ca77  1  0.50292307  0.25098871  0.25048389  1
  Ca2+  Ca78  1  0.50066948  0.75099196  0.74841595  1
  Ca2+  Ca79  1  0.00300899  0.24884097  0.75053705  1
  Ca2+  Ca80  1  0.49530018  0.75144240  0.24833355  1
  Ca2+  Ca81  1  0.75173318  0.00158436  0.75844002  1
  Ca2+  Ca82  1  0.00081639  0.74508071  0.75219147  1
  Ca2+  Ca83  1  0.00156198  0.24809358  0.25165655  1
  Ca2+  Ca84  1  0.25515402  0.00431868  0.74680803  1
  Nb5+  Nb85  1  0.49734322  0.49390195  0.00317879  1
  Nb5+  Nb86  1  0.50244527  -0.00279760  0.00251042  1
  Nb5+  Nb87  1  0.50130146  0.49629856  0.50543609  1
  Nb5+  Nb88  1  0.74795086  0.75242456  0.00281552  1
  Nb5+  Nb89  1  0.25286491  0.25813083  0.49971266  1
  Nb5+  Nb90  1  0.25435704  0.75768486  0.49907925  1
  Nb5+  Nb91  1  0.25484915  0.49717892  0.24620587  1
  Nb5+  Nb92  1  0.49942297  0.25107476  0.75113446  1
  Nb5+  Nb93  1  0.75544460  0.49937231  0.24680774  1
  Nb5+  Nb94  1  0.75065421  -0.01103430  0.24623418  1
  Nb5+  Nb95  1  0.25017020  0.49670617  0.73944375  1
  Nb5+  Nb96  1  0.00376614  -0.00817127  0.25012882  1
  Nb5+  Nb97  1  0.00482662  0.00031567  0.75708920  1
  Nb5+  Nb98  1  0.00869107  0.49722028  0.25020968  1
  Nb5+  Nb99  1  -0.00926685  0.50569680  0.74831634  1
  Nb5+  Nb100  1  0.49682890  0.00092731  0.24930862  1
  Nb5+  Nb101  1  0.49608522  -0.00037222  0.74383071  1
  Nb5+  Nb102  1  0.50374901  0.49570233  0.25323883  1
  Nb5+  Nb103  1  0.50138508  0.49856768  0.75153247  1
  Nb5+  Nb104  1  0.24369654  0.25080332  0.24453854  1
  Nb5+  Nb105  1  0.25060194  0.25246689  0.75045452  1
  Nb5+  Nb106  1  0.25346464  0.75577811  0.25112460  1
  Nb5+  Nb107  1  0.25487711  0.74804694  0.75444273  1
  Nb5+  Nb108  1  0.74473402  0.23928167  0.25113641  1
  Nb5+  Nb109  1  0.75583495  0.25039823  0.74842719  1
  Nb5+  Nb110  1  0.74678400  0.74306070  0.25169145  1
  Nb5+  Nb111  1  0.74810075  0.74672264  0.74337537  1
  Nb5+  Nb112  1  -0.00473727  0.24566072  0.50368708  1
  Nb5+  Nb113  1  -0.00027650  0.24849550  0.99946523  1
  Nb5+  Nb114  1  -0.00373247  0.74577287  0.49715762  1
  Nb5+  Nb115  1  0.00693652  0.75417717  0.99303172  1
  Nb5+  Nb116  1  0.50356729  0.25090404  0.49898005  1
  Nb5+  Nb117  1  0.50451545  0.24523355  1.00489460  1
  Nb5+  Nb118  1  0.49811281  0.75345855  0.50031512  1
  Nb5+  Nb119  1  0.49796345  0.74291616  0.99860804  1
  Nb5+  Nb120  1  0.24603270  -0.00223021  0.00442614  1
  Nb5+  Nb121  1  0.25122588  0.01351579  0.50155138  1
  Nb5+  Nb122  1  0.24861385  0.49837357  -0.00934267  1
  Nb5+  Nb123  1  0.25153336  0.50536642  0.49782769  1
  Nb5+  Nb124  1  0.74675581  0.00122714  -0.00138821  1
  Nb5+  Nb125  1  0.75256925  0.00146723  0.50404617  1
  Nb5+  Nb126  1  0.75039705  0.50260295  0.00383983  1
  Nb5+  Nb127  1  0.75537399  0.50946582  0.50171151  1
  O2-  O128  1  -0.01814148  0.00636319  0.13228941  1
  O2-  O129  1  -0.02129064  0.01149777  0.63625702  1
  O2-  O130  1  0.00726121  0.51889364  0.13427790  1
  O2-  O131  1  -0.01490773  0.50156391  0.63076902  1
  O2-  O132  1  0.48792565  0.02013399  0.12177385  1
  O2-  O133  1  0.47713242  0.02026761  0.63395224  1
  O2-  O134  1  0.49354628  0.50505731  0.12002504  1
  O2-  O135  1  0.49343657  0.50419234  0.62446007  1
  O2-  O136  1  0.01162746  -0.02272115  0.36803866  1
  O2-  O137  1  0.03759492  -0.01204326  0.86965549  1
  O2-  O138  1  -0.01591074  0.48920578  0.36493434  1
  O2-  O139  1  0.01305972  0.49683113  0.86640497  1
  O2-  O140  1  0.51939012  -0.01947282  0.36289419  1
  O2-  O141  1  0.52313619  -0.00607083  0.88410442  1
  O2-  O142  1  0.50140414  0.49365536  0.37251240  1
  O2-  O143  1  0.50146501  0.49131255  0.87403538  1
  O2-  O144  1  0.23020141  0.28755037  0.13716111  1
  O2-  O145  1  0.24561696  0.27753229  0.62013845  1
  O2-  O146  1  0.24822535  0.77006097  0.13488140  1
  O2-  O147  1  0.26023200  0.76010282  0.61980085  1
  O2-  O148  1  0.72230412  0.24132141  0.13444066  1
  O2-  O149  1  0.72001510  0.23779741  0.63426005  1
  O2-  O150  1  0.72731115  0.73792236  0.12509070  1
  O2-  O151  1  0.73995723  0.72392297  0.63067943  1
  O2-  O152  1  0.26865175  0.23349170  0.38376334  1
  O2-  O153  1  0.27228917  0.23833667  0.86267875  1
  O2-  O154  1  0.25145716  0.72810190  0.38032640  1
  O2-  O155  1  0.24677584  0.71320266  0.86411417  1
  O2-  O156  1  0.77172614  0.26664493  0.36463410  1
  O2-  O157  1  0.76681334  0.27476433  0.86498763  1
  O2-  O158  1  0.76380380  0.77476804  0.36090339  1
  O2-  O159  1  0.75905229  0.76868882  0.88577375  1
  O2-  O160  1  0.02837970  0.24329885  0.11739598  1
  O2-  O161  1  0.03005407  0.24603263  0.61829433  1
  O2-  O162  1  0.00879922  0.75578565  0.11432857  1
  O2-  O163  1  0.00074784  0.73355838  0.61683505  1
  O2-  O164  1  0.53155082  0.25166469  0.11419752  1
  O2-  O165  1  0.51320110  0.25181143  0.62721459  1
  O2-  O166  1  0.51537833  0.74896880  0.11408537  1
  O2-  O167  1  0.49473707  0.72797220  0.61427708  1
  O2-  O168  1  0.21770424  0.01524425  0.38621276  1
  O2-  O169  1  0.23471330  0.01748792  0.88616827  1
  O2-  O170  1  0.24367054  0.51503559  0.38115855  1
  O2-  O171  1  0.24865841  0.51748532  0.87492367  1
  O2-  O172  1  0.73402538  -0.01945930  0.36438618  1
  O2-  O173  1  0.73133937  -0.03098055  0.89002860  1
  O2-  O174  1  0.75108245  0.48870597  0.36527345  1
  O2-  O175  1  0.74450610  0.48535889  0.88927305  1
  O2-  O176  1  -0.02567134  0.24932835  0.38601873  1
  O2-  O177  1  -0.02822432  0.25934643  0.88233983  1
  O2-  O178  1  0.01019772  0.77031077  0.38343610  1
  O2-  O179  1  -0.02300222  0.72971541  0.88344308  1
  O2-  O180  1  0.47776404  0.26041882  0.38642849  1
  O2-  O181  1  0.47503652  0.25204479  0.86896819  1
  O2-  O182  1  0.49364333  0.73559828  0.38384029  1
  O2-  O183  1  0.49026044  0.76869201  0.88430255  1
  O2-  O184  1  0.27997584  -0.01694490  0.11884160  1
  O2-  O185  1  0.29023542  -0.00802027  0.61266280  1
  O2-  O186  1  0.26110500  0.47795006  0.13364828  1
  O2-  O187  1  0.26879860  0.48379039  0.62432283  1
  O2-  O188  1  0.75697661  0.01828350  0.12742180  1
  O2-  O189  1  0.76101888  0.01811427  0.61855289  1
  O2-  O190  1  0.73444501  0.52428560  0.12998188  1
  O2-  O191  1  0.74661895  0.52931102  0.61420825  1
  O2-  O192  1  0.13460621  0.26782613  0.28647787  1
  O2-  O193  1  0.13972844  0.27981123  0.76104705  1
  O2-  O194  1  0.13577493  0.75519963  0.25432387  1
  O2-  O195  1  0.13897507  0.76345592  0.73881607  1
  O2-  O196  1  0.63509402  0.28275683  0.26792153  1
  O2-  O197  1  0.61503445  0.27449942  0.76459537  1
  O2-  O198  1  0.63089518  0.77260140  0.25957820  1
  O2-  O199  1  0.63291777  0.78172562  0.75243094  1
  O2-  O200  1  0.36196748  0.23467476  0.23744950  1
  O2-  O201  1  0.37823822  0.24093180  0.72806306  1
  O2-  O202  1  0.36255279  0.71194260  0.24624564  1
  O2-  O203  1  0.36764432  0.71526063  0.74296286  1
  O2-  O204  1  0.86255626  0.23282781  0.22775203  1
  O2-  O205  1  0.86698895  0.22699181  0.73022788  1
  O2-  O206  1  0.86165856  0.72394866  0.23204896  1
  O2-  O207  1  0.86471695  0.72496450  0.74795515  1
  O2-  O208  1  0.26350815  0.38049610  0.27906628  1
  O2-  O209  1  0.28059996  0.37886094  0.75822037  1
  O2-  O210  1  0.27366777  0.86480946  0.27702934  1
  O2-  O211  1  0.27703060  0.86132422  0.77072597  1
  O2-  O212  1  0.76571170  0.38556921  0.22953642  1
  O2-  O213  1  0.76599567  0.36938541  0.72512835  1
  O2-  O214  1  0.76420940  0.87613704  0.22547362  1
  O2-  O215  1  0.77415888  0.86589246  0.73333778  1
  O2-  O216  1  0.22274165  0.13744356  0.22652941  1
  O2-  O217  1  0.23812839  0.14072352  0.72213747  1
  O2-  O218  1  0.22651640  0.61199175  0.24019565  1
  O2-  O219  1  0.23533313  0.61352032  0.72730518  1
  O2-  O220  1  0.72621763  0.12501141  0.26436475  1
  O2-  O221  1  0.72408256  0.13653312  0.76881607  1
  O2-  O222  1  0.72333012  0.62689713  0.26514278  1
  O2-  O223  1  0.72523017  0.63659809  0.78179695  1
  O2-  O224  1  0.12501471  0.47553363  0.25239977  1
  O2-  O225  1  0.13784091  0.47035597  0.74275317  1
  O2-  O226  1  0.11486848  0.96495527  0.23077567  1
  O2-  O227  1  0.12304552  0.97735382  0.72655957  1
  O2-  O228  1  0.62004803  0.47759818  0.25059971  1
  O2-  O229  1  0.61424179  0.47112572  0.74533508  1
  O2-  O230  1  0.62740098  0.98392521  0.23050107  1
  O2-  O231  1  0.61358430  0.98762679  0.73448046  1
  O2-  O232  1  0.38420349  0.02802468  0.26699840  1
  O2-  O233  1  0.38802145  0.02653672  0.78458795  1
  O2-  O234  1  0.37030536  0.51790042  0.25917297  1
  O2-  O235  1  0.37712720  0.51651311  0.75693546  1
  O2-  O236  1  0.86226316  0.02260573  0.26208373  1
  O2-  O237  1  0.88723244  0.02131302  0.78401582  1
  O2-  O238  1  0.86721991  0.52498076  0.24266432  1
  O2-  O239  1  0.88155712  0.53757695  0.76067548  1
  O2-  O240  1  0.46969323  0.38571656  0.23563469  1
  O2-  O241  1  0.47686969  0.37512209  0.74565211  1
  O2-  O242  1  0.47394669  0.88618460  0.22825183  1
  O2-  O243  1  0.47023009  0.88708352  0.74185331  1
  O2-  O244  1  0.97507099  0.38459213  0.23487858  1
  O2-  O245  1  0.97734498  0.38532258  0.74869580  1
  O2-  O246  1  0.95433552  0.88408283  0.24605820  1
  O2-  O247  1  0.98150826  0.88020690  0.74619337  1
  O2-  O248  1  0.01330063  0.11087947  0.26320265  1
  O2-  O249  1  0.03192707  0.11795629  0.76148901  1
  O2-  O250  1  0.01328930  0.61748399  0.26544994  1
  O2-  O251  1  0.04176903  0.61164187  0.74571619  1
  O2-  O252  1  0.52772653  0.11722104  0.25690446  1
  O2-  O253  1  0.51859904  0.13286215  0.75371703  1
  O2-  O254  1  0.51502272  0.61205738  0.24287061  1
  O2-  O255  1  0.52266038  0.61274729  0.75770301  1
  O2-  O256  1  0.13865302  0.46825509  -0.00213290  1
  O2-  O257  1  0.14122153  0.47409199  0.51122554  1
  O2-  O258  1  0.13460138  0.98050868  0.02720429  1
  O2-  O259  1  0.14135805  0.97816781  0.52752158  1
  O2-  O260  1  0.61698293  0.49175012  0.00130897  1
  O2-  O261  1  0.61663165  0.47501016  0.50355353  1
  O2-  O262  1  0.62042409  0.98417709  0.02694825  1
  O2-  O263  1  0.63451430  0.97324069  0.50561164  1
  O2-  O264  1  0.38453975  0.01693701  -0.01281506  1
  O2-  O265  1  0.36601283  0.01782411  0.46387903  1
  O2-  O266  1  0.38261475  0.52677543  -0.00748279  1
  O2-  O267  1  0.37599658  0.51565046  0.49253558  1
  O2-  O268  1  0.85952160  0.02115218  -0.00971725  1
  O2-  O269  1  0.86572161  0.01945991  0.47249578  1
  O2-  O270  1  0.86214690  0.52972925  0.00310169  1
  O2-  O271  1  0.86521840  0.53665852  0.49201255  1
  O2-  O272  1  0.48182369  0.37793197  0.00281864  1
  O2-  O273  1  0.47300646  0.37960539  0.50688641  1
  O2-  O274  1  0.48505763  0.88021231  0.00972776  1
  O2-  O275  1  0.46466015  0.86387796  0.50461269  1
  O2-  O276  1  0.97894323  0.36935922  0.01193309  1
  O2-  O277  1  0.98768916  0.36530813  0.50630798  1
  O2-  O278  1  0.95614542  0.86203921  -0.00948899  1
  O2-  O279  1  0.98843563  0.86442589  0.51824927  1
  O2-  O280  1  0.01734865  0.12949461  -0.01171575  1
  O2-  O281  1  0.03494695  0.13363854  0.49352055  1
  O2-  O282  1  0.03726529  0.63672262  0.00318625  1
  O2-  O283  1  0.03865205  0.63400661  0.48581758  1
  O2-  O284  1  0.51679451  0.12788692  -0.00859360  1
  O2-  O285  1  0.52123642  0.13650737  0.49372556  1
  O2-  O286  1  0.51665222  0.62610876  -0.00951830  1
  O2-  O287  1  0.51633486  0.61448241  0.49582569  1
  O2-  O288  1  0.11653677  0.26817616  -0.02900914  1
  O2-  O289  1  0.13709709  0.27055260  0.48440275  1
  O2-  O290  1  0.11522830  0.79150458  -0.01926412  1
  O2-  O291  1  0.13697529  0.76771789  0.50420888  1
  O2-  O292  1  0.61209087  0.26816199  -0.03504866  1
  O2-  O293  1  0.61369482  0.28374528  0.49312177  1
  O2-  O294  1  0.62346754  0.76470955  -0.01088120  1
  O2-  O295  1  0.61310200  0.77420752  0.50045414  1
  O2-  O296  1  0.38674165  0.23600741  0.02067446  1
  O2-  O297  1  0.37611397  0.23700891  0.51970496  1
  O2-  O298  1  0.38310752  0.72972232  0.01197101  1
  O2-  O299  1  0.37116494  0.72166966  0.49996630  1
  O2-  O300  1  0.88040911  0.22766289  0.02286899  1
  O2-  O301  1  0.88425655  0.22793215  0.53190670  1
  O2-  O302  1  0.86177603  0.72497580  0.01583603  1
  O2-  O303  1  0.88508558  0.71559548  0.49104270  1
  O2-  O304  1  0.29059807  0.38902648  -0.00746184  1
  O2-  O305  1  0.27419188  0.37507226  0.48329283  1
  O2-  O306  1  0.27459575  0.88275332  -0.02019483  1
  O2-  O307  1  0.27303170  0.87026515  0.48237786  1
  O2-  O308  1  0.75692911  0.38954571  0.03011279  1
  O2-  O309  1  0.76955948  0.39090347  0.50607780  1
  O2-  O310  1  0.75517207  0.87108798  0.02646475  1
  O2-  O311  1  0.77574205  0.88163137  0.51644469  1
  O2-  O312  1  0.24028010  0.11785483  0.02310046  1
  O2-  O313  1  0.23903088  0.12972554  0.52076545  1
  O2-  O314  1  0.23831687  0.60821712  0.03230082  1
  O2-  O315  1  0.23852196  0.61955255  0.51768491  1
  O2-  O316  1  0.71856396  0.11296400  -0.01419379  1
  O2-  O317  1  0.72513390  0.11545199  0.48114485  1
  O2-  O318  1  0.72284125  0.62798950  -0.00856279  1
  O2-  O319  1  0.70925072  0.61499236  0.47473819  1
