# generated using pymatgen
data_Sr64Ca21Nb43O192
_symmetry_space_group_name_H-M   'P 1'
_cell_length_a   16.55915862
_cell_length_b   16.57155611
_cell_length_c   16.72086875
_cell_angle_alpha   90.05744944
_cell_angle_beta   90.02067622
_cell_angle_gamma   89.94658486
_symmetry_Int_Tables_number   1
_chemical_formula_structural   Sr64Ca21Nb43O192
_chemical_formula_sum   'Sr64 Ca21 Nb43 O192'
_cell_volume   4588.38615626
_cell_formula_units_Z   1
loop_
 _symmetry_equiv_pos_site_id
 _symmetry_equiv_pos_as_xyz
  1  'x, y, z'
loop_
 _atom_type_symbol
 _atom_type_oxidation_number
  Sr2+  2.0
  Ca2+  2.0
  Nb5+  5.0
  O2-  -2.0
loop_
 _atom_site_type_symbol
 _atom_site_label
 _atom_site_symmetry_multiplicity
 _atom_site_fract_x
 _atom_site_fract_y
 _atom_site_fract_z
 _atom_site_occupancy
  Sr2+  Sr0  1  0.13581898  0.12156298  0.12732109  1
  Sr2+  Sr1  1  0.13292197  0.11911370  0.62821520  1
  Sr2+  Sr2  1  0.11923985  0.61299710  0.12452517  1
  Sr2+  Sr3  1  0.12149823  0.63867582  0.62657402  1
  Sr2+  Sr4  1  0.61913276  0.11444969  0.12558356  1
  Sr2+  Sr5  1  0.62597953  0.11950271  0.62523506  1
  Sr2+  Sr6  1  0.62907171  0.63102024  0.11417124  1
  Sr2+  Sr7  1  0.62356673  0.61629638  0.62755529  1
  Sr2+  Sr8  1  0.36847612  0.36753807  0.12653498  1
  Sr2+  Sr9  1  0.37628142  0.36405659  0.62448163  1
  Sr2+  Sr10  1  0.37253957  0.86267668  0.11725561  1
  Sr2+  Sr11  1  0.36626903  0.86202357  0.62736065  1
  Sr2+  Sr12  1  0.88720646  0.36377323  0.12116488  1
  Sr2+  Sr13  1  0.87144057  0.36389729  0.62464154  1
  Sr2+  Sr14  1  0.87821817  0.86126196  0.12595103  1
  Sr2+  Sr15  1  0.88619418  0.86084938  0.62107947  1
  Sr2+  Sr16  1  0.12837943  0.38436122  0.38401627  1
  Sr2+  Sr17  1  0.11334462  0.38386386  0.87769686  1
  Sr2+  Sr18  1  0.12204003  0.88016911  0.36589815  1
  Sr2+  Sr19  1  0.12841383  0.88887192  0.87055813  1
  Sr2+  Sr20  1  0.62050511  0.37812648  0.36984939  1
  Sr2+  Sr21  1  0.63046277  0.38491763  0.87319710  1
  Sr2+  Sr22  1  0.63062281  0.88530721  0.37136442  1
  Sr2+  Sr23  1  0.61203387  0.87255356  0.88412617  1
  Sr2+  Sr24  1  0.37979173  0.13279520  0.37470465  1
  Sr2+  Sr25  1  0.37548776  0.12025424  0.86547792  1
  Sr2+  Sr26  1  0.37426480  0.62209152  0.38199245  1
  Sr2+  Sr27  1  0.38518253  0.64097869  0.86949220  1
  Sr2+  Sr28  1  0.86370806  0.13055242  0.36869115  1
  Sr2+  Sr29  1  0.86764858  0.13392013  0.88558561  1
  Sr2+  Sr30  1  0.87069428  0.63276320  0.37674007  1
  Sr2+  Sr31  1  0.86679032  0.62366811  0.87025068  1
  Sr2+  Sr32  1  0.12574245  0.13351974  0.37700331  1
  Sr2+  Sr33  1  0.12947662  0.13178331  0.87015627  1
  Sr2+  Sr34  1  0.12416835  0.63799274  0.37358895  1
  Sr2+  Sr35  1  0.11761146  0.62939714  0.87304477  1
  Sr2+  Sr36  1  0.62402876  0.12452735  0.37240131  1
  Sr2+  Sr37  1  0.61451545  0.14331810  0.87485196  1
  Sr2+  Sr38  1  0.62061441  0.62620898  0.37878984  1
  Sr2+  Sr39  1  0.62856456  0.63425841  0.87179102  1
  Sr2+  Sr40  1  0.37840876  0.38294565  0.37411127  1
  Sr2+  Sr41  1  0.37610170  0.38133615  0.88024716  1
  Sr2+  Sr42  1  0.38188525  0.87458435  0.37533057  1
  Sr2+  Sr43  1  0.37801037  0.87281800  0.86788004  1
  Sr2+  Sr44  1  0.86353598  0.37968903  0.37653173  1
  Sr2+  Sr45  1  0.86989363  0.38805310  0.87828166  1
  Sr2+  Sr46  1  0.87626113  0.88775430  0.36682048  1
  Sr2+  Sr47  1  0.87124926  0.88272257  0.87438903  1
  Sr2+  Sr48  1  0.12984081  0.37631918  0.11213831  1
  Sr2+  Sr49  1  0.12815092  0.36484073  0.63085258  1
  Sr2+  Sr50  1  0.11519317  0.86688850  0.12308583  1
  Sr2+  Sr51  1  0.12074482  0.87518048  0.63530860  1
  Sr2+  Sr52  1  0.61571690  0.36692916  0.11383312  1
  Sr2+  Sr53  1  0.62660721  0.36975429  0.63183243  1
  Sr2+  Sr54  1  0.63358333  0.86581998  0.12500381  1
  Sr2+  Sr55  1  0.62369596  0.87104466  0.61059541  1
  Sr2+  Sr56  1  0.37145843  0.12067358  0.13006386  1
  Sr2+  Sr57  1  0.37348219  0.11468883  0.62161377  1
  Sr2+  Sr58  1  0.35204599  0.61570009  0.12551027  1
  Sr2+  Sr59  1  0.36861335  0.61702155  0.62666306  1
  Sr2+  Sr60  1  0.88759199  0.11318523  0.12104494  1
  Sr2+  Sr61  1  0.89319302  0.12183034  0.62124218  1
  Sr2+  Sr62  1  0.88498012  0.62165915  0.12981115  1
  Sr2+  Sr63  1  0.87796226  0.61356477  0.62666710  1
  Ca2+  Ca64  1  0.00061623  -0.00118542  0.49996855  1
  Ca2+  Ca65  1  0.49740923  0.00240342  0.00217784  1
  Ca2+  Ca66  1  0.00463540  -0.00390868  -0.00151890  1
  Ca2+  Ca67  1  0.00046386  0.49817839  0.49958641  1
  Ca2+  Ca68  1  0.49741834  0.50312046  0.00021832  1
  Ca2+  Ca69  1  0.74721585  0.25089006  0.00264199  1
  Ca2+  Ca70  1  0.75070453  0.75173259  0.49737181  1
  Ca2+  Ca71  1  0.24997775  0.24682962  -0.00141568  1
  Ca2+  Ca72  1  0.24791811  0.75347220  -0.00074997  1
  Ca2+  Ca73  1  0.24902347  0.75160740  0.49763921  1
  Ca2+  Ca74  1  0.24678708  0.49871028  0.25122398  1
  Ca2+  Ca75  1  0.50543973  0.75101025  0.74459573  1
  Ca2+  Ca76  1  0.74934003  -0.00010239  0.74852112  1
  Ca2+  Ca77  1  0.24908941  0.49831334  0.75163946  1
  Ca2+  Ca78  1  0.50202628  0.74777291  0.25040206  1
  Ca2+  Ca79  1  -0.00158719  0.74957956  0.75480936  1
  Ca2+  Ca80  1  -0.00145362  0.25083733  0.25179520  1
  Ca2+  Ca81  1  -0.00245758  0.25030711  0.75111722  1
  Ca2+  Ca82  1  0.74680618  0.49957735  0.24760562  1
  Ca2+  Ca83  1  0.49833148  0.25138445  0.74657211  1
  Ca2+  Ca84  1  0.25199912  -0.00470406  0.25500901  1
  Nb5+  Nb85  1  0.50031638  0.49545901  0.50183205  1
  Nb5+  Nb86  1  0.49935375  -0.00316937  0.49873011  1
  Nb5+  Nb87  1  -0.00431588  0.50056035  -0.00047054  1
  Nb5+  Nb88  1  0.75540766  0.75227301  -0.00297628  1
  Nb5+  Nb89  1  0.25752015  0.24880987  0.50132262  1
  Nb5+  Nb90  1  0.75125255  0.24862973  0.50037651  1
  Nb5+  Nb91  1  0.75162187  0.00350614  0.24566647  1
  Nb5+  Nb92  1  -0.00005781  0.74746674  0.25066057  1
  Nb5+  Nb93  1  0.49918975  0.25026340  0.24960353  1
  Nb5+  Nb94  1  0.25375105  -0.00029983  0.74845574  1
  Nb5+  Nb95  1  0.74960930  0.50015504  0.74856184  1
  Nb5+  Nb96  1  0.00557796  0.00143900  0.24414321  1
  Nb5+  Nb97  1  -0.00616471  0.00397544  0.75511836  1
  Nb5+  Nb98  1  -0.00261256  0.49617091  0.25547431  1
  Nb5+  Nb99  1  0.00056468  0.49483799  0.74548869  1
  Nb5+  Nb100  1  0.49669857  0.00000017  0.25208527  1
  Nb5+  Nb101  1  0.50556265  -0.00333192  0.74804015  1
  Nb5+  Nb102  1  0.50048790  0.50359746  0.24447344  1
  Nb5+  Nb103  1  0.49727791  0.50170930  0.75269073  1
  Nb5+  Nb104  1  0.24347405  0.25161753  0.25342028  1
  Nb5+  Nb105  1  0.25721517  0.25112646  0.75385443  1
  Nb5+  Nb106  1  0.25461120  0.74871136  0.24914780  1
  Nb5+  Nb107  1  0.24851661  0.74560889  0.75031499  1
  Nb5+  Nb108  1  0.74712963  0.24931291  0.24469635  1
  Nb5+  Nb109  1  0.74993690  0.24850994  0.75484877  1
  Nb5+  Nb110  1  0.74941275  0.74903335  0.25321425  1
  Nb5+  Nb111  1  0.75166964  0.75431393  0.74195389  1
  Nb5+  Nb112  1  0.00786526  0.25038269  0.49673814  1
  Nb5+  Nb113  1  0.00362615  0.24198772  1.00335034  1
  Nb5+  Nb114  1  0.00103415  0.75009370  0.49999143  1
  Nb5+  Nb115  1  -0.00351739  0.74799967  0.99632077  1
  Nb5+  Nb116  1  0.50702558  0.24808689  0.49729962  1
  Nb5+  Nb117  1  0.49356175  0.25086517  0.99658705  1
  Nb5+  Nb118  1  0.50177352  0.74216813  0.49945233  1
  Nb5+  Nb119  1  0.49759334  0.74707457  1.00473534  1
  Nb5+  Nb120  1  0.25529183  -0.00158793  0.00478158  1
  Nb5+  Nb121  1  0.24766547  -0.00349183  0.49959053  1
  Nb5+  Nb122  1  0.25220110  0.50352697  -0.00740523  1
  Nb5+  Nb123  1  0.24495196  0.50000623  0.50774460  1
  Nb5+  Nb124  1  0.74584697  0.00094691  -0.00733123  1
  Nb5+  Nb125  1  0.75447796  0.00500023  0.50272998  1
  Nb5+  Nb126  1  0.75079204  0.50243795  0.00600917  1
  Nb5+  Nb127  1  0.74608376  0.50110056  0.49799746  1
  O2-  O128  1  -0.02745474  -0.02236221  0.13347247  1
  O2-  O129  1  -0.02201009  -0.02146960  0.63742191  1
  O2-  O130  1  -0.02718101  0.49169095  0.11905716  1
  O2-  O131  1  -0.02851890  0.48105520  0.63450113  1
  O2-  O132  1  0.48497733  0.01874182  0.13973789  1
  O2-  O133  1  0.49102135  0.01342661  0.61467224  1
  O2-  O134  1  0.46961207  0.50839698  0.13497590  1
  O2-  O135  1  0.49063221  0.51551950  0.61904870  1
  O2-  O136  1  0.01866866  0.00492511  0.36212547  1
  O2-  O137  1  0.03531331  0.01627313  0.86616496  1
  O2-  O138  1  0.02977216  0.51097735  0.36423776  1
  O2-  O139  1  0.00815410  0.51923833  0.88015966  1
  O2-  O140  1  0.52363027  -0.00246383  0.37877024  1
  O2-  O141  1  0.51270750  -0.00829559  0.86344803  1
  O2-  O142  1  0.52231885  0.49748262  0.38369045  1
  O2-  O143  1  0.51307838  0.48071511  0.86466575  1
  O2-  O144  1  0.22840981  0.25967732  0.13849421  1
  O2-  O145  1  0.23406201  0.25854545  0.61771812  1
  O2-  O146  1  0.23607367  0.78458934  0.13570863  1
  O2-  O147  1  0.22726720  0.76967702  0.63388765  1
  O2-  O148  1  0.71185937  0.24008254  0.13599550  1
  O2-  O149  1  0.72178074  0.24560776  0.61629765  1
  O2-  O150  1  0.73681271  0.74232035  0.12934610  1
  O2-  O151  1  0.72229904  0.74520059  0.63275954  1
  O2-  O152  1  0.26463335  0.23252744  0.38253098  1
  O2-  O153  1  0.27567218  0.23211168  0.86488844  1
  O2-  O154  1  0.25915156  0.71383399  0.36541009  1
  O2-  O155  1  0.27918416  0.74752317  0.86558119  1
  O2-  O156  1  0.76393406  0.25830420  0.37792893  1
  O2-  O157  1  0.77709101  0.26401450  0.86544682  1
  O2-  O158  1  0.77962812  0.77093192  0.36450268  1
  O2-  O159  1  0.77915947  0.75884638  0.88302320  1
  O2-  O160  1  0.01489180  0.27973712  0.11795729  1
  O2-  O161  1  0.00336158  0.28224215  0.61180591  1
  O2-  O162  1  0.00818218  0.75774729  0.12749697  1
  O2-  O163  1  0.01816760  0.76430610  0.61590717  1
  O2-  O164  1  0.52308201  0.24533806  0.13676773  1
  O2-  O165  1  0.52211971  0.24963945  0.61082089  1
  O2-  O166  1  0.53240536  0.74923434  0.11764551  1
  O2-  O167  1  0.53731608  0.74815835  0.61237942  1
  O2-  O168  1  0.22193086  0.01484943  0.38892793  1
  O2-  O169  1  0.24402972  0.00598847  0.86561569  1
  O2-  O170  1  0.23516602  0.50733442  0.38966051  1
  O2-  O171  1  0.21034355  0.50921423  0.88259344  1
  O2-  O172  1  0.73779786  -0.00693280  0.37556347  1
  O2-  O173  1  0.73295060  -0.03335736  0.88454878  1
  O2-  O174  1  0.72802308  0.48482082  0.38473229  1
  O2-  O175  1  0.74064779  0.49312293  0.87089246  1
  O2-  O176  1  -0.01432455  0.21425824  0.38554509  1
  O2-  O177  1  -0.01352367  0.22412007  0.88646042  1
  O2-  O178  1  -0.01730703  0.73184634  0.36806384  1
  O2-  O179  1  -0.02323793  0.72298957  0.88679261  1
  O2-  O180  1  0.47862917  0.25751290  0.37846964  1
  O2-  O181  1  0.46696848  0.25117379  0.88393697  1
  O2-  O182  1  0.46779298  0.74645044  0.38409441  1
  O2-  O183  1  0.48867764  0.75658576  0.88336604  1
  O2-  O184  1  0.27486657  -0.00383934  0.11904532  1
  O2-  O185  1  0.27416991  -0.00377234  0.62325610  1
  O2-  O186  1  0.26602675  0.48332967  0.11268167  1
  O2-  O187  1  0.28139904  0.47916632  0.61761258  1
  O2-  O188  1  0.76148435  0.02370817  0.13126449  1
  O2-  O189  1  0.76085242  0.03494135  0.61431907  1
  O2-  O190  1  0.75939206  0.53141286  0.11605151  1
  O2-  O191  1  0.76128128  0.50719594  0.62587952  1
  O2-  O192  1  0.13302706  0.26708009  0.28452949  1
  O2-  O193  1  0.13842035  0.26559855  0.75962931  1
  O2-  O194  1  0.11739393  0.76229001  0.26471970  1
  O2-  O195  1  0.13372710  0.76840428  0.77775546  1
  O2-  O196  1  0.62057824  0.26010422  0.27751529  1
  O2-  O197  1  0.63373674  0.27755557  0.76534138  1
  O2-  O198  1  0.63792254  0.77948913  0.26552545  1
  O2-  O199  1  0.64245523  0.76470862  0.78487736  1
  O2-  O200  1  0.38035573  0.22949780  0.23979352  1
  O2-  O201  1  0.36752915  0.22831670  0.71528064  1
  O2-  O202  1  0.36738553  0.73680858  0.22450336  1
  O2-  O203  1  0.36812828  0.73005371  0.72698310  1
  O2-  O204  1  0.85952396  0.22150457  0.23098491  1
  O2-  O205  1  0.86051710  0.23607885  0.71545282  1
  O2-  O206  1  0.87519796  0.73913454  0.23159693  1
  O2-  O207  1  0.86485721  0.71892834  0.73349731  1
  O2-  O208  1  0.27704428  0.36386175  0.26618444  1
  O2-  O209  1  0.28198510  0.36504710  0.75928923  1
  O2-  O210  1  0.25797662  0.86250561  0.28913589  1
  O2-  O211  1  0.27112337  0.88084758  0.75380074  1
  O2-  O212  1  0.76954571  0.36291354  0.24279065  1
  O2-  O213  1  0.76648143  0.37909846  0.73881791  1
  O2-  O214  1  0.76599737  0.88492328  0.23573661  1
  O2-  O215  1  0.78376785  0.86549250  0.73722564  1
  O2-  O216  1  0.23770671  0.13256557  0.24669208  1
  O2-  O217  1  0.23772648  0.12247523  0.74017279  1
  O2-  O218  1  0.23020252  0.63321363  0.22309632  1
  O2-  O219  1  0.22553706  0.63247732  0.73839195  1
  O2-  O220  1  0.73083503  0.12348005  0.26696597  1
  O2-  O221  1  0.72443912  0.13583477  0.76670610  1
  O2-  O222  1  0.73195148  0.63698987  0.27141345  1
  O2-  O223  1  0.73323595  0.62025829  0.75534084  1
  O2-  O224  1  0.11028456  0.48167947  0.21963608  1
  O2-  O225  1  0.11378190  0.47149312  0.73406319  1
  O2-  O226  1  0.11758594  0.97956415  0.22419909  1
  O2-  O227  1  0.13584082  0.98693956  0.73068353  1
  O2-  O228  1  0.61187256  0.46317677  0.23296868  1
  O2-  O229  1  0.63070683  0.48179562  0.73623008  1
  O2-  O230  1  0.62727292  0.98944778  0.23988237  1
  O2-  O231  1  0.61671338  0.97148660  0.72320290  1
  O2-  O232  1  0.38569818  0.01665763  0.28128423  1
  O2-  O233  1  0.37692029  0.02160175  0.75281016  1
  O2-  O234  1  0.38724745  0.51268444  0.28075192  1
  O2-  O235  1  0.38542504  0.53000419  0.76362590  1
  O2-  O236  1  0.87052205  0.01643437  0.26680830  1
  O2-  O237  1  0.88305107  0.02370483  0.78195906  1
  O2-  O238  1  0.88236166  0.52941130  0.26673904  1
  O2-  O239  1  0.87013819  0.51530226  0.76271807  1
  O2-  O240  1  0.47993805  0.36867930  0.25146961  1
  O2-  O241  1  0.48493383  0.38703966  0.72630568  1
  O2-  O242  1  0.48442039  0.88536233  0.24968510  1
  O2-  O243  1  0.47162419  0.88413810  0.73354317  1
  O2-  O244  1  0.96695266  0.38458813  0.26327113  1
  O2-  O245  1  0.98145775  0.38364698  0.78272754  1
  O2-  O246  1  0.98553172  0.86937202  0.26130897  1
  O2-  O247  1  0.98990283  0.88422475  0.77364206  1
  O2-  O248  1  0.01473117  0.11521135  0.22518911  1
  O2-  O249  1  0.01877683  0.11691536  0.72518755  1
  O2-  O250  1  0.01293416  0.62774546  0.23620232  1
  O2-  O251  1  0.01871741  0.61255414  0.73858476  1
  O2-  O252  1  0.51541126  0.12835810  0.26508391  1
  O2-  O253  1  0.52335695  0.11588296  0.74847037  1
  O2-  O254  1  0.53460915  0.61339926  0.25439664  1
  O2-  O255  1  0.53186291  0.61569801  0.75233632  1
  O2-  O256  1  0.11296682  0.48782108  0.01489492  1
  O2-  O257  1  0.13489970  0.46981240  0.52367474  1
  O2-  O258  1  0.13976315  0.95935671  0.00848630  1
  O2-  O259  1  0.13696132  0.98214187  0.52840535  1
  O2-  O260  1  0.63543923  0.48335392  0.00849586  1
  O2-  O261  1  0.62222716  0.48003088  0.52171158  1
  O2-  O262  1  0.63534758  0.98108882  0.02926413  1
  O2-  O263  1  0.62382302  0.99331376  0.51152153  1
  O2-  O264  1  0.36677841  0.03917559  -0.01488483  1
  O2-  O265  1  0.38281516  0.01982142  0.48056728  1
  O2-  O266  1  0.36348611  0.52414932  -0.03385733  1
  O2-  O267  1  0.38194465  0.51061800  0.48586032  1
  O2-  O268  1  0.86421233  0.01956959  -0.01132471  1
  O2-  O269  1  0.86522916  0.02846577  0.48017651  1
  O2-  O270  1  0.87165371  0.51989480  -0.01926725  1
  O2-  O271  1  0.86184124  0.51370977  0.48402572  1
  O2-  O272  1  0.47927180  0.36809820  0.02031757  1
  O2-  O273  1  0.48572557  0.37628711  0.50315328  1
  O2-  O274  1  0.48660238  0.86685385  0.00619266  1
  O2-  O275  1  0.48779035  0.88053628  0.50329410  1
  O2-  O276  1  0.97879941  0.38319359  -0.01586826  1
  O2-  O277  1  0.98577916  0.36335774  0.46402226  1
  O2-  O278  1  0.96953805  0.86125740  -0.00930968  1
  O2-  O279  1  0.96665574  0.86412717  0.48435513  1
  O2-  O280  1  0.02120995  0.13081567  0.02948817  1
  O2-  O281  1  0.01679265  0.13431185  0.52840629  1
  O2-  O282  1  0.00609426  0.62357529  0.01956090  1
  O2-  O283  1  0.03045760  0.63198116  0.50486813  1
  O2-  O284  1  0.52809221  0.13734578  0.00206822  1
  O2-  O285  1  0.51300706  0.13016641  0.48977820  1
  O2-  O286  1  0.53430835  0.63387147  -0.00928955  1
  O2-  O287  1  0.51758397  0.62384101  0.49430260  1
  O2-  O288  1  0.11551195  0.27516227  -0.01888431  1
  O2-  O289  1  0.12656030  0.26093972  0.48372213  1
  O2-  O290  1  0.11072070  0.76353673  -0.01650229  1
  O2-  O291  1  0.11479527  0.77396671  0.47029699  1
  O2-  O292  1  0.61304520  0.27793691  -0.02286383  1
  O2-  O293  1  0.62098984  0.26680972  0.47530041  1
  O2-  O294  1  0.63765857  0.76996617  -0.01100274  1
  O2-  O295  1  0.61498592  0.76961162  0.46601290  1
  O2-  O296  1  0.38299003  0.23381221  0.03655126  1
  O2-  O297  1  0.37641081  0.23894323  0.51565312  1
  O2-  O298  1  0.38635942  0.72296977  0.02441230  1
  O2-  O299  1  0.38686580  0.73730881  0.53031478  1
  O2-  O300  1  0.88270223  0.23373489  0.02213439  1
  O2-  O301  1  0.86635278  0.23512464  0.51461436  1
  O2-  O302  1  0.87077147  0.73021781  0.02610549  1
  O2-  O303  1  0.88374791  0.71836973  0.51663519  1
  O2-  O304  1  0.26433640  0.38316607  -0.01728424  1
  O2-  O305  1  0.26642896  0.36728904  0.48695291  1
  O2-  O306  1  0.29148274  0.88573903  -0.01305674  1
  O2-  O307  1  0.28059114  0.88648201  0.48859439  1
  O2-  O308  1  0.77319062  0.38824445  0.01495995  1
  O2-  O309  1  0.76018793  0.37173094  0.50910730  1
  O2-  O310  1  0.77050074  0.87154833  0.01865059  1
  O2-  O311  1  0.76317358  0.89052862  0.52128770  1
  O2-  O312  1  0.21302414  0.11262789  0.00022940  1
  O2-  O313  1  0.24513037  0.12612759  0.51361124  1
  O2-  O314  1  0.22897199  0.61810756  0.01925200  1
  O2-  O315  1  0.23813378  0.61391501  0.52673119  1
  O2-  O316  1  0.72728776  0.11492213  -0.02644243  1
  O2-  O317  1  0.72529514  0.13253512  0.48531707  1
  O2-  O318  1  0.73518166  0.63019667  -0.01515319  1
  O2-  O319  1  0.72217969  0.61496933  0.49480780  1
