# generated using pymatgen
data_Sr64Ca21Nb43O192
_symmetry_space_group_name_H-M   'P 1'
_cell_length_a   16.59293267
_cell_length_b   16.62068490
_cell_length_c   16.73446629
_cell_angle_alpha   89.99773516
_cell_angle_beta   90.00789875
_cell_angle_gamma   89.91502201
_symmetry_Int_Tables_number   1
_chemical_formula_structural   Sr64Ca21Nb43O192
_chemical_formula_sum   'Sr64 Ca21 Nb43 O192'
_cell_volume   4615.12481430
_cell_formula_units_Z   1
loop_
 _symmetry_equiv_pos_site_id
 _symmetry_equiv_pos_as_xyz
  1  'x, y, z'
loop_
 _atom_type_symbol
 _atom_type_oxidation_number
  Sr2+  2.0
  Ca2+  2.0
  Nb5+  5.0
  O2-  -2.0
loop_
 _atom_site_type_symbol
 _atom_site_label
 _atom_site_symmetry_multiplicity
 _atom_site_fract_x
 _atom_site_fract_y
 _atom_site_fract_z
 _atom_site_occupancy
  Sr2+  Sr0  1  0.13146123  0.13519893  0.12218773  1
  Sr2+  Sr1  1  0.12207389  0.13343497  0.62917918  1
  Sr2+  Sr2  1  0.11129053  0.64375800  0.12659587  1
  Sr2+  Sr3  1  0.12019671  0.62461973  0.62038387  1
  Sr2+  Sr4  1  0.63520839  0.13517882  0.12394171  1
  Sr2+  Sr5  1  0.62705684  0.13672450  0.62713956  1
  Sr2+  Sr6  1  0.62863208  0.63441899  0.12238383  1
  Sr2+  Sr7  1  0.63687172  0.64405957  0.62864857  1
  Sr2+  Sr8  1  0.37480828  0.38710591  0.12944230  1
  Sr2+  Sr9  1  0.38291453  0.37735334  0.62510748  1
  Sr2+  Sr10  1  0.37985626  0.87707814  0.13796170  1
  Sr2+  Sr11  1  0.37308808  0.87856602  0.62192102  1
  Sr2+  Sr12  1  0.87554556  0.37058484  0.12032777  1
  Sr2+  Sr13  1  0.87814994  0.38631136  0.62651584  1
  Sr2+  Sr14  1  0.87671638  0.85160637  0.13079189  1
  Sr2+  Sr15  1  0.87397055  0.85162599  0.62339179  1
  Sr2+  Sr16  1  0.13274877  0.37501977  0.38535475  1
  Sr2+  Sr17  1  0.13546000  0.36322862  0.87459730  1
  Sr2+  Sr18  1  0.13370177  0.87516630  0.37363496  1
  Sr2+  Sr19  1  0.12494605  0.87782576  0.87084780  1
  Sr2+  Sr20  1  0.61010533  0.36706590  0.36859775  1
  Sr2+  Sr21  1  0.61797022  0.36867576  0.87617768  1
  Sr2+  Sr22  1  0.60932202  0.86880096  0.36793329  1
  Sr2+  Sr23  1  0.61717497  0.87107852  0.87211797  1
  Sr2+  Sr24  1  0.37466845  0.11953577  0.37708061  1
  Sr2+  Sr25  1  0.36852075  0.11811033  0.87526840  1
  Sr2+  Sr26  1  0.37270194  0.63025558  0.38269914  1
  Sr2+  Sr27  1  0.38499559  0.62116347  0.87211103  1
  Sr2+  Sr28  1  0.87303391  0.11607338  0.37402650  1
  Sr2+  Sr29  1  0.87223078  0.11760384  0.87956270  1
  Sr2+  Sr30  1  0.87038854  0.60859159  0.37436151  1
  Sr2+  Sr31  1  0.86250585  0.61936938  0.87122071  1
  Sr2+  Sr32  1  0.12708017  0.11203014  0.37657256  1
  Sr2+  Sr33  1  0.12912670  0.11729151  0.87387093  1
  Sr2+  Sr34  1  0.13271371  0.60996049  0.37437599  1
  Sr2+  Sr35  1  0.12935763  0.63173484  0.88027202  1
  Sr2+  Sr36  1  0.62770495  0.11473127  0.37210426  1
  Sr2+  Sr37  1  0.61802303  0.11721682  0.87811125  1
  Sr2+  Sr38  1  0.61389720  0.61203973  0.37629585  1
  Sr2+  Sr39  1  0.62178645  0.60641334  0.87510557  1
  Sr2+  Sr40  1  0.37360134  0.39581778  0.37512121  1
  Sr2+  Sr41  1  0.37583949  0.39263092  0.87488839  1
  Sr2+  Sr42  1  0.36683564  0.86373238  0.37891215  1
  Sr2+  Sr43  1  0.36458827  0.85635289  0.87433750  1
  Sr2+  Sr44  1  0.88200931  0.36865578  0.36906311  1
  Sr2+  Sr45  1  0.87155709  0.36818245  0.87296594  1
  Sr2+  Sr46  1  0.87008121  0.86581597  0.37240618  1
  Sr2+  Sr47  1  0.87658213  0.85638871  0.87875842  1
  Sr2+  Sr48  1  0.11977576  0.37817852  0.11872763  1
  Sr2+  Sr49  1  0.11223211  0.38175843  0.63157447  1
  Sr2+  Sr50  1  0.11549630  0.88447158  0.12712714  1
  Sr2+  Sr51  1  0.11864487  0.88384154  0.62221841  1
  Sr2+  Sr52  1  0.63467685  0.37968892  0.12624082  1
  Sr2+  Sr53  1  0.63523997  0.37683959  0.62858437  1
  Sr2+  Sr54  1  0.63866517  0.87812691  0.12344471  1
  Sr2+  Sr55  1  0.63556287  0.88555917  0.63321196  1
  Sr2+  Sr56  1  0.38306517  0.13414827  0.12449504  1
  Sr2+  Sr57  1  0.39259381  0.12918844  0.62306871  1
  Sr2+  Sr58  1  0.38538866  0.62873141  0.11565943  1
  Sr2+  Sr59  1  0.38303646  0.64201809  0.62426841  1
  Sr2+  Sr60  1  0.87248471  0.12958828  0.13224246  1
  Sr2+  Sr61  1  0.87898068  0.12935118  0.61557037  1
  Sr2+  Sr62  1  0.87892473  0.62874994  0.12475024  1
  Sr2+  Sr63  1  0.86903261  0.62318470  0.62366727  1
  Ca2+  Ca64  1  0.49944619  0.00014618  0.00068977  1
  Ca2+  Ca65  1  0.50102528  -0.00038052  0.49853815  1
  Ca2+  Ca66  1  0.49986509  0.50041637  0.50562957  1
  Ca2+  Ca67  1  -0.00426907  0.00057760  -0.00003584  1
  Ca2+  Ca68  1  0.00070083  0.50088237  -0.00373872  1
  Ca2+  Ca69  1  0.74902085  0.74768286  -0.00102171  1
  Ca2+  Ca70  1  0.25052289  0.75212740  0.00486700  1
  Ca2+  Ca71  1  0.74992635  0.75069258  0.49383389  1
  Ca2+  Ca72  1  0.25251672  0.24902305  0.50295380  1
  Ca2+  Ca73  1  0.74999903  0.25272759  0.49984493  1
  Ca2+  Ca74  1  0.49706095  0.74942410  0.24913168  1
  Ca2+  Ca75  1  0.24681463  0.50050820  0.24484377  1
  Ca2+  Ca76  1  0.24648841  0.50038161  0.75045121  1
  Ca2+  Ca77  1  0.00069764  0.75026301  0.25896526  1
  Ca2+  Ca78  1  0.50074601  0.75035464  0.75174453  1
  Ca2+  Ca79  1  0.00343176  0.24965610  0.25083117  1
  Ca2+  Ca80  1  0.75037471  0.49884107  0.74896790  1
  Ca2+  Ca81  1  0.00328167  0.75048121  0.74895130  1
  Ca2+  Ca82  1  0.75677241  0.00159630  0.75159032  1
  Ca2+  Ca83  1  0.75037063  0.49865425  0.25092551  1
  Ca2+  Ca84  1  0.49552990  0.24754696  0.24637449  1
  Nb5+  Nb85  1  -0.00100944  0.49548438  0.49913642  1
  Nb5+  Nb86  1  0.50236209  0.49555272  0.00220803  1
  Nb5+  Nb87  1  -0.00236829  -0.00622482  0.50036373  1
  Nb5+  Nb88  1  0.24468575  0.74953566  0.50255599  1
  Nb5+  Nb89  1  0.75378498  0.24929982  -0.00264559  1
  Nb5+  Nb90  1  0.25969122  0.24685830  -0.00362508  1
  Nb5+  Nb91  1  0.25468581  0.00332719  0.25192451  1
  Nb5+  Nb92  1  0.75625060  0.00071188  0.24648186  1
  Nb5+  Nb93  1  0.49332847  0.24771721  0.75367259  1
  Nb5+  Nb94  1  0.25234086  -0.00011720  0.75268056  1
  Nb5+  Nb95  1  -0.00541388  0.24821269  0.75105143  1
  Nb5+  Nb96  1  0.00468459  0.00302852  0.24916403  1
  Nb5+  Nb97  1  -0.00243372  0.00173580  0.74634200  1
  Nb5+  Nb98  1  0.00339926  0.50038600  0.24527383  1
  Nb5+  Nb99  1  0.00121377  0.50345849  0.75508323  1
  Nb5+  Nb100  1  0.50850256  -0.00020546  0.24633175  1
  Nb5+  Nb101  1  0.50038281  -0.00371907  0.75418097  1
  Nb5+  Nb102  1  0.49644300  0.50156757  0.25122698  1
  Nb5+  Nb103  1  0.50347172  0.49837482  0.74501415  1
  Nb5+  Nb104  1  0.24845415  0.25101325  0.25502290  1
  Nb5+  Nb105  1  0.24935437  0.24921290  0.74920227  1
  Nb5+  Nb106  1  0.24827367  0.74805408  0.24661225  1
  Nb5+  Nb107  1  0.24400542  0.74776345  0.74854885  1
  Nb5+  Nb108  1  0.74844561  0.25330548  0.25337670  1
  Nb5+  Nb109  1  0.74552188  0.24673385  0.75126338  1
  Nb5+  Nb110  1  0.74411224  0.74450943  0.25583962  1
  Nb5+  Nb111  1  0.75039185  0.75399715  0.75366005  1
  Nb5+  Nb112  1  0.00630846  0.24584408  0.49687617  1
  Nb5+  Nb113  1  0.00575183  0.24730889  0.99840716  1
  Nb5+  Nb114  1  0.00035182  0.74059942  0.49619482  1
  Nb5+  Nb115  1  0.00205173  0.75108104  0.99899381  1
  Nb5+  Nb116  1  0.50146168  0.24710583  0.49475735  1
  Nb5+  Nb117  1  0.50491732  0.25146050  1.00128644  1
  Nb5+  Nb118  1  0.50669533  0.75456930  0.50527663  1
  Nb5+  Nb119  1  0.49890010  0.75443345  0.99640776  1
  Nb5+  Nb120  1  0.25146922  -0.00185615  0.00802500  1
  Nb5+  Nb121  1  0.24669478  0.00302117  0.50722547  1
  Nb5+  Nb122  1  0.24562174  0.50213113  0.00114414  1
  Nb5+  Nb123  1  0.25193712  0.50070954  0.50532960  1
  Nb5+  Nb124  1  0.75611514  -0.00505751  -0.00166711  1
  Nb5+  Nb125  1  0.74746857  -0.00066308  0.49899384  1
  Nb5+  Nb126  1  0.75264950  0.50009329  0.00291107  1
  Nb5+  Nb127  1  0.74224221  0.49697138  0.49524798  1
  O2-  O128  1  0.02070892  0.02382048  0.13706954  1
  O2-  O129  1  0.02092226  0.02097464  0.61781788  1
  O2-  O130  1  0.02786682  0.50900224  0.13299093  1
  O2-  O131  1  0.02091559  0.50863231  0.62040090  1
  O2-  O132  1  0.50883158  -0.03787792  0.13269043  1
  O2-  O133  1  0.50033825  -0.01921854  0.63644101  1
  O2-  O134  1  0.51123222  0.47053508  0.11727163  1
  O2-  O135  1  0.51268322  0.46333693  0.63567172  1
  O2-  O136  1  -0.01170077  -0.01330866  0.38269224  1
  O2-  O137  1  -0.00716959  -0.01453617  0.85954696  1
  O2-  O138  1  -0.01906625  0.48843885  0.38253303  1
  O2-  O139  1  -0.03336355  0.49266085  0.86391795  1
  O2-  O140  1  0.49465696  0.03347902  0.36149481  1
  O2-  O141  1  0.48784387  0.03286186  0.86508968  1
  O2-  O142  1  0.47657604  0.52068252  0.36580096  1
  O2-  O143  1  0.48808218  0.51067531  0.87711739  1
  O2-  O144  1  0.27032429  0.25042638  0.11268909  1
  O2-  O145  1  0.27943359  0.24919457  0.63849230  1
  O2-  O146  1  0.28077915  0.75419310  0.13836026  1
  O2-  O147  1  0.26852961  0.75652922  0.62456536  1
  O2-  O148  1  0.76326124  0.23417845  0.11625289  1
  O2-  O149  1  0.76011498  0.22112127  0.63931512  1
  O2-  O150  1  0.76886598  0.73339390  0.13715263  1
  O2-  O151  1  0.76843813  0.73153136  0.63171805  1
  O2-  O152  1  0.22063258  0.24036642  0.36525438  1
  O2-  O153  1  0.23556002  0.22978208  0.87306689  1
  O2-  O154  1  0.22625293  0.75127668  0.38470783  1
  O2-  O155  1  0.22824099  0.75890016  0.86593324  1
  O2-  O156  1  0.73088203  0.27172321  0.36477336  1
  O2-  O157  1  0.74028820  0.27350451  0.87946263  1
  O2-  O158  1  0.73062528  0.78659541  0.36490524  1
  O2-  O159  1  0.73708804  0.78450129  0.86826689  1
  O2-  O160  1  -0.01011814  0.22643051  0.11092744  1
  O2-  O161  1  -0.01160094  0.23547702  0.63004419  1
  O2-  O162  1  -0.01740963  0.73528678  0.12157797  1
  O2-  O163  1  -0.01908564  0.73403664  0.61349565  1
  O2-  O164  1  0.47424393  0.26946785  0.10992321  1
  O2-  O165  1  0.48243248  0.26392911  0.63708365  1
  O2-  O166  1  0.46834054  0.75726188  0.11258407  1
  O2-  O167  1  0.46985548  0.76646423  0.61850881  1
  O2-  O168  1  0.25862919  0.00730670  0.37161247  1
  O2-  O169  1  0.25800811  0.00287952  0.87126162  1
  O2-  O170  1  0.26532580  0.51865426  0.38571174  1
  O2-  O171  1  0.27018452  0.51788817  0.88567939  1
  O2-  O172  1  0.76683236  -0.00822727  0.36485094  1
  O2-  O173  1  0.78522415  -0.01658505  0.88683333  1
  O2-  O174  1  0.78327677  0.47871760  0.38525567  1
  O2-  O175  1  0.76851793  0.48079930  0.88674396  1
  O2-  O176  1  0.02220771  0.27249997  0.38637238  1
  O2-  O177  1  0.01671759  0.26707081  0.86674631  1
  O2-  O178  1  0.02386355  0.78071073  0.39040614  1
  O2-  O179  1  0.02624101  0.76714366  0.88329685  1
  O2-  O180  1  0.52439068  0.23214138  0.38280684  1
  O2-  O181  1  0.51842754  0.23477839  0.87389779  1
  O2-  O182  1  0.51591715  0.72915788  0.38797791  1
  O2-  O183  1  0.52471619  0.71974121  0.88463254  1
  O2-  O184  1  0.23166674  -0.00191537  0.12543067  1
  O2-  O185  1  0.23606756  -0.00636384  0.62337532  1
  O2-  O186  1  0.24128515  0.46234118  0.11195327  1
  O2-  O187  1  0.21748748  0.49579288  0.61669536  1
  O2-  O188  1  0.73154940  0.01897246  0.12782809  1
  O2-  O189  1  0.73314211  0.01912849  0.61196950  1
  O2-  O190  1  0.71794216  0.50800374  0.11610059  1
  O2-  O191  1  0.73045821  0.52405516  0.61280319  1
  O2-  O192  1  0.13778331  0.26151804  0.21285885  1
  O2-  O193  1  0.13231201  0.26282231  0.73449230  1
  O2-  O194  1  0.13584987  0.78341738  0.23644023  1
  O2-  O195  1  0.13501349  0.78768556  0.73011219  1
  O2-  O196  1  0.63226091  0.26047732  0.22367257  1
  O2-  O197  1  0.62862571  0.26372245  0.74007105  1
  O2-  O198  1  0.63064809  0.77655080  0.23034723  1
  O2-  O199  1  0.63233956  0.77162132  0.72928576  1
  O2-  O200  1  0.35915417  0.21093169  0.25631017  1
  O2-  O201  1  0.37880606  0.22704018  0.76979265  1
  O2-  O202  1  0.36037469  0.74329876  0.28599741  1
  O2-  O203  1  0.36242501  0.73205019  0.76620721  1
  O2-  O204  1  0.86446841  0.22702324  0.26197684  1
  O2-  O205  1  0.88116872  0.23062411  0.76984872  1
  O2-  O206  1  0.86332832  0.74212200  0.27559681  1
  O2-  O207  1  0.87007020  0.73774945  0.77399589  1
  O2-  O208  1  0.27586370  0.36210709  0.26171913  1
  O2-  O209  1  0.26727926  0.36132693  0.76842281  1
  O2-  O210  1  0.26483245  0.88452835  0.25413959  1
  O2-  O211  1  0.27449252  0.88342271  0.74878491  1
  O2-  O212  1  0.76903393  0.36442545  0.22647594  1
  O2-  O213  1  0.77469520  0.36088525  0.73885856  1
  O2-  O214  1  0.76393683  0.88630803  0.22777297  1
  O2-  O215  1  0.76911967  0.87086783  0.72508964  1
  O2-  O216  1  0.22041786  0.11730263  0.24414773  1
  O2-  O217  1  0.23294913  0.12170816  0.74535169  1
  O2-  O218  1  0.22176783  0.63636542  0.24613116  1
  O2-  O219  1  0.21719130  0.63644453  0.74264286  1
  O2-  O220  1  0.72990306  0.12421493  0.25818353  1
  O2-  O221  1  0.73871940  0.13493561  0.78612331  1
  O2-  O222  1  0.72190190  0.63363162  0.27371291  1
  O2-  O223  1  0.73281435  0.63490460  0.77366455  1
  O2-  O224  1  0.11572457  0.47007850  0.27584732  1
  O2-  O225  1  0.11222717  0.46471345  0.76623800  1
  O2-  O226  1  0.12122812  0.98365257  0.26620092  1
  O2-  O227  1  0.12992099  0.98747837  0.75547606  1
  O2-  O228  1  0.61313330  0.47831213  0.26844741  1
  O2-  O229  1  0.61700752  0.47472305  0.77110963  1
  O2-  O230  1  0.62483119  0.98639293  0.26282004  1
  O2-  O231  1  0.61654207  0.98391253  0.76332257  1
  O2-  O232  1  0.36721824  0.01962269  0.23263928  1
  O2-  O233  1  0.36923075  0.02354813  0.73747304  1
  O2-  O234  1  0.38096639  0.51649474  0.22047078  1
  O2-  O235  1  0.38429171  0.50317617  0.74015618  1
  O2-  O236  1  0.87241700  0.02291041  0.23919930  1
  O2-  O237  1  0.88943428  0.03728152  0.73313279  1
  O2-  O238  1  0.88618129  0.53156565  0.23967782  1
  O2-  O239  1  0.88678880  0.51120713  0.72106518  1
  O2-  O240  1  0.47524109  0.38158788  0.26504429  1
  O2-  O241  1  0.48654319  0.36495475  0.77205354  1
  O2-  O242  1  0.47467915  0.88810595  0.27524378  1
  O2-  O243  1  0.47800394  0.88563130  0.77897087  1
  O2-  O244  1  0.97123448  0.38332578  0.23838846  1
  O2-  O245  1  0.98535698  0.36600639  0.73390014  1
  O2-  O246  1  0.97635781  0.88978879  0.24093082  1
  O2-  O247  1  0.98594981  0.89041160  0.72057643  1
  O2-  O248  1  0.00704062  0.11588781  0.28333776  1
  O2-  O249  1  0.02819912  0.13027372  0.75669985  1
  O2-  O250  1  0.02855972  0.61631696  0.26734596  1
  O2-  O251  1  0.03032941  0.61459079  0.76093175  1
  O2-  O252  1  0.51044190  0.11262335  0.21078207  1
  O2-  O253  1  0.51762677  0.12968580  0.73189038  1
  O2-  O254  1  0.51822179  0.61467501  0.22271435  1
  O2-  O255  1  0.51796514  0.61164798  0.72936578  1
  O2-  O256  1  0.13551485  0.47451042  -0.02245180  1
  O2-  O257  1  0.12169660  0.49216808  0.48016146  1
  O2-  O258  1  0.13573231  0.98249989  -0.01496842  1
  O2-  O259  1  0.12249571  0.98303239  0.48374208  1
  O2-  O260  1  0.61898285  0.47886749  -0.01850348  1
  O2-  O261  1  0.63102789  0.47743237  0.46991114  1
  O2-  O262  1  0.63857654  0.98994214  -0.02332408  1
  O2-  O263  1  0.63704505  0.97363290  0.47880537  1
  O2-  O264  1  0.36304392  0.03585601  0.00925942  1
  O2-  O265  1  0.36128701  0.01731546  0.50856898  1
  O2-  O266  1  0.37742490  0.50006192  0.01260896  1
  O2-  O267  1  0.36345039  0.52313093  0.52800279  1
  O2-  O268  1  0.86376967  0.03870081  0.01882341  1
  O2-  O269  1  0.88454419  0.02702317  0.50675359  1
  O2-  O270  1  0.86502399  0.51014778  0.02895622  1
  O2-  O271  1  0.88464132  0.52075969  0.51689226  1
  O2-  O272  1  0.48689774  0.37109499  -0.02522395  1
  O2-  O273  1  0.46957928  0.36304149  0.48767033  1
  O2-  O274  1  0.48850603  0.86505544  -0.03183913  1
  O2-  O275  1  0.47564167  0.86648650  0.47919747  1
  O2-  O276  1  0.98081274  0.36266156  0.00506428  1
  O2-  O277  1  0.98941199  0.37974753  0.51553935  1
  O2-  O278  1  0.97042443  0.86795567  0.01206484  1
  O2-  O279  1  0.98718589  0.88133410  0.52184463  1
  O2-  O280  1  0.00845447  0.13507342  -0.03494200  1
  O2-  O281  1  0.02169152  0.12992464  0.48898009  1
  O2-  O282  1  0.03211863  0.63330685  -0.00759893  1
  O2-  O283  1  0.02232814  0.62644762  0.48422044  1
  O2-  O284  1  0.51891550  0.13722159  0.01580946  1
  O2-  O285  1  0.52113960  0.13233640  0.52777921  1
  O2-  O286  1  0.51094517  0.61115200  0.01875305  1
  O2-  O287  1  0.51392652  0.63489040  0.52628341  1
  O2-  O288  1  0.12316598  0.26325333  0.00833234  1
  O2-  O289  1  0.11740018  0.27077170  0.53002093  1
  O2-  O290  1  0.11861897  0.77543492  0.02890442  1
  O2-  O291  1  0.12529284  0.76388650  0.52739773  1
  O2-  O292  1  0.62208734  0.26971071  0.01158824  1
  O2-  O293  1  0.61442826  0.27224228  0.52552254  1
  O2-  O294  1  0.61427257  0.75857066  0.02738616  1
  O2-  O295  1  0.61738583  0.77692565  0.52664370  1
  O2-  O296  1  0.37420686  0.23051857  -0.02124049  1
  O2-  O297  1  0.38471101  0.21621409  0.49141741  1
  O2-  O298  1  0.38254997  0.72589456  -0.02631980  1
  O2-  O299  1  0.36300259  0.73584931  0.48803922  1
  O2-  O300  1  0.87073572  0.23917731  -0.01861653  1
  O2-  O301  1  0.88837861  0.24067543  0.48873894  1
  O2-  O302  1  0.88500473  0.72378607  -0.02227151  1
  O2-  O303  1  0.88707533  0.73485750  0.47399865  1
  O2-  O304  1  0.26185182  0.36189344  -0.02404338  1
  O2-  O305  1  0.26539996  0.38624467  0.48927933  1
  O2-  O306  1  0.28392443  0.88775613  0.00413204  1
  O2-  O307  1  0.25575739  0.87675956  0.49748157  1
  O2-  O308  1  0.75815932  0.37102035  0.01809120  1
  O2-  O309  1  0.76632150  0.38532711  0.53004707  1
  O2-  O310  1  0.76861247  0.88518098  0.02727581  1
  O2-  O311  1  0.78831435  0.88950480  0.50562090  1
  O2-  O312  1  0.22574087  0.12792744  0.00206298  1
  O2-  O313  1  0.21936604  0.11469957  0.50314195  1
  O2-  O314  1  0.23183569  0.61311211  0.02566041  1
  O2-  O315  1  0.22802625  0.63126023  0.50852108  1
  O2-  O316  1  0.72823915  0.13483752  -0.01586454  1
  O2-  O317  1  0.74340118  0.11573066  0.47195531  1
  O2-  O318  1  0.73034813  0.61263951  -0.01827783  1
  O2-  O319  1  0.73587351  0.61594537  0.47178378  1
