# generated using pymatgen
data_Sr64Ca21Nb43O192
_symmetry_space_group_name_H-M   'P 1'
_cell_length_a   16.61157907
_cell_length_b   16.57237109
_cell_length_c   16.75468601
_cell_angle_alpha   90.00644229
_cell_angle_beta   89.95845482
_cell_angle_gamma   89.99759999
_symmetry_Int_Tables_number   1
_chemical_formula_structural   Sr64Ca21Nb43O192
_chemical_formula_sum   'Sr64 Ca21 Nb43 O192'
_cell_volume   4612.45076254
_cell_formula_units_Z   1
loop_
 _symmetry_equiv_pos_site_id
 _symmetry_equiv_pos_as_xyz
  1  'x, y, z'
loop_
 _atom_type_symbol
 _atom_type_oxidation_number
  Sr2+  2.0
  Ca2+  2.0
  Nb5+  5.0
  O2-  -2.0
loop_
 _atom_site_type_symbol
 _atom_site_label
 _atom_site_symmetry_multiplicity
 _atom_site_fract_x
 _atom_site_fract_y
 _atom_site_fract_z
 _atom_site_occupancy
  Sr2+  Sr0  1  0.12767747  0.11577130  0.12252937  1
  Sr2+  Sr1  1  0.13182301  0.13920635  0.62278946  1
  Sr2+  Sr2  1  0.12824794  0.60374627  0.12743845  1
  Sr2+  Sr3  1  0.12250645  0.61270937  0.62707752  1
  Sr2+  Sr4  1  0.63311248  0.13294309  0.12953311  1
  Sr2+  Sr5  1  0.63592471  0.12667100  0.62263561  1
  Sr2+  Sr6  1  0.62888651  0.62788830  0.12626463  1
  Sr2+  Sr7  1  0.63205163  0.63226856  0.62008802  1
  Sr2+  Sr8  1  0.37818960  0.38519386  0.12682491  1
  Sr2+  Sr9  1  0.37274612  0.38019580  0.61266135  1
  Sr2+  Sr10  1  0.37653832  0.87496016  0.12399948  1
  Sr2+  Sr11  1  0.37296155  0.87170533  0.61075579  1
  Sr2+  Sr12  1  0.88035370  0.38356983  0.12213547  1
  Sr2+  Sr13  1  0.88096897  0.39193431  0.62207929  1
  Sr2+  Sr14  1  0.88365133  0.88241308  0.11952903  1
  Sr2+  Sr15  1  0.87867026  0.87093791  0.62151233  1
  Sr2+  Sr16  1  0.11811926  0.36175141  0.37461199  1
  Sr2+  Sr17  1  0.11233420  0.36696517  0.87240478  1
  Sr2+  Sr18  1  0.12509997  0.87098318  0.36758664  1
  Sr2+  Sr19  1  0.12769036  0.87197456  0.86830921  1
  Sr2+  Sr20  1  0.60896241  0.36614669  0.37589455  1
  Sr2+  Sr21  1  0.61959283  0.37095328  0.86946326  1
  Sr2+  Sr22  1  0.62640617  0.87546912  0.38830476  1
  Sr2+  Sr23  1  0.62066917  0.86994593  0.87369617  1
  Sr2+  Sr24  1  0.37923744  0.12308827  0.38095020  1
  Sr2+  Sr25  1  0.38073114  0.11732839  0.86537796  1
  Sr2+  Sr26  1  0.37411796  0.62325016  0.38233898  1
  Sr2+  Sr27  1  0.37815871  0.62404222  0.86641497  1
  Sr2+  Sr28  1  0.84750681  0.11724745  0.37087391  1
  Sr2+  Sr29  1  0.88708559  0.12622857  0.88164606  1
  Sr2+  Sr30  1  0.86082335  0.62107771  0.37482875  1
  Sr2+  Sr31  1  0.86585964  0.62852224  0.87006945  1
  Sr2+  Sr32  1  0.12422029  0.12150672  0.38353873  1
  Sr2+  Sr33  1  0.12977203  0.12131592  0.86573590  1
  Sr2+  Sr34  1  0.12175504  0.61436886  0.37341787  1
  Sr2+  Sr35  1  0.11929306  0.61999799  0.86299179  1
  Sr2+  Sr36  1  0.61828097  0.12065920  0.37568859  1
  Sr2+  Sr37  1  0.62452966  0.13027184  0.87472374  1
  Sr2+  Sr38  1  0.61663077  0.61464187  0.38273263  1
  Sr2+  Sr39  1  0.61809622  0.61391349  0.86895420  1
  Sr2+  Sr40  1  0.36686291  0.36106177  0.37571960  1
  Sr2+  Sr41  1  0.37423663  0.37730032  0.87899314  1
  Sr2+  Sr42  1  0.37091545  0.85106357  0.37196208  1
  Sr2+  Sr43  1  0.36666733  0.86162696  0.87706437  1
  Sr2+  Sr44  1  0.86787949  0.36411383  0.38276742  1
  Sr2+  Sr45  1  0.86187154  0.36004500  0.87090845  1
  Sr2+  Sr46  1  0.87348098  0.88354590  0.36982195  1
  Sr2+  Sr47  1  0.87041731  0.87503141  0.87110091  1
  Sr2+  Sr48  1  0.13606093  0.37687495  0.12624474  1
  Sr2+  Sr49  1  0.11818473  0.37444879  0.61605743  1
  Sr2+  Sr50  1  0.13056631  0.87472135  0.12708432  1
  Sr2+  Sr51  1  0.12580332  0.87612350  0.62520245  1
  Sr2+  Sr52  1  0.63216927  0.37849011  0.12540971  1
  Sr2+  Sr53  1  0.64490622  0.38408648  0.62711723  1
  Sr2+  Sr54  1  0.63295099  0.87523468  0.12236559  1
  Sr2+  Sr55  1  0.62697781  0.87497202  0.61666981  1
  Sr2+  Sr56  1  0.38929041  0.12337323  0.12418885  1
  Sr2+  Sr57  1  0.38200905  0.13624450  0.62567796  1
  Sr2+  Sr58  1  0.37994797  0.62284395  0.12392617  1
  Sr2+  Sr59  1  0.39842053  0.63196811  0.62278839  1
  Sr2+  Sr60  1  0.88214161  0.13206184  0.12958871  1
  Sr2+  Sr61  1  0.88268481  0.12166410  0.60736348  1
  Sr2+  Sr62  1  0.88150971  0.63552021  0.12564502  1
  Sr2+  Sr63  1  0.88320982  0.62862622  0.62129747  1
  Ca2+  Ca64  1  0.49600852  -0.00057756  0.50171693  1
  Ca2+  Ca65  1  -0.00040184  0.50202148  -0.00188247  1
  Ca2+  Ca66  1  0.00029066  0.50386383  0.49472511  1
  Ca2+  Ca67  1  0.00095676  -0.00449945  0.49944136  1
  Ca2+  Ca68  1  0.50080425  0.49618123  0.49945417  1
  Ca2+  Ca69  1  0.25266524  0.24842704  -0.00058333  1
  Ca2+  Ca70  1  0.75517046  0.75037873  0.49844644  1
  Ca2+  Ca71  1  0.24580211  0.74842038  0.00289425  1
  Ca2+  Ca72  1  0.24243240  0.75074908  0.50174863  1
  Ca2+  Ca73  1  0.74840519  0.25055029  0.49928561  1
  Ca2+  Ca74  1  0.74980729  0.49682263  0.25040214  1
  Ca2+  Ca75  1  -0.00323934  0.24754124  0.74684124  1
  Ca2+  Ca76  1  0.49566012  0.25047761  0.24749254  1
  Ca2+  Ca77  1  0.50101634  0.25337468  0.74759354  1
  Ca2+  Ca78  1  -0.00085776  0.24856197  0.25174262  1
  Ca2+  Ca79  1  0.75437121  0.00106741  0.75209606  1
  Ca2+  Ca80  1  0.49959166  0.75074031  0.24759770  1
  Ca2+  Ca81  1  0.25143843  0.49999554  0.74833651  1
  Ca2+  Ca82  1  0.74648169  -0.00552116  0.24799887  1
  Ca2+  Ca83  1  0.75178719  0.50177759  0.75066681  1
  Ca2+  Ca84  1  0.50214756  0.75551350  0.74942175  1
  Nb5+  Nb85  1  0.50475144  -0.00375953  -0.00206186  1
  Nb5+  Nb86  1  0.00844461  -0.00277574  0.00061142  1
  Nb5+  Nb87  1  0.50191746  0.49399875  -0.00045347  1
  Nb5+  Nb88  1  0.74945692  0.25507043  0.00281470  1
  Nb5+  Nb89  1  0.75185804  0.75479423  0.00173837  1
  Nb5+  Nb90  1  0.24870538  0.24895351  0.49908582  1
  Nb5+  Nb91  1  0.00144661  0.75174096  0.74500520  1
  Nb5+  Nb92  1  -0.00079886  0.75035115  0.24235634  1
  Nb5+  Nb93  1  0.25250715  -0.00191892  0.24711708  1
  Nb5+  Nb94  1  0.25194690  -0.00148408  0.74350672  1
  Nb5+  Nb95  1  0.25190948  0.49248794  0.25369741  1
  Nb5+  Nb96  1  0.00296151  0.00149198  0.25060982  1
  Nb5+  Nb97  1  0.00223476  -0.00111258  0.74973136  1
  Nb5+  Nb98  1  -0.00456009  0.49829530  0.25115782  1
  Nb5+  Nb99  1  -0.00161327  0.49716664  0.75704191  1
  Nb5+  Nb100  1  0.49878725  -0.00145445  0.25004477  1
  Nb5+  Nb101  1  0.50521617  -0.00682900  0.74579450  1
  Nb5+  Nb102  1  0.50032419  0.50075407  0.25199868  1
  Nb5+  Nb103  1  0.50169987  0.49727353  0.74352879  1
  Nb5+  Nb104  1  0.24833463  0.24058072  0.24829540  1
  Nb5+  Nb105  1  0.25181380  0.25552130  0.74998866  1
  Nb5+  Nb106  1  0.24667649  0.74086611  0.24965734  1
  Nb5+  Nb107  1  0.24803102  0.74823770  0.74966430  1
  Nb5+  Nb108  1  0.74685470  0.25141286  0.25116694  1
  Nb5+  Nb109  1  0.75392604  0.24515051  0.74251246  1
  Nb5+  Nb110  1  0.74708741  0.75426544  0.25278202  1
  Nb5+  Nb111  1  0.75088673  0.75184647  0.74827065  1
  Nb5+  Nb112  1  -0.00565267  0.24667617  0.49609489  1
  Nb5+  Nb113  1  0.00139297  0.25402961  1.00215395  1
  Nb5+  Nb114  1  0.00108766  0.75053653  0.48586101  1
  Nb5+  Nb115  1  0.00305796  0.75047698  0.99653434  1
  Nb5+  Nb116  1  0.50403082  0.25221482  0.50542471  1
  Nb5+  Nb117  1  0.49863422  0.24327825  0.99840336  1
  Nb5+  Nb118  1  0.50049068  0.75007177  0.49727483  1
  Nb5+  Nb119  1  0.50034077  0.74227583  0.99998183  1
  Nb5+  Nb120  1  0.25772120  0.00403692  -0.00467552  1
  Nb5+  Nb121  1  0.25184394  -0.00085717  0.49255395  1
  Nb5+  Nb122  1  0.25250679  0.49956431  -0.00292718  1
  Nb5+  Nb123  1  0.24439659  0.50249778  0.50180234  1
  Nb5+  Nb124  1  0.75504608  0.00674861  -0.00180079  1
  Nb5+  Nb125  1  0.74950856  -0.00104121  0.50277142  1
  Nb5+  Nb126  1  0.75193723  0.50815732  0.00159673  1
  Nb5+  Nb127  1  0.75111977  0.49998801  0.49702655  1
  O2-  O128  1  0.00355579  -0.01934053  0.12401269  1
  O2-  O129  1  -0.00909537  -0.02468643  0.63866779  1
  O2-  O130  1  0.02696478  0.48236070  0.13588751  1
  O2-  O131  1  0.02221603  0.49147342  0.63835807  1
  O2-  O132  1  0.48333103  -0.01257460  0.11518564  1
  O2-  O133  1  0.49191916  -0.03546958  0.63682787  1
  O2-  O134  1  0.51329026  0.48039860  0.11918243  1
  O2-  O135  1  0.51231963  0.46791834  0.63403181  1
  O2-  O136  1  0.02071175  0.00009163  0.36390513  1
  O2-  O137  1  0.01542777  0.01281429  0.88484755  1
  O2-  O138  1  -0.00897626  0.53972046  0.36014017  1
  O2-  O139  1  -0.01455589  0.53711525  0.86877921  1
  O2-  O140  1  0.49790181  0.02263363  0.36261674  1
  O2-  O141  1  0.50276618  0.02847360  0.88429215  1
  O2-  O142  1  0.48519005  0.52576581  0.36308529  1
  O2-  O143  1  0.48519295  0.52506589  0.88663481  1
  O2-  O144  1  0.27573051  0.24497676  0.13732812  1
  O2-  O145  1  0.26524051  0.24397008  0.62065369  1
  O2-  O146  1  0.25304779  0.77142919  0.13760506  1
  O2-  O147  1  0.24836451  0.77793759  0.63609678  1
  O2-  O148  1  0.76078432  0.21819092  0.11707504  1
  O2-  O149  1  0.77133335  0.22115150  0.63258719  1
  O2-  O150  1  0.75546179  0.72139755  0.11771391  1
  O2-  O151  1  0.76132420  0.72615995  0.63684443  1
  O2-  O152  1  0.22824039  0.24989524  0.37926050  1
  O2-  O153  1  0.22353732  0.25306393  0.86308362  1
  O2-  O154  1  0.23277721  0.75748195  0.36437604  1
  O2-  O155  1  0.23418421  0.74968295  0.86844703  1
  O2-  O156  1  0.73376966  0.27861523  0.36295701  1
  O2-  O157  1  0.73053968  0.26614024  0.88728475  1
  O2-  O158  1  0.75545742  0.78277550  0.36329614  1
  O2-  O159  1  0.75364844  0.76874463  0.88391397  1
  O2-  O160  1  -0.02927942  0.25878090  0.11567569  1
  O2-  O161  1  -0.02387713  0.26717870  0.61429186  1
  O2-  O162  1  -0.01217080  0.77024206  0.12573734  1
  O2-  O163  1  -0.00715365  0.76562687  0.63166368  1
  O2-  O164  1  0.47359616  0.26743915  0.11046606  1
  O2-  O165  1  0.46545919  0.26589195  0.61632616  1
  O2-  O166  1  0.49923504  0.77813240  0.11139683  1
  O2-  O167  1  0.48799829  0.77198831  0.61654916  1
  O2-  O168  1  0.24815545  0.01168373  0.37415713  1
  O2-  O169  1  0.24890867  0.00850314  0.87936026  1
  O2-  O170  1  0.27168959  0.50528592  0.37067939  1
  O2-  O171  1  0.27852201  0.51039964  0.88611733  1
  O2-  O172  1  0.74911780  -0.02788139  0.38205211  1
  O2-  O173  1  0.74102204  -0.03183061  0.88988210  1
  O2-  O174  1  0.78470561  0.48604058  0.38106472  1
  O2-  O175  1  0.76612449  0.47721402  0.89053027  1
  O2-  O176  1  0.03027853  0.23505774  0.38344920  1
  O2-  O177  1  0.01655893  0.22267013  0.88854993  1
  O2-  O178  1  0.01182909  0.74202830  0.36977124  1
  O2-  O179  1  0.00766231  0.73757751  0.88160519  1
  O2-  O180  1  0.51751468  0.23280240  0.38495224  1
  O2-  O181  1  0.53016303  0.24389202  0.88497811  1
  O2-  O182  1  0.50715293  0.72477415  0.37998879  1
  O2-  O183  1  0.52106208  0.73649307  0.88548577  1
  O2-  O184  1  0.25284296  -0.00059521  0.12742780  1
  O2-  O185  1  0.24708881  -0.01245860  0.62959512  1
  O2-  O186  1  0.23580583  0.49069044  0.13342872  1
  O2-  O187  1  0.22067171  0.48955098  0.61409532  1
  O2-  O188  1  0.74101580  0.01190810  0.11324554  1
  O2-  O189  1  0.75729542  0.03028185  0.61847377  1
  O2-  O190  1  0.71691378  0.50807686  0.11400219  1
  O2-  O191  1  0.72289132  0.51531356  0.61575763  1
  O2-  O192  1  0.13625261  0.27729525  0.23632346  1
  O2-  O193  1  0.13449386  0.26655122  0.72349564  1
  O2-  O194  1  0.12039751  0.77163358  0.24218596  1
  O2-  O195  1  0.12061643  0.77590949  0.74944967  1
  O2-  O196  1  0.63024542  0.26462692  0.22471539  1
  O2-  O197  1  0.63698694  0.27328346  0.73300924  1
  O2-  O198  1  0.63446803  0.77385209  0.23981151  1
  O2-  O199  1  0.63894772  0.77891142  0.74518436  1
  O2-  O200  1  0.36055368  0.23432482  0.28227101  1
  O2-  O201  1  0.36285387  0.21774281  0.76067480  1
  O2-  O202  1  0.36166667  0.72814448  0.26048422  1
  O2-  O203  1  0.36396698  0.73522887  0.75963985  1
  O2-  O204  1  0.86361186  0.22344619  0.26169638  1
  O2-  O205  1  0.86547934  0.23266535  0.78361585  1
  O2-  O206  1  0.88162144  0.73067240  0.25560318  1
  O2-  O207  1  0.88481304  0.73227403  0.76184622  1
  O2-  O208  1  0.26678315  0.37723953  0.25485108  1
  O2-  O209  1  0.28248774  0.36611265  0.74689014  1
  O2-  O210  1  0.26747394  0.88412547  0.25910089  1
  O2-  O211  1  0.26165611  0.88150516  0.76872561  1
  O2-  O212  1  0.76959190  0.36260180  0.21533640  1
  O2-  O213  1  0.77602678  0.36559495  0.73464579  1
  O2-  O214  1  0.77445672  0.86209842  0.21281964  1
  O2-  O215  1  0.78683153  0.86423615  0.74293213  1
  O2-  O216  1  0.22055682  0.12579008  0.25071938  1
  O2-  O217  1  0.22716112  0.11633158  0.74737662  1
  O2-  O218  1  0.22472503  0.62679435  0.24572268  1
  O2-  O219  1  0.22181858  0.63624259  0.74112572  1
  O2-  O220  1  0.72406025  0.13037150  0.26638766  1
  O2-  O221  1  0.72555301  0.13344232  0.77208852  1
  O2-  O222  1  0.73428679  0.63621101  0.26699271  1
  O2-  O223  1  0.74051411  0.63806999  0.78219442  1
  O2-  O224  1  0.13076225  0.49101719  0.26804141  1
  O2-  O225  1  0.11827261  0.48852758  0.78087522  1
  O2-  O226  1  0.13081246  0.97979958  0.24114922  1
  O2-  O227  1  0.12621976  0.97745707  0.75743385  1
  O2-  O228  1  0.61243095  0.47581782  0.26561917  1
  O2-  O229  1  0.61678176  0.48800039  0.77502038  1
  O2-  O230  1  0.60946051  0.96886667  0.24418632  1
  O2-  O231  1  0.61835625  0.97392463  0.74824363  1
  O2-  O232  1  0.36499597  0.03195373  0.24766277  1
  O2-  O233  1  0.36857983  0.01553687  0.75035748  1
  O2-  O234  1  0.36624730  0.52227055  0.23226790  1
  O2-  O235  1  0.38574655  0.52887864  0.73883186  1
  O2-  O236  1  0.88684418  0.01373700  0.25302880  1
  O2-  O237  1  0.89073445  0.01349663  0.77701796  1
  O2-  O238  1  0.88602259  0.51954067  0.22242484  1
  O2-  O239  1  0.88628127  0.52452738  0.73175213  1
  O2-  O240  1  0.46518984  0.38747242  0.25766436  1
  O2-  O241  1  0.48168322  0.38699704  0.78231427  1
  O2-  O242  1  0.45672209  0.88830073  0.25316908  1
  O2-  O243  1  0.48178521  0.88768474  0.79295029  1
  O2-  O244  1  0.98191318  0.38706364  0.27704166  1
  O2-  O245  1  0.98321753  0.38427516  0.77811726  1
  O2-  O246  1  0.98569763  0.87269584  0.25817980  1
  O2-  O247  1  0.98980254  0.87198619  0.77524804  1
  O2-  O248  1  0.02357101  0.11342248  0.23084107  1
  O2-  O249  1  0.02584690  0.11174996  0.73793326  1
  O2-  O250  1  0.01898163  0.63420169  0.22576774  1
  O2-  O251  1  0.02606799  0.63585406  0.74011249  1
  O2-  O252  1  0.50911983  0.11377683  0.21918435  1
  O2-  O253  1  0.51346948  0.11151113  0.73490405  1
  O2-  O254  1  0.50935672  0.61479984  0.21688143  1
  O2-  O255  1  0.52362022  0.61875694  0.73172712  1
  O2-  O256  1  0.13800068  0.48183364  -0.01687781  1
  O2-  O257  1  0.13424808  0.47538578  0.46830434  1
  O2-  O258  1  0.12375421  0.98018100  0.00754905  1
  O2-  O259  1  0.13707311  0.98263155  0.50741991  1
  O2-  O260  1  0.62095943  0.49181624  -0.01879038  1
  O2-  O261  1  0.63443418  0.47697683  0.46984774  1
  O2-  O262  1  0.61994300  0.98634750  0.00443855  1
  O2-  O263  1  0.62951694  0.97869350  0.50425232  1
  O2-  O264  1  0.37261390  0.02679435  -0.00202780  1
  O2-  O265  1  0.36236533  0.03250845  0.51406949  1
  O2-  O266  1  0.38272435  0.51232808  0.02209004  1
  O2-  O267  1  0.36208429  0.51642071  0.51816910  1
  O2-  O268  1  0.87263936  0.01153145  -0.00031174  1
  O2-  O269  1  0.86767605  0.02281205  0.48928465  1
  O2-  O270  1  0.86448891  0.51404755  0.02921517  1
  O2-  O271  1  0.86901004  0.52072396  0.52358787  1
  O2-  O272  1  0.49066148  0.37853929  -0.01789002  1
  O2-  O273  1  0.47336073  0.36502324  0.47706018  1
  O2-  O274  1  0.48628595  0.88217733  -0.02020639  1
  O2-  O275  1  0.47842237  0.86633126  0.47277880  1
  O2-  O276  1  0.98165693  0.36541475  -0.02343937  1
  O2-  O277  1  0.98668079  0.36676444  0.48071009  1
  O2-  O278  1  0.97512823  0.88059042  -0.01105857  1
  O2-  O279  1  0.96005507  0.86325270  0.48991916  1
  O2-  O280  1  0.00470132  0.11590908  0.02164839  1
  O2-  O281  1  0.02014654  0.13173646  0.52218071  1
  O2-  O282  1  0.01868466  0.63956772  0.02376253  1
  O2-  O283  1  0.03549848  0.63969591  0.51268837  1
  O2-  O284  1  0.51482447  0.12739176  0.01897491  1
  O2-  O285  1  0.51432320  0.13409604  0.52333052  1
  O2-  O286  1  0.51492116  0.62814290  0.02184596  1
  O2-  O287  1  0.51934068  0.63080190  0.52297400  1
  O2-  O288  1  0.11414708  0.26580709  0.02411284  1
  O2-  O289  1  0.12901659  0.26495664  0.51817227  1
  O2-  O290  1  0.11210235  0.78488512  0.00625613  1
  O2-  O291  1  0.11122677  0.79376363  0.50143355  1
  O2-  O292  1  0.62758319  0.25730066  0.02336022  1
  O2-  O293  1  0.61513238  0.27511964  0.52559244  1
  O2-  O294  1  0.63190391  0.76303159  0.00745845  1
  O2-  O295  1  0.61880916  0.77189825  0.50462345  1
  O2-  O296  1  0.38682457  0.23268861  -0.03222512  1
  O2-  O297  1  0.36590153  0.23066661  0.48306370  1
  O2-  O298  1  0.38543493  0.73669822  -0.01247321  1
  O2-  O299  1  0.37878251  0.72737025  0.49320289  1
  O2-  O300  1  0.86823705  0.23556631  -0.01468220  1
  O2-  O301  1  0.88268250  0.22559579  0.47122180  1
  O2-  O302  1  0.87581810  0.73630401  -0.00311271  1
  O2-  O303  1  0.88765168  0.71476346  0.49447861  1
  O2-  O304  1  0.27640752  0.38351045  0.00864514  1
  O2-  O305  1  0.26699375  0.36982632  0.49831999  1
  O2-  O306  1  0.27079894  0.88735580  -0.00022228  1
  O2-  O307  1  0.28009143  0.88723301  0.48814507  1
  O2-  O308  1  0.76169288  0.36956745  0.02245943  1
  O2-  O309  1  0.77255928  0.38203168  0.52085381  1
  O2-  O310  1  0.76420734  0.86942041  0.02242755  1
  O2-  O311  1  0.76328081  0.88330606  0.53300147  1
  O2-  O312  1  0.22064215  0.11537096  0.00529690  1
  O2-  O313  1  0.22661909  0.12727999  0.49971038  1
  O2-  O314  1  0.24374205  0.61426228  0.02559378  1
  O2-  O315  1  0.22150448  0.61590936  0.49621717  1
  O2-  O316  1  0.73787097  0.11965094  -0.02171687  1
  O2-  O317  1  0.72450075  0.11758728  0.47605554  1
  O2-  O318  1  0.73865580  0.62327991  -0.01974654  1
  O2-  O319  1  0.72994522  0.61790736  0.47682664  1
