# generated using pymatgen
data_Sr64Ca21Nb43O192
_symmetry_space_group_name_H-M   'P 1'
_cell_length_a   16.55766359
_cell_length_b   16.58168350
_cell_length_c   16.76152913
_cell_angle_alpha   90.02511470
_cell_angle_beta   90.04075490
_cell_angle_gamma   89.99058389
_symmetry_Int_Tables_number   1
_chemical_formula_structural   Sr64Ca21Nb43O192
_chemical_formula_sum   'Sr64 Ca21 Nb43 O192'
_cell_volume   4601.94214668
_cell_formula_units_Z   1
loop_
 _symmetry_equiv_pos_site_id
 _symmetry_equiv_pos_as_xyz
  1  'x, y, z'
loop_
 _atom_type_symbol
 _atom_type_oxidation_number
  Sr2+  2.0
  Ca2+  2.0
  Nb5+  5.0
  O2-  -2.0
loop_
 _atom_site_type_symbol
 _atom_site_label
 _atom_site_symmetry_multiplicity
 _atom_site_fract_x
 _atom_site_fract_y
 _atom_site_fract_z
 _atom_site_occupancy
  Sr2+  Sr0  1  0.12677628  0.12499953  0.12384886  1
  Sr2+  Sr1  1  0.12882615  0.12772311  0.62857995  1
  Sr2+  Sr2  1  0.11750370  0.62338294  0.13023894  1
  Sr2+  Sr3  1  0.12934941  0.60964634  0.63056864  1
  Sr2+  Sr4  1  0.62995328  0.13069314  0.12802409  1
  Sr2+  Sr5  1  0.63762631  0.13105887  0.62754386  1
  Sr2+  Sr6  1  0.64173028  0.60957434  0.12151675  1
  Sr2+  Sr7  1  0.62128255  0.63038091  0.62598362  1
  Sr2+  Sr8  1  0.37901388  0.37294505  0.12439786  1
  Sr2+  Sr9  1  0.36307095  0.37630220  0.62801739  1
  Sr2+  Sr10  1  0.38180898  0.87552171  0.12759825  1
  Sr2+  Sr11  1  0.38129972  0.86072206  0.61835237  1
  Sr2+  Sr12  1  0.87063932  0.39284910  0.13113846  1
  Sr2+  Sr13  1  0.86900242  0.36210764  0.61598522  1
  Sr2+  Sr14  1  0.87392926  0.86950446  0.12227449  1
  Sr2+  Sr15  1  0.86984936  0.85805928  0.62737586  1
  Sr2+  Sr16  1  0.11809895  0.37712096  0.38391569  1
  Sr2+  Sr17  1  0.12974038  0.37475467  0.86913156  1
  Sr2+  Sr18  1  0.13214809  0.87554304  0.37202591  1
  Sr2+  Sr19  1  0.12591260  0.88240393  0.87233540  1
  Sr2+  Sr20  1  0.62426269  0.37911478  0.37732782  1
  Sr2+  Sr21  1  0.62612062  0.37210359  0.86867209  1
  Sr2+  Sr22  1  0.61462224  0.88097081  0.37918306  1
  Sr2+  Sr23  1  0.61482970  0.88409193  0.87173469  1
  Sr2+  Sr24  1  0.38024414  0.12890663  0.37030636  1
  Sr2+  Sr25  1  0.38377542  0.12691487  0.88047864  1
  Sr2+  Sr26  1  0.36764738  0.63176790  0.38704950  1
  Sr2+  Sr27  1  0.38213054  0.62601677  0.86493864  1
  Sr2+  Sr28  1  0.86724573  0.12852700  0.38407893  1
  Sr2+  Sr29  1  0.89490232  0.12275577  0.87071456  1
  Sr2+  Sr30  1  0.88388633  0.63361927  0.37876837  1
  Sr2+  Sr31  1  0.87790906  0.63873325  0.86419803  1
  Sr2+  Sr32  1  0.13882249  0.12445624  0.37067536  1
  Sr2+  Sr33  1  0.12686638  0.13759184  0.88232537  1
  Sr2+  Sr34  1  0.12337925  0.62394872  0.37558820  1
  Sr2+  Sr35  1  0.13699256  0.63766500  0.87524741  1
  Sr2+  Sr36  1  0.62422988  0.13002321  0.38027773  1
  Sr2+  Sr37  1  0.62547071  0.12664867  0.86615994  1
  Sr2+  Sr38  1  0.61590616  0.62734988  0.38442614  1
  Sr2+  Sr39  1  0.63424026  0.62939131  0.86891962  1
  Sr2+  Sr40  1  0.37215085  0.39479905  0.36793335  1
  Sr2+  Sr41  1  0.36707811  0.38430086  0.87223299  1
  Sr2+  Sr42  1  0.37176691  0.87762150  0.38205000  1
  Sr2+  Sr43  1  0.37178014  0.86857288  0.87893350  1
  Sr2+  Sr44  1  0.88430690  0.39433907  0.38006669  1
  Sr2+  Sr45  1  0.87329055  0.36054721  0.86767790  1
  Sr2+  Sr46  1  0.87465719  0.88017282  0.38890869  1
  Sr2+  Sr47  1  0.87659739  0.88264030  0.86487877  1
  Sr2+  Sr48  1  0.11537511  0.37607662  0.12629346  1
  Sr2+  Sr49  1  0.11359214  0.37224538  0.62112609  1
  Sr2+  Sr50  1  0.12330227  0.86901972  0.12605318  1
  Sr2+  Sr51  1  0.11178400  0.87244128  0.62734735  1
  Sr2+  Sr52  1  0.61879429  0.37023791  0.12654803  1
  Sr2+  Sr53  1  0.62882872  0.36637703  0.62801651  1
  Sr2+  Sr54  1  0.63848599  0.87137818  0.12517130  1
  Sr2+  Sr55  1  0.62117178  0.87988059  0.61890956  1
  Sr2+  Sr56  1  0.38522749  0.12774429  0.12545029  1
  Sr2+  Sr57  1  0.38390685  0.12006943  0.61800251  1
  Sr2+  Sr58  1  0.38885073  0.61559645  0.12765474  1
  Sr2+  Sr59  1  0.38453767  0.61390731  0.62719627  1
  Sr2+  Sr60  1  0.87818892  0.11971686  0.12455663  1
  Sr2+  Sr61  1  0.87278316  0.13350592  0.62632834  1
  Sr2+  Sr62  1  0.87167400  0.62690367  0.12052817  1
  Sr2+  Sr63  1  0.86284111  0.61629855  0.62237579  1
  Ca2+  Ca64  1  0.49810259  0.49323405  0.50405437  1
  Ca2+  Ca65  1  0.00482391  -0.00086740  0.49596999  1
  Ca2+  Ca66  1  0.50004016  0.00492126  0.49659279  1
  Ca2+  Ca67  1  0.50273035  0.50126876  -0.00371542  1
  Ca2+  Ca68  1  -0.00350533  0.50057704  -0.00487218  1
  Ca2+  Ca69  1  0.75070793  0.25160063  0.00104444  1
  Ca2+  Ca70  1  0.74630263  0.25312859  0.49472264  1
  Ca2+  Ca71  1  0.74790412  0.74923759  0.49657429  1
  Ca2+  Ca72  1  0.24476016  0.75114611  0.50188902  1
  Ca2+  Ca73  1  0.25187324  0.24655707  0.49963959  1
  Ca2+  Ca74  1  0.49995278  0.75306065  0.24961644  1
  Ca2+  Ca75  1  0.00229609  0.74568999  0.75035181  1
  Ca2+  Ca76  1  0.00342149  0.25069226  0.74741707  1
  Ca2+  Ca77  1  0.49899948  0.75274330  0.75162754  1
  Ca2+  Ca78  1  0.25567976  -0.00042950  0.75329441  1
  Ca2+  Ca79  1  0.74982023  -0.00067270  0.75261781  1
  Ca2+  Ca80  1  0.74995908  0.50251846  0.25583672  1
  Ca2+  Ca81  1  -0.00131478  0.24780701  0.25155630  1
  Ca2+  Ca82  1  0.25177107  0.50187907  0.24783376  1
  Ca2+  Ca83  1  0.75352063  0.49717369  0.74653756  1
  Ca2+  Ca84  1  0.49793338  0.25205040  0.75393270  1
  Nb5+  Nb85  1  0.50636902  0.00010653  0.00267246  1
  Nb5+  Nb86  1  0.00554081  -0.00440778  0.00049776  1
  Nb5+  Nb87  1  -0.00220636  0.50550073  0.50405708  1
  Nb5+  Nb88  1  0.25689895  0.75203592  0.00693314  1
  Nb5+  Nb89  1  0.75697885  0.75032302  -0.00187963  1
  Nb5+  Nb90  1  0.25065943  0.25516137  0.00354724  1
  Nb5+  Nb91  1  0.24816331  0.50049844  0.75153889  1
  Nb5+  Nb92  1  0.75591130  -0.00124378  0.25007418  1
  Nb5+  Nb93  1  0.49880106  0.25089449  0.25176327  1
  Nb5+  Nb94  1  0.25396856  -0.00018498  0.24697825  1
  Nb5+  Nb95  1  -0.00286514  0.75425636  0.24987056  1
  Nb5+  Nb96  1  0.00577033  -0.00270839  0.24890908  1
  Nb5+  Nb97  1  0.00331633  0.00270044  0.74007343  1
  Nb5+  Nb98  1  -0.00035852  0.50129977  0.24799963  1
  Nb5+  Nb99  1  -0.00271525  0.49768375  0.75512400  1
  Nb5+  Nb100  1  0.50687296  0.00116009  0.24724348  1
  Nb5+  Nb101  1  0.49714329  -0.00020292  0.74205049  1
  Nb5+  Nb102  1  0.50540597  0.50724369  0.24953160  1
  Nb5+  Nb103  1  0.50587004  0.49936303  0.75071474  1
  Nb5+  Nb104  1  0.25298094  0.25227814  0.24756672  1
  Nb5+  Nb105  1  0.25077830  0.24558105  0.75059118  1
  Nb5+  Nb106  1  0.25017768  0.74855881  0.24699347  1
  Nb5+  Nb107  1  0.24867558  0.75146452  0.74459595  1
  Nb5+  Nb108  1  0.75586573  0.25067947  0.25035952  1
  Nb5+  Nb109  1  0.75001674  0.24996021  0.75297334  1
  Nb5+  Nb110  1  0.74831915  0.75193535  0.25140770  1
  Nb5+  Nb111  1  0.74538122  0.75310861  0.74456940  1
  Nb5+  Nb112  1  0.00261431  0.24268031  0.49257805  1
  Nb5+  Nb113  1  -0.00428200  0.24949299  1.00715040  1
  Nb5+  Nb114  1  0.00407808  0.74737841  0.50770343  1
  Nb5+  Nb115  1  0.00728488  0.75042551  0.99761056  1
  Nb5+  Nb116  1  0.49563446  0.25385980  0.50742832  1
  Nb5+  Nb117  1  0.49948608  0.25249855  0.99946953  1
  Nb5+  Nb118  1  0.49815844  0.74804282  0.49855173  1
  Nb5+  Nb119  1  0.50927747  0.75116937  1.00536815  1
  Nb5+  Nb120  1  0.25518992  0.00270199  0.00243696  1
  Nb5+  Nb121  1  0.25193220  -0.00044887  0.50825327  1
  Nb5+  Nb122  1  0.24890981  0.50821833  0.00276399  1
  Nb5+  Nb123  1  0.24701028  0.49931766  0.49829084  1
  Nb5+  Nb124  1  0.75200756  0.00164972  0.00024552  1
  Nb5+  Nb125  1  0.75239420  -0.00025291  0.50501889  1
  Nb5+  Nb126  1  0.75579699  0.49613223  -0.00460749  1
  Nb5+  Nb127  1  0.74257357  0.49821432  0.50275615  1
  O2-  O128  1  -0.01004651  0.01458824  0.12252164  1
  O2-  O129  1  0.00244424  0.03378162  0.63007539  1
  O2-  O130  1  -0.02079973  0.52312756  0.13325133  1
  O2-  O131  1  -0.00706225  0.53263266  0.61703162  1
  O2-  O132  1  0.48606918  -0.01158322  0.12513149  1
  O2-  O133  1  0.48041888  -0.01860858  0.63051226  1
  O2-  O134  1  0.47583676  0.48463457  0.13453722  1
  O2-  O135  1  0.46837786  0.47786415  0.63961419  1
  O2-  O136  1  0.00400425  -0.03545238  0.35858596  1
  O2-  O137  1  0.00308283  -0.02564762  0.88564605  1
  O2-  O138  1  0.02274771  0.49214322  0.37261886  1
  O2-  O139  1  0.00215675  0.45846883  0.86314023  1
  O2-  O140  1  0.51002432  0.02611341  0.35973989  1
  O2-  O141  1  0.51386792  0.01883687  0.88757326  1
  O2-  O142  1  0.52385992  0.50227585  0.36657186  1
  O2-  O143  1  0.51453503  0.53740678  0.86576693  1
  O2-  O144  1  0.26076264  0.23648145  0.12408618  1
  O2-  O145  1  0.26912877  0.23486266  0.63831418  1
  O2-  O146  1  0.21959045  0.74711158  0.12183189  1
  O2-  O147  1  0.21757394  0.75165611  0.63588843  1
  O2-  O148  1  0.73900887  0.24804422  0.13459781  1
  O2-  O149  1  0.75057987  0.24360393  0.63067903  1
  O2-  O150  1  0.73913176  0.74773363  0.12191981  1
  O2-  O151  1  0.71891451  0.76220314  0.63356054  1
  O2-  O152  1  0.25295792  0.23570703  0.36124624  1
  O2-  O153  1  0.23284475  0.25510262  0.88800793  1
  O2-  O154  1  0.26502752  0.76096037  0.36072501  1
  O2-  O155  1  0.26828525  0.74460035  0.89075248  1
  O2-  O156  1  0.72636584  0.24132740  0.36088870  1
  O2-  O157  1  0.73800098  0.26334448  0.87064141  1
  O2-  O158  1  0.78197461  0.75801443  0.36056600  1
  O2-  O159  1  0.77323291  0.75271429  0.88276076  1
  O2-  O160  1  0.00197823  0.21302759  0.11863191  1
  O2-  O161  1  0.01109152  0.22668338  0.61257642  1
  O2-  O162  1  0.01330778  0.73655087  0.11880529  1
  O2-  O163  1  0.03276899  0.72924235  0.61576406  1
  O2-  O164  1  0.48808596  0.26011487  0.12355784  1
  O2-  O165  1  0.48533065  0.27701396  0.61937034  1
  O2-  O166  1  0.50717383  0.78857373  0.11582631  1
  O2-  O167  1  0.51869053  0.77202326  0.61608191  1
  O2-  O168  1  0.23739960  -0.00746058  0.36217850  1
  O2-  O169  1  0.24403483  -0.01896514  0.89045925  1
  O2-  O170  1  0.23149678  0.48397535  0.38418992  1
  O2-  O171  1  0.22608174  0.49555326  0.87413605  1
  O2-  O172  1  0.74434600  -0.01571109  0.36348245  1
  O2-  O173  1  0.73308284  -0.01455505  0.88880437  1
  O2-  O174  1  0.72267878  0.51591406  0.38659309  1
  O2-  O175  1  0.72265764  0.49430816  0.88315100  1
  O2-  O176  1  -0.00910517  0.28370776  0.38138411  1
  O2-  O177  1  0.01433729  0.26088183  0.89062262  1
  O2-  O178  1  -0.02255990  0.76703863  0.36194111  1
  O2-  O179  1  -0.02390600  0.76902995  0.88698214  1
  O2-  O180  1  0.50354710  0.22732159  0.36462195  1
  O2-  O181  1  0.50600010  0.21973456  0.88947360  1
  O2-  O182  1  0.47422228  0.73078908  0.37965523  1
  O2-  O183  1  0.47496300  0.74516101  0.89399912  1
  O2-  O184  1  0.25128896  -0.00065733  0.12254485  1
  O2-  O185  1  0.27035403  0.01454102  0.61920358  1
  O2-  O186  1  0.27818662  0.50497069  0.11373722  1
  O2-  O187  1  0.26181754  0.51187083  0.63253066  1
  O2-  O188  1  0.75467470  0.00237772  0.12358416  1
  O2-  O189  1  0.75536596  0.01542929  0.61759527  1
  O2-  O190  1  0.77386309  0.51143706  0.11751477  1
  O2-  O191  1  0.78379006  0.48489153  0.61381427  1
  O2-  O192  1  0.13738327  0.26812577  0.23977395  1
  O2-  O193  1  0.13692149  0.27944097  0.74842236  1
  O2-  O194  1  0.11915392  0.77372840  0.25482742  1
  O2-  O195  1  0.13728447  0.76404601  0.78561645  1
  O2-  O196  1  0.61580856  0.26197901  0.23893458  1
  O2-  O197  1  0.63152074  0.27811235  0.74644005  1
  O2-  O198  1  0.63704955  0.78221620  0.26253996  1
  O2-  O199  1  0.63356256  0.76607791  0.78458708  1
  O2-  O200  1  0.37679968  0.22237534  0.24532652  1
  O2-  O201  1  0.36327119  0.24570868  0.78403058  1
  O2-  O202  1  0.36157755  0.73562434  0.21989103  1
  O2-  O203  1  0.36216540  0.71967119  0.73888328  1
  O2-  O204  1  0.86371539  0.21064418  0.25158699  1
  O2-  O205  1  0.87079292  0.22270957  0.76096240  1
  O2-  O206  1  0.87895486  0.74100185  0.22352864  1
  O2-  O207  1  0.86586680  0.72790439  0.72875816  1
  O2-  O208  1  0.28027720  0.36419998  0.24375627  1
  O2-  O209  1  0.26635702  0.37983994  0.75026692  1
  O2-  O210  1  0.26078118  0.87791208  0.23558649  1
  O2-  O211  1  0.27903095  0.86288124  0.75178084  1
  O2-  O212  1  0.78164065  0.36346685  0.25550107  1
  O2-  O213  1  0.78478036  0.36567545  0.74797477  1
  O2-  O214  1  0.76783589  0.87905501  0.23190542  1
  O2-  O215  1  0.77875623  0.86660711  0.75297956  1
  O2-  O216  1  0.22786056  0.11715377  0.24227085  1
  O2-  O217  1  0.22402099  0.13437114  0.76602070  1
  O2-  O218  1  0.22327314  0.63663373  0.25293513  1
  O2-  O219  1  0.22974954  0.62152333  0.75821017  1
  O2-  O220  1  0.72609501  0.11371674  0.24914512  1
  O2-  O221  1  0.72572361  0.13213220  0.75732889  1
  O2-  O222  1  0.72930185  0.63873288  0.24877770  1
  O2-  O223  1  0.73055635  0.63372744  0.75184283  1
  O2-  O224  1  0.11765746  0.49464655  0.22627023  1
  O2-  O225  1  0.12700604  0.48124349  0.73296646  1
  O2-  O226  1  0.12223635  0.98043617  0.23361961  1
  O2-  O227  1  0.11970211  0.97238923  0.74521377  1
  O2-  O228  1  0.61752132  0.46939134  0.23236092  1
  O2-  O229  1  0.61731100  0.48381566  0.72663546  1
  O2-  O230  1  0.62209443  0.98077280  0.23625554  1
  O2-  O231  1  0.61421374  0.96860749  0.74479792  1
  O2-  O232  1  0.36913106  0.01920412  0.24884468  1
  O2-  O233  1  0.38673967  0.03820975  0.76457006  1
  O2-  O234  1  0.38643926  0.52435688  0.27545659  1
  O2-  O235  1  0.36603156  0.51189146  0.77000815  1
  O2-  O236  1  0.87370636  0.01510707  0.25103211  1
  O2-  O237  1  0.88771312  0.01573648  0.76662812  1
  O2-  O238  1  0.88575679  0.51844091  0.27787795  1
  O2-  O239  1  0.88706767  0.52993066  0.75836411  1
  O2-  O240  1  0.47717366  0.36568478  0.26066358  1
  O2-  O241  1  0.49071777  0.38774523  0.79161488  1
  O2-  O242  1  0.47555413  0.89044822  0.26645708  1
  O2-  O243  1  0.47162479  0.88730585  0.77479145  1
  O2-  O244  1  0.98709145  0.38598385  0.23049732  1
  O2-  O245  1  0.98485074  0.38751291  0.71120961  1
  O2-  O246  1  0.98837854  0.87336536  0.21934240  1
  O2-  O247  1  0.98454581  0.88242510  0.72468381  1
  O2-  O248  1  0.02051339  0.10983373  0.26699652  1
  O2-  O249  1  0.02627162  0.11375153  0.77790403  1
  O2-  O250  1  0.01634656  0.63529416  0.26001714  1
  O2-  O251  1  0.03002951  0.61123108  0.77419902  1
  O2-  O252  1  0.51080432  0.12321225  0.22414083  1
  O2-  O253  1  0.53119156  0.11605598  0.73460072  1
  O2-  O254  1  0.52843461  0.61849675  0.22872273  1
  O2-  O255  1  0.50625425  0.61807494  0.72475717  1
  O2-  O256  1  0.13456982  0.47724283  0.01535939  1
  O2-  O257  1  0.11991196  0.48760879  0.51621107  1
  O2-  O258  1  0.12317949  0.98358145  0.01189986  1
  O2-  O259  1  0.13750834  0.96108326  0.50465012  1
  O2-  O260  1  0.63801865  0.48398896  0.02632014  1
  O2-  O261  1  0.63216860  0.47736474  0.52779914  1
  O2-  O262  1  0.62069476  0.97926124  0.01747884  1
  O2-  O263  1  0.63528120  0.97254605  0.49770694  1
  O2-  O264  1  0.37207561  0.01459930  -0.00054151  1
  O2-  O265  1  0.36358280  0.02554140  0.47499738  1
  O2-  O266  1  0.36197469  0.51421559  -0.03053831  1
  O2-  O267  1  0.36215265  0.51730471  0.48705735  1
  O2-  O268  1  0.87120667  0.00927149  -0.00504866  1
  O2-  O269  1  0.86943610  0.01884984  0.48139392  1
  O2-  O270  1  0.86436265  0.54127420  -0.02243832  1
  O2-  O271  1  0.88276230  0.52040255  0.47775280  1
  O2-  O272  1  0.46982974  0.36343115  -0.01240346  1
  O2-  O273  1  0.46546680  0.36213150  0.47120170  1
  O2-  O274  1  0.47955041  0.88455600  -0.01285026  1
  O2-  O275  1  0.48008727  0.86791931  0.48250717  1
  O2-  O276  1  0.98542123  0.36177671  0.03189874  1
  O2-  O277  1  0.98385363  0.38783055  0.51374042  1
  O2-  O278  1  0.98909878  0.87608699  0.02211899  1
  O2-  O279  1  0.98359481  0.86264844  0.52209120  1
  O2-  O280  1  0.01363920  0.11306875  -0.01654291  1
  O2-  O281  1  0.01732695  0.13345079  0.46061665  1
  O2-  O282  1  0.02221699  0.63659155  -0.01714900  1
  O2-  O283  1  0.01385903  0.62526218  0.47332529  1
  O2-  O284  1  0.50765778  0.12073951  0.02452305  1
  O2-  O285  1  0.53253130  0.13757366  0.51783565  1
  O2-  O286  1  0.51496996  0.63895272  0.03011177  1
  O2-  O287  1  0.51978371  0.62909045  0.51432801  1
  O2-  O288  1  0.12970958  0.25314920  0.01959021  1
  O2-  O289  1  0.11691410  0.27705928  0.49479294  1
  O2-  O290  1  0.12316163  0.77283677  -0.01446764  1
  O2-  O291  1  0.11210474  0.76157183  0.46235084  1
  O2-  O292  1  0.61255979  0.27302808  0.00711593  1
  O2-  O293  1  0.61205006  0.28455232  0.49815345  1
  O2-  O294  1  0.62306127  0.77189299  -0.01360804  1
  O2-  O295  1  0.61578163  0.76049817  0.46657362  1
  O2-  O296  1  0.36793783  0.22663469  -0.00193572  1
  O2-  O297  1  0.38449673  0.21129446  0.49511751  1
  O2-  O298  1  0.36879487  0.73549672  0.02925519  1
  O2-  O299  1  0.38002174  0.72604470  0.52178469  1
  O2-  O300  1  0.88458057  0.22017543  -0.00518004  1
  O2-  O301  1  0.88355172  0.23368337  0.50629512  1
  O2-  O302  1  0.87342838  0.73963751  0.01721526  1
  O2-  O303  1  0.88701817  0.72658847  0.51127804  1
  O2-  O304  1  0.26572629  0.37018451  0.00773217  1
  O2-  O305  1  0.25571851  0.38347904  0.52341620  1
  O2-  O306  1  0.26644926  0.87046706  0.01285579  1
  O2-  O307  1  0.28290514  0.88282029  0.50518362  1
  O2-  O308  1  0.79261708  0.38607400  -0.00034875  1
  O2-  O309  1  0.77489384  0.38495867  0.47867269  1
  O2-  O310  1  0.75972348  0.87246487  0.01134900  1
  O2-  O311  1  0.77843315  0.88237116  0.50522812  1
  O2-  O312  1  0.23419655  0.11815323  -0.00201597  1
  O2-  O313  1  0.21067553  0.11291820  0.49814080  1
  O2-  O314  1  0.22746088  0.62527811  0.00442250  1
  O2-  O315  1  0.22265266  0.61568202  0.49808864  1
  O2-  O316  1  0.72414826  0.11341215  -0.00064277  1
  O2-  O317  1  0.73294450  0.11534383  0.48156890  1
  O2-  O318  1  0.72545719  0.63623129  -0.00386909  1
  O2-  O319  1  0.73754493  0.61658419  0.52252314  1
