# generated using pymatgen
data_Sr64Ca21Nb43O192
_symmetry_space_group_name_H-M   'P 1'
_cell_length_a   16.55274619
_cell_length_b   16.53162021
_cell_length_c   16.69505992
_cell_angle_alpha   89.98735967
_cell_angle_beta   89.97920777
_cell_angle_gamma   89.98393449
_symmetry_Int_Tables_number   1
_chemical_formula_structural   Sr64Ca21Nb43O192
_chemical_formula_sum   'Sr64 Ca21 Nb43 O192'
_cell_volume   4568.49759993
_cell_formula_units_Z   1
loop_
 _symmetry_equiv_pos_site_id
 _symmetry_equiv_pos_as_xyz
  1  'x, y, z'
loop_
 _atom_type_symbol
 _atom_type_oxidation_number
  Sr2+  2.0
  Ca2+  2.0
  Nb5+  5.0
  O2-  -2.0
loop_
 _atom_site_type_symbol
 _atom_site_label
 _atom_site_symmetry_multiplicity
 _atom_site_fract_x
 _atom_site_fract_y
 _atom_site_fract_z
 _atom_site_occupancy
  Sr2+  Sr0  1  0.12444911  0.12014284  0.13795761  1
  Sr2+  Sr1  1  0.12917020  0.11875633  0.62408801  1
  Sr2+  Sr2  1  0.13002407  0.62314890  0.12296886  1
  Sr2+  Sr3  1  0.12009781  0.63438496  0.62471503  1
  Sr2+  Sr4  1  0.62769934  0.12547392  0.12311216  1
  Sr2+  Sr5  1  0.62718158  0.12960939  0.62441588  1
  Sr2+  Sr6  1  0.63162805  0.63976726  0.12837513  1
  Sr2+  Sr7  1  0.63730846  0.62864419  0.62741589  1
  Sr2+  Sr8  1  0.36799830  0.38570026  0.12422452  1
  Sr2+  Sr9  1  0.38696776  0.37104093  0.62332363  1
  Sr2+  Sr10  1  0.38007627  0.87571086  0.12521601  1
  Sr2+  Sr11  1  0.37627241  0.88019424  0.62498455  1
  Sr2+  Sr12  1  0.86787347  0.35120335  0.12360924  1
  Sr2+  Sr13  1  0.86125422  0.36163288  0.62088924  1
  Sr2+  Sr14  1  0.86914223  0.89191029  0.12398665  1
  Sr2+  Sr15  1  0.87889459  0.86656889  0.62605274  1
  Sr2+  Sr16  1  0.10084929  0.37533143  0.38256503  1
  Sr2+  Sr17  1  0.12452048  0.38490387  0.87751515  1
  Sr2+  Sr18  1  0.12230447  0.87736555  0.37136235  1
  Sr2+  Sr19  1  0.12476651  0.87452913  0.86890480  1
  Sr2+  Sr20  1  0.61856001  0.38632835  0.37769386  1
  Sr2+  Sr21  1  0.62930577  0.38008190  0.87290247  1
  Sr2+  Sr22  1  0.61792455  0.87885075  0.37424390  1
  Sr2+  Sr23  1  0.62631479  0.86839591  0.88227266  1
  Sr2+  Sr24  1  0.36449974  0.12130809  0.36036694  1
  Sr2+  Sr25  1  0.36751655  0.12406104  0.87848318  1
  Sr2+  Sr26  1  0.37785671  0.62204594  0.37717621  1
  Sr2+  Sr27  1  0.35751054  0.61626194  0.87584129  1
  Sr2+  Sr28  1  0.89115700  0.13082766  0.36059986  1
  Sr2+  Sr29  1  0.88247105  0.14094500  0.88489782  1
  Sr2+  Sr30  1  0.88628210  0.61291899  0.37062921  1
  Sr2+  Sr31  1  0.88800603  0.62287242  0.87429140  1
  Sr2+  Sr32  1  0.12829111  0.14625974  0.37503178  1
  Sr2+  Sr33  1  0.13092664  0.14429450  0.87556491  1
  Sr2+  Sr34  1  0.12786712  0.64326269  0.37447965  1
  Sr2+  Sr35  1  0.12445124  0.60969703  0.87456790  1
  Sr2+  Sr36  1  0.61440921  0.13788557  0.37030286  1
  Sr2+  Sr37  1  0.60966032  0.13650264  0.87391056  1
  Sr2+  Sr38  1  0.62311890  0.62482853  0.36774670  1
  Sr2+  Sr39  1  0.62951569  0.63071021  0.87865340  1
  Sr2+  Sr40  1  0.37092632  0.37944434  0.37787288  1
  Sr2+  Sr41  1  0.37339286  0.37728343  0.87499846  1
  Sr2+  Sr42  1  0.36634944  0.86660722  0.37253082  1
  Sr2+  Sr43  1  0.37051602  0.87474412  0.87776888  1
  Sr2+  Sr44  1  0.86958500  0.37312319  0.36201894  1
  Sr2+  Sr45  1  0.87445848  0.38311254  0.88381881  1
  Sr2+  Sr46  1  0.87792200  0.88075897  0.36956893  1
  Sr2+  Sr47  1  0.87648175  0.86953169  0.87945067  1
  Sr2+  Sr48  1  0.11135939  0.37207432  0.11461745  1
  Sr2+  Sr49  1  0.12460237  0.36088807  0.61723193  1
  Sr2+  Sr50  1  0.11021742  0.87875013  0.13033606  1
  Sr2+  Sr51  1  0.11309092  0.87704732  0.62668682  1
  Sr2+  Sr52  1  0.63323275  0.37758365  0.13717272  1
  Sr2+  Sr53  1  0.62422610  0.37432391  0.63008999  1
  Sr2+  Sr54  1  0.62403252  0.87661894  0.11888938  1
  Sr2+  Sr55  1  0.64693079  0.88651050  0.62468901  1
  Sr2+  Sr56  1  0.38067021  0.11480770  0.12411597  1
  Sr2+  Sr57  1  0.37952212  0.11912566  0.62450728  1
  Sr2+  Sr58  1  0.36328270  0.62356653  0.12562814  1
  Sr2+  Sr59  1  0.37234880  0.63140538  0.62019418  1
  Sr2+  Sr60  1  0.89948817  0.12347767  0.12339997  1
  Sr2+  Sr61  1  0.87199603  0.11054570  0.62873024  1
  Sr2+  Sr62  1  0.87511036  0.62421806  0.12833595  1
  Sr2+  Sr63  1  0.87915767  0.62706227  0.63203747  1
  Ca2+  Ca64  1  0.50127539  0.49989796  0.00131217  1
  Ca2+  Ca65  1  -0.00111364  0.50195162  0.50237365  1
  Ca2+  Ca66  1  -0.00016411  0.00218848  0.50038613  1
  Ca2+  Ca67  1  -0.00330076  0.50399434  0.00368598  1
  Ca2+  Ca68  1  0.00225603  -0.00210242  -0.00594657  1
  Ca2+  Ca69  1  0.25290389  0.24944573  -0.00025701  1
  Ca2+  Ca70  1  0.24767758  0.75405735  -0.00350513  1
  Ca2+  Ca71  1  0.74917178  0.74905365  0.49895653  1
  Ca2+  Ca72  1  0.74839386  0.24564837  0.49485026  1
  Ca2+  Ca73  1  0.74516820  0.25008140  -0.00100754  1
  Ca2+  Ca74  1  0.25030156  -0.00215586  0.25078995  1
  Ca2+  Ca75  1  0.50006072  0.75166688  0.74888501  1
  Ca2+  Ca76  1  0.74919189  0.00156967  0.75699803  1
  Ca2+  Ca77  1  0.49753793  0.25217072  0.25269783  1
  Ca2+  Ca78  1  -0.00340514  0.74706837  0.24995652  1
  Ca2+  Ca79  1  0.74791501  -0.00163536  0.25030350  1
  Ca2+  Ca80  1  0.00356796  0.25435161  0.24860186  1
  Ca2+  Ca81  1  0.24967733  0.50068252  0.74174184  1
  Ca2+  Ca82  1  -0.00018921  0.25217444  0.74912659  1
  Ca2+  Ca83  1  0.49840602  0.74886225  0.25060535  1
  Ca2+  Ca84  1  0.24583741  0.49917187  0.25589175  1
  Nb5+  Nb85  1  0.50347729  0.50808458  0.50625263  1
  Nb5+  Nb86  1  0.49991832  -0.00058626  -0.00712068  1
  Nb5+  Nb87  1  0.50160098  0.00568213  0.49551562  1
  Nb5+  Nb88  1  0.75466535  0.74847925  0.00340621  1
  Nb5+  Nb89  1  0.25578017  0.24531198  0.50022187  1
  Nb5+  Nb90  1  0.24875726  0.74891366  0.49905699  1
  Nb5+  Nb91  1  0.74960680  0.50146093  0.25365290  1
  Nb5+  Nb92  1  0.49624316  0.25034402  0.75087779  1
  Nb5+  Nb93  1  0.75089017  0.49978349  0.75367966  1
  Nb5+  Nb94  1  0.00189598  0.75129269  0.75196104  1
  Nb5+  Nb95  1  0.25000905  0.00053713  0.74937442  1
  Nb5+  Nb96  1  0.00075651  -0.00227121  0.25134940  1
  Nb5+  Nb97  1  -0.00335945  0.00563123  0.75579927  1
  Nb5+  Nb98  1  0.00336034  0.49743799  0.24928368  1
  Nb5+  Nb99  1  0.00047595  0.49293199  0.74306022  1
  Nb5+  Nb100  1  0.50219101  -0.00263633  0.24361133  1
  Nb5+  Nb101  1  0.49893149  -0.00318472  0.74713645  1
  Nb5+  Nb102  1  0.49862131  0.49949904  0.24644272  1
  Nb5+  Nb103  1  0.50222967  0.50599376  0.74907007  1
  Nb5+  Nb104  1  0.24977860  0.25367018  0.24327072  1
  Nb5+  Nb105  1  0.25299934  0.25486230  0.74710169  1
  Nb5+  Nb106  1  0.24930180  0.75076188  0.24344863  1
  Nb5+  Nb107  1  0.25089325  0.74944603  0.74929913  1
  Nb5+  Nb108  1  0.74647168  0.24169515  0.25228537  1
  Nb5+  Nb109  1  0.75018085  0.24586490  0.74992803  1
  Nb5+  Nb110  1  0.75039764  0.75262016  0.25459453  1
  Nb5+  Nb111  1  0.75146002  0.75249120  0.74986514  1
  Nb5+  Nb112  1  -0.00569074  0.24648178  0.50940297  1
  Nb5+  Nb113  1  0.00163607  0.25148696  0.99736157  1
  Nb5+  Nb114  1  -0.00342138  0.74946654  0.49784425  1
  Nb5+  Nb115  1  0.00210915  0.75060165  1.00283601  1
  Nb5+  Nb116  1  0.49858339  0.25440588  0.49866641  1
  Nb5+  Nb117  1  0.49841244  0.25388915  1.00675972  1
  Nb5+  Nb118  1  0.50030706  0.75971343  0.50489334  1
  Nb5+  Nb119  1  0.49856581  0.74400062  0.99781531  1
  Nb5+  Nb120  1  0.24770292  -0.00332867  0.00212513  1
  Nb5+  Nb121  1  0.25285240  -0.00599023  0.50210139  1
  Nb5+  Nb122  1  0.24989494  0.49989997  0.00085090  1
  Nb5+  Nb123  1  0.24916401  0.49462591  0.50296707  1
  Nb5+  Nb124  1  0.74886986  0.00463532  -0.00508135  1
  Nb5+  Nb125  1  0.75381768  0.00444354  0.49626058  1
  Nb5+  Nb126  1  0.74878586  0.50027146  0.00739574  1
  Nb5+  Nb127  1  0.75248501  0.50430323  0.50371567  1
  O2-  O128  1  0.01154879  0.01253634  0.12909709  1
  O2-  O129  1  -0.00830746  0.01134410  0.63675055  1
  O2-  O130  1  0.00425267  0.53502276  0.13657644  1
  O2-  O131  1  -0.00055966  0.53470881  0.63469775  1
  O2-  O132  1  0.49743546  -0.01389646  0.12361604  1
  O2-  O133  1  0.49605702  -0.00858238  0.62829258  1
  O2-  O134  1  0.50147441  0.46981976  0.13614394  1
  O2-  O135  1  0.50552226  0.47820520  0.62785440  1
  O2-  O136  1  -0.00729584  -0.02088589  0.36874392  1
  O2-  O137  1  0.00480969  -0.03624697  0.86378906  1
  O2-  O138  1  -0.01950853  0.47525971  0.36830281  1
  O2-  O139  1  -0.00181978  0.49008226  0.86243368  1
  O2-  O140  1  0.50403975  0.01755125  0.38061950  1
  O2-  O141  1  0.49795375  0.01476745  0.87407448  1
  O2-  O142  1  0.50383606  0.51955651  0.38850172  1
  O2-  O143  1  0.50428360  0.49138415  0.86303929  1
  O2-  O144  1  0.21851690  0.25477133  0.13324285  1
  O2-  O145  1  0.23359576  0.23729962  0.62502203  1
  O2-  O146  1  0.26102099  0.73909808  0.12964373  1
  O2-  O147  1  0.26053154  0.74298630  0.62190180  1
  O2-  O148  1  0.72046842  0.25327985  0.13421555  1
  O2-  O149  1  0.72257533  0.25615975  0.63355829  1
  O2-  O150  1  0.76533916  0.73592482  0.11991209  1
  O2-  O151  1  0.76539873  0.73004910  0.63546642  1
  O2-  O152  1  0.28176382  0.25235421  0.38743404  1
  O2-  O153  1  0.27947862  0.25171413  0.86040653  1
  O2-  O154  1  0.23619568  0.76806004  0.38156080  1
  O2-  O155  1  0.24246110  0.77572056  0.86152479  1
  O2-  O156  1  0.78615553  0.24512927  0.36540631  1
  O2-  O157  1  0.76599447  0.26915264  0.86324228  1
  O2-  O158  1  0.72203924  0.75800262  0.36614361  1
  O2-  O159  1  0.74307404  0.74866021  0.87345696  1
  O2-  O160  1  0.02543942  0.23179112  0.11528216  1
  O2-  O161  1  0.03783895  0.23626516  0.61999665  1
  O2-  O162  1  -0.00207462  0.72372672  0.11460108  1
  O2-  O163  1  -0.00838653  0.73557882  0.62821239  1
  O2-  O164  1  0.52711040  0.26026024  0.11717613  1
  O2-  O165  1  0.51748787  0.25752555  0.62265223  1
  O2-  O166  1  0.49019387  0.76955208  0.11328194  1
  O2-  O167  1  0.46492481  0.75593880  0.61641250  1
  O2-  O168  1  0.26193974  -0.00902637  0.38761227  1
  O2-  O169  1  0.25442656  -0.01683428  0.86584711  1
  O2-  O170  1  0.27636151  0.50360013  0.39014365  1
  O2-  O171  1  0.25060306  0.49639440  0.87722807  1
  O2-  O172  1  0.74370232  -0.02853558  0.38448864  1
  O2-  O173  1  0.74565099  -0.03459184  0.88577150  1
  O2-  O174  1  0.75120284  0.49888157  0.37335093  1
  O2-  O175  1  0.74730249  0.49351323  0.87067375  1
  O2-  O176  1  -0.01657076  0.26393643  0.38976927  1
  O2-  O177  1  -0.02715763  0.26991812  0.88039272  1
  O2-  O178  1  0.01299769  0.77107046  0.38537441  1
  O2-  O179  1  0.00481035  0.77271906  0.86798282  1
  O2-  O180  1  0.47302941  0.22409622  0.39031003  1
  O2-  O181  1  0.47570734  0.23597176  0.86508588  1
  O2-  O182  1  0.51414056  0.73120193  0.39117654  1
  O2-  O183  1  0.52551533  0.75089894  0.88270849  1
  O2-  O184  1  0.25054289  0.01672260  0.11482380  1
  O2-  O185  1  0.26064407  0.01450561  0.62471235  1
  O2-  O186  1  0.25313423  0.50735594  0.12009098  1
  O2-  O187  1  0.24956556  0.53363787  0.61183457  1
  O2-  O188  1  0.73729100  -0.00902829  0.11149894  1
  O2-  O189  1  0.74600822  0.01704630  0.61959686  1
  O2-  O190  1  0.74236450  0.50853699  0.12508352  1
  O2-  O191  1  0.74743142  0.50664126  0.62359278  1
  O2-  O192  1  0.13840559  0.27252691  0.28477060  1
  O2-  O193  1  0.13944417  0.27214482  0.76775326  1
  O2-  O194  1  0.13255998  0.77987183  0.24543202  1
  O2-  O195  1  0.12244995  0.77088515  0.73601863  1
  O2-  O196  1  0.63461593  0.27191458  0.28464421  1
  O2-  O197  1  0.61504652  0.26809657  0.76600404  1
  O2-  O198  1  0.63640570  0.76304997  0.22135778  1
  O2-  O199  1  0.63744958  0.77338643  0.73797375  1
  O2-  O200  1  0.36614895  0.22254318  0.22967522  1
  O2-  O201  1  0.37908059  0.23085105  0.72335305  1
  O2-  O202  1  0.36375103  0.71813969  0.26701458  1
  O2-  O203  1  0.36358259  0.72445422  0.75982082  1
  O2-  O204  1  0.86532386  0.23103184  0.22415477  1
  O2-  O205  1  0.86234407  0.22612365  0.72696405  1
  O2-  O206  1  0.86180875  0.71256167  0.26047835  1
  O2-  O207  1  0.87971931  0.73174727  0.76046013  1
  O2-  O208  1  0.28569825  0.36640828  0.25244975  1
  O2-  O209  1  0.27883939  0.36666282  0.73069176  1
  O2-  O210  1  0.28304411  0.86535942  0.24372570  1
  O2-  O211  1  0.26562799  0.87912022  0.72955066  1
  O2-  O212  1  0.76455148  0.38087507  0.24306672  1
  O2-  O213  1  0.76662037  0.38089463  0.74046056  1
  O2-  O214  1  0.78259232  0.86246110  0.24430364  1
  O2-  O215  1  0.77860301  0.86496503  0.74119374  1
  O2-  O216  1  0.23018071  0.13480275  0.26455170  1
  O2-  O217  1  0.23351102  0.12223743  0.75505678  1
  O2-  O218  1  0.21551075  0.63374058  0.25471176  1
  O2-  O219  1  0.21975747  0.63769729  0.75774370  1
  O2-  O220  1  0.71815573  0.13026278  0.25502545  1
  O2-  O221  1  0.71788803  0.13567446  0.76236257  1
  O2-  O222  1  0.72402072  0.61960729  0.25185210  1
  O2-  O223  1  0.72868438  0.62043974  0.75624169  1
  O2-  O224  1  0.11370744  0.46353725  0.25154239  1
  O2-  O225  1  0.11450749  0.46916316  0.74121302  1
  O2-  O226  1  0.11831824  0.97017253  0.25108139  1
  O2-  O227  1  0.13128592  0.98406195  0.74057695  1
  O2-  O228  1  0.62763135  0.47843299  0.25565279  1
  O2-  O229  1  0.62922936  0.47590000  0.74567563  1
  O2-  O230  1  0.61566769  0.96375059  0.24961800  1
  O2-  O231  1  0.61187931  0.97372281  0.75335100  1
  O2-  O232  1  0.38554090  0.02372293  0.24710983  1
  O2-  O233  1  0.37229861  0.02381421  0.75085956  1
  O2-  O234  1  0.38563938  0.52506083  0.24748005  1
  O2-  O235  1  0.38803553  0.52907991  0.74361523  1
  O2-  O236  1  0.88202280  0.02787947  0.24388330  1
  O2-  O237  1  0.88321239  0.02944368  0.76651395  1
  O2-  O238  1  0.86587617  0.52164371  0.24637022  1
  O2-  O239  1  0.86878489  0.52370930  0.75006284  1
  O2-  O240  1  0.48834140  0.38676318  0.28610812  1
  O2-  O241  1  0.47799191  0.36842480  0.75116277  1
  O2-  O242  1  0.47589447  0.88340144  0.27342619  1
  O2-  O243  1  0.46504397  0.88650136  0.75913330  1
  O2-  O244  1  0.96828286  0.38492791  0.22655785  1
  O2-  O245  1  0.96631194  0.38526398  0.72464711  1
  O2-  O246  1  0.97051286  0.88093884  0.23349612  1
  O2-  O247  1  0.98747708  0.87158860  0.72957505  1
  O2-  O248  1  0.02394516  0.11804789  0.26639658  1
  O2-  O249  1  0.02680528  0.11618134  0.77174310  1
  O2-  O250  1  0.01411152  0.61267621  0.28480747  1
  O2-  O251  1  0.01874639  0.63208293  0.76549453  1
  O2-  O252  1  0.52944453  0.11409140  0.24053526  1
  O2-  O253  1  0.51534167  0.12469643  0.73843405  1
  O2-  O254  1  0.53010860  0.61328543  0.24231773  1
  O2-  O255  1  0.53515346  0.61583587  0.74275237  1
  O2-  O256  1  0.13150200  0.47459422  0.00121984  1
  O2-  O257  1  0.13662418  0.47658471  0.49394205  1
  O2-  O258  1  0.13732697  0.96591077  -0.00355321  1
  O2-  O259  1  0.13846650  0.98220016  0.51017789  1
  O2-  O260  1  0.63460245  0.47300488  -0.00486045  1
  O2-  O261  1  0.61945049  0.47311515  0.50654442  1
  O2-  O262  1  0.61805351  0.97409376  -0.00422568  1
  O2-  O263  1  0.61339666  0.97046888  0.50414144  1
  O2-  O264  1  0.38164399  0.02099149  -0.00303595  1
  O2-  O265  1  0.38094227  0.01322899  0.50691615  1
  O2-  O266  1  0.36863039  0.53240085  0.00098588  1
  O2-  O267  1  0.38475669  0.51094416  0.51500309  1
  O2-  O268  1  0.86346070  0.02598377  -0.00170435  1
  O2-  O269  1  0.86367384  0.03946985  0.48965581  1
  O2-  O270  1  0.86272740  0.52859657  -0.00720501  1
  O2-  O271  1  0.86314838  0.53542210  0.50373361  1
  O2-  O272  1  0.46845545  0.36355602  -0.00815814  1
  O2-  O273  1  0.48083255  0.37105399  0.49051937  1
  O2-  O274  1  0.48171143  0.87943518  -0.01359119  1
  O2-  O275  1  0.47770833  0.87479309  0.48680211  1
  O2-  O276  1  0.98221283  0.36886123  0.02232194  1
  O2-  O277  1  0.99784669  0.36600145  0.52573616  1
  O2-  O278  1  0.96202291  0.86272695  0.01043685  1
  O2-  O279  1  0.98540534  0.86586791  0.52172906  1
  O2-  O280  1  0.01540959  0.13228095  -0.02675557  1
  O2-  O281  1  0.02996214  0.13508405  0.48870652  1
  O2-  O282  1  0.01431836  0.63817641  -0.03252279  1
  O2-  O283  1  0.03573158  0.63708972  0.49329669  1
  O2-  O284  1  0.52321545  0.11738556  0.01032020  1
  O2-  O285  1  0.51392480  0.12115150  0.51872135  1
  O2-  O286  1  0.53260416  0.63417008  0.01020786  1
  O2-  O287  1  0.51392016  0.62198235  0.52682855  1
  O2-  O288  1  0.11874321  0.27147940  -0.02749871  1
  O2-  O289  1  0.14149725  0.26942053  0.48487316  1
  O2-  O290  1  0.11320943  0.78267953  0.00469317  1
  O2-  O291  1  0.13229611  0.77324779  0.51503755  1
  O2-  O292  1  0.60890161  0.26008221  -0.03598040  1
  O2-  O293  1  0.61174813  0.26452706  0.47799053  1
  O2-  O294  1  0.63387209  0.76990528  0.00895312  1
  O2-  O295  1  0.61201300  0.77134629  0.52982186  1
  O2-  O296  1  0.38735884  0.21571589  0.01334511  1
  O2-  O297  1  0.37500553  0.24202090  0.53143544  1
  O2-  O298  1  0.38601795  0.72377512  -0.01812128  1
  O2-  O299  1  0.37003457  0.73571854  0.48415177  1
  O2-  O300  1  0.88106757  0.22840141  0.01728448  1
  O2-  O301  1  0.88354398  0.23105427  0.53630341  1
  O2-  O302  1  0.87086063  0.72418617  -0.01414387  1
  O2-  O303  1  0.88453624  0.72285752  0.48855379  1
  O2-  O304  1  0.28096596  0.38304256  0.00122873  1
  O2-  O305  1  0.27146725  0.37764021  0.51786755  1
  O2-  O306  1  0.28992334  0.88566065  0.00495369  1
  O2-  O307  1  0.27425183  0.87739176  0.51246677  1
  O2-  O308  1  0.77598033  0.38558509  0.00561149  1
  O2-  O309  1  0.77033864  0.38638007  0.49626363  1
  O2-  O310  1  0.77273038  0.86464560  0.00593272  1
  O2-  O311  1  0.76918886  0.88496274  0.52266624  1
  O2-  O312  1  0.23872386  0.11209353  -0.02560170  1
  O2-  O313  1  0.24357461  0.12612551  0.49454178  1
  O2-  O314  1  0.22094468  0.61990066  -0.00805512  1
  O2-  O315  1  0.23486154  0.63296236  0.48778852  1
  O2-  O316  1  0.71783681  0.11453652  -0.01827853  1
  O2-  O317  1  0.70575523  0.11268865  0.48835802  1
  O2-  O318  1  0.72456996  0.62477267  -0.00395545  1
  O2-  O319  1  0.70860779  0.61382902  0.49286838  1
