# generated using pymatgen
data_Sr64Ca21Nb43O192
_symmetry_space_group_name_H-M   'P 1'
_cell_length_a   16.56942458
_cell_length_b   16.55067778
_cell_length_c   16.72888905
_cell_angle_alpha   89.98415518
_cell_angle_beta   90.08914342
_cell_angle_gamma   89.94293647
_symmetry_Int_Tables_number   1
_chemical_formula_structural   Sr64Ca21Nb43O192
_chemical_formula_sum   'Sr64 Ca21 Nb43 O192'
_cell_volume   4587.64235003
_cell_formula_units_Z   1
loop_
 _symmetry_equiv_pos_site_id
 _symmetry_equiv_pos_as_xyz
  1  'x, y, z'
loop_
 _atom_type_symbol
 _atom_type_oxidation_number
  Sr2+  2.0
  Ca2+  2.0
  Nb5+  5.0
  O2-  -2.0
loop_
 _atom_site_type_symbol
 _atom_site_label
 _atom_site_symmetry_multiplicity
 _atom_site_fract_x
 _atom_site_fract_y
 _atom_site_fract_z
 _atom_site_occupancy
  Sr2+  Sr0  1  0.13013642  0.11855337  0.11972038  1
  Sr2+  Sr1  1  0.12914722  0.12404160  0.63582879  1
  Sr2+  Sr2  1  0.11996539  0.62076847  0.12786878  1
  Sr2+  Sr3  1  0.12512604  0.63463768  0.61913950  1
  Sr2+  Sr4  1  0.62727334  0.12741530  0.12042432  1
  Sr2+  Sr5  1  0.63380739  0.12228876  0.62083681  1
  Sr2+  Sr6  1  0.63055108  0.60895167  0.12808512  1
  Sr2+  Sr7  1  0.62900005  0.60903703  0.62567936  1
  Sr2+  Sr8  1  0.36355008  0.36773048  0.13848080  1
  Sr2+  Sr9  1  0.38445009  0.37350601  0.62264038  1
  Sr2+  Sr10  1  0.38236298  0.88316172  0.12441642  1
  Sr2+  Sr11  1  0.37350224  0.87692818  0.61663263  1
  Sr2+  Sr12  1  0.88180363  0.37241805  0.12218032  1
  Sr2+  Sr13  1  0.87784555  0.36996863  0.62521803  1
  Sr2+  Sr14  1  0.88345205  0.88149674  0.13086939  1
  Sr2+  Sr15  1  0.88903208  0.86332042  0.62330139  1
  Sr2+  Sr16  1  0.14921115  0.37956136  0.37487443  1
  Sr2+  Sr17  1  0.12926983  0.38759401  0.87819617  1
  Sr2+  Sr18  1  0.12724839  0.86847048  0.37097273  1
  Sr2+  Sr19  1  0.14286552  0.87816325  0.88065113  1
  Sr2+  Sr20  1  0.61423125  0.37399497  0.37296965  1
  Sr2+  Sr21  1  0.62222280  0.37815267  0.87384913  1
  Sr2+  Sr22  1  0.64159440  0.88019716  0.37690670  1
  Sr2+  Sr23  1  0.61157062  0.87110415  0.87449162  1
  Sr2+  Sr24  1  0.37262811  0.12745106  0.35171287  1
  Sr2+  Sr25  1  0.37184733  0.11978351  0.86945203  1
  Sr2+  Sr26  1  0.36893248  0.62447435  0.37666289  1
  Sr2+  Sr27  1  0.36860755  0.63457948  0.87302342  1
  Sr2+  Sr28  1  0.86062800  0.12110895  0.37519182  1
  Sr2+  Sr29  1  0.87132038  0.11959976  0.87610873  1
  Sr2+  Sr30  1  0.86555035  0.63846399  0.37251581  1
  Sr2+  Sr31  1  0.86499578  0.62889757  0.87469434  1
  Sr2+  Sr32  1  0.13641066  0.12871370  0.36468114  1
  Sr2+  Sr33  1  0.12621466  0.11922555  0.87111882  1
  Sr2+  Sr34  1  0.12763534  0.63343772  0.37563480  1
  Sr2+  Sr35  1  0.12406511  0.62513705  0.88412552  1
  Sr2+  Sr36  1  0.61587573  0.11641369  0.37311182  1
  Sr2+  Sr37  1  0.61568145  0.11511935  0.87526126  1
  Sr2+  Sr38  1  0.61841514  0.63521982  0.36859553  1
  Sr2+  Sr39  1  0.62195628  0.63985719  0.87750643  1
  Sr2+  Sr40  1  0.37464659  0.39342367  0.37650014  1
  Sr2+  Sr41  1  0.36745272  0.37552999  0.87205395  1
  Sr2+  Sr42  1  0.37006449  0.90182832  0.37861952  1
  Sr2+  Sr43  1  0.36800991  0.86850643  0.87422329  1
  Sr2+  Sr44  1  0.87032331  0.38230511  0.36837708  1
  Sr2+  Sr45  1  0.87339969  0.38389788  0.87435254  1
  Sr2+  Sr46  1  0.87828927  0.87812534  0.37098009  1
  Sr2+  Sr47  1  0.87317721  0.87511530  0.88347028  1
  Sr2+  Sr48  1  0.12244542  0.36883753  0.12431478  1
  Sr2+  Sr49  1  0.12965209  0.36447826  0.63019833  1
  Sr2+  Sr50  1  0.12174925  0.87780032  0.12252428  1
  Sr2+  Sr51  1  0.12735373  0.87367102  0.60743970  1
  Sr2+  Sr52  1  0.64128319  0.36750801  0.12474638  1
  Sr2+  Sr53  1  0.63436502  0.37173051  0.62463199  1
  Sr2+  Sr54  1  0.63060550  0.87530077  0.13319266  1
  Sr2+  Sr55  1  0.62500314  0.87097183  0.62498096  1
  Sr2+  Sr56  1  0.37745169  0.12802176  0.13170328  1
  Sr2+  Sr57  1  0.39356098  0.12049762  0.62258556  1
  Sr2+  Sr58  1  0.38630074  0.61452388  0.11903221  1
  Sr2+  Sr59  1  0.38001616  0.62035838  0.62261176  1
  Sr2+  Sr60  1  0.87530482  0.12336337  0.12141179  1
  Sr2+  Sr61  1  0.88299684  0.12524560  0.62372136  1
  Sr2+  Sr62  1  0.87861625  0.62589627  0.13665738  1
  Sr2+  Sr63  1  0.87344391  0.61458566  0.62510572  1
  Ca2+  Ca64  1  0.50319723  0.49645000  -0.00434907  1
  Ca2+  Ca65  1  0.00176446  0.49543964  0.49956166  1
  Ca2+  Ca66  1  0.50063188  0.00010375  -0.00162664  1
  Ca2+  Ca67  1  0.49982551  0.00093801  0.49908214  1
  Ca2+  Ca68  1  0.00231616  0.00538225  0.49917594  1
  Ca2+  Ca69  1  0.24791212  0.24841620  -0.00359881  1
  Ca2+  Ca70  1  0.25008908  0.74765651  0.00464308  1
  Ca2+  Ca71  1  0.74819653  0.74739391  0.50236412  1
  Ca2+  Ca72  1  0.74906075  0.74739299  0.00465993  1
  Ca2+  Ca73  1  0.25128825  0.24906046  0.50187385  1
  Ca2+  Ca74  1  0.24958537  0.50352585  0.74649724  1
  Ca2+  Ca75  1  0.75385461  0.00129974  0.75019313  1
  Ca2+  Ca76  1  0.00125353  0.74996762  0.75250458  1
  Ca2+  Ca77  1  -0.00051399  0.24774150  0.25239201  1
  Ca2+  Ca78  1  0.75313272  0.49854096  0.25225581  1
  Ca2+  Ca79  1  0.50365319  0.25262116  0.24829715  1
  Ca2+  Ca80  1  0.75053303  0.00172417  0.24749182  1
  Ca2+  Ca81  1  0.24893921  0.50585793  0.24835762  1
  Ca2+  Ca82  1  0.24684636  -0.00477576  0.24787831  1
  Ca2+  Ca83  1  0.49515542  0.75183639  0.25320575  1
  Ca2+  Ca84  1  0.24981868  -0.00139893  0.74691688  1
  Nb5+  Nb85  1  0.50491925  0.50326385  0.49908590  1
  Nb5+  Nb86  1  -0.00158576  0.50432657  0.00078149  1
  Nb5+  Nb87  1  0.00028590  0.00381948  -0.00081434  1
  Nb5+  Nb88  1  0.75024056  0.25192601  0.49375458  1
  Nb5+  Nb89  1  0.75189656  0.25042502  -0.01064920  1
  Nb5+  Nb90  1  0.25284243  0.75044818  0.49855500  1
  Nb5+  Nb91  1  0.50856970  0.24555615  0.74756130  1
  Nb5+  Nb92  1  -0.00018417  0.75041432  0.24929679  1
  Nb5+  Nb93  1  0.49826667  0.74121844  0.74721979  1
  Nb5+  Nb94  1  0.00590864  0.25367721  0.75438302  1
  Nb5+  Nb95  1  0.74965548  0.49995596  0.75289997  1
  Nb5+  Nb96  1  0.00268462  0.00509353  0.25144705  1
  Nb5+  Nb97  1  -0.00496514  -0.00760037  0.75091378  1
  Nb5+  Nb98  1  0.00390513  0.49742820  0.25700510  1
  Nb5+  Nb99  1  0.00338454  0.49850544  0.74912025  1
  Nb5+  Nb100  1  0.50007796  -0.00309806  0.24661924  1
  Nb5+  Nb101  1  0.49788670  -0.01150095  0.75034973  1
  Nb5+  Nb102  1  0.50052562  0.49696515  0.24175378  1
  Nb5+  Nb103  1  0.50000992  0.49632243  0.75281973  1
  Nb5+  Nb104  1  0.24634722  0.25173893  0.25015887  1
  Nb5+  Nb105  1  0.26291965  0.24857516  0.74762287  1
  Nb5+  Nb106  1  0.25264018  0.74820767  0.24596363  1
  Nb5+  Nb107  1  0.24471775  0.75526101  0.74635488  1
  Nb5+  Nb108  1  0.75287940  0.24700712  0.24255116  1
  Nb5+  Nb109  1  0.75426290  0.24936648  0.74727189  1
  Nb5+  Nb110  1  0.74540926  0.75110745  0.25047366  1
  Nb5+  Nb111  1  0.75204203  0.75235276  0.74443003  1
  Nb5+  Nb112  1  0.00079336  0.25065976  0.49629340  1
  Nb5+  Nb113  1  -0.00156171  0.25437670  0.99471878  1
  Nb5+  Nb114  1  -0.00302497  0.74553667  0.49946830  1
  Nb5+  Nb115  1  -0.00546833  0.75441566  0.99894712  1
  Nb5+  Nb116  1  0.50151635  0.25014161  0.50127356  1
  Nb5+  Nb117  1  0.49761067  0.25410332  1.00161292  1
  Nb5+  Nb118  1  0.49769789  0.75343647  0.49831242  1
  Nb5+  Nb119  1  0.50099678  0.75094234  1.00714762  1
  Nb5+  Nb120  1  0.25659149  0.00168831  0.00073437  1
  Nb5+  Nb121  1  0.24137799  0.00978714  0.50039040  1
  Nb5+  Nb122  1  0.25608774  0.50238370  -0.00249307  1
  Nb5+  Nb123  1  0.24794459  0.50070331  0.50831740  1
  Nb5+  Nb124  1  0.75050671  -0.00493013  0.00069780  1
  Nb5+  Nb125  1  0.75620647  -0.00484538  0.50584922  1
  Nb5+  Nb126  1  0.75264959  0.49893493  0.00031549  1
  Nb5+  Nb127  1  0.74855743  0.49790729  0.49531292  1
  O2-  O128  1  0.01270058  -0.00964732  0.11774195  1
  O2-  O129  1  0.00936908  -0.01999184  0.63700456  1
  O2-  O130  1  -0.02970061  0.49882902  0.11550622  1
  O2-  O131  1  -0.02702381  0.49325702  0.63738988  1
  O2-  O132  1  0.51119338  -0.02886723  0.12944373  1
  O2-  O133  1  0.50807717  -0.02412085  0.63354104  1
  O2-  O134  1  0.47163020  0.48206373  0.13181600  1
  O2-  O135  1  0.49048101  0.48905469  0.62953512  1
  O2-  O136  1  -0.01545776  0.01476062  0.36372202  1
  O2-  O137  1  -0.02057306  0.00270187  0.88242527  1
  O2-  O138  1  0.04212636  0.49504682  0.36476791  1
  O2-  O139  1  0.01413744  0.50391307  0.87737166  1
  O2-  O140  1  0.48704110  0.02500893  0.36589649  1
  O2-  O141  1  0.49017841  0.02330457  0.86421872  1
  O2-  O142  1  0.53014458  0.51336701  0.38673290  1
  O2-  O143  1  0.53398080  0.51648657  0.86142268  1
  O2-  O144  1  0.23533553  0.26766923  0.13062555  1
  O2-  O145  1  0.22360782  0.24839561  0.63538351  1
  O2-  O146  1  0.23728697  0.77502661  0.13679200  1
  O2-  O147  1  0.23630807  0.76150758  0.62023261  1
  O2-  O148  1  0.74254880  0.23450312  0.12446845  1
  O2-  O149  1  0.73490708  0.23925399  0.63220606  1
  O2-  O150  1  0.73275125  0.71793686  0.13717563  1
  O2-  O151  1  0.72714519  0.71897132  0.63440763  1
  O2-  O152  1  0.25697828  0.23070447  0.36862586  1
  O2-  O153  1  0.27723566  0.24997079  0.86411415  1
  O2-  O154  1  0.25623854  0.72772665  0.38316127  1
  O2-  O155  1  0.25881759  0.74650429  0.86348751  1
  O2-  O156  1  0.76508753  0.27101750  0.38186153  1
  O2-  O157  1  0.76244977  0.27206213  0.87528579  1
  O2-  O158  1  0.76718195  0.77576334  0.36930823  1
  O2-  O159  1  0.76280020  0.76097067  0.86264878  1
  O2-  O160  1  0.00636608  0.25737079  0.11076552  1
  O2-  O161  1  0.00410134  0.27479548  0.63837040  1
  O2-  O162  1  0.01030093  0.75594949  0.12774945  1
  O2-  O163  1  0.01499237  0.75896362  0.61484128  1
  O2-  O164  1  0.51153042  0.28423088  0.11124343  1
  O2-  O165  1  0.51416028  0.27694981  0.63091196  1
  O2-  O166  1  0.50705313  0.78008915  0.11728048  1
  O2-  O167  1  0.50329504  0.76907646  0.62833481  1
  O2-  O168  1  0.26439436  0.01863780  0.38256093  1
  O2-  O169  1  0.26081508  -0.00398671  0.88167755  1
  O2-  O170  1  0.23690131  0.51784906  0.39015426  1
  O2-  O171  1  0.22307190  0.51183330  0.88013313  1
  O2-  O172  1  0.76425874  -0.01733860  0.38470652  1
  O2-  O173  1  0.77614940  -0.01030931  0.88544919  1
  O2-  O174  1  0.73553555  0.46522971  0.38682489  1
  O2-  O175  1  0.74133762  0.47312796  0.87169956  1
  O2-  O176  1  -0.01323344  0.21784589  0.38858351  1
  O2-  O177  1  -0.02594350  0.23980445  0.87298635  1
  O2-  O178  1  -0.00827726  0.74037261  0.37170283  1
  O2-  O179  1  -0.02465663  0.74135189  0.88576323  1
  O2-  O180  1  0.49817242  0.23125127  0.38824836  1
  O2-  O181  1  0.48926147  0.22786345  0.86199571  1
  O2-  O182  1  0.48798294  0.72017863  0.38934843  1
  O2-  O183  1  0.49043968  0.72725184  0.86470281  1
  O2-  O184  1  0.22638333  -0.00893577  0.11439311  1
  O2-  O185  1  0.21998708  -0.00675738  0.61682884  1
  O2-  O186  1  0.27739359  0.49467722  0.11450317  1
  O2-  O187  1  0.29311069  0.49649239  0.61628623  1
  O2-  O188  1  0.74135738  0.03296970  0.11244487  1
  O2-  O189  1  0.74908445  0.03241995  0.61789288  1
  O2-  O190  1  0.77368875  0.51416366  0.11311640  1
  O2-  O191  1  0.76188670  0.51181861  0.63211825  1
  O2-  O192  1  0.13029491  0.27885198  0.26627028  1
  O2-  O193  1  0.11854697  0.27410725  0.77078278  1
  O2-  O194  1  0.11698909  0.76573995  0.26104893  1
  O2-  O195  1  0.13386829  0.78846948  0.75523228  1
  O2-  O196  1  0.63844220  0.27674039  0.25707078  1
  O2-  O197  1  0.62351058  0.27109360  0.76214276  1
  O2-  O198  1  0.63108545  0.77014633  0.26900885  1
  O2-  O199  1  0.62024380  0.76399927  0.75993822  1
  O2-  O200  1  0.36794224  0.23520651  0.23473952  1
  O2-  O201  1  0.37927362  0.23430111  0.72700131  1
  O2-  O202  1  0.36272242  0.71516628  0.23595093  1
  O2-  O203  1  0.38010254  0.72584569  0.73791081  1
  O2-  O204  1  0.86769306  0.21508762  0.24542822  1
  O2-  O205  1  0.86976527  0.23808522  0.73907727  1
  O2-  O206  1  0.87757793  0.73387144  0.24286403  1
  O2-  O207  1  0.86480299  0.72482515  0.72978838  1
  O2-  O208  1  0.27029878  0.37170992  0.26763251  1
  O2-  O209  1  0.27048903  0.36760765  0.74576674  1
  O2-  O210  1  0.26116089  0.85955235  0.28373031  1
  O2-  O211  1  0.28887335  0.86576675  0.74330786  1
  O2-  O212  1  0.78320041  0.36320210  0.23594888  1
  O2-  O213  1  0.76288595  0.37398894  0.73816808  1
  O2-  O214  1  0.76383077  0.86553710  0.22001247  1
  O2-  O215  1  0.76135536  0.86456991  0.72014429  1
  O2-  O216  1  0.22509989  0.13288505  0.23766081  1
  O2-  O217  1  0.22721388  0.13511548  0.75724087  1
  O2-  O218  1  0.21307952  0.63679053  0.24721311  1
  O2-  O219  1  0.22912384  0.63836298  0.73293098  1
  O2-  O220  1  0.72766727  0.13516031  0.27730945  1
  O2-  O221  1  0.73074025  0.14018884  0.77498470  1
  O2-  O222  1  0.74024806  0.63262439  0.28077101  1
  O2-  O223  1  0.73203784  0.61580038  0.77172118  1
  O2-  O224  1  0.11263206  0.48917807  0.21030473  1
  O2-  O225  1  0.11355295  0.46862067  0.73751178  1
  O2-  O226  1  0.11307238  0.96452191  0.25440383  1
  O2-  O227  1  0.10916615  0.99185485  0.77957284  1
  O2-  O228  1  0.62000018  0.47912772  0.22469899  1
  O2-  O229  1  0.63001859  0.48214539  0.73352183  1
  O2-  O230  1  0.61673627  0.97326685  0.26236025  1
  O2-  O231  1  0.61688778  0.98910874  0.76297893  1
  O2-  O232  1  0.37931355  0.02075851  0.23133732  1
  O2-  O233  1  0.38580485  0.02747658  0.73759957  1
  O2-  O234  1  0.38692773  0.51891891  0.27509770  1
  O2-  O235  1  0.38890108  0.51982697  0.77151848  1
  O2-  O236  1  0.88650124  0.00895413  0.22540641  1
  O2-  O237  1  0.88741549  0.04015095  0.74798563  1
  O2-  O238  1  0.88861410  0.52271006  0.27852331  1
  O2-  O239  1  0.87005159  0.51453516  0.76855169  1
  O2-  O240  1  0.48944754  0.38548348  0.28188239  1
  O2-  O241  1  0.48556953  0.37832358  0.76407308  1
  O2-  O242  1  0.46507289  0.88329065  0.26693677  1
  O2-  O243  1  0.48447611  0.87230177  0.76942410  1
  O2-  O244  1  0.97566899  0.38474454  0.24855040  1
  O2-  O245  1  0.97612275  0.37529436  0.76802981  1
  O2-  O246  1  0.97825635  0.86908054  0.25483434  1
  O2-  O247  1  0.95934964  0.88304368  0.76137261  1
  O2-  O248  1  0.03230627  0.11494745  0.23463717  1
  O2-  O249  1  0.02006547  0.13614155  0.74498390  1
  O2-  O250  1  0.01213763  0.62667883  0.23995069  1
  O2-  O251  1  0.02363088  0.61388832  0.74850499  1
  O2-  O252  1  0.51944974  0.11730576  0.22377721  1
  O2-  O253  1  0.52083561  0.13279949  0.72461495  1
  O2-  O254  1  0.52512156  0.61437230  0.23790408  1
  O2-  O255  1  0.51863030  0.62562821  0.72884267  1
  O2-  O256  1  0.11174836  0.47630585  0.01519761  1
  O2-  O257  1  0.13746008  0.48830715  0.53905971  1
  O2-  O258  1  0.11518886  0.97769188  -0.01432105  1
  O2-  O259  1  0.13228410  0.96590582  0.48001728  1
  O2-  O260  1  0.63950840  0.47480324  0.01613921  1
  O2-  O261  1  0.62476154  0.48396705  0.52545127  1
  O2-  O262  1  0.63651843  0.98579346  -0.01930950  1
  O2-  O263  1  0.63611643  0.98569454  0.49421962  1
  O2-  O264  1  0.36734719  0.02940394  0.01688013  1
  O2-  O265  1  0.36021593  0.01118548  0.52201299  1
  O2-  O266  1  0.36748167  0.51992707  -0.02791919  1
  O2-  O267  1  0.38716608  0.51543986  0.48262830  1
  O2-  O268  1  0.87873078  0.01571167  0.01466637  1
  O2-  O269  1  0.86817671  0.03399749  0.50216610  1
  O2-  O270  1  0.87663929  0.50741289  -0.02702301  1
  O2-  O271  1  0.86261195  0.51924778  0.48878796  1
  O2-  O272  1  0.49257200  0.36313261  -0.04308015  1
  O2-  O273  1  0.49072843  0.37984237  0.49043818  1
  O2-  O274  1  0.47946475  0.86408057  -0.02889800  1
  O2-  O275  1  0.47019433  0.86447193  0.48709836  1
  O2-  O276  1  0.97782658  0.37187007  -0.01008631  1
  O2-  O277  1  0.96021967  0.36269793  0.49270839  1
  O2-  O278  1  0.97553998  0.87219570  -0.00031627  1
  O2-  O279  1  0.97809522  0.86400889  0.48765688  1
  O2-  O280  1  0.01317483  0.12271898  0.00194888  1
  O2-  O281  1  0.01194743  0.14138453  0.54005699  1
  O2-  O282  1  0.01685454  0.62058037  0.00457016  1
  O2-  O283  1  0.02780859  0.63047764  0.49824370  1
  O2-  O284  1  0.53234660  0.14058942  0.00544177  1
  O2-  O285  1  0.51888717  0.13754887  0.52800953  1
  O2-  O286  1  0.52448995  0.63130817  0.02257563  1
  O2-  O287  1  0.51415278  0.62221275  0.52486124  1
  O2-  O288  1  0.11044232  0.26445274  -0.02703557  1
  O2-  O289  1  0.11089678  0.28373031  0.49057055  1
  O2-  O290  1  0.11191336  0.76529236  -0.01243024  1
  O2-  O291  1  0.13005302  0.76303333  0.48791239  1
  O2-  O292  1  0.63572871  0.27261675  -0.00836542  1
  O2-  O293  1  0.62676939  0.27432401  0.49798797  1
  O2-  O294  1  0.61623471  0.76433731  -0.02244206  1
  O2-  O295  1  0.61230680  0.77383643  0.49440081  1
  O2-  O296  1  0.38579901  0.23193252  0.01202799  1
  O2-  O297  1  0.38782383  0.24603702  0.52521849  1
  O2-  O298  1  0.38477736  0.71985618  0.00522900  1
  O2-  O299  1  0.37273754  0.72994749  0.51731704  1
  O2-  O300  1  0.87234409  0.23066960  0.00734703  1
  O2-  O301  1  0.86382886  0.23321347  0.51861106  1
  O2-  O302  1  0.88284069  0.72399903  0.02241394  1
  O2-  O303  1  0.88362839  0.72019943  0.51247408  1
  O2-  O304  1  0.25483600  0.38483316  -0.01569867  1
  O2-  O305  1  0.26626682  0.38586422  0.48753772  1
  O2-  O306  1  0.27105879  0.88201912  -0.00512165  1
  O2-  O307  1  0.27016540  0.86726841  0.49286969  1
  O2-  O308  1  0.77437289  0.37045754  0.01414240  1
  O2-  O309  1  0.76008506  0.37378539  0.52627274  1
  O2-  O310  1  0.76816237  0.88370559  0.02558887  1
  O2-  O311  1  0.77261972  0.88322344  0.53028078  1
  O2-  O312  1  0.21712785  0.11498819  -0.00508106  1
  O2-  O313  1  0.20771146  0.11897685  0.50423158  1
  O2-  O314  1  0.21659663  0.61471077  0.01040431  1
  O2-  O315  1  0.24053154  0.62652536  0.51898363  1
  O2-  O316  1  0.73800815  0.13296057  -0.02311097  1
  O2-  O317  1  0.72511393  0.13709100  0.48240597  1
  O2-  O318  1  0.73765377  0.61034908  -0.02656399  1
  O2-  O319  1  0.72145493  0.61093225  0.48263714  1
