# generated using pymatgen
data_Sr64Ca21Nb43O192
_symmetry_space_group_name_H-M   'P 1'
_cell_length_a   16.59635197
_cell_length_b   16.57647480
_cell_length_c   16.73962350
_cell_angle_alpha   89.95242257
_cell_angle_beta   89.98594696
_cell_angle_gamma   90.03608291
_symmetry_Int_Tables_number   1
_chemical_formula_structural   Sr64Ca21Nb43O192
_chemical_formula_sum   'Sr64 Ca21 Nb43 O192'
_cell_volume   4605.21861012
_cell_formula_units_Z   1
loop_
 _symmetry_equiv_pos_site_id
 _symmetry_equiv_pos_as_xyz
  1  'x, y, z'
loop_
 _atom_type_symbol
 _atom_type_oxidation_number
  Sr2+  2.0
  Ca2+  2.0
  Nb5+  5.0
  O2-  -2.0
loop_
 _atom_site_type_symbol
 _atom_site_label
 _atom_site_symmetry_multiplicity
 _atom_site_fract_x
 _atom_site_fract_y
 _atom_site_fract_z
 _atom_site_occupancy
  Sr2+  Sr0  1  0.13123813  0.13742468  0.12385683  1
  Sr2+  Sr1  1  0.12927069  0.12849763  0.61408965  1
  Sr2+  Sr2  1  0.12760510  0.63235081  0.12916754  1
  Sr2+  Sr3  1  0.12850913  0.62963329  0.62919406  1
  Sr2+  Sr4  1  0.61689063  0.13384567  0.12216590  1
  Sr2+  Sr5  1  0.61676794  0.13470259  0.62466824  1
  Sr2+  Sr6  1  0.61464026  0.63877317  0.12682357  1
  Sr2+  Sr7  1  0.62216272  0.63103283  0.62813869  1
  Sr2+  Sr8  1  0.38108261  0.38807927  0.12550768  1
  Sr2+  Sr9  1  0.37625653  0.38971975  0.62492042  1
  Sr2+  Sr10  1  0.37366210  0.84978500  0.12362842  1
  Sr2+  Sr11  1  0.37379738  0.85907331  0.62207119  1
  Sr2+  Sr12  1  0.86929914  0.37682153  0.12213892  1
  Sr2+  Sr13  1  0.87307565  0.38166200  0.62193795  1
  Sr2+  Sr14  1  0.87613736  0.88068806  0.13520067  1
  Sr2+  Sr15  1  0.87545269  0.88227569  0.62167529  1
  Sr2+  Sr16  1  0.12304425  0.37278325  0.38581594  1
  Sr2+  Sr17  1  0.11090037  0.36195441  0.87453671  1
  Sr2+  Sr18  1  0.11068150  0.86994397  0.37506210  1
  Sr2+  Sr19  1  0.12551170  0.87109763  0.87308604  1
  Sr2+  Sr20  1  0.62748202  0.36396402  0.36846271  1
  Sr2+  Sr21  1  0.63169972  0.37013020  0.86983356  1
  Sr2+  Sr22  1  0.63953679  0.86914129  0.37855744  1
  Sr2+  Sr23  1  0.63154021  0.88392476  0.87433420  1
  Sr2+  Sr24  1  0.36309475  0.11679205  0.37348345  1
  Sr2+  Sr25  1  0.36342547  0.11433261  0.87244579  1
  Sr2+  Sr26  1  0.37150413  0.61356231  0.37662710  1
  Sr2+  Sr27  1  0.38118144  0.61563464  0.88919309  1
  Sr2+  Sr28  1  0.87764230  0.11419684  0.37381690  1
  Sr2+  Sr29  1  0.86998285  0.12131016  0.88004357  1
  Sr2+  Sr30  1  0.87734455  0.62410571  0.36932067  1
  Sr2+  Sr31  1  0.86948513  0.62183766  0.86954109  1
  Sr2+  Sr32  1  0.11969174  0.11671408  0.37018749  1
  Sr2+  Sr33  1  0.11772535  0.11494512  0.88109395  1
  Sr2+  Sr34  1  0.11788562  0.60784421  0.37244998  1
  Sr2+  Sr35  1  0.11484302  0.61353326  0.87480181  1
  Sr2+  Sr36  1  0.62121246  0.11103244  0.37378150  1
  Sr2+  Sr37  1  0.63023578  0.11959881  0.87124203  1
  Sr2+  Sr38  1  0.63685678  0.61474602  0.37015059  1
  Sr2+  Sr39  1  0.63183479  0.60848192  0.87568649  1
  Sr2+  Sr40  1  0.37552602  0.37427756  0.36121529  1
  Sr2+  Sr41  1  0.37527294  0.37003395  0.86200605  1
  Sr2+  Sr42  1  0.38206092  0.86905829  0.38669410  1
  Sr2+  Sr43  1  0.37549148  0.86756846  0.88357172  1
  Sr2+  Sr44  1  0.87577305  0.36272064  0.37785428  1
  Sr2+  Sr45  1  0.87166427  0.38283529  0.87354807  1
  Sr2+  Sr46  1  0.87630497  0.85773875  0.37343101  1
  Sr2+  Sr47  1  0.88710841  0.87145612  0.87084324  1
  Sr2+  Sr48  1  0.12836772  0.37721431  0.11680520  1
  Sr2+  Sr49  1  0.13392767  0.38781857  0.62379083  1
  Sr2+  Sr50  1  0.13649687  0.87609992  0.12366523  1
  Sr2+  Sr51  1  0.13926889  0.87968255  0.63043293  1
  Sr2+  Sr52  1  0.61240528  0.37698086  0.12890493  1
  Sr2+  Sr53  1  0.62109934  0.37672713  0.63039717  1
  Sr2+  Sr54  1  0.62344886  0.89286950  0.12305301  1
  Sr2+  Sr55  1  0.60796098  0.88582831  0.62381705  1
  Sr2+  Sr56  1  0.36478399  0.12726526  0.12760455  1
  Sr2+  Sr57  1  0.37406983  0.12598433  0.62008594  1
  Sr2+  Sr58  1  0.37047374  0.62696525  0.12858718  1
  Sr2+  Sr59  1  0.37120174  0.62957982  0.62545508  1
  Sr2+  Sr60  1  0.85410760  0.12558333  0.12435612  1
  Sr2+  Sr61  1  0.86647433  0.12838779  0.61976725  1
  Sr2+  Sr62  1  0.86609896  0.63397062  0.12492720  1
  Sr2+  Sr63  1  0.87121829  0.62805439  0.62657445  1
  Ca2+  Ca64  1  0.49630637  0.00363477  0.00183769  1
  Ca2+  Ca65  1  0.50317454  0.50082247  0.00037395  1
  Ca2+  Ca66  1  0.00168189  0.50042137  -0.00133266  1
  Ca2+  Ca67  1  0.00048240  0.00012836  0.00338273  1
  Ca2+  Ca68  1  0.50335409  0.49716899  0.49764971  1
  Ca2+  Ca69  1  0.75064598  0.74861700  0.50495301  1
  Ca2+  Ca70  1  0.75217304  0.74928318  -0.00201668  1
  Ca2+  Ca71  1  0.24719349  0.74964462  0.49822246  1
  Ca2+  Ca72  1  0.25017643  0.25069571  0.50135342  1
  Ca2+  Ca73  1  0.74883630  0.24764674  0.50032698  1
  Ca2+  Ca74  1  0.74860950  0.00023397  0.25343382  1
  Ca2+  Ca75  1  0.75055849  0.00025741  0.74570077  1
  Ca2+  Ca76  1  -0.00258894  0.24650648  0.74644884  1
  Ca2+  Ca77  1  0.25121472  0.00123421  0.74952779  1
  Ca2+  Ca78  1  0.75035313  0.49862307  0.24915393  1
  Ca2+  Ca79  1  0.50217400  0.75123136  0.75303067  1
  Ca2+  Ca80  1  0.24592605  0.49909782  0.24784540  1
  Ca2+  Ca81  1  0.49912880  0.75452634  0.25364146  1
  Ca2+  Ca82  1  0.25057808  0.50168577  0.75469951  1
  Ca2+  Ca83  1  0.25199116  -0.00361095  0.24960700  1
  Ca2+  Ca84  1  -0.00131706  0.25058563  0.24784111  1
  Nb5+  Nb85  1  -0.00311655  0.49473130  0.50097088  1
  Nb5+  Nb86  1  0.49185967  0.00475062  0.50179252  1
  Nb5+  Nb87  1  -0.00450058  -0.00636857  0.49972994  1
  Nb5+  Nb88  1  0.24600716  0.24937856  -0.00355478  1
  Nb5+  Nb89  1  0.24684529  0.74229433  -0.00392640  1
  Nb5+  Nb90  1  0.74212307  0.25159030  0.00224931  1
  Nb5+  Nb91  1  0.00036836  0.74707317  0.24359388  1
  Nb5+  Nb92  1  0.74951439  0.49920764  0.74784388  1
  Nb5+  Nb93  1  0.49742196  0.24663963  0.24453725  1
  Nb5+  Nb94  1  -0.00175441  0.75128151  0.74096341  1
  Nb5+  Nb95  1  0.49755768  0.24891045  0.74565072  1
  Nb5+  Nb96  1  0.00602006  0.00041768  0.24558192  1
  Nb5+  Nb97  1  0.00364022  0.00345289  0.74609276  1
  Nb5+  Nb98  1  -0.00225251  0.49488836  0.24553956  1
  Nb5+  Nb99  1  -0.00127822  0.49655812  0.74928487  1
  Nb5+  Nb100  1  0.49504973  -0.00160319  0.24990779  1
  Nb5+  Nb101  1  0.49434584  -0.00093442  0.75183154  1
  Nb5+  Nb102  1  0.50336695  0.50733356  0.25357436  1
  Nb5+  Nb103  1  0.50062628  0.50428670  0.74893862  1
  Nb5+  Nb104  1  0.24528841  0.25652949  0.25217381  1
  Nb5+  Nb105  1  0.24602298  0.25091499  0.74865073  1
  Nb5+  Nb106  1  0.24749606  0.75185142  0.25742789  1
  Nb5+  Nb107  1  0.25484293  0.74527512  0.75412557  1
  Nb5+  Nb108  1  0.74836027  0.24483074  0.25440834  1
  Nb5+  Nb109  1  0.75155149  0.24970333  0.74916542  1
  Nb5+  Nb110  1  0.74410075  0.75261976  0.24439749  1
  Nb5+  Nb111  1  0.74955994  0.75523045  0.75115736  1
  Nb5+  Nb112  1  -0.00086586  0.24224633  0.50080373  1
  Nb5+  Nb113  1  -0.01013143  0.24766065  0.99829943  1
  Nb5+  Nb114  1  0.00294804  0.74095456  0.49682819  1
  Nb5+  Nb115  1  -0.00035479  0.74654361  0.99231180  1
  Nb5+  Nb116  1  0.49768045  0.25100651  0.49168320  1
  Nb5+  Nb117  1  0.49415319  0.25176268  0.99185111  1
  Nb5+  Nb118  1  0.50568164  0.74376464  0.49692295  1
  Nb5+  Nb119  1  0.50789148  0.75700136  0.99936610  1
  Nb5+  Nb120  1  0.25201845  -0.00666128  0.00022356  1
  Nb5+  Nb121  1  0.24254491  -0.00153222  0.49651692  1
  Nb5+  Nb122  1  0.25171900  0.49163337  -0.00259157  1
  Nb5+  Nb123  1  0.25380767  0.50370373  0.50205024  1
  Nb5+  Nb124  1  0.75417318  -0.00601525  -0.00345742  1
  Nb5+  Nb125  1  0.74088987  -0.00277487  0.50190516  1
  Nb5+  Nb126  1  0.74712849  0.49863512  0.00745918  1
  Nb5+  Nb127  1  0.74945393  0.49685307  0.49846407  1
  O2-  O128  1  0.01691452  -0.02884344  0.13642562  1
  O2-  O129  1  0.02179226  -0.01488019  0.61516066  1
  O2-  O130  1  0.02233972  0.48770633  0.13458703  1
  O2-  O131  1  0.01428643  0.49430719  0.62465550  1
  O2-  O132  1  0.52111333  0.01203317  0.13851039  1
  O2-  O133  1  0.51529622  0.01931604  0.62113092  1
  O2-  O134  1  0.53048385  0.50802997  0.13623057  1
  O2-  O135  1  0.53144008  0.50203356  0.63309567  1
  O2-  O136  1  -0.00883987  0.00995013  0.38128029  1
  O2-  O137  1  -0.01738426  0.00722051  0.86041516  1
  O2-  O138  1  -0.01961254  0.51222755  0.38534963  1
  O2-  O139  1  -0.02118567  0.51776584  0.86200869  1
  O2-  O140  1  0.48250946  0.00286731  0.38259328  1
  O2-  O141  1  0.47931036  -0.00892609  0.86556918  1
  O2-  O142  1  0.46823962  0.49228678  0.36678299  1
  O2-  O143  1  0.48354822  0.48360493  0.86322979  1
  O2-  O144  1  0.26239700  0.23672344  0.11647502  1
  O2-  O145  1  0.26027446  0.22152814  0.63903695  1
  O2-  O146  1  0.25599588  0.73005079  0.11425339  1
  O2-  O147  1  0.25895770  0.72916361  0.63672289  1
  O2-  O148  1  0.76834069  0.26426772  0.11960053  1
  O2-  O149  1  0.76664729  0.26817312  0.63748286  1
  O2-  O150  1  0.78346563  0.76303742  0.13210190  1
  O2-  O151  1  0.78855186  0.75689387  0.64043840  1
  O2-  O152  1  0.24087894  0.27707686  0.36521024  1
  O2-  O153  1  0.24626726  0.28039075  0.88219320  1
  O2-  O154  1  0.23458408  0.78153744  0.36553759  1
  O2-  O155  1  0.23825768  0.77310865  0.87683240  1
  O2-  O156  1  0.71818582  0.23260659  0.36518279  1
  O2-  O157  1  0.72930748  0.23955272  0.88184189  1
  O2-  O158  1  0.73502212  0.73165199  0.36334842  1
  O2-  O159  1  0.73741611  0.71721866  0.86291717  1
  O2-  O160  1  -0.01134213  0.27631353  0.11284143  1
  O2-  O161  1  -0.03925801  0.25039828  0.61277334  1
  O2-  O162  1  -0.01327685  0.74998732  0.12839569  1
  O2-  O163  1  -0.02009085  0.75112858  0.62519433  1
  O2-  O164  1  0.48453542  0.23362385  0.12920111  1
  O2-  O165  1  0.48572254  0.23620887  0.63168609  1
  O2-  O166  1  0.47964945  0.73113330  0.11552644  1
  O2-  O167  1  0.47647525  0.73808633  0.61469917  1
  O2-  O168  1  0.27794294  -0.01893292  0.38541105  1
  O2-  O169  1  0.27524074  -0.01492979  0.88322825  1
  O2-  O170  1  0.26708149  0.48196214  0.38515364  1
  O2-  O171  1  0.28883449  0.49360146  0.88468938  1
  O2-  O172  1  0.75529447  0.03229294  0.38789408  1
  O2-  O173  1  0.75339518  0.02767851  0.88132741  1
  O2-  O174  1  0.76868212  0.52270144  0.38778446  1
  O2-  O175  1  0.76999518  0.51010413  0.86853394  1
  O2-  O176  1  0.03162335  0.24808300  0.38453446  1
  O2-  O177  1  0.01847658  0.22940864  0.88249990  1
  O2-  O178  1  0.02066645  0.73853686  0.37949268  1
  O2-  O179  1  0.01782163  0.74886013  0.87573289  1
  O2-  O180  1  0.51418992  0.25921797  0.37667586  1
  O2-  O181  1  0.51182959  0.27008529  0.87902182  1
  O2-  O182  1  0.51933221  0.78084584  0.38559450  1
  O2-  O183  1  0.51494975  0.78517461  0.88367300  1
  O2-  O184  1  0.22598729  0.01992773  0.11366732  1
  O2-  O185  1  0.23660742  0.02468768  0.61350451  1
  O2-  O186  1  0.21787236  0.51286365  0.11082930  1
  O2-  O187  1  0.22957083  0.52102276  0.61958043  1
  O2-  O188  1  0.74905562  -0.02086653  0.11554711  1
  O2-  O189  1  0.74123249  -0.03816213  0.61535236  1
  O2-  O190  1  0.73208385  0.46746568  0.11596978  1
  O2-  O191  1  0.73933379  0.47293411  0.63187931  1
  O2-  O192  1  0.13468545  0.27422443  0.22659428  1
  O2-  O193  1  0.13472270  0.27925660  0.74017102  1
  O2-  O194  1  0.12001824  0.76797100  0.23315617  1
  O2-  O195  1  0.11582802  0.76925052  0.73862422  1
  O2-  O196  1  0.62086150  0.26702738  0.23120193  1
  O2-  O197  1  0.62167402  0.26944276  0.74311666  1
  O2-  O198  1  0.63309142  0.77736688  0.22334777  1
  O2-  O199  1  0.63799628  0.76662927  0.72321199  1
  O2-  O200  1  0.38081467  0.23440610  0.26632337  1
  O2-  O201  1  0.38291934  0.23556545  0.77224207  1
  O2-  O202  1  0.36168233  0.72743167  0.26159516  1
  O2-  O203  1  0.36609427  0.72085967  0.77178880  1
  O2-  O204  1  0.86309533  0.22267536  0.26662619  1
  O2-  O205  1  0.86238706  0.23303264  0.77667475  1
  O2-  O206  1  0.88371903  0.73159642  0.26602816  1
  O2-  O207  1  0.88326600  0.73418325  0.77436922  1
  O2-  O208  1  0.27991293  0.36709939  0.22836146  1
  O2-  O209  1  0.28136301  0.36529187  0.73849978  1
  O2-  O210  1  0.25821706  0.86241857  0.21573595  1
  O2-  O211  1  0.26664023  0.86299927  0.73461188  1
  O2-  O212  1  0.76617761  0.36237406  0.26403137  1
  O2-  O213  1  0.75919279  0.37408678  0.76992885  1
  O2-  O214  1  0.77348044  0.86632629  0.26694035  1
  O2-  O215  1  0.76590674  0.86512338  0.78034979  1
  O2-  O216  1  0.23558434  0.13832614  0.26142336  1
  O2-  O217  1  0.23523435  0.13996414  0.78780312  1
  O2-  O218  1  0.22066391  0.63591522  0.25924008  1
  O2-  O219  1  0.21499612  0.63533113  0.76987906  1
  O2-  O220  1  0.72945035  0.13282202  0.21938344  1
  O2-  O221  1  0.72703392  0.13656406  0.73649559  1
  O2-  O222  1  0.73006826  0.63352914  0.22676017  1
  O2-  O223  1  0.73689995  0.61656448  0.73160756  1
  O2-  O224  1  0.11045597  0.48314428  0.28249934  1
  O2-  O225  1  0.11277179  0.47986498  0.76459431  1
  O2-  O226  1  0.11815787  0.97928361  0.27854679  1
  O2-  O227  1  0.11564269  0.96583781  0.75714556  1
  O2-  O228  1  0.61714475  0.48099613  0.28267404  1
  O2-  O229  1  0.63147102  0.48366175  0.76813142  1
  O2-  O230  1  0.61126839  0.97932049  0.27639013  1
  O2-  O231  1  0.61356656  0.98745298  0.76180883  1
  O2-  O232  1  0.38481717  0.03942906  0.24497721  1
  O2-  O233  1  0.38417240  0.03637893  0.73521965  1
  O2-  O234  1  0.38496109  0.51571784  0.22691090  1
  O2-  O235  1  0.38808669  0.51650441  0.72311515  1
  O2-  O236  1  0.88804748  0.01506565  0.24385472  1
  O2-  O237  1  0.88780065  0.01482393  0.71827171  1
  O2-  O238  1  0.88568414  0.53172003  0.23702342  1
  O2-  O239  1  0.87129130  0.51243603  0.72919730  1
  O2-  O240  1  0.48765591  0.36864908  0.24275651  1
  O2-  O241  1  0.48864957  0.37138764  0.73676277  1
  O2-  O242  1  0.46102572  0.88818064  0.24591279  1
  O2-  O243  1  0.47825358  0.88721052  0.72644789  1
  O2-  O244  1  0.96754031  0.38496258  0.26093493  1
  O2-  O245  1  0.97421309  0.38343882  0.75388914  1
  O2-  O246  1  0.98579312  0.86625995  0.26655765  1
  O2-  O247  1  0.97599978  0.86966460  0.74677983  1
  O2-  O248  1  0.02817075  0.11447759  0.23756679  1
  O2-  O249  1  0.03444198  0.11355958  0.73247572  1
  O2-  O250  1  0.02163776  0.62846830  0.24897089  1
  O2-  O251  1  0.01216718  0.62792552  0.73763138  1
  O2-  O252  1  0.52373009  0.13198120  0.26210519  1
  O2-  O253  1  0.52250402  0.13313893  0.76265106  1
  O2-  O254  1  0.52424974  0.62086549  0.26641981  1
  O2-  O255  1  0.52759931  0.61649916  0.76288291  1
  O2-  O256  1  0.13826986  0.48218603  -0.03719494  1
  O2-  O257  1  0.11676223  0.48465512  0.48884114  1
  O2-  O258  1  0.13500085  0.98888932  -0.02738111  1
  O2-  O259  1  0.12539237  0.98167398  0.48215842  1
  O2-  O260  1  0.63682441  0.48198016  -0.03167046  1
  O2-  O261  1  0.63806211  0.47098032  0.48248080  1
  O2-  O262  1  0.63389078  0.98122373  -0.00867718  1
  O2-  O263  1  0.62446187  0.98394586  0.48774556  1
  O2-  O264  1  0.36326817  0.03360070  0.01353308  1
  O2-  O265  1  0.37782829  0.02268776  0.51263988  1
  O2-  O266  1  0.36648880  0.52163084  0.02578935  1
  O2-  O267  1  0.36745305  0.52488390  0.51940806  1
  O2-  O268  1  0.86724515  0.03098512  0.00803604  1
  O2-  O269  1  0.88120937  0.01262536  0.51581249  1
  O2-  O270  1  0.86550652  0.51232190  0.01747088  1
  O2-  O271  1  0.88102321  0.51540923  0.52521341  1
  O2-  O272  1  0.49301545  0.36437770  0.02477038  1
  O2-  O273  1  0.46969123  0.36262637  0.50691368  1
  O2-  O274  1  0.47161387  0.86977157  0.01737588  1
  O2-  O275  1  0.48242785  0.88720818  0.51545496  1
  O2-  O276  1  0.98915571  0.36545642  -0.02804457  1
  O2-  O277  1  0.98379835  0.37750220  0.49416691  1
  O2-  O278  1  0.97835026  0.86261847  -0.00176007  1
  O2-  O279  1  0.98311666  0.87592025  0.48819636  1
  O2-  O280  1  0.02440622  0.13585542  0.01970682  1
  O2-  O281  1  0.01549491  0.12216307  0.50668923  1
  O2-  O282  1  0.03600467  0.63504210  0.00878104  1
  O2-  O283  1  0.01818658  0.62531597  0.51078838  1
  O2-  O284  1  0.52862625  0.14035900  -0.00687725  1
  O2-  O285  1  0.52556370  0.12419051  0.49396208  1
  O2-  O286  1  0.51320245  0.63922900  -0.02571974  1
  O2-  O287  1  0.53091472  0.63278741  0.48185387  1
  O2-  O288  1  0.13232705  0.27031551  0.00985130  1
  O2-  O289  1  0.11220101  0.26498085  0.53298598  1
  O2-  O290  1  0.12942874  0.77516458  0.00857800  1
  O2-  O291  1  0.11205405  0.77339094  0.52238657  1
  O2-  O292  1  0.62820840  0.27143355  0.01703291  1
  O2-  O293  1  0.61203911  0.26635237  0.52381373  1
  O2-  O294  1  0.61885398  0.77480311  0.02473531  1
  O2-  O295  1  0.61733069  0.77442944  0.52589594  1
  O2-  O296  1  0.37848370  0.23711414  -0.01494235  1
  O2-  O297  1  0.38534335  0.21674248  0.49094779  1
  O2-  O298  1  0.36556602  0.74025617  -0.01757233  1
  O2-  O299  1  0.38495378  0.73680445  0.47583891  1
  O2-  O300  1  0.87434525  0.22928216  -0.01201571  1
  O2-  O301  1  0.88415748  0.23304493  0.46540042  1
  O2-  O302  1  0.88833895  0.71645670  -0.01394821  1
  O2-  O303  1  0.88610660  0.73566129  0.48114692  1
  O2-  O304  1  0.26823871  0.37697540  0.01835600  1
  O2-  O305  1  0.25563994  0.38557118  0.52745908  1
  O2-  O306  1  0.26605217  0.87775699  0.01731038  1
  O2-  O307  1  0.26500893  0.88469152  0.52511606  1
  O2-  O308  1  0.77133126  0.36949495  -0.01517110  1
  O2-  O309  1  0.78288113  0.38285290  0.49296838  1
  O2-  O310  1  0.77563490  0.88292744  -0.02778250  1
  O2-  O311  1  0.76821129  0.88470853  0.47202634  1
  O2-  O312  1  0.23381324  0.13523273  -0.02009767  1
  O2-  O313  1  0.22886931  0.11685004  0.47325995  1
  O2-  O314  1  0.23258140  0.62963987  -0.02270964  1
  O2-  O315  1  0.22558344  0.61721229  0.47755343  1
  O2-  O316  1  0.73226632  0.13335003  0.01756236  1
  O2-  O317  1  0.74085940  0.11288907  0.53616104  1
  O2-  O318  1  0.72783013  0.61286866  0.02165377  1
  O2-  O319  1  0.73698343  0.61082154  0.53185682  1
