# generated using pymatgen
data_Sr64Ca21Nb43O192
_symmetry_space_group_name_H-M   'P 1'
_cell_length_a   16.59276556
_cell_length_b   16.57541107
_cell_length_c   16.74439105
_cell_angle_alpha   90.00228922
_cell_angle_beta   90.02605716
_cell_angle_gamma   89.95328804
_symmetry_Int_Tables_number   1
_chemical_formula_structural   Sr64Ca21Nb43O192
_chemical_formula_sum   'Sr64 Ca21 Nb43 O192'
_cell_volume   4605.23984082
_cell_formula_units_Z   1
loop_
 _symmetry_equiv_pos_site_id
 _symmetry_equiv_pos_as_xyz
  1  'x, y, z'
loop_
 _atom_type_symbol
 _atom_type_oxidation_number
  Sr2+  2.0
  Ca2+  2.0
  Nb5+  5.0
  O2-  -2.0
loop_
 _atom_site_type_symbol
 _atom_site_label
 _atom_site_symmetry_multiplicity
 _atom_site_fract_x
 _atom_site_fract_y
 _atom_site_fract_z
 _atom_site_occupancy
  Sr2+  Sr0  1  0.12147945  0.12899664  0.11787487  1
  Sr2+  Sr1  1  0.11900673  0.11886791  0.62954137  1
  Sr2+  Sr2  1  0.11095211  0.62170408  0.12405311  1
  Sr2+  Sr3  1  0.11424544  0.61860814  0.62193162  1
  Sr2+  Sr4  1  0.62615875  0.13152788  0.12090170  1
  Sr2+  Sr5  1  0.63175040  0.13937948  0.62470618  1
  Sr2+  Sr6  1  0.64313623  0.62181312  0.12628147  1
  Sr2+  Sr7  1  0.63395516  0.63778283  0.62295557  1
  Sr2+  Sr8  1  0.37147225  0.36507825  0.12117668  1
  Sr2+  Sr9  1  0.37593555  0.37492800  0.62818144  1
  Sr2+  Sr10  1  0.37385751  0.88294169  0.10518848  1
  Sr2+  Sr11  1  0.37053217  0.88335627  0.62427865  1
  Sr2+  Sr12  1  0.87428146  0.38756701  0.12849944  1
  Sr2+  Sr13  1  0.87012159  0.39620453  0.62188858  1
  Sr2+  Sr14  1  0.87062994  0.86157531  0.12344569  1
  Sr2+  Sr15  1  0.86944857  0.89263226  0.62520928  1
  Sr2+  Sr16  1  0.12944216  0.37682455  0.36632458  1
  Sr2+  Sr17  1  0.13742948  0.37845959  0.87787750  1
  Sr2+  Sr18  1  0.13792704  0.85948081  0.36884667  1
  Sr2+  Sr19  1  0.13745768  0.86062884  0.87279148  1
  Sr2+  Sr20  1  0.61776641  0.37710435  0.37417960  1
  Sr2+  Sr21  1  0.61937358  0.38317204  0.87326643  1
  Sr2+  Sr22  1  0.61967085  0.87311138  0.36861832  1
  Sr2+  Sr23  1  0.60964331  0.86887419  0.88051970  1
  Sr2+  Sr24  1  0.37651484  0.12765217  0.37351180  1
  Sr2+  Sr25  1  0.37177143  0.13218506  0.87753585  1
  Sr2+  Sr26  1  0.35370712  0.62733752  0.37450441  1
  Sr2+  Sr27  1  0.36954737  0.63097267  0.87674843  1
  Sr2+  Sr28  1  0.87952763  0.12045975  0.37149116  1
  Sr2+  Sr29  1  0.88256983  0.11481898  0.86604623  1
  Sr2+  Sr30  1  0.89385287  0.62594675  0.37527661  1
  Sr2+  Sr31  1  0.89648161  0.62715884  0.86943048  1
  Sr2+  Sr32  1  0.12740951  0.11515224  0.37615767  1
  Sr2+  Sr33  1  0.13280068  0.13171144  0.86809178  1
  Sr2+  Sr34  1  0.13018711  0.61928517  0.36979834  1
  Sr2+  Sr35  1  0.12664821  0.62951354  0.87080198  1
  Sr2+  Sr36  1  0.62488836  0.12726410  0.37082828  1
  Sr2+  Sr37  1  0.62267192  0.12336798  0.87274867  1
  Sr2+  Sr38  1  0.62309876  0.63037260  0.37877715  1
  Sr2+  Sr39  1  0.62834770  0.62933514  0.87068665  1
  Sr2+  Sr40  1  0.37616699  0.39793147  0.37520029  1
  Sr2+  Sr41  1  0.37620169  0.39011564  0.87769594  1
  Sr2+  Sr42  1  0.37742715  0.89717324  0.37484631  1
  Sr2+  Sr43  1  0.38021353  0.84538773  0.87284899  1
  Sr2+  Sr44  1  0.88560469  0.37979102  0.37500461  1
  Sr2+  Sr45  1  0.87655984  0.39380509  0.87178104  1
  Sr2+  Sr46  1  0.87742947  0.86410507  0.37632003  1
  Sr2+  Sr47  1  0.88429222  0.86628404  0.87464594  1
  Sr2+  Sr48  1  0.11150195  0.36597035  0.12448301  1
  Sr2+  Sr49  1  0.11219767  0.36001977  0.62973593  1
  Sr2+  Sr50  1  0.12538665  0.87428906  0.12347920  1
  Sr2+  Sr51  1  0.13301458  0.87552400  0.63187767  1
  Sr2+  Sr52  1  0.61088290  0.37126541  0.12789875  1
  Sr2+  Sr53  1  0.61554956  0.37621181  0.62353191  1
  Sr2+  Sr54  1  0.62547372  0.87974008  0.11682786  1
  Sr2+  Sr55  1  0.62458820  0.87474072  0.62165361  1
  Sr2+  Sr56  1  0.36049540  0.12459203  0.12173891  1
  Sr2+  Sr57  1  0.35185908  0.12649263  0.62477958  1
  Sr2+  Sr58  1  0.35900770  0.62834384  0.12720686  1
  Sr2+  Sr59  1  0.35948940  0.62708172  0.62620897  1
  Sr2+  Sr60  1  0.87929587  0.12802664  0.12698838  1
  Sr2+  Sr61  1  0.88321652  0.13080079  0.62678366  1
  Sr2+  Sr62  1  0.87856794  0.62381998  0.09431798  1
  Sr2+  Sr63  1  0.87173689  0.63244737  0.62280007  1
  Ca2+  Ca64  1  -0.00500398  -0.00385643  0.49723463  1
  Ca2+  Ca65  1  -0.00231821  0.00201637  0.00064858  1
  Ca2+  Ca66  1  0.00419257  0.49497475  -0.00317764  1
  Ca2+  Ca67  1  0.49967226  0.50155915  0.00413811  1
  Ca2+  Ca68  1  0.00052783  0.49833744  0.49943993  1
  Ca2+  Ca69  1  0.25256428  0.75126132  0.49873171  1
  Ca2+  Ca70  1  0.25080027  0.25130465  0.49671537  1
  Ca2+  Ca71  1  0.75029696  0.25079043  -0.00138303  1
  Ca2+  Ca72  1  0.74830932  0.74990810  -0.00370322  1
  Ca2+  Ca73  1  0.24849771  0.75093997  0.00219832  1
  Ca2+  Ca74  1  0.49879890  0.75289492  0.24839034  1
  Ca2+  Ca75  1  -0.00471815  0.25122446  0.75222721  1
  Ca2+  Ca76  1  0.75118570  0.49824256  0.25401112  1
  Ca2+  Ca77  1  0.49957433  0.24607404  0.74862727  1
  Ca2+  Ca78  1  -0.00015628  0.75098192  0.74340916  1
  Ca2+  Ca79  1  -0.00078840  0.75101160  0.24785971  1
  Ca2+  Ca80  1  0.25082775  -0.00118030  0.24953504  1
  Ca2+  Ca81  1  0.25307647  -0.00057373  0.75595223  1
  Ca2+  Ca82  1  0.24972824  0.50151225  0.74866385  1
  Ca2+  Ca83  1  0.50190054  0.74698510  0.74611206  1
  Ca2+  Ca84  1  0.25105280  0.49771086  0.24399250  1
  Nb5+  Nb85  1  0.50323037  0.00785611  0.50028350  1
  Nb5+  Nb86  1  0.49775733  0.00377336  -0.00967273  1
  Nb5+  Nb87  1  0.50221008  0.51034563  0.50192584  1
  Nb5+  Nb88  1  0.75073761  0.75708826  0.49856053  1
  Nb5+  Nb89  1  0.75305056  0.25439383  0.49915334  1
  Nb5+  Nb90  1  0.24799994  0.25168191  0.00014220  1
  Nb5+  Nb91  1  0.49388123  0.24740495  0.25305959  1
  Nb5+  Nb92  1  0.74688916  0.50581354  0.75022252  1
  Nb5+  Nb93  1  -0.00587127  0.24654011  0.25149152  1
  Nb5+  Nb94  1  0.74384603  0.00582036  0.74545714  1
  Nb5+  Nb95  1  0.75111883  0.00208767  0.24424920  1
  Nb5+  Nb96  1  0.00006224  -0.00323929  0.25126357  1
  Nb5+  Nb97  1  0.00275287  -0.00481752  0.75370468  1
  Nb5+  Nb98  1  0.00113947  0.50047973  0.25105145  1
  Nb5+  Nb99  1  0.00519862  0.49604395  0.74451565  1
  Nb5+  Nb100  1  0.50362342  0.00280586  0.24327284  1
  Nb5+  Nb101  1  0.50161399  0.00072885  0.74282853  1
  Nb5+  Nb102  1  0.50553493  0.50431044  0.24891287  1
  Nb5+  Nb103  1  0.50058186  0.50352259  0.75270060  1
  Nb5+  Nb104  1  0.24197026  0.24682422  0.25121408  1
  Nb5+  Nb105  1  0.24991672  0.25352397  0.74730426  1
  Nb5+  Nb106  1  0.25118885  0.75214539  0.24521694  1
  Nb5+  Nb107  1  0.25107308  0.74930596  0.74579044  1
  Nb5+  Nb108  1  0.74726790  0.24947550  0.25096748  1
  Nb5+  Nb109  1  0.74864431  0.25726515  0.75144179  1
  Nb5+  Nb110  1  0.74824880  0.74596625  0.25054568  1
  Nb5+  Nb111  1  0.75076431  0.76063904  0.74978953  1
  Nb5+  Nb112  1  0.00396969  0.25059623  0.49627791  1
  Nb5+  Nb113  1  -0.00668201  0.24893301  0.99379743  1
  Nb5+  Nb114  1  0.00762162  0.75436434  0.49928404  1
  Nb5+  Nb115  1  0.00139778  0.75373413  0.99765273  1
  Nb5+  Nb116  1  0.49923273  0.25366846  0.49913579  1
  Nb5+  Nb117  1  0.49954326  0.24880503  0.99921393  1
  Nb5+  Nb118  1  0.49805007  0.75831563  0.49862824  1
  Nb5+  Nb119  1  0.50298804  0.74202894  1.01051701  1
  Nb5+  Nb120  1  0.24605013  -0.00160993  -0.00498494  1
  Nb5+  Nb121  1  0.24253273  -0.00221115  0.49919299  1
  Nb5+  Nb122  1  0.25033593  0.50454521  0.00382993  1
  Nb5+  Nb123  1  0.24517176  0.49481605  0.50737000  1
  Nb5+  Nb124  1  0.75079909  0.00419860  -0.00770193  1
  Nb5+  Nb125  1  0.74574324  0.00528907  0.49473936  1
  Nb5+  Nb126  1  0.74935537  0.49631561  -0.00016958  1
  Nb5+  Nb127  1  0.74504304  0.50720895  0.49713783  1
  O2-  O128  1  0.00708942  0.03202377  0.13879216  1
  O2-  O129  1  0.00660249  0.01609380  0.63468363  1
  O2-  O130  1  -0.02314720  0.51210796  0.13452527  1
  O2-  O131  1  -0.02631493  0.52231933  0.63168262  1
  O2-  O132  1  0.51300834  -0.01047853  0.12943705  1
  O2-  O133  1  0.51626290  -0.01814721  0.62731483  1
  O2-  O134  1  0.48742267  0.47400538  0.13996461  1
  O2-  O135  1  0.49022894  0.47992073  0.61698951  1
  O2-  O136  1  -0.03823988  -0.00980459  0.36333577  1
  O2-  O137  1  -0.03331962  -0.01090311  0.86711482  1
  O2-  O138  1  0.01976951  0.47323918  0.36792952  1
  O2-  O139  1  0.01004374  0.47036187  0.86174967  1
  O2-  O140  1  0.49581752  0.01948874  0.38439737  1
  O2-  O141  1  0.49528942  0.02716500  0.87818427  1
  O2-  O142  1  0.52620581  0.50367192  0.38360090  1
  O2-  O143  1  0.52573029  0.51288024  0.86560521  1
  O2-  O144  1  0.24946159  0.26787851  0.12358233  1
  O2-  O145  1  0.24802654  0.27368467  0.63365896  1
  O2-  O146  1  0.26473022  0.78463289  0.13193127  1
  O2-  O147  1  0.26709216  0.77559663  0.63117770  1
  O2-  O148  1  0.75449351  0.23337032  0.13769247  1
  O2-  O149  1  0.75986669  0.23512201  0.61625679  1
  O2-  O150  1  0.76917227  0.73639528  0.13644058  1
  O2-  O151  1  0.76512882  0.74829139  0.61867641  1
  O2-  O152  1  0.24391879  0.22024062  0.36320167  1
  O2-  O153  1  0.25223526  0.23276579  0.88333606  1
  O2-  O154  1  0.23289134  0.72587608  0.36543050  1
  O2-  O155  1  0.24180542  0.72759805  0.86744810  1
  O2-  O156  1  0.74078049  0.24887649  0.37926005  1
  O2-  O157  1  0.72420723  0.25871403  0.86286337  1
  O2-  O158  1  0.72718292  0.76060410  0.38160415  1
  O2-  O159  1  0.72774856  0.76116844  0.86176200  1
  O2-  O160  1  0.00343590  0.22701821  0.13436747  1
  O2-  O161  1  0.00824173  0.22753966  0.61224939  1
  O2-  O162  1  -0.01460916  0.72741833  0.11504726  1
  O2-  O163  1  -0.00676196  0.71880681  0.61164764  1
  O2-  O164  1  0.49634395  0.25809440  0.13587693  1
  O2-  O165  1  0.49528363  0.26476354  0.61285354  1
  O2-  O166  1  0.49034276  0.78904425  0.11703349  1
  O2-  O167  1  0.49158160  0.77659072  0.61397762  1
  O2-  O168  1  0.27192451  0.02443198  0.38694918  1
  O2-  O169  1  0.25752140  0.03883524  0.88564435  1
  O2-  O170  1  0.23699377  0.50833562  0.38592645  1
  O2-  O171  1  0.22423892  0.51054698  0.88455892  1
  O2-  O172  1  0.75920461  -0.00302028  0.38103707  1
  O2-  O173  1  0.76013715  -0.00274787  0.87586092  1
  O2-  O174  1  0.72296008  0.49287054  0.38724957  1
  O2-  O175  1  0.73101938  0.48772006  0.86734102  1
  O2-  O176  1  -0.00130168  0.27194827  0.37055716  1
  O2-  O177  1  -0.00861546  0.27937376  0.88531545  1
  O2-  O178  1  0.00787876  0.77658428  0.38168723  1
  O2-  O179  1  0.00850163  0.77067697  0.87915584  1
  O2-  O180  1  0.51102355  0.23054660  0.37492233  1
  O2-  O181  1  0.50858732  0.23169455  0.88645722  1
  O2-  O182  1  0.52704460  0.74497407  0.38498313  1
  O2-  O183  1  0.51195082  0.73197370  0.88765213  1
  O2-  O184  1  0.24864996  -0.01475624  0.11392826  1
  O2-  O185  1  0.24307489  -0.01907744  0.61835251  1
  O2-  O186  1  0.28909304  0.48563483  0.11456905  1
  O2-  O187  1  0.28801350  0.49122358  0.61698561  1
  O2-  O188  1  0.72934593  0.01168607  0.13194798  1
  O2-  O189  1  0.72614841  0.00055276  0.62897050  1
  O2-  O190  1  0.76463479  0.50999768  0.11592971  1
  O2-  O191  1  0.75997372  0.50656368  0.62646119  1
  O2-  O192  1  0.12518587  0.26602570  0.25050008  1
  O2-  O193  1  0.13219335  0.27265152  0.76526125  1
  O2-  O194  1  0.13187990  0.77576660  0.23574414  1
  O2-  O195  1  0.13322748  0.77700838  0.74189392  1
  O2-  O196  1  0.62896032  0.26342868  0.24898908  1
  O2-  O197  1  0.63556090  0.26129545  0.72053393  1
  O2-  O198  1  0.63790122  0.78488439  0.23848697  1
  O2-  O199  1  0.63704061  0.76005258  0.72121070  1
  O2-  O200  1  0.37993647  0.22405894  0.25223404  1
  O2-  O201  1  0.36568169  0.22033937  0.75141275  1
  O2-  O202  1  0.36763049  0.71692349  0.25296842  1
  O2-  O203  1  0.36992418  0.72269669  0.75741011  1
  O2-  O204  1  0.87688288  0.22640928  0.25729093  1
  O2-  O205  1  0.85922603  0.21758654  0.75331738  1
  O2-  O206  1  0.86200607  0.74555661  0.28142968  1
  O2-  O207  1  0.86158887  0.72278331  0.75457467  1
  O2-  O208  1  0.27449031  0.35966222  0.26442021  1
  O2-  O209  1  0.27410405  0.36725647  0.77356237  1
  O2-  O210  1  0.26974962  0.86665661  0.28105447  1
  O2-  O211  1  0.27389488  0.86714172  0.77297357  1
  O2-  O212  1  0.77603536  0.36056706  0.25316242  1
  O2-  O213  1  0.77192793  0.37073622  0.74066907  1
  O2-  O214  1  0.77031420  0.88588049  0.24848864  1
  O2-  O215  1  0.77074458  0.87544597  0.74351908  1
  O2-  O216  1  0.23675428  0.13329328  0.21979100  1
  O2-  O217  1  0.22335715  0.13441798  0.73358550  1
  O2-  O218  1  0.22779990  0.63270595  0.21990597  1
  O2-  O219  1  0.22615885  0.63386878  0.72051094  1
  O2-  O220  1  0.73710556  0.12419240  0.26806613  1
  O2-  O221  1  0.72336377  0.11934636  0.75605404  1
  O2-  O222  1  0.72241904  0.63433115  0.26267442  1
  O2-  O223  1  0.72833739  0.62013219  0.75133107  1
  O2-  O224  1  0.11641720  0.47290456  0.23137021  1
  O2-  O225  1  0.11659224  0.48140322  0.71985597  1
  O2-  O226  1  0.11317897  0.98675611  0.27649916  1
  O2-  O227  1  0.11472798  0.97215164  0.76583831  1
  O2-  O228  1  0.61753092  0.46314926  0.24613665  1
  O2-  O229  1  0.63189427  0.47168695  0.73683410  1
  O2-  O230  1  0.62840957  0.99279746  0.26827724  1
  O2-  O231  1  0.63096596  0.97152613  0.76713438  1
  O2-  O232  1  0.39023669  0.02550827  0.24664271  1
  O2-  O233  1  0.38943583  0.02413773  0.73369375  1
  O2-  O234  1  0.39137073  0.51415606  0.27816986  1
  O2-  O235  1  0.38794852  0.52522388  0.76351406  1
  O2-  O236  1  0.86639502  0.02571627  0.23682269  1
  O2-  O237  1  0.86083569  0.02073522  0.73458463  1
  O2-  O238  1  0.88435380  0.50185326  0.27955327  1
  O2-  O239  1  0.86507876  0.50932265  0.76597476  1
  O2-  O240  1  0.48653844  0.36216276  0.27282154  1
  O2-  O241  1  0.48733995  0.38345557  0.75958886  1
  O2-  O242  1  0.49231896  0.89230541  0.27446530  1
  O2-  O243  1  0.49050441  0.88711805  0.77648372  1
  O2-  O244  1  0.98269054  0.36499080  0.23359139  1
  O2-  O245  1  0.97655308  0.38147843  0.72110036  1
  O2-  O246  1  0.98060681  0.88759324  0.22319463  1
  O2-  O247  1  0.96577217  0.88382836  0.73590800  1
  O2-  O248  1  0.01456881  0.13029437  0.27655986  1
  O2-  O249  1  0.01164801  0.11544330  0.77050551  1
  O2-  O250  1  0.01838241  0.61435837  0.26778425  1
  O2-  O251  1  0.01396418  0.61329871  0.76998267  1
  O2-  O252  1  0.52811056  0.12626903  0.24628367  1
  O2-  O253  1  0.53920227  0.11152510  0.74267982  1
  O2-  O254  1  0.53459932  0.61434694  0.23913931  1
  O2-  O255  1  0.53191423  0.61246952  0.72483976  1
  O2-  O256  1  0.13793624  0.47223819  0.02365560  1
  O2-  O257  1  0.13452797  0.47392802  0.53001973  1
  O2-  O258  1  0.13314210  0.97905317  -0.01095824  1
  O2-  O259  1  0.13142780  0.97865450  0.47821853  1
  O2-  O260  1  0.63495887  0.46104850  0.00784627  1
  O2-  O261  1  0.62613597  0.48319555  0.52010652  1
  O2-  O262  1  0.61745819  0.98209533  -0.00901679  1
  O2-  O263  1  0.62481116  0.97534573  0.49517273  1
  O2-  O264  1  0.38117809  0.02011934  0.01251687  1
  O2-  O265  1  0.38886837  0.01600158  0.52027689  1
  O2-  O266  1  0.36764016  0.51379515  -0.03061817  1
  O2-  O267  1  0.38862748  0.51977621  0.48149386  1
  O2-  O268  1  0.86020192  0.03121518  0.01187511  1
  O2-  O269  1  0.85661166  0.01723886  0.52428178  1
  O2-  O270  1  0.86555008  0.52424341  -0.02592731  1
  O2-  O271  1  0.86080771  0.51133876  0.48524549  1
  O2-  O272  1  0.47635744  0.36284029  -0.00565864  1
  O2-  O273  1  0.49119458  0.36903855  0.48050280  1
  O2-  O274  1  0.48013951  0.88730143  -0.01879890  1
  O2-  O275  1  0.48846948  0.87704794  0.48320101  1
  O2-  O276  1  0.98695974  0.35991276  0.03391096  1
  O2-  O277  1  0.96430869  0.36144212  0.51127583  1
  O2-  O278  1  0.97150962  0.86907443  0.01798688  1
  O2-  O279  1  0.96374705  0.86305935  0.51692977  1
  O2-  O280  1  0.03445584  0.13800584  -0.01495824  1
  O2-  O281  1  0.01039147  0.13375373  0.47213563  1
  O2-  O282  1  0.02401455  0.63182776  -0.01750771  1
  O2-  O283  1  0.01613360  0.63463106  0.47072476  1
  O2-  O284  1  0.51299153  0.12364020  0.02049107  1
  O2-  O285  1  0.52816364  0.12119009  0.51358456  1
  O2-  O286  1  0.51839296  0.63299390  0.04253227  1
  O2-  O287  1  0.52465590  0.62338563  0.51355116  1
  O2-  O288  1  0.13110333  0.27000304  -0.00060557  1
  O2-  O289  1  0.11539927  0.27957865  0.49161054  1
  O2-  O290  1  0.11725651  0.78030064  0.00877883  1
  O2-  O291  1  0.11836479  0.78133967  0.51268395  1
  O2-  O292  1  0.61285949  0.26386234  0.01999674  1
  O2-  O293  1  0.62678907  0.26011971  0.50467142  1
  O2-  O294  1  0.61609511  0.77773429  0.00857202  1
  O2-  O295  1  0.62899341  0.75997196  0.51879547  1
  O2-  O296  1  0.37592929  0.22854594  0.00940001  1
  O2-  O297  1  0.38843703  0.21977823  0.49424594  1
  O2-  O298  1  0.38454932  0.73415877  -0.00606438  1
  O2-  O299  1  0.38940462  0.72329804  0.48903947  1
  O2-  O300  1  0.88393238  0.21504868  -0.00124939  1
  O2-  O301  1  0.86693300  0.22467843  0.48828212  1
  O2-  O302  1  0.88029828  0.73053655  -0.02060646  1
  O2-  O303  1  0.86381696  0.72894792  0.48224975  1
  O2-  O304  1  0.27285739  0.36766204  -0.01384207  1
  O2-  O305  1  0.28364488  0.38300362  0.48899094  1
  O2-  O306  1  0.27607674  0.88858475  -0.02693636  1
  O2-  O307  1  0.28098877  0.88638843  0.48578753  1
  O2-  O308  1  0.78714954  0.38209641  -0.00138614  1
  O2-  O309  1  0.76168644  0.37042671  0.50562898  1
  O2-  O310  1  0.75977962  0.88936314  0.01889649  1
  O2-  O311  1  0.76240222  0.87512225  0.50437868  1
  O2-  O312  1  0.23811417  0.13028775  0.02078920  1
  O2-  O313  1  0.23240690  0.11620769  0.52518337  1
  O2-  O314  1  0.23338436  0.61700390  0.02621519  1
  O2-  O315  1  0.23779783  0.61473514  0.51786247  1
  O2-  O316  1  0.71288158  0.11563903  -0.00423915  1
  O2-  O317  1  0.72306777  0.11984145  0.49498105  1
  O2-  O318  1  0.71606841  0.61352841  -0.00764543  1
  O2-  O319  1  0.72977627  0.62408385  0.49889299  1
