# generated using pymatgen
data_Sr64Ca21Nb43O192
_symmetry_space_group_name_H-M   'P 1'
_cell_length_a   16.60194931
_cell_length_b   16.62358433
_cell_length_c   16.71664469
_cell_angle_alpha   90.00777573
_cell_angle_beta   90.01469649
_cell_angle_gamma   90.00189020
_symmetry_Int_Tables_number   1
_chemical_formula_structural   Sr64Ca21Nb43O192
_chemical_formula_sum   'Sr64 Ca21 Nb43 O192'
_cell_volume   4613.52467251
_cell_formula_units_Z   1
loop_
 _symmetry_equiv_pos_site_id
 _symmetry_equiv_pos_as_xyz
  1  'x, y, z'
loop_
 _atom_type_symbol
 _atom_type_oxidation_number
  Sr2+  2.0
  Ca2+  2.0
  Nb5+  5.0
  O2-  -2.0
loop_
 _atom_site_type_symbol
 _atom_site_label
 _atom_site_symmetry_multiplicity
 _atom_site_fract_x
 _atom_site_fract_y
 _atom_site_fract_z
 _atom_site_occupancy
  Sr2+  Sr0  1  0.13483336  0.11327070  0.12361683  1
  Sr2+  Sr1  1  0.13595081  0.12355637  0.61899256  1
  Sr2+  Sr2  1  0.12945322  0.62354148  0.12350513  1
  Sr2+  Sr3  1  0.12964972  0.61622924  0.62427124  1
  Sr2+  Sr4  1  0.63730556  0.11562240  0.12358523  1
  Sr2+  Sr5  1  0.62582466  0.11010248  0.62774759  1
  Sr2+  Sr6  1  0.62960944  0.61824159  0.13131093  1
  Sr2+  Sr7  1  0.63328841  0.61557238  0.62473062  1
  Sr2+  Sr8  1  0.37975891  0.36354844  0.12855113  1
  Sr2+  Sr9  1  0.37767636  0.36325082  0.62345280  1
  Sr2+  Sr10  1  0.37904638  0.87091380  0.12100527  1
  Sr2+  Sr11  1  0.38557828  0.86376274  0.63468256  1
  Sr2+  Sr12  1  0.87951305  0.37038798  0.11286648  1
  Sr2+  Sr13  1  0.88432313  0.36057383  0.62544438  1
  Sr2+  Sr14  1  0.88173504  0.85591311  0.12667953  1
  Sr2+  Sr15  1  0.88544725  0.86461494  0.62570238  1
  Sr2+  Sr16  1  0.11771480  0.37683659  0.37681995  1
  Sr2+  Sr17  1  0.11217244  0.38589185  0.86838079  1
  Sr2+  Sr18  1  0.11316830  0.88077107  0.36980805  1
  Sr2+  Sr19  1  0.12028250  0.87785281  0.87518587  1
  Sr2+  Sr20  1  0.61107633  0.38174977  0.37330709  1
  Sr2+  Sr21  1  0.60979148  0.37353413  0.87905345  1
  Sr2+  Sr22  1  0.61007094  0.88259038  0.37247679  1
  Sr2+  Sr23  1  0.61432619  0.89293326  0.87232816  1
  Sr2+  Sr24  1  0.36898058  0.13471594  0.37334464  1
  Sr2+  Sr25  1  0.38199111  0.12895945  0.87667260  1
  Sr2+  Sr26  1  0.38154821  0.63184315  0.37787133  1
  Sr2+  Sr27  1  0.37348741  0.63041312  0.87075585  1
  Sr2+  Sr28  1  0.86661129  0.12804056  0.37473733  1
  Sr2+  Sr29  1  0.85745997  0.12993215  0.87013019  1
  Sr2+  Sr30  1  0.85615841  0.62923955  0.37330594  1
  Sr2+  Sr31  1  0.86121812  0.62643758  0.87212320  1
  Sr2+  Sr32  1  0.11790419  0.12890161  0.37763641  1
  Sr2+  Sr33  1  0.11547527  0.13403215  0.87653091  1
  Sr2+  Sr34  1  0.12488702  0.62602996  0.36632084  1
  Sr2+  Sr35  1  0.12527854  0.63233814  0.87223369  1
  Sr2+  Sr36  1  0.61672376  0.13473301  0.37081244  1
  Sr2+  Sr37  1  0.61812024  0.13303152  0.87882280  1
  Sr2+  Sr38  1  0.61801700  0.63685065  0.38064780  1
  Sr2+  Sr39  1  0.61619690  0.62474035  0.86847060  1
  Sr2+  Sr40  1  0.36449309  0.38201750  0.37220880  1
  Sr2+  Sr41  1  0.37092372  0.39183975  0.87398920  1
  Sr2+  Sr42  1  0.37078468  0.88879369  0.37125145  1
  Sr2+  Sr43  1  0.36646460  0.89556488  0.87585605  1
  Sr2+  Sr44  1  0.86917974  0.38005551  0.37925680  1
  Sr2+  Sr45  1  0.86879109  0.36582978  0.87421049  1
  Sr2+  Sr46  1  0.86878576  0.88453117  0.37775965  1
  Sr2+  Sr47  1  0.86955506  0.88918329  0.86664614  1
  Sr2+  Sr48  1  0.12977390  0.37551091  0.12741359  1
  Sr2+  Sr49  1  0.13537551  0.37104847  0.62485609  1
  Sr2+  Sr50  1  0.13833813  0.86805819  0.12288634  1
  Sr2+  Sr51  1  0.12966794  0.87048595  0.61516655  1
  Sr2+  Sr52  1  0.64439370  0.36287931  0.12537224  1
  Sr2+  Sr53  1  0.63378324  0.36422146  0.62988853  1
  Sr2+  Sr54  1  0.63480869  0.87005978  0.12421314  1
  Sr2+  Sr55  1  0.64460236  0.86791243  0.62557151  1
  Sr2+  Sr56  1  0.38580939  0.11358493  0.12367331  1
  Sr2+  Sr57  1  0.38869200  0.12102691  0.62251703  1
  Sr2+  Sr58  1  0.38026742  0.62169897  0.12426345  1
  Sr2+  Sr59  1  0.38929954  0.61601598  0.62625634  1
  Sr2+  Sr60  1  0.87134098  0.12508541  0.11235156  1
  Sr2+  Sr61  1  0.88427384  0.11287388  0.62697254  1
  Sr2+  Sr62  1  0.86947301  0.61703133  0.12519614  1
  Sr2+  Sr63  1  0.86544971  0.62243924  0.62047542  1
  Ca2+  Ca64  1  0.49760559  0.49875783  0.49978823  1
  Ca2+  Ca65  1  0.49481206  0.50137760  0.00353557  1
  Ca2+  Ca66  1  0.49721794  -0.00035470  0.50043604  1
  Ca2+  Ca67  1  0.50067749  -0.00080929  0.00275047  1
  Ca2+  Ca68  1  -0.00186167  -0.00260201  0.00099086  1
  Ca2+  Ca69  1  0.25359050  0.74986634  0.50086122  1
  Ca2+  Ca70  1  0.24870694  0.25487481  -0.00134128  1
  Ca2+  Ca71  1  0.75198208  0.24607207  0.49945213  1
  Ca2+  Ca72  1  0.75243199  0.75293179  0.49912631  1
  Ca2+  Ca73  1  0.75255608  0.74773806  -0.00281975  1
  Ca2+  Ca74  1  0.49884859  0.25147248  0.74834154  1
  Ca2+  Ca75  1  0.75016513  -0.00237359  0.25102185  1
  Ca2+  Ca76  1  0.50124746  0.75064860  0.75362793  1
  Ca2+  Ca77  1  -0.00223290  0.25083734  0.24677599  1
  Ca2+  Ca78  1  0.74968648  -0.00065577  0.74673554  1
  Ca2+  Ca79  1  0.75370456  0.49433743  0.75010727  1
  Ca2+  Ca80  1  0.24858263  0.00273883  0.74829262  1
  Ca2+  Ca81  1  0.00136027  0.25019141  0.74842651  1
  Ca2+  Ca82  1  0.50214769  0.25333280  0.24804118  1
  Ca2+  Ca83  1  0.24883027  -0.00121777  0.25278088  1
  Ca2+  Ca84  1  0.75000644  0.49454237  0.24986300  1
  Nb5+  Nb85  1  -0.00004109  0.50413051  -0.00774387  1
  Nb5+  Nb86  1  0.00083648  -0.00573384  0.49920964  1
  Nb5+  Nb87  1  0.00042377  0.49748338  0.49473777  1
  Nb5+  Nb88  1  0.24919521  0.24992744  0.49785398  1
  Nb5+  Nb89  1  0.25242950  0.74866608  0.00046217  1
  Nb5+  Nb90  1  0.74768176  0.24831163  -0.00253395  1
  Nb5+  Nb91  1  0.49368085  0.75094111  0.24831596  1
  Nb5+  Nb92  1  0.25004296  0.50248491  0.24457134  1
  Nb5+  Nb93  1  0.00318968  0.74703716  0.74513813  1
  Nb5+  Nb94  1  -0.00118501  0.74690156  0.24604661  1
  Nb5+  Nb95  1  0.24968730  0.50236502  0.74329653  1
  Nb5+  Nb96  1  -0.00097529  0.00197955  0.24557534  1
  Nb5+  Nb97  1  0.00934922  0.00299829  0.75036515  1
  Nb5+  Nb98  1  -0.00157121  0.50085747  0.24662495  1
  Nb5+  Nb99  1  -0.00187430  0.50474014  0.74275730  1
  Nb5+  Nb100  1  0.50154464  0.00529751  0.24902972  1
  Nb5+  Nb101  1  0.49687972  -0.00033972  0.74895222  1
  Nb5+  Nb102  1  0.49962378  0.49934690  0.24729543  1
  Nb5+  Nb103  1  0.50308394  0.49700929  0.74763019  1
  Nb5+  Nb104  1  0.24290917  0.24690146  0.24777218  1
  Nb5+  Nb105  1  0.25067095  0.24952642  0.75558170  1
  Nb5+  Nb106  1  0.24978709  0.75056777  0.25159332  1
  Nb5+  Nb107  1  0.24826277  0.74876422  0.74698589  1
  Nb5+  Nb108  1  0.75523812  0.24859128  0.25382329  1
  Nb5+  Nb109  1  0.74696935  0.24584946  0.74397762  1
  Nb5+  Nb110  1  0.74188245  0.74891509  0.25093480  1
  Nb5+  Nb111  1  0.74706042  0.74994819  0.75554167  1
  Nb5+  Nb112  1  0.00103277  0.24161743  0.50234044  1
  Nb5+  Nb113  1  0.00305246  0.24847650  0.99884991  1
  Nb5+  Nb114  1  0.00500936  0.74043602  0.49317345  1
  Nb5+  Nb115  1  -0.00060043  0.74543903  0.99084169  1
  Nb5+  Nb116  1  0.50584717  0.25455416  0.49724205  1
  Nb5+  Nb117  1  0.49482755  0.25076189  1.00453205  1
  Nb5+  Nb118  1  0.50437001  0.75407822  0.50634511  1
  Nb5+  Nb119  1  0.50621181  0.75090512  0.99889286  1
  Nb5+  Nb120  1  0.24486384  0.00854949  -0.00197256  1
  Nb5+  Nb121  1  0.25349106  -0.00165250  0.50257611  1
  Nb5+  Nb122  1  0.24630393  0.50349012  -0.00487106  1
  Nb5+  Nb123  1  0.24574823  0.50308532  0.49281942  1
  Nb5+  Nb124  1  0.75453418  -0.00874712  0.00242566  1
  Nb5+  Nb125  1  0.74369685  -0.00098969  0.49965817  1
  Nb5+  Nb126  1  0.74295896  0.49742947  -0.00306647  1
  Nb5+  Nb127  1  0.74408131  0.49307368  0.50043578  1
  O2-  O128  1  -0.03112017  -0.01841476  0.13735948  1
  O2-  O129  1  -0.01550865  -0.01494785  0.62095865  1
  O2-  O130  1  -0.00945485  0.49172280  0.13097015  1
  O2-  O131  1  -0.00911955  0.49489346  0.62622487  1
  O2-  O132  1  0.46911949  -0.01513503  0.13583085  1
  O2-  O133  1  0.46521242  -0.01510397  0.63341652  1
  O2-  O134  1  0.45652435  0.49332437  0.13747868  1
  O2-  O135  1  0.46787389  0.48700011  0.63422354  1
  O2-  O136  1  0.02486532  0.00844387  0.38243136  1
  O2-  O137  1  0.02962926  0.00748302  0.86472529  1
  O2-  O138  1  0.02187254  0.51458231  0.38112062  1
  O2-  O139  1  0.01682791  0.52003265  0.87835855  1
  O2-  O140  1  0.52755683  0.01104240  0.36644748  1
  O2-  O141  1  0.52353153  0.01503001  0.86799747  1
  O2-  O142  1  0.51161317  0.52633621  0.36232896  1
  O2-  O143  1  0.50294730  0.52324869  0.86505718  1
  O2-  O144  1  0.21885269  0.24444525  0.13386084  1
  O2-  O145  1  0.22670484  0.24918397  0.61520529  1
  O2-  O146  1  0.23447500  0.73686077  0.12506076  1
  O2-  O147  1  0.22023694  0.73919342  0.63672665  1
  O2-  O148  1  0.73734287  0.23321571  0.11705980  1
  O2-  O149  1  0.72088420  0.23246659  0.63207182  1
  O2-  O150  1  0.74257729  0.72065787  0.13432217  1
  O2-  O151  1  0.73800232  0.72650797  0.63670542  1
  O2-  O152  1  0.26430280  0.26812568  0.37589599  1
  O2-  O153  1  0.28314545  0.26370135  0.86457128  1
  O2-  O154  1  0.27470462  0.75515606  0.36441501  1
  O2-  O155  1  0.25987007  0.74838138  0.88179240  1
  O2-  O156  1  0.78012413  0.26234747  0.36547892  1
  O2-  O157  1  0.76621922  0.26060143  0.87948288  1
  O2-  O158  1  0.77858327  0.76233309  0.36260982  1
  O2-  O159  1  0.79030685  0.76164142  0.86576222  1
  O2-  O160  1  0.00875698  0.28589002  0.11162117  1
  O2-  O161  1  0.01972457  0.27678236  0.61414420  1
  O2-  O162  1  0.01883970  0.76452719  0.13317090  1
  O2-  O163  1  0.02255227  0.76073034  0.63115127  1
  O2-  O164  1  0.51605683  0.28679447  0.11564375  1
  O2-  O165  1  0.50726624  0.28494552  0.61261998  1
  O2-  O166  1  0.50962680  0.77341257  0.13011698  1
  O2-  O167  1  0.51788946  0.77916428  0.61779728  1
  O2-  O168  1  0.22518018  -0.01963154  0.38881785  1
  O2-  O169  1  0.22974501  -0.02203129  0.88503475  1
  O2-  O170  1  0.22880248  0.48822755  0.37692605  1
  O2-  O171  1  0.22916702  0.49154333  0.87904878  1
  O2-  O172  1  0.74123282  -0.03676605  0.38549285  1
  O2-  O173  1  0.73957919  -0.02526608  0.88364331  1
  O2-  O174  1  0.74336906  0.46812483  0.38263434  1
  O2-  O175  1  0.75960740  0.47146258  0.88436935  1
  O2-  O176  1  -0.01427240  0.23747659  0.38593610  1
  O2-  O177  1  -0.02105256  0.23274066  0.88286730  1
  O2-  O178  1  -0.00754357  0.72614040  0.37886339  1
  O2-  O179  1  -0.00817609  0.72044712  0.87850611  1
  O2-  O180  1  0.48726717  0.22297362  0.38179294  1
  O2-  O181  1  0.49606034  0.22724325  0.88576334  1
  O2-  O182  1  0.49370901  0.72885875  0.36499865  1
  O2-  O183  1  0.49285539  0.71972574  0.88849702  1
  O2-  O184  1  0.26528197  0.01624977  0.11758785  1
  O2-  O185  1  0.25782536  0.03826328  0.61418929  1
  O2-  O186  1  0.25339228  0.52028356  0.12917503  1
  O2-  O187  1  0.25506673  0.51456739  0.62669686  1
  O2-  O188  1  0.76281269  0.02679344  0.11611118  1
  O2-  O189  1  0.76193977  0.03589558  0.61331477  1
  O2-  O190  1  0.76313627  0.51335587  0.11296474  1
  O2-  O191  1  0.75834404  0.52063439  0.61604290  1
  O2-  O192  1  0.13176888  0.28262834  0.26797949  1
  O2-  O193  1  0.13707454  0.28510129  0.76080947  1
  O2-  O194  1  0.13044651  0.76143028  0.26718574  1
  O2-  O195  1  0.12567780  0.76005109  0.77792179  1
  O2-  O196  1  0.63757650  0.28143967  0.26423949  1
  O2-  O197  1  0.63431768  0.27932218  0.76695009  1
  O2-  O198  1  0.62510944  0.76581081  0.26043914  1
  O2-  O199  1  0.63691577  0.77270549  0.77758219  1
  O2-  O200  1  0.36073505  0.23998190  0.23145238  1
  O2-  O201  1  0.36029894  0.23726289  0.71564298  1
  O2-  O202  1  0.37594082  0.72979352  0.23305539  1
  O2-  O203  1  0.36151045  0.72004075  0.73754754  1
  O2-  O204  1  0.86808407  0.21300599  0.23118587  1
  O2-  O205  1  0.86732251  0.22116661  0.73286065  1
  O2-  O206  1  0.88602357  0.72570907  0.23489974  1
  O2-  O207  1  0.89030932  0.72275356  0.73375087  1
  O2-  O208  1  0.26553539  0.38566418  0.23532280  1
  O2-  O209  1  0.26881465  0.38517082  0.74005859  1
  O2-  O210  1  0.26767433  0.86280430  0.23203155  1
  O2-  O211  1  0.27111727  0.86153463  0.74424039  1
  O2-  O212  1  0.77986691  0.36249880  0.22246017  1
  O2-  O213  1  0.78158849  0.36159972  0.73420908  1
  O2-  O214  1  0.76901272  0.86046874  0.22273751  1
  O2-  O215  1  0.77730344  0.86249743  0.72829771  1
  O2-  O216  1  0.22478771  0.13521023  0.26830616  1
  O2-  O217  1  0.21949713  0.13908484  0.76493925  1
  O2-  O218  1  0.23181375  0.62541970  0.25815817  1
  O2-  O219  1  0.22630922  0.62080652  0.76201959  1
  O2-  O220  1  0.71964298  0.13383179  0.26128119  1
  O2-  O221  1  0.72908978  0.13250991  0.77634608  1
  O2-  O222  1  0.73239350  0.63025820  0.27262659  1
  O2-  O223  1  0.73516948  0.63095149  0.77411803  1
  O2-  O224  1  0.12601527  0.49045903  0.24278815  1
  O2-  O225  1  0.12619164  0.48440465  0.73936007  1
  O2-  O226  1  0.11166483  0.96452052  0.23813292  1
  O2-  O227  1  0.11662634  0.96092791  0.72880568  1
  O2-  O228  1  0.61098926  0.48392762  0.22174179  1
  O2-  O229  1  0.61588421  0.47522093  0.73613626  1
  O2-  O230  1  0.61335817  0.96893826  0.23021266  1
  O2-  O231  1  0.61424334  0.97376389  0.72608772  1
  O2-  O232  1  0.38337091  0.01372544  0.27967067  1
  O2-  O233  1  0.37924576  0.02215615  0.77694602  1
  O2-  O234  1  0.36185218  0.52175742  0.27402579  1
  O2-  O235  1  0.36283324  0.52324218  0.76576512  1
  O2-  O236  1  0.88850143  0.00751770  0.28496164  1
  O2-  O237  1  0.89112287  0.00952028  0.76276276  1
  O2-  O238  1  0.88836565  0.52897545  0.26532533  1
  O2-  O239  1  0.88907270  0.53436927  0.75591309  1
  O2-  O240  1  0.47519868  0.38871606  0.27122887  1
  O2-  O241  1  0.47254462  0.38532946  0.77108829  1
  O2-  O242  1  0.47817106  0.86635027  0.26753671  1
  O2-  O243  1  0.47339542  0.88130566  0.77259208  1
  O2-  O244  1  0.98608719  0.39026216  0.27276908  1
  O2-  O245  1  0.98390981  0.39208881  0.76868859  1
  O2-  O246  1  0.98475125  0.86048205  0.27441885  1
  O2-  O247  1  0.98585804  0.86076886  0.76899271  1
  O2-  O248  1  0.02868005  0.11264512  0.23639562  1
  O2-  O249  1  0.03066917  0.11406286  0.73027032  1
  O2-  O250  1  0.02747201  0.62737362  0.24420051  1
  O2-  O251  1  0.03244922  0.62464616  0.74192195  1
  O2-  O252  1  0.51855435  0.11738407  0.22807967  1
  O2-  O253  1  0.51484909  0.11733285  0.72831056  1
  O2-  O254  1  0.51152925  0.62927097  0.22813728  1
  O2-  O255  1  0.51894629  0.61690649  0.72650108  1
  O2-  O256  1  0.12103642  0.48584415  0.01711199  1
  O2-  O257  1  0.12069527  0.48345330  0.51924777  1
  O2-  O258  1  0.13122827  0.97947577  0.02680518  1
  O2-  O259  1  0.12190576  0.99227818  0.52151361  1
  O2-  O260  1  0.63088684  0.47629186  0.00741247  1
  O2-  O261  1  0.63246670  0.46990791  0.51524900  1
  O2-  O262  1  0.63554014  0.98092427  0.01721573  1
  O2-  O263  1  0.63221528  0.98059413  0.52149487  1
  O2-  O264  1  0.36309984  0.01915712  -0.01884962  1
  O2-  O265  1  0.36235996  0.02404085  0.47599377  1
  O2-  O266  1  0.35812515  0.52858624  -0.01617874  1
  O2-  O267  1  0.35890617  0.52277842  0.48614307  1
  O2-  O268  1  0.86780694  0.02457569  -0.02160522  1
  O2-  O269  1  0.88686368  0.02077503  0.48561424  1
  O2-  O270  1  0.88474052  0.52245336  -0.00367507  1
  O2-  O271  1  0.88736288  0.52525227  0.48895181  1
  O2-  O272  1  0.47928771  0.36800218  -0.02585558  1
  O2-  O273  1  0.47325267  0.36748215  0.46947625  1
  O2-  O274  1  0.46378283  0.86053104  -0.01039357  1
  O2-  O275  1  0.47554198  0.86391728  0.47190142  1
  O2-  O276  1  0.98462842  0.38688248  -0.02087313  1
  O2-  O277  1  0.98508408  0.38270329  0.48495277  1
  O2-  O278  1  0.98206680  0.85948023  -0.01985750  1
  O2-  O279  1  0.98813592  0.87759725  0.48636847  1
  O2-  O280  1  0.02021427  0.13699309  0.02376504  1
  O2-  O281  1  0.02214335  0.12695982  0.51494368  1
  O2-  O282  1  0.02295031  0.62255170  0.01744429  1
  O2-  O283  1  0.02384161  0.62726467  0.51438277  1
  O2-  O284  1  0.52130717  0.13579179  0.02607222  1
  O2-  O285  1  0.51159318  0.13808743  0.52607718  1
  O2-  O286  1  0.51581488  0.63736067  0.03315339  1
  O2-  O287  1  0.52778604  0.63477458  0.51327065  1
  O2-  O288  1  0.11397878  0.27248129  -0.02959999  1
  O2-  O289  1  0.12431334  0.26682677  0.48038588  1
  O2-  O290  1  0.12244956  0.76272732  -0.00727281  1
  O2-  O291  1  0.11629159  0.77693345  0.48720710  1
  O2-  O292  1  0.63122417  0.26991932  -0.01288808  1
  O2-  O293  1  0.61832278  0.27336102  0.47880664  1
  O2-  O294  1  0.61689778  0.77981581  -0.01006118  1
  O2-  O295  1  0.61952239  0.77191158  0.47699263  1
  O2-  O296  1  0.38161185  0.23058693  0.02410575  1
  O2-  O297  1  0.36474755  0.23760461  0.51260862  1
  O2-  O298  1  0.36536507  0.72485533  0.01474657  1
  O2-  O299  1  0.38666579  0.72399333  0.51767990  1
  O2-  O300  1  0.87506894  0.24245885  0.01238103  1
  O2-  O301  1  0.88751195  0.23138278  0.52548871  1
  O2-  O302  1  0.89048708  0.72504814  0.02420055  1
  O2-  O303  1  0.89212730  0.74116376  0.52255671  1
  O2-  O304  1  0.26468749  0.39146362  0.01998855  1
  O2-  O305  1  0.25795774  0.38022615  0.50959712  1
  O2-  O306  1  0.26211744  0.86480544  0.01333796  1
  O2-  O307  1  0.26846840  0.88739504  0.53149991  1
  O2-  O308  1  0.76750663  0.37156005  0.01551830  1
  O2-  O309  1  0.78759790  0.38357388  0.51785318  1
  O2-  O310  1  0.77749845  0.88055025  0.02576939  1
  O2-  O311  1  0.77732824  0.88667987  0.52923280  1
  O2-  O312  1  0.21983244  0.12021016  -0.01490227  1
  O2-  O313  1  0.22942437  0.13515890  0.47957681  1
  O2-  O314  1  0.22076497  0.62520333  -0.00280772  1
  O2-  O315  1  0.21672184  0.61572095  0.49065221  1
  O2-  O316  1  0.73599340  0.13071320  -0.01806551  1
  O2-  O317  1  0.73786136  0.11299365  0.46265838  1
  O2-  O318  1  0.73132989  0.61223244  -0.02605011  1
  O2-  O319  1  0.73951588  0.61195877  0.47662968  1
