# generated using pymatgen
data_Sr64Ca21Nb43O192
_symmetry_space_group_name_H-M   'P 1'
_cell_length_a   16.56259543
_cell_length_b   16.57285940
_cell_length_c   16.69839111
_cell_angle_alpha   90.01829237
_cell_angle_beta   90.06529876
_cell_angle_gamma   90.03728869
_symmetry_Int_Tables_number   1
_chemical_formula_structural   Sr64Ca21Nb43O192
_chemical_formula_sum   'Sr64 Ca21 Nb43 O192'
_cell_volume   4583.52993634
_cell_formula_units_Z   1
loop_
 _symmetry_equiv_pos_site_id
 _symmetry_equiv_pos_as_xyz
  1  'x, y, z'
loop_
 _atom_type_symbol
 _atom_type_oxidation_number
  Sr2+  2.0
  Ca2+  2.0
  Nb5+  5.0
  O2-  -2.0
loop_
 _atom_site_type_symbol
 _atom_site_label
 _atom_site_symmetry_multiplicity
 _atom_site_fract_x
 _atom_site_fract_y
 _atom_site_fract_z
 _atom_site_occupancy
  Sr2+  Sr0  1  0.12776508  0.11692752  0.12201435  1
  Sr2+  Sr1  1  0.12913683  0.12106004  0.62179753  1
  Sr2+  Sr2  1  0.13668673  0.61177892  0.12420623  1
  Sr2+  Sr3  1  0.13394748  0.60941353  0.63374811  1
  Sr2+  Sr4  1  0.63698088  0.12312569  0.12595854  1
  Sr2+  Sr5  1  0.62670447  0.11127828  0.63021507  1
  Sr2+  Sr6  1  0.62931215  0.61547279  0.12300724  1
  Sr2+  Sr7  1  0.63317868  0.61819534  0.62062053  1
  Sr2+  Sr8  1  0.38714461  0.37036577  0.12609500  1
  Sr2+  Sr9  1  0.38012939  0.36524056  0.61949631  1
  Sr2+  Sr10  1  0.37711275  0.86513066  0.13590020  1
  Sr2+  Sr11  1  0.38351240  0.86592281  0.62044896  1
  Sr2+  Sr12  1  0.87736243  0.35754530  0.13041400  1
  Sr2+  Sr13  1  0.88777248  0.36368676  0.62975612  1
  Sr2+  Sr14  1  0.88102694  0.87220327  0.11595824  1
  Sr2+  Sr15  1  0.87931968  0.86936416  0.62734241  1
  Sr2+  Sr16  1  0.11633303  0.37498216  0.37880972  1
  Sr2+  Sr17  1  0.11049305  0.38777334  0.87299500  1
  Sr2+  Sr18  1  0.12015279  0.88489045  0.37589577  1
  Sr2+  Sr19  1  0.12262356  0.87585845  0.87430539  1
  Sr2+  Sr20  1  0.61712278  0.39053106  0.37745086  1
  Sr2+  Sr21  1  0.61136945  0.37944614  0.86984614  1
  Sr2+  Sr22  1  0.60975760  0.87538584  0.37707504  1
  Sr2+  Sr23  1  0.61711900  0.88680796  0.87624969  1
  Sr2+  Sr24  1  0.36543579  0.12811718  0.37437231  1
  Sr2+  Sr25  1  0.37405003  0.13802800  0.87515976  1
  Sr2+  Sr26  1  0.36719873  0.63387985  0.37574269  1
  Sr2+  Sr27  1  0.35983869  0.63285906  0.87636974  1
  Sr2+  Sr28  1  0.87357825  0.13423472  0.37715600  1
  Sr2+  Sr29  1  0.86152035  0.12318680  0.87460902  1
  Sr2+  Sr30  1  0.86352477  0.62972085  0.37055735  1
  Sr2+  Sr31  1  0.87118044  0.63106636  0.87183106  1
  Sr2+  Sr32  1  0.12171040  0.13367469  0.37639630  1
  Sr2+  Sr33  1  0.11853858  0.13528641  0.87783709  1
  Sr2+  Sr34  1  0.10749234  0.63777690  0.37166202  1
  Sr2+  Sr35  1  0.11899858  0.63811858  0.87041885  1
  Sr2+  Sr36  1  0.61641659  0.13425442  0.37202944  1
  Sr2+  Sr37  1  0.62195241  0.14274432  0.87002120  1
  Sr2+  Sr38  1  0.62283020  0.63584604  0.37818918  1
  Sr2+  Sr39  1  0.61607752  0.62650367  0.88182983  1
  Sr2+  Sr40  1  0.36338073  0.38153401  0.37923278  1
  Sr2+  Sr41  1  0.37551720  0.38829350  0.88039534  1
  Sr2+  Sr42  1  0.36915900  0.88776942  0.37305600  1
  Sr2+  Sr43  1  0.36592942  0.87620164  0.86256957  1
  Sr2+  Sr44  1  0.87302509  0.39204686  0.37002127  1
  Sr2+  Sr45  1  0.86528739  0.38751206  0.86803376  1
  Sr2+  Sr46  1  0.87227385  0.87125712  0.37604844  1
  Sr2+  Sr47  1  0.86938847  0.87516249  0.87456794  1
  Sr2+  Sr48  1  0.13758103  0.35955915  0.12214641  1
  Sr2+  Sr49  1  0.14263048  0.37089847  0.62567071  1
  Sr2+  Sr50  1  0.13517860  0.87393485  0.12952312  1
  Sr2+  Sr51  1  0.13948140  0.86631976  0.62833622  1
  Sr2+  Sr52  1  0.63615959  0.37818302  0.12536766  1
  Sr2+  Sr53  1  0.63288088  0.36288801  0.62629665  1
  Sr2+  Sr54  1  0.63222418  0.86617839  0.11979639  1
  Sr2+  Sr55  1  0.63110596  0.87116284  0.62604681  1
  Sr2+  Sr56  1  0.38877094  0.11423949  0.12573328  1
  Sr2+  Sr57  1  0.38560782  0.12231281  0.62484586  1
  Sr2+  Sr58  1  0.38833251  0.61811463  0.12491159  1
  Sr2+  Sr59  1  0.37520702  0.62064146  0.62764340  1
  Sr2+  Sr60  1  0.88816668  0.12093781  0.12904389  1
  Sr2+  Sr61  1  0.88405309  0.11190283  0.62506280  1
  Sr2+  Sr62  1  0.87828102  0.61423632  0.12581594  1
  Sr2+  Sr63  1  0.89024044  0.62163672  0.62854660  1
  Ca2+  Ca64  1  0.49754187  0.50185234  0.50126537  1
  Ca2+  Ca65  1  0.50089079  0.00118645  0.49905730  1
  Ca2+  Ca66  1  0.50112466  0.00076401  -0.00148612  1
  Ca2+  Ca67  1  -0.00373310  0.50023221  0.00150455  1
  Ca2+  Ca68  1  -0.00094467  0.49908251  0.50088085  1
  Ca2+  Ca69  1  0.75267514  0.24898080  0.49990081  1
  Ca2+  Ca70  1  0.24737322  0.75042708  0.00432543  1
  Ca2+  Ca71  1  0.24756467  0.74950657  0.49635840  1
  Ca2+  Ca72  1  0.25265428  0.24929351  0.00140177  1
  Ca2+  Ca73  1  0.75212616  0.25158602  -0.00197797  1
  Ca2+  Ca74  1  -0.00061538  0.75391749  0.74851597  1
  Ca2+  Ca75  1  0.25205047  0.49571367  0.75244734  1
  Ca2+  Ca76  1  0.74696673  0.49973047  0.74903114  1
  Ca2+  Ca77  1  0.25083929  0.49664909  0.24973094  1
  Ca2+  Ca78  1  -0.00162748  0.75210778  0.24693220  1
  Ca2+  Ca79  1  0.25000316  0.00054842  0.74956682  1
  Ca2+  Ca80  1  0.50394907  0.74911885  0.75060655  1
  Ca2+  Ca81  1  0.75358521  -0.00195651  0.25216082  1
  Ca2+  Ca82  1  0.50044556  0.25064248  0.25084565  1
  Ca2+  Ca83  1  0.49905347  0.74855959  0.24913922  1
  Ca2+  Ca84  1  0.00197796  0.24879399  0.74979633  1
  Nb5+  Nb85  1  0.00015674  -0.00164263  0.50387064  1
  Nb5+  Nb86  1  0.49939307  0.50135659  0.00056352  1
  Nb5+  Nb87  1  0.00038261  -0.00150697  0.00405422  1
  Nb5+  Nb88  1  0.74982860  0.74941863  -0.00591433  1
  Nb5+  Nb89  1  0.75109876  0.75138575  0.49625044  1
  Nb5+  Nb90  1  0.25130379  0.24705382  0.50162781  1
  Nb5+  Nb91  1  0.74819246  0.50140770  0.25224328  1
  Nb5+  Nb92  1  0.75212436  -0.00186129  0.74846838  1
  Nb5+  Nb93  1  0.25119784  0.00335539  0.24914355  1
  Nb5+  Nb94  1  0.49899405  0.25239186  0.74949670  1
  Nb5+  Nb95  1  0.00262271  0.25008223  0.24924403  1
  Nb5+  Nb96  1  0.00005561  0.00345074  0.25741624  1
  Nb5+  Nb97  1  0.00210306  0.00000939  0.75732163  1
  Nb5+  Nb98  1  0.00574570  0.49933602  0.24271623  1
  Nb5+  Nb99  1  -0.00205814  0.50030970  0.75060403  1
  Nb5+  Nb100  1  0.50825270  -0.00273491  0.24592733  1
  Nb5+  Nb101  1  0.49625434  0.00210356  0.75521042  1
  Nb5+  Nb102  1  0.49843687  0.50382909  0.25545810  1
  Nb5+  Nb103  1  0.49917659  0.50216504  0.74595647  1
  Nb5+  Nb104  1  0.25318529  0.24580816  0.24791873  1
  Nb5+  Nb105  1  0.25123466  0.25234882  0.75794007  1
  Nb5+  Nb106  1  0.24431692  0.74297160  0.25322003  1
  Nb5+  Nb107  1  0.25065073  0.74846714  0.74814833  1
  Nb5+  Nb108  1  0.74631718  0.25133282  0.25759588  1
  Nb5+  Nb109  1  0.75602357  0.24804026  0.74246287  1
  Nb5+  Nb110  1  0.75060485  0.75059697  0.24101892  1
  Nb5+  Nb111  1  0.74472604  0.74588864  0.74458298  1
  Nb5+  Nb112  1  0.00105079  0.25013756  0.50064206  1
  Nb5+  Nb113  1  -0.00537622  0.25129208  0.99267105  1
  Nb5+  Nb114  1  0.00234775  0.74968508  0.50185977  1
  Nb5+  Nb115  1  0.00267890  0.74903868  1.00353311  1
  Nb5+  Nb116  1  0.50312277  0.24971152  0.49585833  1
  Nb5+  Nb117  1  0.50718109  0.25007270  1.00579352  1
  Nb5+  Nb118  1  0.49544889  0.74744100  0.50135564  1
  Nb5+  Nb119  1  0.49384752  0.75376534  0.99722594  1
  Nb5+  Nb120  1  0.25434454  0.00028171  -0.00351676  1
  Nb5+  Nb121  1  0.25190154  0.00228412  0.50121197  1
  Nb5+  Nb122  1  0.24402524  0.49560457  0.00240494  1
  Nb5+  Nb123  1  0.24451814  0.50627750  0.49332798  1
  Nb5+  Nb124  1  0.74996459  0.00127566  0.00081579  1
  Nb5+  Nb125  1  0.74854062  -0.00269503  0.49584533  1
  Nb5+  Nb126  1  0.75034424  0.49819520  -0.00008426  1
  Nb5+  Nb127  1  0.75517781  0.49776253  0.50764324  1
  O2-  O128  1  -0.01435963  -0.00978540  0.12147189  1
  O2-  O129  1  -0.01450181  -0.01329335  0.61787864  1
  O2-  O130  1  -0.03717631  0.48011806  0.13482488  1
  O2-  O131  1  -0.03217981  0.48623462  0.63365904  1
  O2-  O132  1  0.47262930  -0.01691450  0.13253712  1
  O2-  O133  1  0.48556531  -0.00994775  0.63717613  1
  O2-  O134  1  0.48885805  0.48241126  0.12048466  1
  O2-  O135  1  0.46876630  0.48832385  0.63610744  1
  O2-  O136  1  0.01599179  0.01938712  0.37196145  1
  O2-  O137  1  0.01157197  0.01800104  0.87311190  1
  O2-  O138  1  0.01496927  0.50949502  0.36070942  1
  O2-  O139  1  0.02412991  0.51898315  0.86903209  1
  O2-  O140  1  0.51546237  0.02273785  0.36292383  1
  O2-  O141  1  0.53341346  0.02270990  0.86585559  1
  O2-  O142  1  0.52701372  0.51764341  0.36591810  1
  O2-  O143  1  0.52460344  0.50636106  0.88233316  1
  O2-  O144  1  0.22493547  0.23006631  0.13691622  1
  O2-  O145  1  0.23316763  0.22991607  0.61813517  1
  O2-  O146  1  0.21112727  0.74145035  0.13767880  1
  O2-  O147  1  0.23024479  0.72979391  0.63047787  1
  O2-  O148  1  0.73149347  0.24594224  0.13863611  1
  O2-  O149  1  0.71709478  0.22921204  0.63158871  1
  O2-  O150  1  0.72872958  0.73918553  0.12659911  1
  O2-  O151  1  0.72745212  0.74139171  0.62844470  1
  O2-  O152  1  0.26558718  0.25675878  0.37642285  1
  O2-  O153  1  0.28336957  0.26572953  0.86682221  1
  O2-  O154  1  0.28254245  0.76710094  0.36417608  1
  O2-  O155  1  0.26498252  0.76915123  0.86813591  1
  O2-  O156  1  0.78764061  0.26712903  0.36708978  1
  O2-  O157  1  0.77444868  0.25852129  0.86020178  1
  O2-  O158  1  0.76921494  0.75896850  0.38079103  1
  O2-  O159  1  0.76943274  0.75718116  0.87953606  1
  O2-  O160  1  0.01658979  0.26531334  0.13054727  1
  O2-  O161  1  0.02415291  0.26849859  0.61256686  1
  O2-  O162  1  0.00539116  0.78964003  0.11464163  1
  O2-  O163  1  0.00696808  0.78859688  0.61273266  1
  O2-  O164  1  0.52135356  0.27867563  0.11671516  1
  O2-  O165  1  0.50776255  0.27334579  0.62941137  1
  O2-  O166  1  0.51784842  0.77220634  0.11185587  1
  O2-  O167  1  0.51311434  0.77992583  0.61603107  1
  O2-  O168  1  0.23560068  -0.01321171  0.37333838  1
  O2-  O169  1  0.24171245  -0.03062112  0.88648432  1
  O2-  O170  1  0.23471596  0.46323543  0.38197790  1
  O2-  O171  1  0.24202414  0.46377010  0.88717245  1
  O2-  O172  1  0.74417298  -0.03679927  0.38546872  1
  O2-  O173  1  0.74865939  -0.02040486  0.86962410  1
  O2-  O174  1  0.73525634  0.48630571  0.37150995  1
  O2-  O175  1  0.73183229  0.48222614  0.88709657  1
  O2-  O176  1  -0.00555514  0.22655021  0.37112379  1
  O2-  O177  1  -0.01796577  0.21686584  0.88365964  1
  O2-  O178  1  -0.02796594  0.73582885  0.38687520  1
  O2-  O179  1  -0.02395553  0.73755796  0.88807873  1
  O2-  O180  1  0.48591328  0.22141656  0.38537643  1
  O2-  O181  1  0.48814353  0.23482480  0.87020429  1
  O2-  O182  1  0.49544134  0.72017611  0.38405267  1
  O2-  O183  1  0.49623961  0.71618332  0.88550148  1
  O2-  O184  1  0.25566820  0.02754875  0.13247373  1
  O2-  O185  1  0.25262065  0.02718406  0.61417132  1
  O2-  O186  1  0.26777923  0.52906562  0.11596392  1
  O2-  O187  1  0.26368017  0.51926131  0.61196034  1
  O2-  O188  1  0.76527338  0.02055095  0.11383817  1
  O2-  O189  1  0.76614634  0.01368152  0.62514176  1
  O2-  O190  1  0.75483011  0.51965854  0.13002396  1
  O2-  O191  1  0.76488372  0.53315039  0.61639399  1
  O2-  O192  1  0.12382638  0.26490549  0.26887531  1
  O2-  O193  1  0.13663667  0.27131614  0.77485738  1
  O2-  O194  1  0.13017281  0.77208428  0.28204296  1
  O2-  O195  1  0.13215131  0.77743905  0.76273355  1
  O2-  O196  1  0.63547552  0.27192463  0.28319550  1
  O2-  O197  1  0.61988834  0.26460178  0.76462599  1
  O2-  O198  1  0.63805568  0.76881951  0.27187274  1
  O2-  O199  1  0.63785312  0.78762613  0.76826949  1
  O2-  O200  1  0.36538799  0.21793112  0.23693708  1
  O2-  O201  1  0.37875933  0.22785306  0.73291252  1
  O2-  O202  1  0.36062987  0.73556319  0.21933816  1
  O2-  O203  1  0.36949561  0.72428982  0.73827846  1
  O2-  O204  1  0.88272147  0.23358933  0.23390807  1
  O2-  O205  1  0.86717081  0.22878809  0.71720165  1
  O2-  O206  1  0.86361036  0.71632101  0.23976765  1
  O2-  O207  1  0.86180318  0.73407505  0.73668841  1
  O2-  O208  1  0.27176247  0.35987959  0.23421936  1
  O2-  O209  1  0.26924888  0.36185343  0.71782247  1
  O2-  O210  1  0.25878595  0.88558529  0.23517673  1
  O2-  O211  1  0.27744522  0.86751866  0.72438494  1
  O2-  O212  1  0.76707087  0.37998594  0.23698877  1
  O2-  O213  1  0.76565730  0.36354541  0.72513977  1
  O2-  O214  1  0.78056321  0.86255969  0.23215003  1
  O2-  O215  1  0.77200760  0.88049608  0.73576681  1
  O2-  O216  1  0.22846313  0.12283798  0.27209969  1
  O2-  O217  1  0.23176279  0.13500114  0.76709569  1
  O2-  O218  1  0.22462808  0.63100237  0.27372391  1
  O2-  O219  1  0.22731511  0.63092177  0.76928642  1
  O2-  O220  1  0.73208630  0.13522593  0.26926596  1
  O2-  O221  1  0.73521551  0.12079674  0.76556379  1
  O2-  O222  1  0.72752113  0.62222466  0.26450803  1
  O2-  O223  1  0.71989254  0.63607813  0.76703797  1
  O2-  O224  1  0.11546249  0.47372250  0.21988774  1
  O2-  O225  1  0.11494470  0.47623301  0.73030077  1
  O2-  O226  1  0.12124912  0.99060608  0.23537365  1
  O2-  O227  1  0.11352362  0.97258746  0.74050698  1
  O2-  O228  1  0.62770809  0.47962734  0.23642265  1
  O2-  O229  1  0.61249083  0.46504304  0.73634186  1
  O2-  O230  1  0.61994757  0.97235875  0.23037293  1
  O2-  O231  1  0.63394677  0.98776971  0.73242897  1
  O2-  O232  1  0.36684908  0.01924844  0.26457522  1
  O2-  O233  1  0.38486385  0.02365512  0.77515992  1
  O2-  O234  1  0.38478747  0.52676197  0.26628375  1
  O2-  O235  1  0.38752470  0.51658707  0.78296677  1
  O2-  O236  1  0.88692224  0.03215127  0.25946020  1
  O2-  O237  1  0.87330300  0.02516895  0.75731020  1
  O2-  O238  1  0.86727018  0.51661923  0.26555077  1
  O2-  O239  1  0.87863339  0.51888630  0.77737559  1
  O2-  O240  1  0.47813085  0.38582624  0.26556341  1
  O2-  O241  1  0.47847460  0.36952011  0.76787763  1
  O2-  O242  1  0.47701448  0.88390814  0.27078525  1
  O2-  O243  1  0.48839024  0.88737934  0.77357848  1
  O2-  O244  1  0.98425486  0.36850387  0.26685314  1
  O2-  O245  1  0.97647234  0.38068339  0.77170970  1
  O2-  O246  1  0.98142679  0.88990062  0.26714620  1
  O2-  O247  1  0.96699008  0.88853918  0.76190066  1
  O2-  O248  1  0.02028148  0.12812771  0.23211084  1
  O2-  O249  1  0.01598575  0.11325746  0.72397052  1
  O2-  O250  1  0.02030462  0.61427674  0.22710067  1
  O2-  O251  1  0.01484195  0.61905497  0.72824862  1
  O2-  O252  1  0.52248807  0.11635847  0.22271925  1
  O2-  O253  1  0.51716522  0.13002569  0.73359780  1
  O2-  O254  1  0.51871323  0.61525236  0.22018755  1
  O2-  O255  1  0.52968829  0.61305949  0.73545471  1
  O2-  O256  1  0.13140554  0.47567446  0.02268485  1
  O2-  O257  1  0.13150401  0.47393733  0.51820586  1
  O2-  O258  1  0.11702589  0.97882051  0.01007179  1
  O2-  O259  1  0.12093174  0.98403555  0.50807427  1
  O2-  O260  1  0.62774438  0.49067503  0.02031740  1
  O2-  O261  1  0.63677628  0.48031056  0.51208597  1
  O2-  O262  1  0.63727158  0.97356115  0.01237370  1
  O2-  O263  1  0.63646629  0.98052727  0.51928825  1
  O2-  O264  1  0.36552762  0.02941270  -0.01188198  1
  O2-  O265  1  0.36508364  0.02004791  0.48352131  1
  O2-  O266  1  0.38385430  0.51738067  -0.01484871  1
  O2-  O267  1  0.36363473  0.51634582  0.47449028  1
  O2-  O268  1  0.87633704  0.01290475  -0.01466142  1
  O2-  O269  1  0.87902633  0.01684667  0.48727310  1
  O2-  O270  1  0.86124752  0.53267877  -0.01132734  1
  O2-  O271  1  0.86505360  0.52012275  0.47138993  1
  O2-  O272  1  0.48822677  0.37850309  -0.01554156  1
  O2-  O273  1  0.47034745  0.36384262  0.48704119  1
  O2-  O274  1  0.48111293  0.86499657  -0.03257240  1
  O2-  O275  1  0.48368685  0.86546542  0.47287570  1
  O2-  O276  1  0.97249373  0.36386311  -0.02413952  1
  O2-  O277  1  0.98277284  0.36102380  0.47429563  1
  O2-  O278  1  0.97886829  0.88308293  -0.02042960  1
  O2-  O279  1  0.98421476  0.88460204  0.47431730  1
  O2-  O280  1  0.01453837  0.11871492  0.01531310  1
  O2-  O281  1  0.01990735  0.11990515  0.50962262  1
  O2-  O282  1  0.01540558  0.63751175  0.03045405  1
  O2-  O283  1  0.01652347  0.63747471  0.52538044  1
  O2-  O284  1  0.52974984  0.13598976  0.02015697  1
  O2-  O285  1  0.51624862  0.13678758  0.53004511  1
  O2-  O286  1  0.51940286  0.61983093  0.01826143  1
  O2-  O287  1  0.52715911  0.63453769  0.52434625  1
  O2-  O288  1  0.11284917  0.26697792  -0.01351225  1
  O2-  O289  1  0.12725563  0.25758084  0.48068097  1
  O2-  O290  1  0.11316566  0.76968226  -0.02096345  1
  O2-  O291  1  0.11301381  0.77160054  0.47669040  1
  O2-  O292  1  0.61971993  0.26965404  -0.02855422  1
  O2-  O293  1  0.61591079  0.27370500  0.48151332  1
  O2-  O294  1  0.63176925  0.77134561  -0.01386195  1
  O2-  O295  1  0.63349687  0.77230361  0.48781749  1
  O2-  O296  1  0.38974947  0.22957963  0.01429116  1
  O2-  O297  1  0.36913921  0.22605391  0.51325302  1
  O2-  O298  1  0.38302536  0.72927243  0.01714106  1
  O2-  O299  1  0.38246603  0.72668045  0.51798341  1
  O2-  O300  1  0.88434831  0.22977413  0.03017492  1
  O2-  O301  1  0.88884610  0.22311817  0.51782922  1
  O2-  O302  1  0.86717864  0.73684403  0.02293099  1
  O2-  O303  1  0.86954874  0.73809824  0.52399179  1
  O2-  O304  1  0.27577525  0.38205721  0.03069871  1
  O2-  O305  1  0.26516928  0.36307082  0.51560241  1
  O2-  O306  1  0.26241598  0.88940923  0.03678118  1
  O2-  O307  1  0.26408885  0.88669603  0.51650074  1
  O2-  O308  1  0.77173381  0.38737254  0.02206048  1
  O2-  O309  1  0.77682074  0.38513031  0.52519182  1
  O2-  O310  1  0.76951336  0.87242029  0.01121918  1
  O2-  O311  1  0.77086242  0.87156942  0.52031454  1
  O2-  O312  1  0.21711551  0.11284303  -0.01326602  1
  O2-  O313  1  0.23017214  0.12436752  0.47978202  1
  O2-  O314  1  0.23077335  0.61252295  -0.02627892  1
  O2-  O315  1  0.22083077  0.61571244  0.46867636  1
  O2-  O316  1  0.73371563  0.11342640  -0.02459533  1
  O2-  O317  1  0.73567076  0.11096378  0.47283837  1
  O2-  O318  1  0.72817602  0.63167293  -0.00884015  1
  O2-  O319  1  0.73285504  0.63272885  0.48727755  1
