# generated using pymatgen
data_Sr64Ca21Nb43O192
_symmetry_space_group_name_H-M   'P 1'
_cell_length_a   16.56640933
_cell_length_b   16.56971942
_cell_length_c   16.72257047
_cell_angle_alpha   89.98707750
_cell_angle_beta   90.04822511
_cell_angle_gamma   89.88756267
_symmetry_Int_Tables_number   1
_chemical_formula_structural   Sr64Ca21Nb43O192
_chemical_formula_sum   'Sr64 Ca21 Nb43 O192'
_cell_volume   4590.34762494
_cell_formula_units_Z   1
loop_
 _symmetry_equiv_pos_site_id
 _symmetry_equiv_pos_as_xyz
  1  'x, y, z'
loop_
 _atom_type_symbol
 _atom_type_oxidation_number
  Sr2+  2.0
  Ca2+  2.0
  Nb5+  5.0
  O2-  -2.0
loop_
 _atom_site_type_symbol
 _atom_site_label
 _atom_site_symmetry_multiplicity
 _atom_site_fract_x
 _atom_site_fract_y
 _atom_site_fract_z
 _atom_site_occupancy
  Sr2+  Sr0  1  0.13500543  0.13436233  0.12612643  1
  Sr2+  Sr1  1  0.13323439  0.14180021  0.61899818  1
  Sr2+  Sr2  1  0.13096888  0.61595107  0.12516127  1
  Sr2+  Sr3  1  0.12643926  0.61354415  0.62055133  1
  Sr2+  Sr4  1  0.63388605  0.13198408  0.12698972  1
  Sr2+  Sr5  1  0.62837024  0.13943283  0.63184112  1
  Sr2+  Sr6  1  0.63129587  0.61182304  0.11852238  1
  Sr2+  Sr7  1  0.63572416  0.62638450  0.62949524  1
  Sr2+  Sr8  1  0.38245333  0.37056262  0.12588028  1
  Sr2+  Sr9  1  0.37655910  0.37458745  0.63122309  1
  Sr2+  Sr10  1  0.38179444  0.86129860  0.12222521  1
  Sr2+  Sr11  1  0.38779909  0.86643519  0.61956908  1
  Sr2+  Sr12  1  0.88122105  0.37438289  0.12865488  1
  Sr2+  Sr13  1  0.88547788  0.37810435  0.62056934  1
  Sr2+  Sr14  1  0.87723607  0.86407054  0.12614616  1
  Sr2+  Sr15  1  0.88347871  0.87191733  0.61693550  1
  Sr2+  Sr16  1  0.10550283  0.37915918  0.37925679  1
  Sr2+  Sr17  1  0.11673494  0.36902313  0.87753714  1
  Sr2+  Sr18  1  0.11313562  0.88171598  0.37201483  1
  Sr2+  Sr19  1  0.10724078  0.87278642  0.87241718  1
  Sr2+  Sr20  1  0.62378920  0.38072121  0.37249764  1
  Sr2+  Sr21  1  0.61833321  0.37172098  0.87458517  1
  Sr2+  Sr22  1  0.61816978  0.87301307  0.37563762  1
  Sr2+  Sr23  1  0.63405238  0.88473984  0.87691190  1
  Sr2+  Sr24  1  0.36011006  0.11552585  0.37476650  1
  Sr2+  Sr25  1  0.36982644  0.12285345  0.87445783  1
  Sr2+  Sr26  1  0.37299257  0.62717115  0.37789958  1
  Sr2+  Sr27  1  0.36516620  0.62411988  0.87267177  1
  Sr2+  Sr28  1  0.86460119  0.11541435  0.37561756  1
  Sr2+  Sr29  1  0.87044081  0.11032380  0.87030394  1
  Sr2+  Sr30  1  0.86909571  0.62217145  0.37578504  1
  Sr2+  Sr31  1  0.87728139  0.63416911  0.86885574  1
  Sr2+  Sr32  1  0.11996633  0.12157086  0.37130131  1
  Sr2+  Sr33  1  0.11900594  0.10961362  0.88382485  1
  Sr2+  Sr34  1  0.11859159  0.62206248  0.36923941  1
  Sr2+  Sr35  1  0.11896020  0.63570965  0.87037110  1
  Sr2+  Sr36  1  0.61865686  0.12218221  0.36744662  1
  Sr2+  Sr37  1  0.61534102  0.11956017  0.87165230  1
  Sr2+  Sr38  1  0.62152428  0.62492226  0.38153318  1
  Sr2+  Sr39  1  0.62391331  0.60610643  0.87216009  1
  Sr2+  Sr40  1  0.36649007  0.37703155  0.37175691  1
  Sr2+  Sr41  1  0.36919371  0.37010985  0.87277521  1
  Sr2+  Sr42  1  0.37489423  0.87834292  0.38127354  1
  Sr2+  Sr43  1  0.36824088  0.86540264  0.87522906  1
  Sr2+  Sr44  1  0.87161464  0.35232348  0.37726837  1
  Sr2+  Sr45  1  0.86332190  0.36641256  0.88222077  1
  Sr2+  Sr46  1  0.86520968  0.86662512  0.37239147  1
  Sr2+  Sr47  1  0.87993753  0.88170081  0.86348331  1
  Sr2+  Sr48  1  0.10678248  0.37383690  0.12542298  1
  Sr2+  Sr49  1  0.13135808  0.38253905  0.62244347  1
  Sr2+  Sr50  1  0.12982043  0.86945314  0.12824130  1
  Sr2+  Sr51  1  0.12325762  0.87371646  0.63275683  1
  Sr2+  Sr52  1  0.64726287  0.37729034  0.12221327  1
  Sr2+  Sr53  1  0.63542094  0.37917748  0.63228483  1
  Sr2+  Sr54  1  0.63284955  0.87504765  0.12545781  1
  Sr2+  Sr55  1  0.63305531  0.87431676  0.61634641  1
  Sr2+  Sr56  1  0.37524734  0.12601456  0.13142269  1
  Sr2+  Sr57  1  0.38546487  0.12712830  0.61945085  1
  Sr2+  Sr58  1  0.38576728  0.61843145  0.12521690  1
  Sr2+  Sr59  1  0.37513725  0.61522797  0.62658954  1
  Sr2+  Sr60  1  0.88285646  0.13136019  0.13067258  1
  Sr2+  Sr61  1  0.89186297  0.13202895  0.62028278  1
  Sr2+  Sr62  1  0.88827289  0.61523356  0.12964956  1
  Sr2+  Sr63  1  0.87022895  0.62668441  0.61977275  1
  Ca2+  Ca64  1  0.00008618  -0.00244304  0.00599865  1
  Ca2+  Ca65  1  -0.00059793  -0.00138855  0.49871247  1
  Ca2+  Ca66  1  -0.00427403  0.50251992  0.50150464  1
  Ca2+  Ca67  1  0.49935087  0.49746487  0.50294395  1
  Ca2+  Ca68  1  0.00258329  0.50092481  -0.00494047  1
  Ca2+  Ca69  1  0.74902471  0.74784913  -0.00348117  1
  Ca2+  Ca70  1  0.74806251  0.24514817  0.50175202  1
  Ca2+  Ca71  1  0.25350275  0.25157483  0.49998598  1
  Ca2+  Ca72  1  0.24952615  0.75024503  0.49969946  1
  Ca2+  Ca73  1  0.74778082  0.24656527  -0.00269168  1
  Ca2+  Ca74  1  0.25028700  0.49886724  0.24556237  1
  Ca2+  Ca75  1  0.00257390  0.74969973  0.25102349  1
  Ca2+  Ca76  1  0.00182521  0.24543564  0.25050330  1
  Ca2+  Ca77  1  0.49969847  0.25083756  0.24990448  1
  Ca2+  Ca78  1  0.50207411  0.74871986  0.24738864  1
  Ca2+  Ca79  1  0.50146726  0.75142281  0.75289668  1
  Ca2+  Ca80  1  0.25263887  0.00177821  0.75124589  1
  Ca2+  Ca81  1  0.74981342  0.00356442  0.74514320  1
  Ca2+  Ca82  1  0.74968798  0.49993795  0.25142519  1
  Ca2+  Ca83  1  0.00438448  0.25225963  0.75220527  1
  Ca2+  Ca84  1  0.75194532  0.49772364  0.75042037  1
  Nb5+  Nb85  1  0.49617709  0.49084858  -0.00001371  1
  Nb5+  Nb86  1  0.50073560  0.00260367  0.49412059  1
  Nb5+  Nb87  1  0.49581480  -0.00539443  -0.00434419  1
  Nb5+  Nb88  1  0.74723931  0.74931890  0.49894793  1
  Nb5+  Nb89  1  0.25137009  0.24804104  -0.00096477  1
  Nb5+  Nb90  1  0.24678909  0.74233455  -0.00007728  1
  Nb5+  Nb91  1  0.24515077  -0.00306830  0.24913908  1
  Nb5+  Nb92  1  0.24838550  0.50024746  0.75281302  1
  Nb5+  Nb93  1  0.49957739  0.25105566  0.75073398  1
  Nb5+  Nb94  1  0.74355335  -0.00357949  0.25017618  1
  Nb5+  Nb95  1  -0.00063624  0.74839209  0.74556336  1
  Nb5+  Nb96  1  -0.00970331  -0.00196459  0.24768190  1
  Nb5+  Nb97  1  0.00504910  0.00574001  0.74435501  1
  Nb5+  Nb98  1  -0.00202257  0.49961956  0.25162818  1
  Nb5+  Nb99  1  -0.00489184  0.50060605  0.75438456  1
  Nb5+  Nb100  1  0.49466765  -0.00195444  0.24335338  1
  Nb5+  Nb101  1  0.49574850  -0.00215837  0.74394135  1
  Nb5+  Nb102  1  0.49993642  0.50190265  0.25402903  1
  Nb5+  Nb103  1  0.49927515  0.49974733  0.75084475  1
  Nb5+  Nb104  1  0.25241365  0.25559166  0.25276294  1
  Nb5+  Nb105  1  0.24980761  0.24875097  0.75411132  1
  Nb5+  Nb106  1  0.25207692  0.74878882  0.25154825  1
  Nb5+  Nb107  1  0.25042504  0.74925333  0.74512098  1
  Nb5+  Nb108  1  0.75092389  0.25058753  0.24895912  1
  Nb5+  Nb109  1  0.75944390  0.24740011  0.75257231  1
  Nb5+  Nb110  1  0.74333945  0.74462173  0.24521163  1
  Nb5+  Nb111  1  0.74829270  0.75796297  0.75227798  1
  Nb5+  Nb112  1  0.00239662  0.24848358  0.49989175  1
  Nb5+  Nb113  1  -0.00430163  0.24470390  0.99430225  1
  Nb5+  Nb114  1  0.00333585  0.74957405  0.49601266  1
  Nb5+  Nb115  1  -0.00118229  0.74938371  1.00267181  1
  Nb5+  Nb116  1  0.50008565  0.25296489  0.49681927  1
  Nb5+  Nb117  1  0.49887100  0.24284657  1.00106561  1
  Nb5+  Nb118  1  0.50204367  0.74417618  0.50607883  1
  Nb5+  Nb119  1  0.50271161  0.74375653  0.99582665  1
  Nb5+  Nb120  1  0.25436360  -0.00716557  0.00331171  1
  Nb5+  Nb121  1  0.24774131  -0.00046232  0.50630428  1
  Nb5+  Nb122  1  0.25327655  0.49231022  0.00032411  1
  Nb5+  Nb123  1  0.24919915  0.49897250  0.49231121  1
  Nb5+  Nb124  1  0.75317266  0.00206543  0.00362809  1
  Nb5+  Nb125  1  0.74618718  0.00217578  0.50159437  1
  Nb5+  Nb126  1  0.75892627  0.50396580  -0.00222557  1
  Nb5+  Nb127  1  0.74950595  0.49202988  0.50115412  1
  O2-  O128  1  -0.00116757  -0.04162640  0.13648823  1
  O2-  O129  1  0.00362841  -0.03009901  0.63275873  1
  O2-  O130  1  -0.01443695  0.48234517  0.12935462  1
  O2-  O131  1  0.00711029  0.47953706  0.63858067  1
  O2-  O132  1  0.50055122  -0.02001062  0.12822055  1
  O2-  O133  1  0.50346727  -0.01454221  0.62770005  1
  O2-  O134  1  0.48224496  0.48906523  0.11686699  1
  O2-  O135  1  0.48504621  0.48266388  0.63784444  1
  O2-  O136  1  0.00106776  0.02798888  0.36384746  1
  O2-  O137  1  -0.00677304  0.01283724  0.86603222  1
  O2-  O138  1  0.01182587  0.52046055  0.36818888  1
  O2-  O139  1  0.01008299  0.53537195  0.86459627  1
  O2-  O140  1  0.49433497  0.02017021  0.37834817  1
  O2-  O141  1  0.48962061  0.01837830  0.88274368  1
  O2-  O142  1  0.51322149  0.51770342  0.36764418  1
  O2-  O143  1  0.50225702  0.50933790  0.87876474  1
  O2-  O144  1  0.27352517  0.23704019  0.11497295  1
  O2-  O145  1  0.26967952  0.23049929  0.64104810  1
  O2-  O146  1  0.22640125  0.73983041  0.11709137  1
  O2-  O147  1  0.22487382  0.73136066  0.63495296  1
  O2-  O148  1  0.76575451  0.22291917  0.13133190  1
  O2-  O149  1  0.76224245  0.21495125  0.63630234  1
  O2-  O150  1  0.73175695  0.73407171  0.13155942  1
  O2-  O151  1  0.73834223  0.74093735  0.62239929  1
  O2-  O152  1  0.23771917  0.27537970  0.36447487  1
  O2-  O153  1  0.24363142  0.27857126  0.88034577  1
  O2-  O154  1  0.28075530  0.76114896  0.36279946  1
  O2-  O155  1  0.26069142  0.76015660  0.87767692  1
  O2-  O156  1  0.72908861  0.26865462  0.36522105  1
  O2-  O157  1  0.73512791  0.28158529  0.86504545  1
  O2-  O158  1  0.75374527  0.76239904  0.37954294  1
  O2-  O159  1  0.77566817  0.77137572  0.86402119  1
  O2-  O160  1  -0.01228937  0.26834845  0.11234610  1
  O2-  O161  1  -0.02420028  0.26325072  0.61935266  1
  O2-  O162  1  0.01040403  0.77272678  0.11493450  1
  O2-  O163  1  0.00801316  0.77401997  0.62868524  1
  O2-  O164  1  0.47333416  0.25202817  0.11321526  1
  O2-  O165  1  0.47427898  0.25677423  0.63506380  1
  O2-  O166  1  0.51031298  0.77642186  0.10853720  1
  O2-  O167  1  0.51603393  0.77834059  0.61943578  1
  O2-  O168  1  0.25956057  -0.01986697  0.36549234  1
  O2-  O169  1  0.27434475  -0.00774082  0.88956044  1
  O2-  O170  1  0.24780159  0.47542982  0.38074467  1
  O2-  O171  1  0.25454111  0.48886494  0.87763338  1
  O2-  O172  1  0.75557941  -0.02366441  0.36960911  1
  O2-  O173  1  0.75911963  -0.01963035  0.88795688  1
  O2-  O174  1  0.73335336  0.49754583  0.38482890  1
  O2-  O175  1  0.73949381  0.47630152  0.88411574  1
  O2-  O176  1  0.03163870  0.24005632  0.38307226  1
  O2-  O177  1  0.03627087  0.23166178  0.88393686  1
  O2-  O178  1  -0.00636558  0.71764137  0.38560352  1
  O2-  O179  1  -0.00649815  0.73257348  0.86857250  1
  O2-  O180  1  0.52914332  0.24414778  0.38635237  1
  O2-  O181  1  0.51301116  0.23863611  0.87532411  1
  O2-  O182  1  0.49289242  0.73203709  0.38715462  1
  O2-  O183  1  0.46481948  0.74172944  0.88519995  1
  O2-  O184  1  0.24868585  0.02185241  0.12464490  1
  O2-  O185  1  0.24607682  0.02958541  0.61618016  1
  O2-  O186  1  0.26149140  0.52551504  0.11080623  1
  O2-  O187  1  0.25298556  0.51857119  0.63598864  1
  O2-  O188  1  0.73595143  0.01666662  0.13078352  1
  O2-  O189  1  0.71991463  0.01445151  0.61206690  1
  O2-  O190  1  0.75085155  0.51980233  0.11604352  1
  O2-  O191  1  0.74236963  0.52142249  0.61676142  1
  O2-  O192  1  0.13927194  0.25573738  0.22055636  1
  O2-  O193  1  0.13956917  0.28215397  0.73870799  1
  O2-  O194  1  0.13906549  0.78492745  0.25924546  1
  O2-  O195  1  0.12537796  0.76479367  0.76479704  1
  O2-  O196  1  0.63374470  0.25669016  0.22330323  1
  O2-  O197  1  0.61550666  0.27001085  0.73807857  1
  O2-  O198  1  0.63394316  0.78668717  0.25737283  1
  O2-  O199  1  0.63624306  0.78643602  0.76051953  1
  O2-  O200  1  0.36498869  0.21713427  0.26131840  1
  O2-  O201  1  0.37482904  0.24185513  0.77460354  1
  O2-  O202  1  0.36522989  0.73999456  0.21660464  1
  O2-  O203  1  0.36433368  0.72409606  0.73520792  1
  O2-  O204  1  0.86673044  0.22129665  0.26893757  1
  O2-  O205  1  0.87058420  0.23041500  0.77630227  1
  O2-  O206  1  0.86310835  0.73991662  0.24433676  1
  O2-  O207  1  0.88157375  0.72888665  0.73649527  1
  O2-  O208  1  0.27884510  0.36481384  0.22981187  1
  O2-  O209  1  0.27365187  0.38237231  0.74289454  1
  O2-  O210  1  0.27005502  0.88259250  0.22379980  1
  O2-  O211  1  0.27089078  0.86377784  0.73484342  1
  O2-  O212  1  0.77227722  0.36378448  0.23137137  1
  O2-  O213  1  0.76756438  0.36312787  0.71778200  1
  O2-  O214  1  0.77014487  0.88058662  0.23106570  1
  O2-  O215  1  0.77991845  0.86974664  0.72564049  1
  O2-  O216  1  0.23309984  0.11786979  0.26285491  1
  O2-  O217  1  0.23014796  0.13924507  0.78240246  1
  O2-  O218  1  0.22548694  0.63691962  0.26002876  1
  O2-  O219  1  0.23596653  0.62191612  0.77193754  1
  O2-  O220  1  0.73291070  0.11533102  0.26887253  1
  O2-  O221  1  0.72550439  0.13541038  0.77740852  1
  O2-  O222  1  0.72013381  0.63525647  0.26883287  1
  O2-  O223  1  0.72947316  0.63952317  0.76222891  1
  O2-  O224  1  0.11700195  0.47261587  0.24107678  1
  O2-  O225  1  0.13168075  0.48380031  0.75403472  1
  O2-  O226  1  0.12994060  0.98037094  0.25103762  1
  O2-  O227  1  0.12034097  0.97340133  0.76005681  1
  O2-  O228  1  0.61352726  0.46635318  0.23695350  1
  O2-  O229  1  0.61411359  0.47569399  0.75499111  1
  O2-  O230  1  0.62544159  0.97907641  0.25527213  1
  O2-  O231  1  0.61068833  0.99140472  0.77024879  1
  O2-  O232  1  0.37780841  0.01849976  0.24540661  1
  O2-  O233  1  0.38532583  0.03799994  0.74655414  1
  O2-  O234  1  0.38285383  0.53380053  0.25795486  1
  O2-  O235  1  0.37481385  0.51844544  0.76054082  1
  O2-  O236  1  0.87278864  0.01696289  0.24301582  1
  O2-  O237  1  0.88497243  0.02611308  0.74157899  1
  O2-  O238  1  0.88131343  0.53197922  0.25595854  1
  O2-  O239  1  0.88427314  0.53203462  0.74774039  1
  O2-  O240  1  0.46628630  0.38509799  0.26059256  1
  O2-  O241  1  0.48028024  0.37256848  0.76806825  1
  O2-  O242  1  0.48455884  0.88617819  0.27681637  1
  O2-  O243  1  0.46836237  0.88835669  0.76467573  1
  O2-  O244  1  0.97502660  0.38149123  0.26908728  1
  O2-  O245  1  0.97996455  0.38887051  0.78171868  1
  O2-  O246  1  0.98603457  0.88364436  0.28484912  1
  O2-  O247  1  0.98712145  0.86782516  0.76488186  1
  O2-  O248  1  0.01798967  0.10971683  0.21744215  1
  O2-  O249  1  0.03125289  0.11702611  0.72618392  1
  O2-  O250  1  0.02486563  0.61766332  0.22616422  1
  O2-  O251  1  0.02524385  0.63124022  0.73053106  1
  O2-  O252  1  0.52396729  0.11185696  0.23961742  1
  O2-  O253  1  0.51708470  0.13180886  0.74101317  1
  O2-  O254  1  0.52500963  0.61530459  0.22261164  1
  O2-  O255  1  0.52140290  0.61474464  0.74218059  1
  O2-  O256  1  0.13934239  0.47495428  0.00453720  1
  O2-  O257  1  0.13274620  0.48052004  0.50946151  1
  O2-  O258  1  0.13946883  0.98675390  -0.00529898  1
  O2-  O259  1  0.13650846  0.97104284  0.49549067  1
  O2-  O260  1  0.61391214  0.48243966  0.00684005  1
  O2-  O261  1  0.63067484  0.46447118  0.50638364  1
  O2-  O262  1  0.61265134  0.97784574  0.00010573  1
  O2-  O263  1  0.61932879  0.97681337  0.48671160  1
  O2-  O264  1  0.37894608  0.02405522  0.01723877  1
  O2-  O265  1  0.38114649  0.01957523  0.50290812  1
  O2-  O266  1  0.37752106  0.52494153  -0.01030057  1
  O2-  O267  1  0.36534101  0.53300078  0.49713753  1
  O2-  O268  1  0.86430247  0.02911851  0.01322623  1
  O2-  O269  1  0.86095973  0.01631749  0.51081689  1
  O2-  O270  1  0.86884955  0.53282786  -0.01176357  1
  O2-  O271  1  0.86183648  0.53276157  0.49715605  1
  O2-  O272  1  0.47611330  0.37677523  -0.01337473  1
  O2-  O273  1  0.46690653  0.36291616  0.48994833  1
  O2-  O274  1  0.47260180  0.88162721  -0.01545734  1
  O2-  O275  1  0.48260588  0.88115903  0.48832818  1
  O2-  O276  1  0.98802640  0.36441227  -0.02570155  1
  O2-  O277  1  0.97903645  0.36708984  0.48200534  1
  O2-  O278  1  0.98452283  0.86416159  -0.02837105  1
  O2-  O279  1  0.96786391  0.86267069  0.48336256  1
  O2-  O280  1  0.02932457  0.13242583  0.01959963  1
  O2-  O281  1  0.02159748  0.13054225  0.52260321  1
  O2-  O282  1  0.03664631  0.63745488  0.00926449  1
  O2-  O283  1  0.00648219  0.63826313  0.53441851  1
  O2-  O284  1  0.51583986  0.12624675  0.01101986  1
  O2-  O285  1  0.52389947  0.11691945  0.52015992  1
  O2-  O286  1  0.51442619  0.62803690  0.01158458  1
  O2-  O287  1  0.52885186  0.63321023  0.52316637  1
  O2-  O288  1  0.13877555  0.27268646  0.01502277  1
  O2-  O289  1  0.12052063  0.26813813  0.52701403  1
  O2-  O290  1  0.13194666  0.77544805  -0.01412102  1
  O2-  O291  1  0.11489842  0.77730268  0.48931950  1
  O2-  O292  1  0.60976948  0.27565035  0.01138434  1
  O2-  O293  1  0.61129025  0.26298040  0.53655044  1
  O2-  O294  1  0.61134748  0.76800404  -0.03047782  1
  O2-  O295  1  0.62514055  0.77485008  0.49281804  1
  O2-  O296  1  0.37680422  0.23954657  -0.02405068  1
  O2-  O297  1  0.38897294  0.21243670  0.49024918  1
  O2-  O298  1  0.36639222  0.73845346  0.01774687  1
  O2-  O299  1  0.38634280  0.73287146  0.52320033  1
  O2-  O300  1  0.88421377  0.22285796  -0.02520417  1
  O2-  O301  1  0.88425056  0.22317158  0.47765554  1
  O2-  O302  1  0.88582653  0.72442730  0.01214522  1
  O2-  O303  1  0.86544882  0.73543794  0.50810665  1
  O2-  O304  1  0.28111719  0.37935997  0.01192266  1
  O2-  O305  1  0.27483162  0.38612359  0.52508795  1
  O2-  O306  1  0.27128639  0.87880403  0.01732428  1
  O2-  O307  1  0.28309935  0.88664648  0.51296213  1
  O2-  O308  1  0.77254187  0.38444726  0.02123620  1
  O2-  O309  1  0.78175429  0.38122156  0.51104465  1
  O2-  O310  1  0.75567613  0.88512627  0.02884717  1
  O2-  O311  1  0.75974897  0.87540802  0.51216515  1
  O2-  O312  1  0.23927586  0.13204606  -0.01530381  1
  O2-  O313  1  0.23630998  0.11276646  0.46873524  1
  O2-  O314  1  0.23393459  0.62844296  -0.01890203  1
  O2-  O315  1  0.22144992  0.61716461  0.48255395  1
  O2-  O316  1  0.71190161  0.11219956  -0.01063180  1
  O2-  O317  1  0.72781396  0.11142878  0.46791559  1
  O2-  O318  1  0.71789565  0.61550799  -0.01841997  1
  O2-  O319  1  0.72199021  0.63426036  0.49169992  1
