# generated using pymatgen
data_Sr64Ca21Nb43O192
_symmetry_space_group_name_H-M   'P 1'
_cell_length_a   16.56654577
_cell_length_b   16.58739187
_cell_length_c   16.73636216
_cell_angle_alpha   90.01398084
_cell_angle_beta   89.99990426
_cell_angle_gamma   90.01051566
_symmetry_Int_Tables_number   1
_chemical_formula_structural   Sr64Ca21Nb43O192
_chemical_formula_sum   'Sr64 Ca21 Nb43 O192'
_cell_volume   4599.08159103
_cell_formula_units_Z   1
loop_
 _symmetry_equiv_pos_site_id
 _symmetry_equiv_pos_as_xyz
  1  'x, y, z'
loop_
 _atom_type_symbol
 _atom_type_oxidation_number
  Sr2+  2.0
  Ca2+  2.0
  Nb5+  5.0
  O2-  -2.0
loop_
 _atom_site_type_symbol
 _atom_site_label
 _atom_site_symmetry_multiplicity
 _atom_site_fract_x
 _atom_site_fract_y
 _atom_site_fract_z
 _atom_site_occupancy
  Sr2+  Sr0  1  0.12355609  0.13111741  0.12636648  1
  Sr2+  Sr1  1  0.11920776  0.13824193  0.62440056  1
  Sr2+  Sr2  1  0.12811138  0.60795883  0.12978790  1
  Sr2+  Sr3  1  0.12729346  0.64311611  0.62863554  1
  Sr2+  Sr4  1  0.62428497  0.13002209  0.12521623  1
  Sr2+  Sr5  1  0.62463871  0.13090747  0.63877371  1
  Sr2+  Sr6  1  0.62661716  0.63839480  0.12363853  1
  Sr2+  Sr7  1  0.63724627  0.62914580  0.62557591  1
  Sr2+  Sr8  1  0.36039315  0.39012032  0.12144038  1
  Sr2+  Sr9  1  0.36359072  0.39084847  0.62795082  1
  Sr2+  Sr10  1  0.37313249  0.87469994  0.12977690  1
  Sr2+  Sr11  1  0.37174745  0.87257695  0.62568364  1
  Sr2+  Sr12  1  0.88748527  0.39468168  0.12387222  1
  Sr2+  Sr13  1  0.88316178  0.39550153  0.62841437  1
  Sr2+  Sr14  1  0.87830217  0.87588173  0.11819818  1
  Sr2+  Sr15  1  0.87699838  0.87663206  0.62762109  1
  Sr2+  Sr16  1  0.11582620  0.36844748  0.37298280  1
  Sr2+  Sr17  1  0.13260833  0.36300003  0.87078522  1
  Sr2+  Sr18  1  0.12753659  0.87279850  0.37174335  1
  Sr2+  Sr19  1  0.12043677  0.87139323  0.88534917  1
  Sr2+  Sr20  1  0.61811826  0.37278219  0.37605627  1
  Sr2+  Sr21  1  0.61998636  0.37486434  0.86927824  1
  Sr2+  Sr22  1  0.62079224  0.87330889  0.37140293  1
  Sr2+  Sr23  1  0.62854391  0.88086979  0.87504735  1
  Sr2+  Sr24  1  0.38275111  0.12166625  0.37424809  1
  Sr2+  Sr25  1  0.39104962  0.12905465  0.87749570  1
  Sr2+  Sr26  1  0.38578081  0.62134322  0.37031012  1
  Sr2+  Sr27  1  0.38909012  0.61671259  0.87163155  1
  Sr2+  Sr28  1  0.85531932  0.12068850  0.37304680  1
  Sr2+  Sr29  1  0.86294964  0.11883758  0.87118368  1
  Sr2+  Sr30  1  0.86650149  0.61291284  0.37975718  1
  Sr2+  Sr31  1  0.86302993  0.62026102  0.88066720  1
  Sr2+  Sr32  1  0.12458550  0.12140236  0.36865872  1
  Sr2+  Sr33  1  0.12348829  0.12188658  0.86772535  1
  Sr2+  Sr34  1  0.12731536  0.62521060  0.37696624  1
  Sr2+  Sr35  1  0.12432373  0.62144863  0.87291499  1
  Sr2+  Sr36  1  0.62398195  0.14239484  0.38440284  1
  Sr2+  Sr37  1  0.62734335  0.15308687  0.87197481  1
  Sr2+  Sr38  1  0.62692266  0.61387882  0.36926943  1
  Sr2+  Sr39  1  0.62782663  0.61758678  0.87692189  1
  Sr2+  Sr40  1  0.37642686  0.37733295  0.38315089  1
  Sr2+  Sr41  1  0.37796230  0.37672426  0.88353250  1
  Sr2+  Sr42  1  0.37941829  0.87141178  0.37211704  1
  Sr2+  Sr43  1  0.37745398  0.85715894  0.87993751  1
  Sr2+  Sr44  1  0.86821128  0.37374190  0.37088466  1
  Sr2+  Sr45  1  0.86968366  0.37874187  0.87805541  1
  Sr2+  Sr46  1  0.86472047  0.86655424  0.37814185  1
  Sr2+  Sr47  1  0.87185346  0.86264179  0.88018557  1
  Sr2+  Sr48  1  0.12362410  0.37333188  0.12492608  1
  Sr2+  Sr49  1  0.12148192  0.37494851  0.61581891  1
  Sr2+  Sr50  1  0.12493825  0.88786357  0.12656249  1
  Sr2+  Sr51  1  0.12096548  0.87724235  0.61925246  1
  Sr2+  Sr52  1  0.61340162  0.38830674  0.12066445  1
  Sr2+  Sr53  1  0.62101186  0.39017384  0.62975542  1
  Sr2+  Sr54  1  0.64643744  0.87228453  0.12858095  1
  Sr2+  Sr55  1  0.61586253  0.88248271  0.62546873  1
  Sr2+  Sr56  1  0.36862572  0.12491941  0.12281458  1
  Sr2+  Sr57  1  0.37257020  0.12415582  0.62213904  1
  Sr2+  Sr58  1  0.38313716  0.62815267  0.11533628  1
  Sr2+  Sr59  1  0.36582043  0.63318280  0.63175910  1
  Sr2+  Sr60  1  0.87779502  0.12781375  0.12337515  1
  Sr2+  Sr61  1  0.86962925  0.12540275  0.62836895  1
  Sr2+  Sr62  1  0.87623442  0.63407308  0.12168164  1
  Sr2+  Sr63  1  0.89005162  0.62942246  0.63243535  1
  Ca2+  Ca64  1  0.49872527  -0.00053290  0.00051315  1
  Ca2+  Ca65  1  0.00182728  0.49944648  -0.00273232  1
  Ca2+  Ca66  1  0.00073712  0.50023748  0.49969020  1
  Ca2+  Ca67  1  0.49984947  0.50255124  0.50366553  1
  Ca2+  Ca68  1  0.50185920  0.49977117  0.00065488  1
  Ca2+  Ca69  1  0.75159151  0.25467764  0.50333782  1
  Ca2+  Ca70  1  0.24851463  0.74976403  0.00446829  1
  Ca2+  Ca71  1  0.74921720  0.75002683  -0.00447647  1
  Ca2+  Ca72  1  0.74915799  0.74913125  0.50213573  1
  Ca2+  Ca73  1  0.75508163  0.25204174  0.00361575  1
  Ca2+  Ca74  1  0.25161674  0.49861751  0.25541047  1
  Ca2+  Ca75  1  0.00360978  0.75390831  0.25034506  1
  Ca2+  Ca76  1  0.24805184  0.49892870  0.75123650  1
  Ca2+  Ca77  1  0.49505769  0.25213607  0.74548852  1
  Ca2+  Ca78  1  0.74910787  0.00321295  0.25118484  1
  Ca2+  Ca79  1  0.00035339  0.75245272  0.75340886  1
  Ca2+  Ca80  1  -0.00159084  0.25173164  0.75065816  1
  Ca2+  Ca81  1  0.24909152  -0.00107267  0.75001827  1
  Ca2+  Ca82  1  0.50384425  0.74888041  0.74507311  1
  Ca2+  Ca83  1  0.49414570  0.24869254  0.24639197  1
  Ca2+  Ca84  1  0.74919281  0.49770884  0.24738806  1
  Nb5+  Nb85  1  -0.00063519  0.00290866  -0.00583641  1
  Nb5+  Nb86  1  -0.00499401  0.00256734  0.49299725  1
  Nb5+  Nb87  1  0.49334585  0.00064203  0.49836123  1
  Nb5+  Nb88  1  0.24903205  0.24665584  -0.00405859  1
  Nb5+  Nb89  1  0.25063793  0.25100202  0.49524828  1
  Nb5+  Nb90  1  0.25220372  0.75706541  0.49698755  1
  Nb5+  Nb91  1  -0.00282665  0.24683809  0.25158156  1
  Nb5+  Nb92  1  0.74852183  0.00216964  0.75106842  1
  Nb5+  Nb93  1  0.49895031  0.75318015  0.25039564  1
  Nb5+  Nb94  1  0.25062165  0.00116928  0.25176325  1
  Nb5+  Nb95  1  0.75075729  0.50543667  0.74911909  1
  Nb5+  Nb96  1  -0.00368373  0.00271133  0.24833828  1
  Nb5+  Nb97  1  0.00195378  -0.00430750  0.74329402  1
  Nb5+  Nb98  1  0.00241101  0.50651443  0.25228641  1
  Nb5+  Nb99  1  0.00441417  0.49845576  0.75463550  1
  Nb5+  Nb100  1  0.50326529  0.00032838  0.24955217  1
  Nb5+  Nb101  1  0.49614668  -0.00167573  0.75352466  1
  Nb5+  Nb102  1  0.49674243  0.49590219  0.24747424  1
  Nb5+  Nb103  1  0.49837865  0.50234509  0.74533705  1
  Nb5+  Nb104  1  0.25203300  0.24935745  0.24725766  1
  Nb5+  Nb105  1  0.25077915  0.24769030  0.74166523  1
  Nb5+  Nb106  1  0.24942935  0.74796401  0.24957004  1
  Nb5+  Nb107  1  0.24847059  0.75259208  0.75781899  1
  Nb5+  Nb108  1  0.74216660  0.25424420  0.24709824  1
  Nb5+  Nb109  1  0.75395799  0.25912781  0.74710026  1
  Nb5+  Nb110  1  0.75807524  0.74842457  0.25246993  1
  Nb5+  Nb111  1  0.75156738  0.75667292  0.74608944  1
  Nb5+  Nb112  1  -0.00397757  0.24512295  0.49615677  1
  Nb5+  Nb113  1  0.00110964  0.24691116  0.99727527  1
  Nb5+  Nb114  1  0.00059998  0.74824335  0.49532900  1
  Nb5+  Nb115  1  0.00648377  0.74534228  1.00310320  1
  Nb5+  Nb116  1  0.49658071  0.25239730  0.50385864  1
  Nb5+  Nb117  1  0.50271207  0.25012148  1.00427228  1
  Nb5+  Nb118  1  0.50096707  0.74985658  0.49683400  1
  Nb5+  Nb119  1  0.50181370  0.75498691  0.99359412  1
  Nb5+  Nb120  1  0.25069495  0.00313326  -0.00327203  1
  Nb5+  Nb121  1  0.24494306  0.00208432  0.50017025  1
  Nb5+  Nb122  1  0.24596013  0.50416619  -0.00226148  1
  Nb5+  Nb123  1  0.24911608  0.51009780  0.50103459  1
  Nb5+  Nb124  1  0.74743928  0.00189557  0.00157494  1
  Nb5+  Nb125  1  0.74060214  -0.00309327  0.49964852  1
  Nb5+  Nb126  1  0.74862310  0.49849503  0.00641081  1
  Nb5+  Nb127  1  0.75166402  0.49726863  0.49999818  1
  O2-  O128  1  0.00137180  -0.00729522  0.13043096  1
  O2-  O129  1  0.00175551  -0.01095966  0.62362788  1
  O2-  O130  1  0.02241350  0.48274875  0.13543764  1
  O2-  O131  1  0.01226344  0.47614855  0.63445492  1
  O2-  O132  1  0.48995292  0.01922121  0.13714851  1
  O2-  O133  1  0.50738305  0.01884701  0.61387226  1
  O2-  O134  1  0.52825665  0.52409787  0.13642422  1
  O2-  O135  1  0.53189647  0.52475948  0.63364892  1
  O2-  O136  1  -0.00008637  0.01803248  0.37728877  1
  O2-  O137  1  0.00160178  0.01314459  0.87807164  1
  O2-  O138  1  -0.02936067  0.50290153  0.36590852  1
  O2-  O139  1  -0.02637820  0.52187486  0.86640325  1
  O2-  O140  1  0.49418859  -0.02040032  0.37693991  1
  O2-  O141  1  0.49103198  -0.03044383  0.86352689  1
  O2-  O142  1  0.47596384  0.48836970  0.36704073  1
  O2-  O143  1  0.48971182  0.47661896  0.86368589  1
  O2-  O144  1  0.25757345  0.25639356  0.13016248  1
  O2-  O145  1  0.26109947  0.25462217  0.62394206  1
  O2-  O146  1  0.27927902  0.75203755  0.13816963  1
  O2-  O147  1  0.27119952  0.75594578  0.61418356  1
  O2-  O148  1  0.75488342  0.21400913  0.13556470  1
  O2-  O149  1  0.75404662  0.22158742  0.63470609  1
  O2-  O150  1  0.76040343  0.73841314  0.13185645  1
  O2-  O151  1  0.78321038  0.73272167  0.63331815  1
  O2-  O152  1  0.23881517  0.23586155  0.37915270  1
  O2-  O153  1  0.23347599  0.23562685  0.88144742  1
  O2-  O154  1  0.23091767  0.74639135  0.37765665  1
  O2-  O155  1  0.22305118  0.75205040  0.86897422  1
  O2-  O156  1  0.74203017  0.27658394  0.36630879  1
  O2-  O157  1  0.74382227  0.26687036  0.86602477  1
  O2-  O158  1  0.73318797  0.77185995  0.36609361  1
  O2-  O159  1  0.71777966  0.76000965  0.86067565  1
  O2-  O160  1  -0.00283356  0.24778934  0.13173653  1
  O2-  O161  1  -0.00621805  0.24928257  0.61197220  1
  O2-  O162  1  -0.02662469  0.76210354  0.11794618  1
  O2-  O163  1  -0.01081092  0.77310142  0.61116031  1
  O2-  O164  1  0.49310533  0.21013781  0.11564771  1
  O2-  O165  1  0.49225974  0.21200133  0.61318992  1
  O2-  O166  1  0.47993981  0.74079004  0.13554460  1
  O2-  O167  1  0.47442876  0.73684403  0.60819388  1
  O2-  O168  1  0.24832766  0.01227072  0.37686989  1
  O2-  O169  1  0.23241689  0.01272229  0.88519865  1
  O2-  O170  1  0.28415459  0.50459742  0.38900718  1
  O2-  O171  1  0.27731803  0.50884007  0.88441409  1
  O2-  O172  1  0.75849713  -0.02079940  0.38582039  1
  O2-  O173  1  0.76142463  -0.02087344  0.86735326  1
  O2-  O174  1  0.76992012  0.49284085  0.38365227  1
  O2-  O175  1  0.76813433  0.48857202  0.86613464  1
  O2-  O176  1  0.02165285  0.23494598  0.37237654  1
  O2-  O177  1  0.02753871  0.24144148  0.88639777  1
  O2-  O178  1  0.03698869  0.75091587  0.38401915  1
  O2-  O179  1  0.03272443  0.74785526  0.88541557  1
  O2-  O180  1  0.49418185  0.26601291  0.38359630  1
  O2-  O181  1  0.49545907  0.27370724  0.88453895  1
  O2-  O182  1  0.50375821  0.77827047  0.37400687  1
  O2-  O183  1  0.51743403  0.77639867  0.88172774  1
  O2-  O184  1  0.24817703  -0.00636699  0.13227004  1
  O2-  O185  1  0.25030154  -0.01955256  0.61297690  1
  O2-  O186  1  0.22837119  0.48320321  0.11813698  1
  O2-  O187  1  0.22628429  0.48074231  0.61514538  1
  O2-  O188  1  0.74926058  0.02247693  0.11430658  1
  O2-  O189  1  0.74254561  0.01351058  0.62636538  1
  O2-  O190  1  0.71908208  0.50841771  0.11606973  1
  O2-  O191  1  0.73193876  0.50323307  0.62876343  1
  O2-  O192  1  0.12937090  0.26399767  0.24440326  1
  O2-  O193  1  0.13388972  0.28098015  0.73587889  1
  O2-  O194  1  0.13940902  0.78463888  0.23633610  1
  O2-  O195  1  0.13648492  0.77316718  0.72179302  1
  O2-  O196  1  0.63020348  0.28010902  0.23513366  1
  O2-  O197  1  0.63347734  0.26104519  0.74329297  1
  O2-  O198  1  0.61431101  0.77308021  0.23905319  1
  O2-  O199  1  0.63696589  0.75823104  0.70943528  1
  O2-  O200  1  0.36196387  0.21305612  0.25672782  1
  O2-  O201  1  0.36327141  0.21252734  0.75576449  1
  O2-  O202  1  0.37097789  0.74326113  0.27610528  1
  O2-  O203  1  0.36720503  0.72512584  0.76633721  1
  O2-  O204  1  0.88442307  0.22365027  0.26243484  1
  O2-  O205  1  0.86553282  0.21986895  0.75940731  1
  O2-  O206  1  0.86890038  0.72594476  0.27344742  1
  O2-  O207  1  0.86424219  0.73152576  0.77875506  1
  O2-  O208  1  0.27592703  0.36091300  0.26537774  1
  O2-  O209  1  0.27885680  0.36068897  0.76819380  1
  O2-  O210  1  0.26782617  0.88308841  0.26306283  1
  O2-  O211  1  0.28419851  0.86655065  0.75527856  1
  O2-  O212  1  0.78589069  0.36204340  0.22874158  1
  O2-  O213  1  0.77227991  0.37286444  0.73209296  1
  O2-  O214  1  0.76985439  0.86801542  0.23054769  1
  O2-  O215  1  0.76843495  0.87335950  0.73571715  1
  O2-  O216  1  0.22538972  0.12110355  0.24494607  1
  O2-  O217  1  0.21298154  0.13343763  0.74255222  1
  O2-  O218  1  0.22374808  0.63541795  0.25198870  1
  O2-  O219  1  0.22935344  0.63442479  0.73768474  1
  O2-  O220  1  0.73025425  0.13649774  0.27983949  1
  O2-  O221  1  0.73067778  0.11558185  0.76693184  1
  O2-  O222  1  0.72224398  0.63541295  0.25689572  1
  O2-  O223  1  0.73164189  0.61979305  0.75797004  1
  O2-  O224  1  0.11702173  0.47746015  0.27525782  1
  O2-  O225  1  0.11573878  0.48318587  0.78121436  1
  O2-  O226  1  0.12529353  0.98363771  0.25811820  1
  O2-  O227  1  0.11263214  0.96522385  0.75266412  1
  O2-  O228  1  0.61384454  0.48614673  0.27715746  1
  O2-  O229  1  0.63301489  0.47607864  0.76151168  1
  O2-  O230  1  0.61452679  0.97081694  0.24570637  1
  O2-  O231  1  0.63150108  0.97386788  0.75001760  1
  O2-  O232  1  0.36847581  0.01988618  0.25569898  1
  O2-  O233  1  0.38508325  0.02663557  0.74181696  1
  O2-  O234  1  0.38339878  0.52942020  0.22823448  1
  O2-  O235  1  0.38439814  0.52000318  0.72981497  1
  O2-  O236  1  0.88520089  0.03336052  0.24824512  1
  O2-  O237  1  0.86999052  0.01999456  0.73914672  1
  O2-  O238  1  0.88527018  0.51896158  0.22314481  1
  O2-  O239  1  0.86836881  0.51573324  0.72916274  1
  O2-  O240  1  0.47839067  0.38446001  0.22412097  1
  O2-  O241  1  0.48957996  0.38453732  0.71623784  1
  O2-  O242  1  0.47160660  0.87773994  0.24291161  1
  O2-  O243  1  0.49153533  0.88605911  0.71506170  1
  O2-  O244  1  0.98607395  0.36358828  0.26165505  1
  O2-  O245  1  0.97064007  0.38381681  0.76640949  1
  O2-  O246  1  0.97729917  0.89014046  0.26775693  1
  O2-  O247  1  0.96414429  0.88645016  0.76400246  1
  O2-  O248  1  0.02838268  0.12425890  0.24571068  1
  O2-  O249  1  0.01905551  0.11253302  0.74476616  1
  O2-  O250  1  0.02920548  0.61855288  0.24646279  1
  O2-  O251  1  0.01499125  0.61681516  0.72820038  1
  O2-  O252  1  0.52025479  0.11221925  0.27694257  1
  O2-  O253  1  0.53152383  0.11071824  0.76318949  1
  O2-  O254  1  0.50964656  0.63796128  0.27194931  1
  O2-  O255  1  0.52045330  0.61633081  0.77574506  1
  O2-  O256  1  0.13477036  0.47026805  -0.02517042  1
  O2-  O257  1  0.13655805  0.48506688  0.47123770  1
  O2-  O258  1  0.12146838  0.98587887  0.00748937  1
  O2-  O259  1  0.12722931  0.98237165  0.49462984  1
  O2-  O260  1  0.63537943  0.47127061  -0.02158030  1
  O2-  O261  1  0.63533770  0.46177518  0.49304502  1
  O2-  O262  1  0.63477314  0.97431344  0.00019050  1
  O2-  O263  1  0.62339881  0.98066715  0.49533899  1
  O2-  O264  1  0.36238028  0.03168407  -0.00202874  1
  O2-  O265  1  0.37283301  0.01466012  0.49891953  1
  O2-  O266  1  0.36513090  0.50910782  0.02333202  1
  O2-  O267  1  0.36527052  0.51388429  0.53407892  1
  O2-  O268  1  0.88227414  0.02406658  0.00416683  1
  O2-  O269  1  0.88131144  0.02143804  0.50530921  1
  O2-  O270  1  0.86802410  0.52385368  0.02118389  1
  O2-  O271  1  0.86634569  0.53264933  0.52196798  1
  O2-  O272  1  0.47663520  0.36303655  0.03137113  1
  O2-  O273  1  0.47015718  0.36257335  0.52264767  1
  O2-  O274  1  0.46645913  0.86631283  0.01676829  1
  O2-  O275  1  0.47668914  0.88100062  0.51106239  1
  O2-  O276  1  0.98109759  0.36088593  0.00013408  1
  O2-  O277  1  0.99299470  0.35972239  0.48129062  1
  O2-  O278  1  0.98238111  0.88618570  -0.00851155  1
  O2-  O279  1  0.98905446  0.88455755  0.48349691  1
  O2-  O280  1  0.02409918  0.12178707  0.01371762  1
  O2-  O281  1  0.02789175  0.11923037  0.50556106  1
  O2-  O282  1  0.02920979  0.63370942  0.01695866  1
  O2-  O283  1  0.02342482  0.63654451  0.51233811  1
  O2-  O284  1  0.51461597  0.13300777  -0.03078856  1
  O2-  O285  1  0.50475138  0.11759448  0.47363518  1
  O2-  O286  1  0.52122051  0.63532401  -0.00948017  1
  O2-  O287  1  0.51257458  0.63828088  0.47070074  1
  O2-  O288  1  0.12821464  0.26198933  0.01994571  1
  O2-  O289  1  0.13147687  0.25602148  0.51092623  1
  O2-  O290  1  0.11647344  0.78631110  0.02334887  1
  O2-  O291  1  0.13340860  0.76898900  0.51628884  1
  O2-  O292  1  0.61740807  0.26803899  0.01164126  1
  O2-  O293  1  0.61241027  0.25936583  0.50173559  1
  O2-  O294  1  0.61462002  0.77127301  0.02724278  1
  O2-  O295  1  0.61188410  0.77859167  0.51020402  1
  O2-  O296  1  0.36609583  0.22662742  -0.00427039  1
  O2-  O297  1  0.36713178  0.22281890  0.49343300  1
  O2-  O298  1  0.38281832  0.72507678  -0.02078769  1
  O2-  O299  1  0.36997151  0.74013161  0.47569128  1
  O2-  O300  1  0.88978136  0.21707841  -0.00834079  1
  O2-  O301  1  0.88632952  0.21909567  0.48215632  1
  O2-  O302  1  0.88825776  0.73813378  -0.02396949  1
  O2-  O303  1  0.88808575  0.73824033  0.46960420  1
  O2-  O304  1  0.26665900  0.36393892  -0.00699754  1
  O2-  O305  1  0.26659173  0.36534203  0.49287247  1
  O2-  O306  1  0.26994234  0.88857070  -0.00188898  1
  O2-  O307  1  0.26453428  0.87572823  0.48373824  1
  O2-  O308  1  0.78425033  0.38410853  0.00887066  1
  O2-  O309  1  0.78989996  0.38384766  0.51346677  1
  O2-  O310  1  0.77876660  0.88639694  0.00618572  1
  O2-  O311  1  0.77564226  0.88588075  0.51982289  1
  O2-  O312  1  0.22882330  0.12674359  0.01964561  1
  O2-  O313  1  0.23445925  0.11938267  0.51457187  1
  O2-  O314  1  0.21897944  0.61602104  0.00769023  1
  O2-  O315  1  0.23340503  0.62731223  0.50563465  1
  O2-  O316  1  0.73797602  0.11367313  -0.03276545  1
  O2-  O317  1  0.73798140  0.11371810  0.48489355  1
  O2-  O318  1  0.73613328  0.61502661  -0.02036286  1
  O2-  O319  1  0.71794508  0.61466413  0.49203484  1
