# generated using pymatgen
data_Sr64Ca21Nb43O192
_symmetry_space_group_name_H-M   'P 1'
_cell_length_a   16.58682199
_cell_length_b   16.58688562
_cell_length_c   16.77700638
_cell_angle_alpha   90.01020584
_cell_angle_beta   89.99804003
_cell_angle_gamma   89.99057647
_symmetry_Int_Tables_number   1
_chemical_formula_structural   Sr64Ca21Nb43O192
_chemical_formula_sum   'Sr64 Ca21 Nb43 O192'
_cell_volume   4615.75225390
_cell_formula_units_Z   1
loop_
 _symmetry_equiv_pos_site_id
 _symmetry_equiv_pos_as_xyz
  1  'x, y, z'
loop_
 _atom_type_symbol
 _atom_type_oxidation_number
  Sr2+  2.0
  Ca2+  2.0
  Nb5+  5.0
  O2-  -2.0
loop_
 _atom_site_type_symbol
 _atom_site_label
 _atom_site_symmetry_multiplicity
 _atom_site_fract_x
 _atom_site_fract_y
 _atom_site_fract_z
 _atom_site_occupancy
  Sr2+  Sr0  1  0.12336937  0.11368129  0.12285102  1
  Sr2+  Sr1  1  0.12643517  0.10489261  0.62530503  1
  Sr2+  Sr2  1  0.12720717  0.60356903  0.11906185  1
  Sr2+  Sr3  1  0.12438344  0.60286904  0.62722865  1
  Sr2+  Sr4  1  0.63438352  0.10918285  0.12833154  1
  Sr2+  Sr5  1  0.62915578  0.11280062  0.61904591  1
  Sr2+  Sr6  1  0.62871636  0.63979752  0.12844103  1
  Sr2+  Sr7  1  0.63405529  0.62388870  0.62240940  1
  Sr2+  Sr8  1  0.37219303  0.36774037  0.13943026  1
  Sr2+  Sr9  1  0.37624569  0.36869917  0.62328850  1
  Sr2+  Sr10  1  0.37290633  0.87172227  0.13023268  1
  Sr2+  Sr11  1  0.37515449  0.87543994  0.62410061  1
  Sr2+  Sr12  1  0.88709504  0.37149949  0.12000911  1
  Sr2+  Sr13  1  0.87460933  0.37599628  0.63992777  1
  Sr2+  Sr14  1  0.88525681  0.87307618  0.12876064  1
  Sr2+  Sr15  1  0.88415753  0.88487933  0.61341402  1
  Sr2+  Sr16  1  0.11976975  0.37615786  0.37639938  1
  Sr2+  Sr17  1  0.10668101  0.38197403  0.87286124  1
  Sr2+  Sr18  1  0.10632958  0.85818813  0.38019790  1
  Sr2+  Sr19  1  0.12231221  0.86937972  0.87484154  1
  Sr2+  Sr20  1  0.60760743  0.38386861  0.37574451  1
  Sr2+  Sr21  1  0.62297879  0.37417385  0.87719607  1
  Sr2+  Sr22  1  0.61800348  0.86956909  0.36505848  1
  Sr2+  Sr23  1  0.62140110  0.86769626  0.87716431  1
  Sr2+  Sr24  1  0.37119222  0.12073463  0.37498934  1
  Sr2+  Sr25  1  0.37719754  0.12202931  0.87218195  1
  Sr2+  Sr26  1  0.38230909  0.61832529  0.37210133  1
  Sr2+  Sr27  1  0.37574811  0.62403604  0.87940982  1
  Sr2+  Sr28  1  0.86456814  0.13786079  0.37148141  1
  Sr2+  Sr29  1  0.85817898  0.13272647  0.88011245  1
  Sr2+  Sr30  1  0.87865704  0.62640468  0.37425142  1
  Sr2+  Sr31  1  0.85580446  0.61892740  0.87486491  1
  Sr2+  Sr32  1  0.12723282  0.13824650  0.37179720  1
  Sr2+  Sr33  1  0.12164677  0.11918032  0.88101319  1
  Sr2+  Sr34  1  0.11579068  0.61845604  0.38663910  1
  Sr2+  Sr35  1  0.12990289  0.61625810  0.88171831  1
  Sr2+  Sr36  1  0.62402034  0.11115503  0.36611575  1
  Sr2+  Sr37  1  0.61984065  0.13761462  0.88247063  1
  Sr2+  Sr38  1  0.61775356  0.62386272  0.37056387  1
  Sr2+  Sr39  1  0.61059711  0.62817176  0.87391707  1
  Sr2+  Sr40  1  0.36860148  0.36065357  0.38039272  1
  Sr2+  Sr41  1  0.38129734  0.35722976  0.86827482  1
  Sr2+  Sr42  1  0.37901580  0.84873269  0.37276676  1
  Sr2+  Sr43  1  0.37479013  0.85276528  0.87683762  1
  Sr2+  Sr44  1  0.88366371  0.38373926  0.36188011  1
  Sr2+  Sr45  1  0.86537453  0.37600848  0.88317006  1
  Sr2+  Sr46  1  0.86265692  0.86948654  0.37310174  1
  Sr2+  Sr47  1  0.87519629  0.87488524  0.87652874  1
  Sr2+  Sr48  1  0.11789483  0.37337212  0.14044094  1
  Sr2+  Sr49  1  0.12805322  0.37316352  0.62436918  1
  Sr2+  Sr50  1  0.12786743  0.87029184  0.11673181  1
  Sr2+  Sr51  1  0.11063069  0.86924954  0.63142703  1
  Sr2+  Sr52  1  0.63610169  0.37633945  0.12531870  1
  Sr2+  Sr53  1  0.62799771  0.37295668  0.62744863  1
  Sr2+  Sr54  1  0.65025688  0.87568758  0.13406517  1
  Sr2+  Sr55  1  0.63673186  0.87689501  0.61771752  1
  Sr2+  Sr56  1  0.37123919  0.11196919  0.13071101  1
  Sr2+  Sr57  1  0.37580492  0.11904517  0.62423533  1
  Sr2+  Sr58  1  0.36612241  0.63611645  0.12964136  1
  Sr2+  Sr59  1  0.37238806  0.62716653  0.62211468  1
  Sr2+  Sr60  1  0.88338462  0.12242179  0.12572162  1
  Sr2+  Sr61  1  0.87490065  0.12273313  0.62566622  1
  Sr2+  Sr62  1  0.87209707  0.62349494  0.13420458  1
  Sr2+  Sr63  1  0.87369632  0.63378547  0.62629745  1
  Ca2+  Ca64  1  -0.00270477  0.49590567  0.50417961  1
  Ca2+  Ca65  1  -0.00108078  0.50084383  -0.00265569  1
  Ca2+  Ca66  1  0.50209085  0.00005178  -0.00231114  1
  Ca2+  Ca67  1  0.49793643  0.49785528  0.00046784  1
  Ca2+  Ca68  1  0.00521709  0.00255995  0.49272375  1
  Ca2+  Ca69  1  0.24944449  0.24793285  -0.00319230  1
  Ca2+  Ca70  1  0.74651989  0.74803718  0.49968465  1
  Ca2+  Ca71  1  0.74729119  0.25512037  0.49924473  1
  Ca2+  Ca72  1  0.75207226  0.74801958  0.00137699  1
  Ca2+  Ca73  1  0.24633372  0.74902381  0.50286910  1
  Ca2+  Ca74  1  0.74763205  0.49681976  0.25195527  1
  Ca2+  Ca75  1  0.49914488  0.74673587  0.24758017  1
  Ca2+  Ca76  1  0.24532059  -0.00591412  0.25579654  1
  Ca2+  Ca77  1  0.75869603  -0.00014705  0.25056992  1
  Ca2+  Ca78  1  0.00154081  0.24871327  0.75284397  1
  Ca2+  Ca79  1  0.74870328  0.00220185  0.75102486  1
  Ca2+  Ca80  1  -0.00265739  0.74800927  0.75070068  1
  Ca2+  Ca81  1  0.25159503  0.50270838  0.25250771  1
  Ca2+  Ca82  1  0.50119061  0.75106785  0.74636431  1
  Ca2+  Ca83  1  0.50026943  0.24922397  0.25339059  1
  Ca2+  Ca84  1  0.00435100  0.74988338  0.24732048  1
  Nb5+  Nb85  1  0.49655673  -0.00494186  0.49902863  1
  Nb5+  Nb86  1  0.49917161  0.49384298  0.50302693  1
  Nb5+  Nb87  1  -0.00292422  -0.00278770  -0.00046762  1
  Nb5+  Nb88  1  0.24601622  0.74733483  -0.00194890  1
  Nb5+  Nb89  1  0.25012576  0.24911715  0.50456558  1
  Nb5+  Nb90  1  0.74795690  0.24931630  0.00562536  1
  Nb5+  Nb91  1  0.50045617  0.24824381  0.74503861  1
  Nb5+  Nb92  1  -0.00085484  0.24605689  0.24923737  1
  Nb5+  Nb93  1  0.73953743  0.50147915  0.75251902  1
  Nb5+  Nb94  1  0.25397991  -0.00645031  0.74987045  1
  Nb5+  Nb95  1  0.25108180  0.49288913  0.75232594  1
  Nb5+  Nb96  1  0.00563640  -0.00103935  0.25557791  1
  Nb5+  Nb97  1  -0.00467909  0.00788927  0.75279159  1
  Nb5+  Nb98  1  0.00380788  0.50435294  0.24834365  1
  Nb5+  Nb99  1  -0.01131030  0.50138085  0.75149565  1
  Nb5+  Nb100  1  0.49669996  -0.00028746  0.24486818  1
  Nb5+  Nb101  1  0.49935509  -0.00091049  0.74711082  1
  Nb5+  Nb102  1  0.49884344  0.49419091  0.23995114  1
  Nb5+  Nb103  1  0.49523693  0.50187987  0.74781589  1
  Nb5+  Nb104  1  0.24723741  0.24863434  0.24307865  1
  Nb5+  Nb105  1  0.24961413  0.24546753  0.74840825  1
  Nb5+  Nb106  1  0.24411795  0.74895485  0.25640164  1
  Nb5+  Nb107  1  0.24934086  0.74095129  0.74852821  1
  Nb5+  Nb108  1  0.74696955  0.25603180  0.25533404  1
  Nb5+  Nb109  1  0.74774440  0.24834694  0.74858254  1
  Nb5+  Nb110  1  0.75288128  0.74542722  0.25319041  1
  Nb5+  Nb111  1  0.75385488  0.76114843  0.74899568  1
  Nb5+  Nb112  1  -0.00289373  0.24909787  0.50405383  1
  Nb5+  Nb113  1  0.00081771  0.24722131  0.99472194  1
  Nb5+  Nb114  1  -0.00219423  0.74765352  0.50184995  1
  Nb5+  Nb115  1  -0.00067121  0.74329609  0.99826510  1
  Nb5+  Nb116  1  0.50001281  0.24532994  0.50120173  1
  Nb5+  Nb117  1  0.49972532  0.25078654  1.01162637  1
  Nb5+  Nb118  1  0.49874219  0.73935059  0.50270037  1
  Nb5+  Nb119  1  0.50392566  0.75333363  1.00476180  1
  Nb5+  Nb120  1  0.25346013  -0.00016701  -0.00161921  1
  Nb5+  Nb121  1  0.25291410  -0.00408005  0.50066008  1
  Nb5+  Nb122  1  0.25755031  0.48973930  0.00075224  1
  Nb5+  Nb123  1  0.25207527  0.50040653  0.50117598  1
  Nb5+  Nb124  1  0.75260404  -0.00542780  0.00030184  1
  Nb5+  Nb125  1  0.75579640  0.00529985  0.49554653  1
  Nb5+  Nb126  1  0.74371156  0.50464839  0.00332485  1
  Nb5+  Nb127  1  0.75162157  0.49631269  0.49998107  1
  O2-  O128  1  -0.02240635  -0.00382253  0.11627291  1
  O2-  O129  1  -0.01215769  0.00437730  0.63304321  1
  O2-  O130  1  0.01071554  0.48289508  0.12977941  1
  O2-  O131  1  0.00419599  0.46717482  0.63783516  1
  O2-  O132  1  0.47692361  -0.00805028  0.13255931  1
  O2-  O133  1  0.47790253  -0.00432608  0.62183124  1
  O2-  O134  1  0.49372653  0.46323093  0.13121809  1
  O2-  O135  1  0.49862344  0.48239292  0.62591462  1
  O2-  O136  1  0.04453498  0.00865513  0.36201373  1
  O2-  O137  1  0.01837277  0.00732700  0.87590469  1
  O2-  O138  1  -0.00355667  0.51280079  0.36773102  1
  O2-  O139  1  0.00484838  0.52562754  0.86435288  1
  O2-  O140  1  0.50603307  0.01797709  0.38467031  1
  O2-  O141  1  0.51427588  0.02552047  0.85860751  1
  O2-  O142  1  0.50354748  0.51772378  0.38809623  1
  O2-  O143  1  0.49935759  0.51571799  0.86273679  1
  O2-  O144  1  0.22768610  0.26478782  0.13171597  1
  O2-  O145  1  0.24426504  0.27169322  0.62759147  1
  O2-  O146  1  0.25942870  0.76999595  0.11232452  1
  O2-  O147  1  0.26970644  0.76186147  0.63740528  1
  O2-  O148  1  0.72828114  0.23094281  0.11951504  1
  O2-  O149  1  0.72433831  0.23344900  0.63653002  1
  O2-  O150  1  0.75877713  0.71888013  0.13361741  1
  O2-  O151  1  0.75075006  0.72243651  0.63694685  1
  O2-  O152  1  0.26256920  0.23780612  0.38642918  1
  O2-  O153  1  0.27746740  0.23848201  0.86073251  1
  O2-  O154  1  0.22282328  0.73089221  0.36728647  1
  O2-  O155  1  0.23411390  0.74064390  0.87436500  1
  O2-  O156  1  0.78134512  0.27251840  0.36367342  1
  O2-  O157  1  0.76033399  0.26802796  0.87663550  1
  O2-  O158  1  0.74070134  0.77813057  0.36783693  1
  O2-  O159  1  0.74085335  0.77191189  0.86754727  1
  O2-  O160  1  0.01317782  0.25814488  0.12227702  1
  O2-  O161  1  0.00772974  0.27097704  0.61546876  1
  O2-  O162  1  -0.00262839  0.77225904  0.11212491  1
  O2-  O163  1  -0.01738236  0.77218767  0.61763830  1
  O2-  O164  1  0.51451908  0.27980200  0.11942000  1
  O2-  O165  1  0.50793904  0.27401798  0.62327369  1
  O2-  O166  1  0.46571535  0.75357185  0.11586166  1
  O2-  O167  1  0.47008882  0.75962180  0.61510632  1
  O2-  O168  1  0.23870890  0.02622116  0.39204038  1
  O2-  O169  1  0.24029517  0.01798149  0.86484137  1
  O2-  O170  1  0.25714493  0.51904808  0.38875517  1
  O2-  O171  1  0.26114270  0.51641648  0.86875560  1
  O2-  O172  1  0.73124352  -0.02290035  0.38388595  1
  O2-  O173  1  0.73781908  -0.02448699  0.88404153  1
  O2-  O174  1  0.74962670  0.46381005  0.39020048  1
  O2-  O175  1  0.75190151  0.47817453  0.87034743  1
  O2-  O176  1  -0.01050062  0.23169047  0.36581410  1
  O2-  O177  1  -0.02498130  0.22641113  0.88470581  1
  O2-  O178  1  0.01557199  0.73042753  0.38235585  1
  O2-  O179  1  0.00935857  0.76097118  0.88391872  1
  O2-  O180  1  0.47320041  0.23714226  0.38937653  1
  O2-  O181  1  0.48568431  0.23053065  0.86051118  1
  O2-  O182  1  0.51548408  0.73836757  0.38420362  1
  O2-  O183  1  0.51174447  0.74241449  0.88397179  1
  O2-  O184  1  0.26504312  -0.01153575  0.11189910  1
  O2-  O185  1  0.27257590  -0.00153735  0.62898067  1
  O2-  O186  1  0.24175218  0.48042588  0.11444467  1
  O2-  O187  1  0.25137318  0.48682566  0.63328497  1
  O2-  O188  1  0.76986173  0.02532796  0.11447428  1
  O2-  O189  1  0.75957528  0.02971996  0.61529697  1
  O2-  O190  1  0.74067745  0.52717343  0.11562380  1
  O2-  O191  1  0.74830281  0.52108207  0.63661452  1
  O2-  O192  1  0.12310064  0.26875451  0.26729496  1
  O2-  O193  1  0.14018255  0.27929676  0.76209434  1
  O2-  O194  1  0.13437249  0.79068230  0.24149463  1
  O2-  O195  1  0.13643576  0.77537166  0.74567010  1
  O2-  O196  1  0.63555930  0.27494300  0.27251868  1
  O2-  O197  1  0.61786897  0.26970608  0.76141311  1
  O2-  O198  1  0.63384076  0.76480114  0.23344072  1
  O2-  O199  1  0.63458371  0.78357592  0.74196086  1
  O2-  O200  1  0.36324056  0.23044593  0.22944367  1
  O2-  O201  1  0.37791586  0.24508693  0.72833985  1
  O2-  O202  1  0.36442433  0.72342029  0.26687114  1
  O2-  O203  1  0.36515177  0.73350996  0.77383337  1
  O2-  O204  1  0.88201544  0.23294697  0.23270448  1
  O2-  O205  1  0.86293936  0.23795765  0.73048474  1
  O2-  O206  1  0.87151277  0.72402467  0.25930978  1
  O2-  O207  1  0.86337017  0.71586036  0.76372793  1
  O2-  O208  1  0.26733922  0.36397417  0.26787440  1
  O2-  O209  1  0.27601970  0.38024288  0.75960084  1
  O2-  O210  1  0.28396281  0.86372035  0.25604384  1
  O2-  O211  1  0.27531720  0.88131673  0.76081178  1
  O2-  O212  1  0.77121331  0.36293475  0.21278183  1
  O2-  O213  1  0.75850134  0.37429479  0.73795681  1
  O2-  O214  1  0.77575161  0.86531571  0.22793242  1
  O2-  O215  1  0.78847173  0.86920509  0.72960317  1
  O2-  O216  1  0.22413011  0.13337807  0.24747699  1
  O2-  O217  1  0.23680106  0.13196246  0.73224427  1
  O2-  O218  1  0.22932811  0.63817924  0.21662864  1
  O2-  O219  1  0.23296540  0.62481555  0.73886870  1
  O2-  O220  1  0.73784290  0.13761673  0.26376515  1
  O2-  O221  1  0.72984186  0.13720695  0.77799014  1
  O2-  O222  1  0.73618090  0.62932067  0.28276963  1
  O2-  O223  1  0.72467263  0.61547928  0.77447609  1
  O2-  O224  1  0.11906335  0.47338784  0.25947985  1
  O2-  O225  1  0.13341878  0.48420593  0.75488280  1
  O2-  O226  1  0.11342679  0.98824743  0.20915477  1
  O2-  O227  1  0.13775005  0.98303801  0.73362509  1
  O2-  O228  1  0.61563302  0.46749070  0.25334100  1
  O2-  O229  1  0.62389628  0.47659092  0.74855353  1
  O2-  O230  1  0.61854480  0.98114436  0.23964040  1
  O2-  O231  1  0.61265710  0.98944026  0.72250621  1
  O2-  O232  1  0.38143524  0.02971964  0.26062596  1
  O2-  O233  1  0.37447837  0.03080958  0.75467796  1
  O2-  O234  1  0.38416990  0.52792536  0.24635748  1
  O2-  O235  1  0.37710345  0.52252658  0.74271596  1
  O2-  O236  1  0.89302759  0.03514129  0.26458031  1
  O2-  O237  1  0.88524996  0.03703357  0.76386205  1
  O2-  O238  1  0.88446809  0.50828617  0.24527797  1
  O2-  O239  1  0.87119028  0.51128509  0.74980924  1
  O2-  O240  1  0.47252094  0.38411426  0.28051453  1
  O2-  O241  1  0.48395586  0.37689197  0.75804405  1
  O2-  O242  1  0.48412291  0.88528307  0.27340614  1
  O2-  O243  1  0.47323688  0.88896728  0.75942800  1
  O2-  O244  1  0.98722109  0.36722226  0.25363182  1
  O2-  O245  1  0.98341053  0.38309973  0.78056289  1
  O2-  O246  1  0.97554575  0.88752543  0.26474150  1
  O2-  O247  1  0.98798402  0.89072791  0.75855362  1
  O2-  O248  1  0.02469341  0.13032023  0.23489964  1
  O2-  O249  1  0.04145453  0.11773144  0.74850988  1
  O2-  O250  1  0.02448629  0.61595627  0.23095306  1
  O2-  O251  1  0.01232139  0.61321326  0.72164939  1
  O2-  O252  1  0.52829645  0.11724932  0.24300463  1
  O2-  O253  1  0.51154405  0.13372386  0.72139424  1
  O2-  O254  1  0.52945792  0.61016019  0.23872849  1
  O2-  O255  1  0.52405072  0.61399415  0.73013103  1
  O2-  O256  1  0.14017960  0.48682239  -0.02002954  1
  O2-  O257  1  0.13659823  0.47951114  0.50408943  1
  O2-  O258  1  0.11789539  0.98321501  0.00624504  1
  O2-  O259  1  0.14089057  0.98243835  0.52817358  1
  O2-  O260  1  0.63339742  0.46502590  -0.00211195  1
  O2-  O261  1  0.61717035  0.47625620  0.51003131  1
  O2-  O262  1  0.63807737  0.98516701  0.02154340  1
  O2-  O263  1  0.61337149  0.99175528  0.51646202  1
  O2-  O264  1  0.36494856  0.02351987  -0.01625544  1
  O2-  O265  1  0.37640914  0.03056188  0.49665529  1
  O2-  O266  1  0.36378706  0.53848278  0.00511674  1
  O2-  O267  1  0.37838122  0.51721229  0.51249672  1
  O2-  O268  1  0.87874927  0.01823664  -0.02493356  1
  O2-  O269  1  0.86865597  0.02500132  0.48005870  1
  O2-  O270  1  0.86285178  0.50809490  -0.00296507  1
  O2-  O271  1  0.86353892  0.52341289  0.50581639  1
  O2-  O272  1  0.49008415  0.35882321  -0.03324172  1
  O2-  O273  1  0.47697554  0.37944187  0.48923322  1
  O2-  O274  1  0.47614478  0.86847833  -0.01438469  1
  O2-  O275  1  0.47859518  0.88165051  0.48959960  1
  O2-  O276  1  0.98165229  0.36330549  -0.01363652  1
  O2-  O277  1  0.99021939  0.36106773  0.46733474  1
  O2-  O278  1  0.97732336  0.88142560  -0.00907032  1
  O2-  O279  1  0.97308981  0.86847779  0.47624986  1
  O2-  O280  1  0.01330520  0.12304055  0.01251869  1
  O2-  O281  1  0.03829987  0.13909055  0.50032101  1
  O2-  O282  1  0.03498961  0.63461864  0.00619964  1
  O2-  O283  1  0.02850758  0.63150323  0.51763855  1
  O2-  O284  1  0.53213617  0.13711711  0.00980161  1
  O2-  O285  1  0.51255139  0.13178676  0.51953561  1
  O2-  O286  1  0.52482965  0.63403236  0.01072922  1
  O2-  O287  1  0.51459196  0.62336307  0.52012456  1
  O2-  O288  1  0.11409466  0.26064335  -0.02837066  1
  O2-  O289  1  0.13506014  0.27518200  0.49367054  1
  O2-  O290  1  0.12808606  0.77643455  -0.00054305  1
  O2-  O291  1  0.11538015  0.78283626  0.51021407  1
  O2-  O292  1  0.63041571  0.26550497  -0.01587194  1
  O2-  O293  1  0.61031351  0.27511504  0.48572970  1
  O2-  O294  1  0.61631193  0.77814482  0.02216529  1
  O2-  O295  1  0.61094621  0.77210225  0.51608463  1
  O2-  O296  1  0.38649181  0.22458735  0.01884250  1
  O2-  O297  1  0.37332521  0.24446602  0.52184927  1
  O2-  O298  1  0.36457405  0.73682341  -0.01897203  1
  O2-  O299  1  0.38120188  0.73193943  0.47658274  1
  O2-  O300  1  0.87039988  0.23340253  0.01667709  1
  O2-  O301  1  0.88504690  0.22190553  0.50996959  1
  O2-  O302  1  0.88605921  0.71567984  -0.00730198  1
  O2-  O303  1  0.88049763  0.71979792  0.49146627  1
  O2-  O304  1  0.28879124  0.38154319  -0.01377178  1
  O2-  O305  1  0.27326954  0.37780937  0.49896152  1
  O2-  O306  1  0.25665036  0.88097311  -0.02608481  1
  O2-  O307  1  0.28232277  0.88675139  0.48960736  1
  O2-  O308  1  0.76772606  0.36781751  0.01785093  1
  O2-  O309  1  0.75985273  0.38571634  0.54349631  1
  O2-  O310  1  0.77939654  0.88316863  0.02113068  1
  O2-  O311  1  0.76202036  0.88833847  0.52570430  1
  O2-  O312  1  0.22104551  0.11337422  0.00293562  1
  O2-  O313  1  0.23995045  0.13436176  0.52408158  1
  O2-  O314  1  0.22679430  0.63269127  0.00787822  1
  O2-  O315  1  0.23935700  0.61371576  0.52905063  1
  O2-  O316  1  0.73914052  0.12856277  -0.02110789  1
  O2-  O317  1  0.72395321  0.11995040  0.47652359  1
  O2-  O318  1  0.72484018  0.61355455  -0.02971866  1
  O2-  O319  1  0.71450292  0.60850787  0.48998333  1
