# generated using pymatgen
data_Sr64Ca21Nb43O192
_symmetry_space_group_name_H-M   'P 1'
_cell_length_a   16.55363885
_cell_length_b   16.60123718
_cell_length_c   16.74189781
_cell_angle_alpha   89.96544889
_cell_angle_beta   89.93740318
_cell_angle_gamma   90.01578017
_symmetry_Int_Tables_number   1
_chemical_formula_structural   Sr64Ca21Nb43O192
_chemical_formula_sum   'Sr64 Ca21 Nb43 O192'
_cell_volume   4600.85199192
_cell_formula_units_Z   1
loop_
 _symmetry_equiv_pos_site_id
 _symmetry_equiv_pos_as_xyz
  1  'x, y, z'
loop_
 _atom_type_symbol
 _atom_type_oxidation_number
  Sr2+  2.0
  Ca2+  2.0
  Nb5+  5.0
  O2-  -2.0
loop_
 _atom_site_type_symbol
 _atom_site_label
 _atom_site_symmetry_multiplicity
 _atom_site_fract_x
 _atom_site_fract_y
 _atom_site_fract_z
 _atom_site_occupancy
  Sr2+  Sr0  1  0.12394099  0.14089631  0.13019022  1
  Sr2+  Sr1  1  0.12039138  0.12338225  0.62043949  1
  Sr2+  Sr2  1  0.11812727  0.61131307  0.12334183  1
  Sr2+  Sr3  1  0.11921796  0.63706117  0.62959070  1
  Sr2+  Sr4  1  0.61978562  0.11828523  0.11898053  1
  Sr2+  Sr5  1  0.62472554  0.12526636  0.62813501  1
  Sr2+  Sr6  1  0.62023682  0.62420168  0.12901077  1
  Sr2+  Sr7  1  0.62348944  0.61506847  0.61773982  1
  Sr2+  Sr8  1  0.36358485  0.38417183  0.12903207  1
  Sr2+  Sr9  1  0.37486080  0.38288423  0.62839554  1
  Sr2+  Sr10  1  0.36924706  0.88132767  0.11886942  1
  Sr2+  Sr11  1  0.36138937  0.87052501  0.62813545  1
  Sr2+  Sr12  1  0.87102794  0.38706248  0.11628825  1
  Sr2+  Sr13  1  0.86080512  0.38533598  0.62807789  1
  Sr2+  Sr14  1  0.86563073  0.89217431  0.12505560  1
  Sr2+  Sr15  1  0.87045561  0.87450333  0.62551212  1
  Sr2+  Sr16  1  0.13244395  0.36229236  0.36943210  1
  Sr2+  Sr17  1  0.13328194  0.37502309  0.88718688  1
  Sr2+  Sr18  1  0.12864521  0.88179946  0.37277500  1
  Sr2+  Sr19  1  0.14342174  0.87009610  0.87115155  1
  Sr2+  Sr20  1  0.62324326  0.37129772  0.37291190  1
  Sr2+  Sr21  1  0.61696397  0.36338160  0.88336436  1
  Sr2+  Sr22  1  0.62096844  0.86735553  0.38166064  1
  Sr2+  Sr23  1  0.60387810  0.87704645  0.87053476  1
  Sr2+  Sr24  1  0.37326034  0.11463235  0.37556602  1
  Sr2+  Sr25  1  0.38435807  0.12364239  0.87051161  1
  Sr2+  Sr26  1  0.38449622  0.63106272  0.37008045  1
  Sr2+  Sr27  1  0.37463525  0.62609670  0.89528403  1
  Sr2+  Sr28  1  0.88830930  0.12189817  0.37810227  1
  Sr2+  Sr29  1  0.88552613  0.11567186  0.87926574  1
  Sr2+  Sr30  1  0.87591252  0.62599062  0.36213152  1
  Sr2+  Sr31  1  0.88931293  0.62496587  0.87622523  1
  Sr2+  Sr32  1  0.12962945  0.11854102  0.37533267  1
  Sr2+  Sr33  1  0.13441227  0.11880555  0.87237512  1
  Sr2+  Sr34  1  0.12837825  0.64069786  0.36966449  1
  Sr2+  Sr35  1  0.13478166  0.62414511  0.87823817  1
  Sr2+  Sr36  1  0.62429526  0.12141396  0.37292192  1
  Sr2+  Sr37  1  0.62238368  0.11430302  0.87917606  1
  Sr2+  Sr38  1  0.62752189  0.62033740  0.37101353  1
  Sr2+  Sr39  1  0.62545710  0.64484781  0.87853914  1
  Sr2+  Sr40  1  0.37872205  0.38254406  0.38063180  1
  Sr2+  Sr41  1  0.37693749  0.36281600  0.87392287  1
  Sr2+  Sr42  1  0.37935202  0.87197451  0.36549470  1
  Sr2+  Sr43  1  0.38049346  0.86159203  0.87592456  1
  Sr2+  Sr44  1  0.87250794  0.36158566  0.37351613  1
  Sr2+  Sr45  1  0.88809057  0.36342538  0.87920634  1
  Sr2+  Sr46  1  0.87718042  0.87426896  0.37895413  1
  Sr2+  Sr47  1  0.86896760  0.87275872  0.87299920  1
  Sr2+  Sr48  1  0.10599755  0.37942727  0.12525099  1
  Sr2+  Sr49  1  0.12062506  0.38520750  0.62152970  1
  Sr2+  Sr50  1  0.12144857  0.88227155  0.13043821  1
  Sr2+  Sr51  1  0.11137475  0.87504845  0.62565501  1
  Sr2+  Sr52  1  0.62767731  0.37920176  0.12577261  1
  Sr2+  Sr53  1  0.61582624  0.37621603  0.62954914  1
  Sr2+  Sr54  1  0.61374333  0.87525919  0.09992032  1
  Sr2+  Sr55  1  0.62560215  0.86921213  0.63043975  1
  Sr2+  Sr56  1  0.37718863  0.12884503  0.13832262  1
  Sr2+  Sr57  1  0.37048722  0.13981698  0.62652201  1
  Sr2+  Sr58  1  0.36099704  0.63271353  0.12960157  1
  Sr2+  Sr59  1  0.35281494  0.61455455  0.62264192  1
  Sr2+  Sr60  1  0.86726877  0.13534259  0.11377620  1
  Sr2+  Sr61  1  0.86812016  0.12345174  0.62692348  1
  Sr2+  Sr62  1  0.87088545  0.61855518  0.12283757  1
  Sr2+  Sr63  1  0.87758445  0.63022283  0.62897888  1
  Ca2+  Ca64  1  0.50081819  0.49782214  0.00028306  1
  Ca2+  Ca65  1  0.49328296  0.00267934  -0.00141523  1
  Ca2+  Ca66  1  0.00510317  -0.00302848  -0.00092450  1
  Ca2+  Ca67  1  0.49876148  -0.00027773  0.50414871  1
  Ca2+  Ca68  1  -0.00155951  0.50035239  0.49959357  1
  Ca2+  Ca69  1  0.25137667  0.24629423  0.00036549  1
  Ca2+  Ca70  1  0.24834158  0.75266848  0.49992503  1
  Ca2+  Ca71  1  0.74864525  0.25313152  -0.00306344  1
  Ca2+  Ca72  1  0.75318374  0.74822740  -0.00004555  1
  Ca2+  Ca73  1  0.24577920  0.75275421  0.00337637  1
  Ca2+  Ca74  1  0.25110987  -0.00032934  0.74512637  1
  Ca2+  Ca75  1  -0.00403621  0.24962981  0.25020771  1
  Ca2+  Ca76  1  0.24633732  0.50002589  0.25269727  1
  Ca2+  Ca77  1  0.74950066  0.00214214  0.25282931  1
  Ca2+  Ca78  1  0.49980431  0.25118532  0.25361027  1
  Ca2+  Ca79  1  0.25128216  0.49836555  0.75339999  1
  Ca2+  Ca80  1  0.74524681  0.50119059  0.75307510  1
  Ca2+  Ca81  1  0.50078293  0.74165982  0.74487323  1
  Ca2+  Ca82  1  -0.00304672  0.75142493  0.24717883  1
  Ca2+  Ca83  1  0.50420009  0.75232639  0.24986768  1
  Ca2+  Ca84  1  0.00126342  0.24917802  0.74818948  1
  Nb5+  Nb85  1  -0.00064597  0.00065667  0.49922318  1
  Nb5+  Nb86  1  0.50013679  0.50160571  0.49924542  1
  Nb5+  Nb87  1  -0.00214715  0.50016874  -0.00247792  1
  Nb5+  Nb88  1  0.74367163  0.24679386  0.50331621  1
  Nb5+  Nb89  1  0.24378350  0.25198297  0.50058342  1
  Nb5+  Nb90  1  0.75175119  0.74493583  0.50081633  1
  Nb5+  Nb91  1  0.24817392  0.00057633  0.24836217  1
  Nb5+  Nb92  1  0.75153765  0.00052276  0.75139998  1
  Nb5+  Nb93  1  -0.00021250  0.75293914  0.75301665  1
  Nb5+  Nb94  1  0.74842476  0.49868446  0.25087682  1
  Nb5+  Nb95  1  0.50144534  0.24800554  0.74870982  1
  Nb5+  Nb96  1  -0.00183043  0.00646509  0.24246833  1
  Nb5+  Nb97  1  0.00079129  -0.00211421  0.75281029  1
  Nb5+  Nb98  1  -0.00381177  0.49478602  0.25823999  1
  Nb5+  Nb99  1  -0.00096020  0.49647311  0.74782743  1
  Nb5+  Nb100  1  0.50613436  -0.00401318  0.25226200  1
  Nb5+  Nb101  1  0.49570455  -0.00234296  0.73888049  1
  Nb5+  Nb102  1  0.49710487  0.50024485  0.24803212  1
  Nb5+  Nb103  1  0.50185114  0.50092309  0.75627439  1
  Nb5+  Nb104  1  0.25517267  0.25169272  0.25048399  1
  Nb5+  Nb105  1  0.24496175  0.25205258  0.74688342  1
  Nb5+  Nb106  1  0.24688396  0.74956617  0.24956088  1
  Nb5+  Nb107  1  0.25525422  0.74768368  0.74632183  1
  Nb5+  Nb108  1  0.74807407  0.25038703  0.24731817  1
  Nb5+  Nb109  1  0.75118452  0.24868473  0.75415442  1
  Nb5+  Nb110  1  0.75046236  0.75525616  0.24652135  1
  Nb5+  Nb111  1  0.75123084  0.74813707  0.74777000  1
  Nb5+  Nb112  1  -0.00778142  0.25277806  0.50556153  1
  Nb5+  Nb113  1  0.00481777  0.24380533  0.99501076  1
  Nb5+  Nb114  1  -0.00064938  0.75061205  0.49792109  1
  Nb5+  Nb115  1  0.00086857  0.75140912  1.00536706  1
  Nb5+  Nb116  1  0.49627984  0.24824211  0.49930965  1
  Nb5+  Nb117  1  0.49601511  0.25140676  1.00755631  1
  Nb5+  Nb118  1  0.49475503  0.75018929  0.50806372  1
  Nb5+  Nb119  1  0.50067956  0.74571319  1.00079890  1
  Nb5+  Nb120  1  0.25044825  0.00262493  -0.00487824  1
  Nb5+  Nb121  1  0.25352226  -0.00043740  0.50118652  1
  Nb5+  Nb122  1  0.25305305  0.49935980  0.00531737  1
  Nb5+  Nb123  1  0.24231250  0.49997637  0.49585738  1
  Nb5+  Nb124  1  0.74886309  -0.00081199  0.00335319  1
  Nb5+  Nb125  1  0.75128567  -0.00348157  0.49821420  1
  Nb5+  Nb126  1  0.74785093  0.50479956  -0.00968983  1
  Nb5+  Nb127  1  0.75067796  0.49478042  0.49905172  1
  O2-  O128  1  0.02890591  0.02105513  0.13339420  1
  O2-  O129  1  0.01448317  0.01025462  0.62126932  1
  O2-  O130  1  0.00262935  0.51318902  0.12030835  1
  O2-  O131  1  0.02524025  0.51761117  0.63610411  1
  O2-  O132  1  0.52301468  -0.00157840  0.13309900  1
  O2-  O133  1  0.54331757  -0.00231830  0.63311359  1
  O2-  O134  1  0.52684978  0.49311650  0.13695008  1
  O2-  O135  1  0.52351787  0.49647380  0.61681930  1
  O2-  O136  1  -0.01826466  -0.01458874  0.38099699  1
  O2-  O137  1  -0.02447276  -0.01960625  0.86377135  1
  O2-  O138  1  -0.03017204  0.47899051  0.36826148  1
  O2-  O139  1  -0.02097580  0.48906894  0.87767477  1
  O2-  O140  1  0.47456395  -0.00321639  0.36968373  1
  O2-  O141  1  0.48604424  0.00817319  0.85820493  1
  O2-  O142  1  0.48404622  0.50237492  0.38035332  1
  O2-  O143  1  0.46884377  0.50126658  0.86478670  1
  O2-  O144  1  0.27679989  0.25358406  0.13670640  1
  O2-  O145  1  0.27602686  0.26278522  0.61465902  1
  O2-  O146  1  0.24183031  0.78610025  0.13720430  1
  O2-  O147  1  0.22811755  0.77647317  0.63275055  1
  O2-  O148  1  0.77424393  0.26590729  0.13652922  1
  O2-  O149  1  0.77086560  0.26036032  0.62147029  1
  O2-  O150  1  0.72662555  0.76822774  0.13649784  1
  O2-  O151  1  0.74569847  0.77354529  0.62031930  1
  O2-  O152  1  0.23139605  0.23743381  0.38149431  1
  O2-  O153  1  0.22743692  0.23823329  0.85980355  1
  O2-  O154  1  0.26228403  0.73148708  0.36875782  1
  O2-  O155  1  0.26134788  0.72876255  0.86387377  1
  O2-  O156  1  0.72819120  0.24298249  0.38675247  1
  O2-  O157  1  0.71598360  0.23846864  0.86201866  1
  O2-  O158  1  0.77581092  0.74181109  0.38658476  1
  O2-  O159  1  0.77211052  0.73477738  0.86010938  1
  O2-  O160  1  -0.01254709  0.22527319  0.11358754  1
  O2-  O161  1  -0.00748041  0.21295953  0.61538979  1
  O2-  O162  1  0.02767870  0.73153441  0.11429391  1
  O2-  O163  1  0.00993573  0.74138722  0.62439989  1
  O2-  O164  1  0.46763982  0.25933045  0.11775819  1
  O2-  O165  1  0.48436735  0.25868808  0.62113711  1
  O2-  O166  1  0.52693427  0.74612975  0.11672688  1
  O2-  O167  1  0.53867057  0.73877469  0.61527786  1
  O2-  O168  1  0.25158860  0.01986494  0.37900805  1
  O2-  O169  1  0.26256902  0.02593250  0.88185609  1
  O2-  O170  1  0.28036931  0.51472713  0.38568696  1
  O2-  O171  1  0.25768161  0.52417007  0.88803432  1
  O2-  O172  1  0.77586454  0.02081713  0.38698357  1
  O2-  O173  1  0.77166794  0.01363115  0.86615596  1
  O2-  O174  1  0.76373108  0.51722087  0.37993520  1
  O2-  O175  1  0.75169546  0.54257864  0.88353762  1
  O2-  O176  1  0.01364853  0.27043470  0.39091224  1
  O2-  O177  1  0.01853750  0.27843182  0.88043751  1
  O2-  O178  1  -0.02461570  0.76138984  0.38529947  1
  O2-  O179  1  -0.02355435  0.76495495  0.86608469  1
  O2-  O180  1  0.52849839  0.24802367  0.38846400  1
  O2-  O181  1  0.52344774  0.24069923  0.86184203  1
  O2-  O182  1  0.49246710  0.76003283  0.39029551  1
  O2-  O183  1  0.48035536  0.74481394  0.87853911  1
  O2-  O184  1  0.23681393  -0.01752366  0.13484455  1
  O2-  O185  1  0.22306437  -0.01564477  0.61115516  1
  O2-  O186  1  0.22830981  0.47098098  0.11969015  1
  O2-  O187  1  0.24370829  0.47642538  0.61194720  1
  O2-  O188  1  0.72777653  -0.01520781  0.11646612  1
  O2-  O189  1  0.74155261  -0.00918301  0.62141963  1
  O2-  O190  1  0.74314691  0.47825658  0.13617557  1
  O2-  O191  1  0.72643005  0.48405705  0.61382539  1
  O2-  O192  1  0.13554477  0.26606668  0.23883501  1
  O2-  O193  1  0.13562571  0.27255034  0.71797566  1
  O2-  O194  1  0.13059348  0.76937232  0.27393744  1
  O2-  O195  1  0.11787197  0.76704559  0.75958794  1
  O2-  O196  1  0.63505346  0.28432637  0.24310586  1
  O2-  O197  1  0.62393607  0.25568644  0.72184373  1
  O2-  O198  1  0.64026588  0.75543308  0.28669037  1
  O2-  O199  1  0.63868995  0.77415070  0.76320401  1
  O2-  O200  1  0.36608895  0.22011886  0.27590997  1
  O2-  O201  1  0.38181026  0.22779339  0.75976167  1
  O2-  O202  1  0.36677436  0.73256294  0.24361681  1
  O2-  O203  1  0.36728732  0.73502576  0.71800065  1
  O2-  O204  1  0.86072965  0.23714200  0.28348520  1
  O2-  O205  1  0.86357232  0.22281333  0.76961452  1
  O2-  O206  1  0.86263139  0.71756935  0.23901407  1
  O2-  O207  1  0.87684079  0.74485389  0.72892368  1
  O2-  O208  1  0.27467629  0.36464451  0.26975023  1
  O2-  O209  1  0.28075666  0.36375550  0.75515972  1
  O2-  O210  1  0.26128131  0.88356144  0.27503854  1
  O2-  O211  1  0.26974449  0.86626738  0.77050266  1
  O2-  O212  1  0.76561223  0.38058516  0.27382272  1
  O2-  O213  1  0.77186537  0.36272944  0.75765734  1
  O2-  O214  1  0.77883598  0.86625136  0.26394595  1
  O2-  O215  1  0.77009775  0.88134926  0.75223372  1
  O2-  O216  1  0.22879228  0.12170069  0.24302869  1
  O2-  O217  1  0.24140774  0.13536364  0.72188578  1
  O2-  O218  1  0.22584097  0.63545868  0.22796831  1
  O2-  O219  1  0.23000048  0.63212227  0.72644376  1
  O2-  O220  1  0.71972872  0.13789052  0.24072392  1
  O2-  O221  1  0.73878529  0.12094313  0.72991434  1
  O2-  O222  1  0.72920837  0.61846647  0.24455485  1
  O2-  O223  1  0.73677526  0.63782126  0.71966394  1
  O2-  O224  1  0.11137815  0.47353480  0.26559294  1
  O2-  O225  1  0.11358159  0.48303317  0.77673925  1
  O2-  O226  1  0.12475046  0.98640492  0.26615499  1
  O2-  O227  1  0.11547566  0.97659258  0.76249421  1
  O2-  O228  1  0.62962529  0.48461808  0.27104819  1
  O2-  O229  1  0.61289742  0.45819640  0.76412699  1
  O2-  O230  1  0.61681477  0.97797649  0.28012212  1
  O2-  O231  1  0.63472474  0.99019991  0.76811463  1
  O2-  O232  1  0.36583522  0.01985685  0.24177148  1
  O2-  O233  1  0.38533882  0.00964575  0.70851510  1
  O2-  O234  1  0.38348403  0.51766168  0.22837093  1
  O2-  O235  1  0.39026269  0.50934749  0.71783208  1
  O2-  O236  1  0.88328133  0.02558544  0.22230919  1
  O2-  O237  1  0.87592477  0.01289335  0.72978782  1
  O2-  O238  1  0.86903154  0.51937454  0.24093455  1
  O2-  O239  1  0.88284366  0.52646486  0.74003908  1
  O2-  O240  1  0.48218229  0.38507295  0.26714642  1
  O2-  O241  1  0.48189373  0.36569941  0.74923365  1
  O2-  O242  1  0.46910038  0.88381642  0.24145856  1
  O2-  O243  1  0.49026251  0.88117509  0.74643432  1
  O2-  O244  1  0.97500798  0.38283758  0.22409181  1
  O2-  O245  1  0.97440061  0.38490722  0.73103350  1
  O2-  O246  1  0.98176484  0.88827836  0.23582343  1
  O2-  O247  1  0.98509172  0.87382441  0.72840969  1
  O2-  O248  1  0.01391963  0.11708226  0.28077572  1
  O2-  O249  1  0.01822295  0.11254111  0.76621603  1
  O2-  O250  1  0.01509505  0.61258582  0.26579117  1
  O2-  O251  1  0.01221212  0.63365918  0.76289516  1
  O2-  O252  1  0.51578627  0.11586046  0.24814360  1
  O2-  O253  1  0.51225913  0.12582337  0.73598522  1
  O2-  O254  1  0.51957511  0.61581629  0.26392910  1
  O2-  O255  1  0.54032310  0.60971230  0.75239482  1
  O2-  O256  1  0.11740848  0.48286131  -0.00822199  1
  O2-  O257  1  0.13255080  0.47341392  0.47532412  1
  O2-  O258  1  0.13715808  0.96036654  -0.00699990  1
  O2-  O259  1  0.11936706  0.99085022  0.48383190  1
  O2-  O260  1  0.63660882  0.47371584  -0.00745987  1
  O2-  O261  1  0.62720995  0.49200517  0.47826521  1
  O2-  O262  1  0.63433234  0.98191104  -0.02760214  1
  O2-  O263  1  0.63767819  0.99188262  0.47724060  1
  O2-  O264  1  0.36202486  0.02810116  0.02913639  1
  O2-  O265  1  0.36322317  0.03106303  0.51764683  1
  O2-  O266  1  0.36639472  0.51682962  0.02837107  1
  O2-  O267  1  0.38254898  0.50622078  0.51728455  1
  O2-  O268  1  0.86788587  0.02366939  0.01462996  1
  O2-  O269  1  0.87773107  0.01784420  0.51746362  1
  O2-  O270  1  0.87609597  0.51830562  0.01003868  1
  O2-  O271  1  0.86345432  0.51392201  0.52419118  1
  O2-  O272  1  0.48622257  0.36496272  -0.02453187  1
  O2-  O273  1  0.49588974  0.37626723  0.49624468  1
  O2-  O274  1  0.48190153  0.86683965  0.00125638  1
  O2-  O275  1  0.48007430  0.86493998  0.52159081  1
  O2-  O276  1  0.98143682  0.37995040  0.01252118  1
  O2-  O277  1  0.98441152  0.36390637  0.53540769  1
  O2-  O278  1  0.97654471  0.86293256  0.02265786  1
  O2-  O279  1  0.98194718  0.88093121  0.51483068  1
  O2-  O280  1  0.02214513  0.13176469  -0.03076443  1
  O2-  O281  1  0.01155852  0.12191477  0.48192405  1
  O2-  O282  1  0.01792461  0.61814744  -0.01940954  1
  O2-  O283  1  0.01899603  0.63627253  0.48766230  1
  O2-  O284  1  0.52395478  0.13558263  -0.00113179  1
  O2-  O285  1  0.52058512  0.13598691  0.51001512  1
  O2-  O286  1  0.52913892  0.62912236  -0.00703116  1
  O2-  O287  1  0.51864043  0.62073805  0.49362438  1
  O2-  O288  1  0.11734419  0.27436478  0.01987838  1
  O2-  O289  1  0.12830246  0.26709259  0.51869340  1
  O2-  O290  1  0.11159363  0.75835822  -0.03513380  1
  O2-  O291  1  0.11260813  0.77872393  0.48830418  1
  O2-  O292  1  0.61490473  0.27374294  0.02077452  1
  O2-  O293  1  0.63074682  0.26655909  0.52356145  1
  O2-  O294  1  0.62002128  0.77039555  -0.02684321  1
  O2-  O295  1  0.63630772  0.76577027  0.48811878  1
  O2-  O296  1  0.38447734  0.23187773  -0.03293093  1
  O2-  O297  1  0.38012012  0.23741397  0.48191343  1
  O2-  O298  1  0.38301352  0.72373565  0.01517096  1
  O2-  O299  1  0.38403514  0.72376469  0.52338151  1
  O2-  O300  1  0.88452237  0.23447060  -0.02250366  1
  O2-  O301  1  0.87505159  0.23839696  0.48660711  1
  O2-  O302  1  0.88808555  0.71644968  0.00397423  1
  O2-  O303  1  0.87516079  0.74395722  0.52234008  1
  O2-  O304  1  0.26622980  0.38296415  -0.02111993  1
  O2-  O305  1  0.26448132  0.36930821  0.48111911  1
  O2-  O306  1  0.28327742  0.88539420  -0.01607499  1
  O2-  O307  1  0.27768483  0.88777770  0.48345613  1
  O2-  O308  1  0.77855085  0.38931349  -0.01787227  1
  O2-  O309  1  0.76499978  0.37623173  0.48758269  1
  O2-  O310  1  0.77854931  0.88334117  -0.00836527  1
  O2-  O311  1  0.76806280  0.88055354  0.48904718  1
  O2-  O312  1  0.21102730  0.11378478  0.01397791  1
  O2-  O313  1  0.23175730  0.13156647  0.51166984  1
  O2-  O314  1  0.22844027  0.61676168  0.02472065  1
  O2-  O315  1  0.22669870  0.61380132  0.51662754  1
  O2-  O316  1  0.72939624  0.11809936  0.00980851  1
  O2-  O317  1  0.73955412  0.12984912  0.51606284  1
  O2-  O318  1  0.73669056  0.61307593  0.03711886  1
  O2-  O319  1  0.73826170  0.62895539  0.51269003  1
