# generated using pymatgen
data_Sr64Ca21Nb43O192
_symmetry_space_group_name_H-M   'P 1'
_cell_length_a   16.53736198
_cell_length_b   16.54677380
_cell_length_c   16.69688219
_cell_angle_alpha   90.03942070
_cell_angle_beta   89.97562471
_cell_angle_gamma   89.93698052
_symmetry_Int_Tables_number   1
_chemical_formula_structural   Sr64Ca21Nb43O192
_chemical_formula_sum   'Sr64 Ca21 Nb43 O192'
_cell_volume   4568.93038199
_cell_formula_units_Z   1
loop_
 _symmetry_equiv_pos_site_id
 _symmetry_equiv_pos_as_xyz
  1  'x, y, z'
loop_
 _atom_type_symbol
 _atom_type_oxidation_number
  Sr2+  2.0
  Ca2+  2.0
  Nb5+  5.0
  O2-  -2.0
loop_
 _atom_site_type_symbol
 _atom_site_label
 _atom_site_symmetry_multiplicity
 _atom_site_fract_x
 _atom_site_fract_y
 _atom_site_fract_z
 _atom_site_occupancy
  Sr2+  Sr0  1  0.13018560  0.13489951  0.12146019  1
  Sr2+  Sr1  1  0.13240808  0.13795521  0.62800175  1
  Sr2+  Sr2  1  0.13295430  0.62921251  0.12210770  1
  Sr2+  Sr3  1  0.13244112  0.62664741  0.62336951  1
  Sr2+  Sr4  1  0.63541120  0.14371281  0.12372942  1
  Sr2+  Sr5  1  0.63001496  0.13489571  0.61950086  1
  Sr2+  Sr6  1  0.63050723  0.62635787  0.12084134  1
  Sr2+  Sr7  1  0.63303192  0.63726505  0.63191972  1
  Sr2+  Sr8  1  0.38593368  0.38085205  0.12804116  1
  Sr2+  Sr9  1  0.37940517  0.38090842  0.61505244  1
  Sr2+  Sr10  1  0.37948968  0.88177140  0.12391164  1
  Sr2+  Sr11  1  0.38677548  0.88890721  0.62453826  1
  Sr2+  Sr12  1  0.87556264  0.36863059  0.12614280  1
  Sr2+  Sr13  1  0.88532143  0.37323481  0.62576643  1
  Sr2+  Sr14  1  0.88499087  0.88952209  0.12866364  1
  Sr2+  Sr15  1  0.87615909  0.88487751  0.61655753  1
  Sr2+  Sr16  1  0.13095605  0.36868792  0.37881309  1
  Sr2+  Sr17  1  0.11792894  0.37558927  0.86934496  1
  Sr2+  Sr18  1  0.11170867  0.86901167  0.37627014  1
  Sr2+  Sr19  1  0.13226406  0.87603789  0.87708971  1
  Sr2+  Sr20  1  0.61115890  0.37726642  0.37212310  1
  Sr2+  Sr21  1  0.62090092  0.37307627  0.87696381  1
  Sr2+  Sr22  1  0.61370735  0.86581293  0.37291890  1
  Sr2+  Sr23  1  0.60688434  0.87017991  0.87036706  1
  Sr2+  Sr24  1  0.37148949  0.11647674  0.38588008  1
  Sr2+  Sr25  1  0.36208767  0.10933371  0.87086789  1
  Sr2+  Sr26  1  0.35740153  0.61530236  0.37377512  1
  Sr2+  Sr27  1  0.36951712  0.62684922  0.86879331  1
  Sr2+  Sr28  1  0.86327103  0.11812515  0.37111507  1
  Sr2+  Sr29  1  0.86709736  0.12295936  0.87258598  1
  Sr2+  Sr30  1  0.86485721  0.62110975  0.37392697  1
  Sr2+  Sr31  1  0.89353567  0.62325152  0.87888394  1
  Sr2+  Sr32  1  0.12467517  0.11601830  0.38228989  1
  Sr2+  Sr33  1  0.11513013  0.11376911  0.86984971  1
  Sr2+  Sr34  1  0.11231480  0.62340001  0.37353340  1
  Sr2+  Sr35  1  0.12332466  0.62010802  0.87348362  1
  Sr2+  Sr36  1  0.61226963  0.10677742  0.37474889  1
  Sr2+  Sr37  1  0.62068905  0.11367419  0.87720486  1
  Sr2+  Sr38  1  0.62460602  0.62163204  0.37366812  1
  Sr2+  Sr39  1  0.61724693  0.61598580  0.86788900  1
  Sr2+  Sr40  1  0.36587578  0.35989003  0.37445056  1
  Sr2+  Sr41  1  0.36650878  0.36936590  0.88552998  1
  Sr2+  Sr42  1  0.36740234  0.87341136  0.36706776  1
  Sr2+  Sr43  1  0.36774034  0.87679365  0.86185389  1
  Sr2+  Sr44  1  0.86660802  0.37349955  0.37967444  1
  Sr2+  Sr45  1  0.86991105  0.37128655  0.86704950  1
  Sr2+  Sr46  1  0.86656265  0.86374901  0.37427373  1
  Sr2+  Sr47  1  0.87193789  0.87932303  0.88650674  1
  Sr2+  Sr48  1  0.15374234  0.37922487  0.12789468  1
  Sr2+  Sr49  1  0.14373495  0.37730881  0.62455778  1
  Sr2+  Sr50  1  0.13280644  0.88696994  0.12506139  1
  Sr2+  Sr51  1  0.14277678  0.88362963  0.62466735  1
  Sr2+  Sr52  1  0.63501418  0.38338761  0.12365596  1
  Sr2+  Sr53  1  0.63991284  0.38872607  0.62922874  1
  Sr2+  Sr54  1  0.63404956  0.87590632  0.12972090  1
  Sr2+  Sr55  1  0.63735185  0.88024266  0.62110377  1
  Sr2+  Sr56  1  0.38608760  0.13145080  0.13317038  1
  Sr2+  Sr57  1  0.38510285  0.13446587  0.62328270  1
  Sr2+  Sr58  1  0.38015871  0.62541631  0.12173295  1
  Sr2+  Sr59  1  0.37541650  0.62452576  0.62443199  1
  Sr2+  Sr60  1  0.87408966  0.12893431  0.12229318  1
  Sr2+  Sr61  1  0.89192299  0.12885001  0.62169259  1
  Sr2+  Sr62  1  0.88322039  0.62560145  0.12230789  1
  Sr2+  Sr63  1  0.87755991  0.62870822  0.61434625  1
  Ca2+  Ca64  1  -0.00022974  0.49874326  0.49734228  1
  Ca2+  Ca65  1  0.49864719  -0.00264652  0.00167265  1
  Ca2+  Ca66  1  0.50054763  -0.00399069  0.49995532  1
  Ca2+  Ca67  1  0.50163472  0.50115833  0.49997073  1
  Ca2+  Ca68  1  0.00115118  -0.00062723  0.49965856  1
  Ca2+  Ca69  1  0.25121688  0.75015712  0.00258161  1
  Ca2+  Ca70  1  0.25064770  0.24773273  -0.00163095  1
  Ca2+  Ca71  1  0.74841781  0.74805983  -0.00085566  1
  Ca2+  Ca72  1  0.24917813  0.74994041  0.49964674  1
  Ca2+  Ca73  1  0.75175133  0.25206365  0.49888120  1
  Ca2+  Ca74  1  0.25059639  0.49964515  0.25166445  1
  Ca2+  Ca75  1  0.50186496  0.24913947  0.25195146  1
  Ca2+  Ca76  1  0.25203383  0.49908358  0.75185487  1
  Ca2+  Ca77  1  0.50184899  0.25394812  0.75127785  1
  Ca2+  Ca78  1  0.75321431  0.50461249  0.75442808  1
  Ca2+  Ca79  1  0.24874100  0.00001808  0.25003273  1
  Ca2+  Ca80  1  -0.00065239  0.75318287  0.75053098  1
  Ca2+  Ca81  1  0.24815586  0.00268752  0.74615181  1
  Ca2+  Ca82  1  0.75004673  -0.00016819  0.24978436  1
  Ca2+  Ca83  1  0.00284118  0.25293571  0.24889332  1
  Ca2+  Ca84  1  0.75036025  0.00283857  0.74848113  1
  Nb5+  Nb85  1  0.00703846  0.49901149  0.00411335  1
  Nb5+  Nb86  1  0.50482640  0.49983791  -0.00099863  1
  Nb5+  Nb87  1  0.00031507  0.00715096  0.00093163  1
  Nb5+  Nb88  1  0.25289114  0.24763368  0.50154409  1
  Nb5+  Nb89  1  0.74929960  0.25310771  -0.00234910  1
  Nb5+  Nb90  1  0.74849960  0.74957017  0.49931800  1
  Nb5+  Nb91  1  0.49204319  0.74579423  0.24600884  1
  Nb5+  Nb92  1  0.75168041  0.50103334  0.24829281  1
  Nb5+  Nb93  1  0.00206547  0.25038189  0.74926242  1
  Nb5+  Nb94  1  0.49920502  0.75028258  0.74008584  1
  Nb5+  Nb95  1  -0.00807575  0.74906277  0.24873159  1
  Nb5+  Nb96  1  0.00249796  0.00750282  0.25102903  1
  Nb5+  Nb97  1  -0.00439178  -0.00738692  0.74855995  1
  Nb5+  Nb98  1  -0.00295437  0.49787897  0.24839853  1
  Nb5+  Nb99  1  0.00066526  0.50116407  0.74659798  1
  Nb5+  Nb100  1  0.50235260  -0.00008971  0.24363196  1
  Nb5+  Nb101  1  0.50480940  0.00672960  0.74752931  1
  Nb5+  Nb102  1  0.49852912  0.50439086  0.25210211  1
  Nb5+  Nb103  1  0.49735334  0.49476086  0.74955762  1
  Nb5+  Nb104  1  0.25134671  0.24474085  0.24878463  1
  Nb5+  Nb105  1  0.25570815  0.25134483  0.75499569  1
  Nb5+  Nb106  1  0.23885957  0.75018708  0.25016462  1
  Nb5+  Nb107  1  0.24664440  0.75200067  0.74818992  1
  Nb5+  Nb108  1  0.74679146  0.25159627  0.25621480  1
  Nb5+  Nb109  1  0.75134101  0.25042627  0.74476217  1
  Nb5+  Nb110  1  0.74608563  0.74776581  0.24630628  1
  Nb5+  Nb111  1  0.75314585  0.75481052  0.75716192  1
  Nb5+  Nb112  1  0.00229132  0.24697884  0.49315506  1
  Nb5+  Nb113  1  -0.00055263  0.25698497  0.99945906  1
  Nb5+  Nb114  1  -0.00090433  0.75292475  0.50549658  1
  Nb5+  Nb115  1  0.00068215  0.75632808  1.00244064  1
  Nb5+  Nb116  1  0.50938806  0.25387196  0.50286735  1
  Nb5+  Nb117  1  0.49914824  0.24412115  0.99689888  1
  Nb5+  Nb118  1  0.49572902  0.74190121  0.49111315  1
  Nb5+  Nb119  1  0.49675903  0.74845768  0.99267777  1
  Nb5+  Nb120  1  0.25228339  0.00472061  0.00442557  1
  Nb5+  Nb121  1  0.25222350  -0.00356884  0.50139863  1
  Nb5+  Nb122  1  0.25870103  0.50121728  0.00109029  1
  Nb5+  Nb123  1  0.24649018  0.50225512  0.49832794  1
  Nb5+  Nb124  1  0.74758186  -0.00441384  0.00183747  1
  Nb5+  Nb125  1  0.74845058  0.00590476  0.49625213  1
  Nb5+  Nb126  1  0.75558193  0.50041664  -0.00359430  1
  Nb5+  Nb127  1  0.75126578  0.50167048  0.50375216  1
  O2-  O128  1  0.01400360  -0.01368348  0.11897732  1
  O2-  O129  1  0.01433792  -0.02713920  0.63670874  1
  O2-  O130  1  -0.01819963  0.48673390  0.12122581  1
  O2-  O131  1  -0.01959109  0.49310639  0.63436006  1
  O2-  O132  1  0.51438460  -0.04112698  0.13151399  1
  O2-  O133  1  0.51715203  -0.02947538  0.63560470  1
  O2-  O134  1  0.50055550  0.48979322  0.12201775  1
  O2-  O135  1  0.50776839  0.47482183  0.63648839  1
  O2-  O136  1  -0.01579964  0.02286511  0.36376500  1
  O2-  O137  1  -0.02067182  0.01096949  0.88277123  1
  O2-  O138  1  -0.00535251  0.52363410  0.36053160  1
  O2-  O139  1  0.01105845  0.51046059  0.88609207  1
  O2-  O140  1  0.48252422  0.01098923  0.36145517  1
  O2-  O141  1  0.47980419  0.01296076  0.86620939  1
  O2-  O142  1  0.50546942  0.52602769  0.36432304  1
  O2-  O143  1  0.49697969  0.51980532  0.88220083  1
  O2-  O144  1  0.26271188  0.22275004  0.13418216  1
  O2-  O145  1  0.25882075  0.22803244  0.62249555  1
  O2-  O146  1  0.26095756  0.71645373  0.13915817  1
  O2-  O147  1  0.25632262  0.71643579  0.63389710  1
  O2-  O148  1  0.76771491  0.23857091  0.12024563  1
  O2-  O149  1  0.76916730  0.21961747  0.63495914  1
  O2-  O150  1  0.75782948  0.71848915  0.13494655  1
  O2-  O151  1  0.75847853  0.72685392  0.61502564  1
  O2-  O152  1  0.23875039  0.26720196  0.38230203  1
  O2-  O153  1  0.23776386  0.28143110  0.86504190  1
  O2-  O154  1  0.23968902  0.78085113  0.36660167  1
  O2-  O155  1  0.24985976  0.77914634  0.86677037  1
  O2-  O156  1  0.73593505  0.28832607  0.36509244  1
  O2-  O157  1  0.74248921  0.28050612  0.88202818  1
  O2-  O158  1  0.74070838  0.76184097  0.37128821  1
  O2-  O159  1  0.73890045  0.78898182  0.86599671  1
  O2-  O160  1  -0.02595166  0.25110708  0.11254478  1
  O2-  O161  1  -0.01537922  0.26000548  0.63302217  1
  O2-  O162  1  -0.02664034  0.75825735  0.12830449  1
  O2-  O163  1  -0.03184311  0.75947490  0.61572661  1
  O2-  O164  1  0.47888303  0.26316042  0.11315579  1
  O2-  O165  1  0.47299356  0.26435847  0.61682176  1
  O2-  O166  1  0.47923035  0.75720816  0.13103236  1
  O2-  O167  1  0.48622935  0.76040192  0.62557033  1
  O2-  O168  1  0.27972122  -0.00608223  0.38401611  1
  O2-  O169  1  0.26238894  -0.01652606  0.88482092  1
  O2-  O170  1  0.25975485  0.47125162  0.38352783  1
  O2-  O171  1  0.24704203  0.47042151  0.88733580  1
  O2-  O172  1  0.78248574  -0.01354039  0.38206045  1
  O2-  O173  1  0.77883164  -0.00429726  0.88800625  1
  O2-  O174  1  0.75889749  0.48686382  0.36624682  1
  O2-  O175  1  0.74726392  0.47083033  0.88699476  1
  O2-  O176  1  0.02958771  0.23845510  0.38319229  1
  O2-  O177  1  0.01541558  0.24133573  0.87797022  1
  O2-  O178  1  0.01227713  0.73709532  0.36650246  1
  O2-  O179  1  0.02358526  0.73868413  0.88947292  1
  O2-  O180  1  0.53235460  0.23609552  0.38451532  1
  O2-  O181  1  0.53727604  0.24535999  0.88535268  1
  O2-  O182  1  0.51704425  0.73034721  0.37519711  1
  O2-  O183  1  0.51503113  0.73205365  0.87811123  1
  O2-  O184  1  0.21687320  0.01735020  0.11655070  1
  O2-  O185  1  0.21742483  0.01672239  0.61469412  1
  O2-  O186  1  0.24589860  0.52094773  0.11747101  1
  O2-  O187  1  0.23804395  0.51733451  0.61744580  1
  O2-  O188  1  0.73583309  0.03036934  0.11403610  1
  O2-  O189  1  0.71961687  0.01286818  0.61326714  1
  O2-  O190  1  0.74478522  0.51732721  0.12372387  1
  O2-  O191  1  0.74188647  0.52457294  0.61686955  1
  O2-  O192  1  0.13649256  0.28360502  0.24092382  1
  O2-  O193  1  0.11993287  0.27190006  0.73949820  1
  O2-  O194  1  0.12100875  0.76473429  0.23460437  1
  O2-  O195  1  0.13299974  0.77800641  0.73688557  1
  O2-  O196  1  0.63537665  0.27197007  0.22114380  1
  O2-  O197  1  0.63831265  0.27661072  0.73207978  1
  O2-  O198  1  0.62703214  0.76261700  0.23962222  1
  O2-  O199  1  0.62078241  0.77081059  0.73551774  1
  O2-  O200  1  0.36745245  0.22234940  0.27523977  1
  O2-  O201  1  0.36711969  0.22383244  0.76851328  1
  O2-  O202  1  0.38033435  0.72621852  0.26871166  1
  O2-  O203  1  0.38208279  0.73178407  0.75957431  1
  O2-  O204  1  0.86469177  0.23439500  0.26233599  1
  O2-  O205  1  0.88034359  0.23758882  0.76961381  1
  O2-  O206  1  0.87409925  0.72915046  0.26437366  1
  O2-  O207  1  0.86460143  0.72472646  0.76649775  1
  O2-  O208  1  0.28079397  0.36445399  0.23379486  1
  O2-  O209  1  0.26958243  0.36390816  0.71873287  1
  O2-  O210  1  0.27273651  0.86146327  0.22695824  1
  O2-  O211  1  0.27608963  0.86659964  0.72296962  1
  O2-  O212  1  0.76719477  0.38364089  0.22972362  1
  O2-  O213  1  0.77725148  0.36806002  0.73065346  1
  O2-  O214  1  0.76816695  0.86107810  0.22919512  1
  O2-  O215  1  0.76502649  0.86443351  0.71399392  1
  O2-  O216  1  0.21701062  0.13340639  0.26953832  1
  O2-  O217  1  0.22222847  0.13750329  0.76573752  1
  O2-  O218  1  0.23180849  0.63421768  0.28363613  1
  O2-  O219  1  0.23514480  0.63570042  0.77952063  1
  O2-  O220  1  0.72692925  0.13812836  0.27330518  1
  O2-  O221  1  0.73526573  0.14058149  0.78442671  1
  O2-  O222  1  0.73300417  0.62309731  0.26830125  1
  O2-  O223  1  0.72066386  0.64035310  0.76262686  1
  O2-  O224  1  0.11116970  0.48156352  0.23999380  1
  O2-  O225  1  0.11537081  0.47314548  0.75261812  1
  O2-  O226  1  0.11232277  0.96484226  0.26059380  1
  O2-  O227  1  0.11075992  0.98634686  0.77724702  1
  O2-  O228  1  0.62858564  0.48850713  0.24730975  1
  O2-  O229  1  0.61571351  0.48459018  0.76573491  1
  O2-  O230  1  0.61801656  0.97245397  0.26631764  1
  O2-  O231  1  0.61832317  0.98123990  0.77731247  1
  O2-  O232  1  0.38429321  0.00705525  0.22137022  1
  O2-  O233  1  0.38445317  0.01902121  0.73150344  1
  O2-  O234  1  0.38611968  0.52993750  0.24323850  1
  O2-  O235  1  0.38571841  0.53420462  0.74694475  1
  O2-  O236  1  0.88613154  0.01333859  0.22362899  1
  O2-  O237  1  0.88513499  0.03401790  0.73733870  1
  O2-  O238  1  0.86925794  0.52784926  0.24106829  1
  O2-  O239  1  0.88673744  0.51348130  0.77756077  1
  O2-  O240  1  0.48572795  0.38867374  0.26421835  1
  O2-  O241  1  0.47056501  0.38654981  0.77823955  1
  O2-  O242  1  0.48654692  0.86097147  0.26982909  1
  O2-  O243  1  0.48515170  0.86614946  0.76792227  1
  O2-  O244  1  0.96506616  0.38764784  0.26173326  1
  O2-  O245  1  0.98335373  0.37231703  0.76560350  1
  O2-  O246  1  0.97691940  0.86711993  0.25876632  1
  O2-  O247  1  0.96442557  0.88409319  0.77076567  1
  O2-  O248  1  0.02729584  0.11735082  0.23121793  1
  O2-  O249  1  0.01935816  0.13114397  0.74166834  1
  O2-  O250  1  0.01313051  0.62798006  0.22683819  1
  O2-  O251  1  0.02501793  0.61618022  0.74415915  1
  O2-  O252  1  0.52304742  0.11247392  0.22281684  1
  O2-  O253  1  0.52833729  0.11878018  0.72997433  1
  O2-  O254  1  0.52580139  0.62853842  0.23161689  1
  O2-  O255  1  0.52261048  0.63026980  0.73986621  1
  O2-  O256  1  0.12007849  0.47644805  0.01125547  1
  O2-  O257  1  0.13119705  0.46769277  0.49678228  1
  O2-  O258  1  0.11430324  0.97993979  -0.01712808  1
  O2-  O259  1  0.13507538  0.98411284  0.47012466  1
  O2-  O260  1  0.62170295  0.47913199  -0.00039456  1
  O2-  O261  1  0.63735193  0.47673583  0.48485230  1
  O2-  O262  1  0.63491153  0.98048162  -0.02132499  1
  O2-  O263  1  0.63519563  0.97326819  0.47336434  1
  O2-  O264  1  0.36416146  0.03095710  0.02072011  1
  O2-  O265  1  0.36711219  0.02434151  0.52488895  1
  O2-  O266  1  0.37608231  0.51915894  0.00055829  1
  O2-  O267  1  0.36588860  0.51764401  0.51031556  1
  O2-  O268  1  0.87930852  0.01311448  0.02013288  1
  O2-  O269  1  0.86481517  0.01240492  0.52831379  1
  O2-  O270  1  0.87220854  0.51832296  -0.00401684  1
  O2-  O271  1  0.86611439  0.52986371  0.49343522  1
  O2-  O272  1  0.48288919  0.38032804  -0.01278117  1
  O2-  O273  1  0.48016952  0.36648167  0.47431033  1
  O2-  O274  1  0.46989463  0.86061411  -0.01970539  1
  O2-  O275  1  0.47906572  0.85887218  0.48479412  1
  O2-  O276  1  0.97766040  0.37543804  -0.01265464  1
  O2-  O277  1  0.97566337  0.36310740  0.49334731  1
  O2-  O278  1  0.98111254  0.87232894  -0.00583089  1
  O2-  O279  1  0.97645614  0.86505324  0.47347432  1
  O2-  O280  1  0.01309930  0.12502861  0.00702621  1
  O2-  O281  1  0.02024402  0.13369469  0.52681909  1
  O2-  O282  1  0.01429326  0.61757256  0.01667715  1
  O2-  O283  1  0.02216305  0.63589293  0.50813196  1
  O2-  O284  1  0.52698544  0.13336656  0.01670817  1
  O2-  O285  1  0.51709997  0.13320194  0.51522813  1
  O2-  O286  1  0.52093643  0.61928450  0.01552286  1
  O2-  O287  1  0.53035367  0.63416828  0.52336840  1
  O2-  O288  1  0.11270344  0.27249616  0.01865995  1
  O2-  O289  1  0.12714141  0.26716151  0.51728320  1
  O2-  O290  1  0.11358108  0.75955763  0.03426435  1
  O2-  O291  1  0.11260344  0.77719247  0.51791670  1
  O2-  O292  1  0.63188460  0.27194895  0.01902965  1
  O2-  O293  1  0.62003507  0.27398157  0.53280421  1
  O2-  O294  1  0.61080172  0.76544571  0.02348353  1
  O2-  O295  1  0.62939081  0.76829962  0.50553532  1
  O2-  O296  1  0.38750350  0.23033402  -0.03201240  1
  O2-  O297  1  0.37103095  0.23358178  0.48553304  1
  O2-  O298  1  0.38475565  0.71307442  -0.00394432  1
  O2-  O299  1  0.38408121  0.71430293  0.48693796  1
  O2-  O300  1  0.87231101  0.24065933  -0.01883262  1
  O2-  O301  1  0.88630095  0.22333464  0.47930658  1
  O2-  O302  1  0.88501703  0.72647911  -0.01177548  1
  O2-  O303  1  0.87041017  0.72910399  0.48193388  1
  O2-  O304  1  0.27291746  0.38234982  0.02726494  1
  O2-  O305  1  0.26694322  0.36802187  0.51934293  1
  O2-  O306  1  0.26006206  0.88581971  0.02491423  1
  O2-  O307  1  0.27095829  0.88329697  0.52331708  1
  O2-  O308  1  0.76378775  0.37842272  0.02504764  1
  O2-  O309  1  0.77833617  0.38759535  0.51947850  1
  O2-  O310  1  0.76829535  0.88425417  0.02723782  1
  O2-  O311  1  0.76886395  0.86641779  0.51016520  1
  O2-  O312  1  0.21786612  0.11742386  -0.02119408  1
  O2-  O313  1  0.23360068  0.12991091  0.48490017  1
  O2-  O314  1  0.22611604  0.61299060  -0.02119447  1
  O2-  O315  1  0.22248072  0.61448833  0.47526243  1
  O2-  O316  1  0.73483085  0.13559325  -0.01675095  1
  O2-  O317  1  0.72904105  0.11853826  0.47312643  1
  O2-  O318  1  0.72518355  0.61216403  -0.01916150  1
  O2-  O319  1  0.73136633  0.62717321  0.47835605  1
