# generated using pymatgen
data_Sr64Ca21Nb43O192
_symmetry_space_group_name_H-M   'P 1'
_cell_length_a   16.55471385
_cell_length_b   16.57810771
_cell_length_c   16.71913118
_cell_angle_alpha   89.94541219
_cell_angle_beta   90.05079798
_cell_angle_gamma   89.97337560
_symmetry_Int_Tables_number   1
_chemical_formula_structural   Sr64Ca21Nb43O192
_chemical_formula_sum   'Sr64 Ca21 Nb43 O192'
_cell_volume   4588.49143806
_cell_formula_units_Z   1
loop_
 _symmetry_equiv_pos_site_id
 _symmetry_equiv_pos_as_xyz
  1  'x, y, z'
loop_
 _atom_type_symbol
 _atom_type_oxidation_number
  Sr2+  2.0
  Ca2+  2.0
  Nb5+  5.0
  O2-  -2.0
loop_
 _atom_site_type_symbol
 _atom_site_label
 _atom_site_symmetry_multiplicity
 _atom_site_fract_x
 _atom_site_fract_y
 _atom_site_fract_z
 _atom_site_occupancy
  Sr2+  Sr0  1  0.13032603  0.11646465  0.12688651  1
  Sr2+  Sr1  1  0.13251901  0.11336158  0.62697115  1
  Sr2+  Sr2  1  0.12227322  0.62662707  0.11819970  1
  Sr2+  Sr3  1  0.12006642  0.62546397  0.63351636  1
  Sr2+  Sr4  1  0.61546227  0.11029102  0.12463879  1
  Sr2+  Sr5  1  0.61814816  0.10869242  0.62980744  1
  Sr2+  Sr6  1  0.61800848  0.62461090  0.12857197  1
  Sr2+  Sr7  1  0.62296704  0.63063204  0.62211835  1
  Sr2+  Sr8  1  0.37176829  0.37236452  0.12093200  1
  Sr2+  Sr9  1  0.37673760  0.39687501  0.62306016  1
  Sr2+  Sr10  1  0.37114465  0.85223911  0.12784517  1
  Sr2+  Sr11  1  0.37995123  0.86354476  0.62472752  1
  Sr2+  Sr12  1  0.86670504  0.37746413  0.12754740  1
  Sr2+  Sr13  1  0.86675489  0.35748595  0.63702675  1
  Sr2+  Sr14  1  0.87029804  0.87667065  0.11588528  1
  Sr2+  Sr15  1  0.87581514  0.86967272  0.63038845  1
  Sr2+  Sr16  1  0.10906001  0.37399775  0.37664784  1
  Sr2+  Sr17  1  0.10360577  0.37558015  0.87837247  1
  Sr2+  Sr18  1  0.11946826  0.89087888  0.37423026  1
  Sr2+  Sr19  1  0.12142604  0.87650351  0.86009562  1
  Sr2+  Sr20  1  0.61730546  0.37473188  0.37070622  1
  Sr2+  Sr21  1  0.61055802  0.37750619  0.87809311  1
  Sr2+  Sr22  1  0.62218908  0.87841483  0.37944603  1
  Sr2+  Sr23  1  0.63882175  0.88017263  0.88649030  1
  Sr2+  Sr24  1  0.37408476  0.12958040  0.37773576  1
  Sr2+  Sr25  1  0.37748511  0.13626721  0.87750348  1
  Sr2+  Sr26  1  0.36973646  0.62894281  0.37983735  1
  Sr2+  Sr27  1  0.36735891  0.62656311  0.87335423  1
  Sr2+  Sr28  1  0.88033324  0.13514546  0.37810592  1
  Sr2+  Sr29  1  0.88135284  0.13060751  0.87012445  1
  Sr2+  Sr30  1  0.87421410  0.62621257  0.38294734  1
  Sr2+  Sr31  1  0.88286500  0.62377948  0.87465965  1
  Sr2+  Sr32  1  0.12499117  0.12801731  0.37439340  1
  Sr2+  Sr33  1  0.12415677  0.11846795  0.87800627  1
  Sr2+  Sr34  1  0.10989786  0.63788940  0.37594738  1
  Sr2+  Sr35  1  0.12060343  0.63372360  0.86888509  1
  Sr2+  Sr36  1  0.61677978  0.12240674  0.37818019  1
  Sr2+  Sr37  1  0.63400132  0.13113380  0.86869744  1
  Sr2+  Sr38  1  0.64026358  0.62980086  0.37579628  1
  Sr2+  Sr39  1  0.62518023  0.63153213  0.88405469  1
  Sr2+  Sr40  1  0.37169597  0.37100752  0.38629675  1
  Sr2+  Sr41  1  0.37487881  0.38169736  0.86467108  1
  Sr2+  Sr42  1  0.37578038  0.88187916  0.37439098  1
  Sr2+  Sr43  1  0.37981235  0.87243057  0.87171105  1
  Sr2+  Sr44  1  0.87256513  0.38027526  0.36924754  1
  Sr2+  Sr45  1  0.87379923  0.36976080  0.87533806  1
  Sr2+  Sr46  1  0.87837022  0.86618567  0.38453574  1
  Sr2+  Sr47  1  0.88100347  0.89824852  0.87352291  1
  Sr2+  Sr48  1  0.11880702  0.37629642  0.12389860  1
  Sr2+  Sr49  1  0.14044461  0.37628577  0.62000513  1
  Sr2+  Sr50  1  0.13154447  0.87377831  0.13591946  1
  Sr2+  Sr51  1  0.13064907  0.86291245  0.62697175  1
  Sr2+  Sr52  1  0.61574006  0.37521784  0.12608318  1
  Sr2+  Sr53  1  0.62195832  0.37281456  0.64979997  1
  Sr2+  Sr54  1  0.62774026  0.86532918  0.12479723  1
  Sr2+  Sr55  1  0.62520330  0.87262395  0.61787804  1
  Sr2+  Sr56  1  0.36895861  0.12430568  0.12166927  1
  Sr2+  Sr57  1  0.37956976  0.12785788  0.62985113  1
  Sr2+  Sr58  1  0.35656431  0.61797083  0.12465988  1
  Sr2+  Sr59  1  0.35494775  0.61836838  0.62578175  1
  Sr2+  Sr60  1  0.86390824  0.11195361  0.12370963  1
  Sr2+  Sr61  1  0.85500706  0.11506616  0.63354109  1
  Sr2+  Sr62  1  0.85545451  0.62132398  0.12847903  1
  Sr2+  Sr63  1  0.86563891  0.62981783  0.62465450  1
  Ca2+  Ca64  1  0.50470001  0.50013181  0.49497397  1
  Ca2+  Ca65  1  0.00344701  0.00147695  0.00165030  1
  Ca2+  Ca66  1  0.49757313  -0.00026932  0.00254370  1
  Ca2+  Ca67  1  -0.00248392  0.49743838  0.50361540  1
  Ca2+  Ca68  1  -0.00138095  0.00397530  0.50271151  1
  Ca2+  Ca69  1  0.74625139  0.24984478  0.50034487  1
  Ca2+  Ca70  1  0.24732000  0.75087241  -0.00330775  1
  Ca2+  Ca71  1  0.24954035  0.75198971  0.49643068  1
  Ca2+  Ca72  1  0.74979597  0.25058510  0.00299070  1
  Ca2+  Ca73  1  0.75426202  0.74690943  -0.00170737  1
  Ca2+  Ca74  1  0.49963472  0.74626300  0.25130200  1
  Ca2+  Ca75  1  0.00543346  0.25224879  0.74666663  1
  Ca2+  Ca76  1  0.24511096  0.49784183  0.75431288  1
  Ca2+  Ca77  1  0.74960259  0.50473668  0.75237754  1
  Ca2+  Ca78  1  0.49728340  0.24994588  0.75095476  1
  Ca2+  Ca79  1  0.50255577  0.75089018  0.75072762  1
  Ca2+  Ca80  1  -0.00126831  0.75124759  0.24811568  1
  Ca2+  Ca81  1  0.74923267  -0.00124765  0.25324333  1
  Ca2+  Ca82  1  0.74615469  -0.00467821  0.74933184  1
  Ca2+  Ca83  1  0.24520002  0.49395429  0.25270382  1
  Ca2+  Ca84  1  0.25189750  0.00283443  0.74917027  1
  Nb5+  Nb85  1  0.49287508  0.50102356  0.00282478  1
  Nb5+  Nb86  1  0.49457138  -0.00123025  0.50191446  1
  Nb5+  Nb87  1  -0.00824014  0.50135390  0.00288467  1
  Nb5+  Nb88  1  0.74851324  0.75189644  0.50075945  1
  Nb5+  Nb89  1  0.24764498  0.25246578  0.00424811  1
  Nb5+  Nb90  1  0.25052242  0.24775686  0.50553044  1
  Nb5+  Nb91  1  0.74641890  0.49630549  0.24979253  1
  Nb5+  Nb92  1  0.25250983  -0.00058342  0.24942616  1
  Nb5+  Nb93  1  0.49251247  0.24733730  0.24797052  1
  Nb5+  Nb94  1  -0.00539972  0.24614908  0.24665198  1
  Nb5+  Nb95  1  -0.00278041  0.75129195  0.75069594  1
  Nb5+  Nb96  1  -0.00668495  0.00384302  0.25270813  1
  Nb5+  Nb97  1  0.00159075  0.00638034  0.74553669  1
  Nb5+  Nb98  1  0.00074924  0.50263811  0.24886554  1
  Nb5+  Nb99  1  -0.00177799  0.49732801  0.74780192  1
  Nb5+  Nb100  1  0.49716284  -0.00443800  0.24834447  1
  Nb5+  Nb101  1  0.50067521  -0.00307838  0.76094569  1
  Nb5+  Nb102  1  0.49572949  0.50064267  0.25180578  1
  Nb5+  Nb103  1  0.50431571  0.50707644  0.74580537  1
  Nb5+  Nb104  1  0.24676357  0.25198465  0.25399664  1
  Nb5+  Nb105  1  0.24914655  0.25213677  0.75891951  1
  Nb5+  Nb106  1  0.24651696  0.74297295  0.25431194  1
  Nb5+  Nb107  1  0.25477928  0.74906433  0.74596902  1
  Nb5+  Nb108  1  0.73982741  0.24810832  0.24887447  1
  Nb5+  Nb109  1  0.74965471  0.25024782  0.75176757  1
  Nb5+  Nb110  1  0.75579871  0.75474954  0.25230382  1
  Nb5+  Nb111  1  0.74927598  0.75056518  0.75550049  1
  Nb5+  Nb112  1  -0.00024818  0.25006863  0.50587007  1
  Nb5+  Nb113  1  -0.00034747  0.24732999  1.00548110  1
  Nb5+  Nb114  1  0.00342555  0.75279697  0.50062557  1
  Nb5+  Nb115  1  0.00008261  0.75462565  0.99983219  1
  Nb5+  Nb116  1  0.50175861  0.24887205  0.50271279  1
  Nb5+  Nb117  1  0.50154913  0.25067971  0.99969820  1
  Nb5+  Nb118  1  0.49822817  0.74450451  0.49766140  1
  Nb5+  Nb119  1  0.49579675  0.75150405  1.00025151  1
  Nb5+  Nb120  1  0.25117100  -0.00409645  -0.00153545  1
  Nb5+  Nb121  1  0.25259209  -0.00043489  0.50186298  1
  Nb5+  Nb122  1  0.24015773  0.49720219  -0.00233012  1
  Nb5+  Nb123  1  0.24512214  0.50391037  0.49320411  1
  Nb5+  Nb124  1  0.74853691  0.00226253  0.00087194  1
  Nb5+  Nb125  1  0.75094900  0.00136297  0.49473915  1
  Nb5+  Nb126  1  0.74236355  0.49899984  0.00067135  1
  Nb5+  Nb127  1  0.74982618  0.49475975  0.50301209  1
  O2-  O128  1  -0.01955297  -0.00083409  0.13570532  1
  O2-  O129  1  -0.03621008  0.00437100  0.63340060  1
  O2-  O130  1  0.01317330  0.49420062  0.12204789  1
  O2-  O131  1  0.02694013  0.49126818  0.63758125  1
  O2-  O132  1  0.48095953  0.02613208  0.13727701  1
  O2-  O133  1  0.47415521  0.01058554  0.61550733  1
  O2-  O134  1  0.51257475  0.50538637  0.12816010  1
  O2-  O135  1  0.51518514  0.51423956  0.63130129  1
  O2-  O136  1  0.02574031  0.01452829  0.36702473  1
  O2-  O137  1  0.02521443  -0.00480930  0.86571141  1
  O2-  O138  1  -0.01288792  0.50960377  0.36362371  1
  O2-  O139  1  -0.02198903  0.49483703  0.88569824  1
  O2-  O140  1  0.51199058  -0.00637010  0.37140878  1
  O2-  O141  1  0.52472121  -0.01983664  0.87016357  1
  O2-  O142  1  0.49122218  0.46579024  0.36127488  1
  O2-  O143  1  0.49208775  0.48772638  0.88613353  1
  O2-  O144  1  0.23916347  0.24595192  0.12399762  1
  O2-  O145  1  0.23767127  0.23374529  0.61908649  1
  O2-  O146  1  0.22327076  0.74945073  0.13485471  1
  O2-  O147  1  0.22583461  0.73254785  0.62836091  1
  O2-  O148  1  0.74844341  0.27835127  0.13748698  1
  O2-  O149  1  0.73514882  0.27549326  0.63258109  1
  O2-  O150  1  0.74627150  0.76588120  0.13605301  1
  O2-  O151  1  0.74119228  0.77283781  0.61691506  1
  O2-  O152  1  0.26667428  0.25245341  0.37006900  1
  O2-  O153  1  0.26328250  0.25804119  0.87697091  1
  O2-  O154  1  0.28462711  0.75903582  0.36498229  1
  O2-  O155  1  0.27339688  0.76360306  0.86311400  1
  O2-  O156  1  0.77360538  0.24086484  0.36191757  1
  O2-  O157  1  0.76951869  0.23017416  0.86892077  1
  O2-  O158  1  0.76495234  0.73219107  0.37813983  1
  O2-  O159  1  0.76384895  0.71736155  0.86388637  1
  O2-  O160  1  0.02422678  0.25758741  0.12845027  1
  O2-  O161  1  0.01981366  0.27891044  0.61329068  1
  O2-  O162  1  0.02825005  0.75448338  0.11244358  1
  O2-  O163  1  0.01336063  0.75527138  0.62685612  1
  O2-  O164  1  0.51044489  0.23443217  0.12610879  1
  O2-  O165  1  0.52167266  0.23343947  0.61371241  1
  O2-  O166  1  0.52818514  0.74663025  0.11712112  1
  O2-  O167  1  0.52763809  0.75395751  0.61282418  1
  O2-  O168  1  0.23523805  -0.00437183  0.37124602  1
  O2-  O169  1  0.22297098  -0.00672642  0.88630619  1
  O2-  O170  1  0.26266834  0.47272308  0.38264968  1
  O2-  O171  1  0.27234854  0.49080424  0.88686965  1
  O2-  O172  1  0.71056387  0.00649800  0.38355259  1
  O2-  O173  1  0.72218020  0.01037818  0.88355708  1
  O2-  O174  1  0.77152207  0.51305743  0.36424677  1
  O2-  O175  1  0.75457377  0.52742330  0.88970776  1
  O2-  O176  1  -0.00182366  0.23489972  0.36511176  1
  O2-  O177  1  -0.00810544  0.25407530  0.88821286  1
  O2-  O178  1  -0.01777138  0.73865466  0.38574993  1
  O2-  O179  1  -0.01925351  0.74437353  0.86890021  1
  O2-  O180  1  0.47982199  0.26015621  0.36531945  1
  O2-  O181  1  0.47887545  0.27133513  0.88758324  1
  O2-  O182  1  0.48139080  0.76882910  0.38401852  1
  O2-  O183  1  0.46919232  0.74304074  0.88426841  1
  O2-  O184  1  0.26743260  0.01419014  0.13179679  1
  O2-  O185  1  0.26998837  0.02752827  0.61208511  1
  O2-  O186  1  0.24683055  0.49996158  0.11636413  1
  O2-  O187  1  0.23971496  0.50777873  0.61598975  1
  O2-  O188  1  0.77530046  -0.01368925  0.11971355  1
  O2-  O189  1  0.76309477  -0.02460131  0.60970608  1
  O2-  O190  1  0.74600223  0.47834397  0.12931753  1
  O2-  O191  1  0.72432146  0.48630064  0.61366704  1
  O2-  O192  1  0.13192816  0.26895402  0.26018719  1
  O2-  O193  1  0.13720497  0.29356765  0.75636252  1
  O2-  O194  1  0.13405247  0.77693379  0.27822514  1
  O2-  O195  1  0.11966282  0.76457615  0.76148157  1
  O2-  O196  1  0.62436808  0.26819072  0.26077643  1
  O2-  O197  1  0.63279710  0.27224548  0.77291962  1
  O2-  O198  1  0.63838877  0.76403373  0.27095289  1
  O2-  O199  1  0.63785726  0.77826373  0.76682146  1
  O2-  O200  1  0.37788771  0.22843644  0.23391676  1
  O2-  O201  1  0.36381368  0.21849338  0.74517451  1
  O2-  O202  1  0.36394776  0.72975677  0.22368547  1
  O2-  O203  1  0.36738696  0.73283752  0.72149557  1
  O2-  O204  1  0.88189148  0.22584361  0.23346332  1
  O2-  O205  1  0.87020032  0.22915687  0.72891556  1
  O2-  O206  1  0.86739532  0.71355591  0.24628294  1
  O2-  O207  1  0.88023151  0.73568892  0.72934246  1
  O2-  O208  1  0.28148371  0.36095476  0.24147517  1
  O2-  O209  1  0.28298455  0.36509769  0.73318215  1
  O2-  O210  1  0.26747139  0.88299321  0.24083928  1
  O2-  O211  1  0.25707865  0.86791260  0.72755354  1
  O2-  O212  1  0.76557607  0.37629068  0.26544100  1
  O2-  O213  1  0.77812552  0.36947832  0.76223378  1
  O2-  O214  1  0.78317019  0.86537810  0.26679513  1
  O2-  O215  1  0.78316652  0.86344148  0.76261975  1
  O2-  O216  1  0.23883449  0.12889562  0.25276517  1
  O2-  O217  1  0.21375533  0.13864957  0.75779432  1
  O2-  O218  1  0.22308958  0.63024353  0.26460778  1
  O2-  O219  1  0.23095834  0.63313839  0.76440649  1
  O2-  O220  1  0.72623127  0.13486977  0.23111039  1
  O2-  O221  1  0.72898617  0.13221618  0.72974904  1
  O2-  O222  1  0.73084628  0.61530327  0.23618129  1
  O2-  O223  1  0.73866741  0.63948376  0.71404700  1
  O2-  O224  1  0.11136207  0.46275939  0.25265397  1
  O2-  O225  1  0.11061951  0.49483535  0.78700880  1
  O2-  O226  1  0.13162305  0.99004346  0.23519422  1
  O2-  O227  1  0.11504657  0.98019425  0.71668707  1
  O2-  O228  1  0.62999610  0.47493825  0.25467094  1
  O2-  O229  1  0.61755156  0.47227452  0.76724221  1
  O2-  O230  1  0.61167013  0.97862544  0.23121376  1
  O2-  O231  1  0.61124778  0.97847788  0.71857860  1
  O2-  O232  1  0.37155306  0.02056226  0.27070678  1
  O2-  O233  1  0.38387873  0.02652389  0.77435559  1
  O2-  O234  1  0.38376491  0.52422126  0.24413871  1
  O2-  O235  1  0.38658624  0.53077383  0.75043488  1
  O2-  O236  1  0.88365445  0.03533271  0.26919794  1
  O2-  O237  1  0.88309847  0.01892289  0.77416300  1
  O2-  O238  1  0.87853852  0.50401527  0.22897306  1
  O2-  O239  1  0.88565182  0.53330047  0.74357860  1
  O2-  O240  1  0.49001798  0.36772950  0.22717907  1
  O2-  O241  1  0.47806559  0.38642998  0.73866860  1
  O2-  O242  1  0.46998432  0.88449739  0.24032121  1
  O2-  O243  1  0.46602612  0.88397810  0.74234005  1
  O2-  O244  1  0.97868831  0.36569485  0.25260213  1
  O2-  O245  1  0.97112361  0.38559857  0.75843060  1
  O2-  O246  1  0.98377353  0.88791383  0.26351590  1
  O2-  O247  1  0.98609059  0.87182024  0.75276992  1
  O2-  O248  1  0.02829384  0.12954853  0.23925773  1
  O2-  O249  1  0.02725111  0.11962219  0.74950519  1
  O2-  O250  1  0.02864056  0.61423105  0.24053731  1
  O2-  O251  1  0.01819930  0.63014774  0.75014075  1
  O2-  O252  1  0.51884453  0.13076663  0.26273654  1
  O2-  O253  1  0.52524463  0.11557170  0.75767078  1
  O2-  O254  1  0.52887908  0.60969016  0.26796501  1
  O2-  O255  1  0.53725487  0.61883102  0.76487841  1
  O2-  O256  1  0.12551613  0.47480381  -0.00748604  1
  O2-  O257  1  0.13323272  0.46701665  0.49224030  1
  O2-  O258  1  0.13819655  0.99005241  0.03505967  1
  O2-  O259  1  0.13798249  0.98203408  0.51476628  1
  O2-  O260  1  0.62664377  0.47738531  -0.00115799  1
  O2-  O261  1  0.63973616  0.49470205  0.46137965  1
  O2-  O262  1  0.63164166  0.97375432  0.02603671  1
  O2-  O263  1  0.61314033  0.98757157  0.51571435  1
  O2-  O264  1  0.36250507  0.03389723  -0.01170471  1
  O2-  O265  1  0.37585724  0.01401875  0.47209987  1
  O2-  O266  1  0.37866739  0.51572004  0.01294867  1
  O2-  O267  1  0.36710422  0.51688263  0.50811354  1
  O2-  O268  1  0.86731435  0.02797078  -0.01963611  1
  O2-  O269  1  0.86211051  0.01267403  0.46640611  1
  O2-  O270  1  0.87806902  0.51767316  0.01832082  1
  O2-  O271  1  0.86277510  0.53142385  0.50802378  1
  O2-  O272  1  0.48520849  0.37929235  0.02099459  1
  O2-  O273  1  0.48306140  0.36289809  0.51024145  1
  O2-  O274  1  0.47157673  0.86487888  0.00583108  1
  O2-  O275  1  0.48228801  0.88008618  0.50401570  1
  O2-  O276  1  0.98858730  0.37595792  0.00604424  1
  O2-  O277  1  0.98555967  0.36192153  0.46934269  1
  O2-  O278  1  0.97193072  0.86570420  -0.00363158  1
  O2-  O279  1  0.97388531  0.86849297  0.50275095  1
  O2-  O280  1  0.03413941  0.13718187  0.00461425  1
  O2-  O281  1  0.03729623  0.13847305  0.50362480  1
  O2-  O282  1  0.02692508  0.61453254  -0.00254054  1
  O2-  O283  1  0.02276672  0.63448354  0.51108816  1
  O2-  O284  1  0.51803879  0.13749360  -0.01755575  1
  O2-  O285  1  0.50622475  0.12177676  0.48440523  1
  O2-  O286  1  0.52241695  0.61525491  -0.00156877  1
  O2-  O287  1  0.52332303  0.63384197  0.47904098  1
  O2-  O288  1  0.13162414  0.27757248  -0.00620847  1
  O2-  O289  1  0.13672694  0.26975368  0.48361067  1
  O2-  O290  1  0.11322433  0.76213191  -0.03618861  1
  O2-  O291  1  0.11550365  0.77923648  0.48203758  1
  O2-  O292  1  0.61418284  0.27843547  -0.00422772  1
  O2-  O293  1  0.61181904  0.25415936  0.46526462  1
  O2-  O294  1  0.61531999  0.75895354  -0.02618378  1
  O2-  O295  1  0.62822202  0.76706278  0.48173329  1
  O2-  O296  1  0.37258272  0.23900227  0.01747289  1
  O2-  O297  1  0.37649384  0.22783978  0.50385012  1
  O2-  O298  1  0.38242201  0.72081161  0.02565654  1
  O2-  O299  1  0.38547941  0.72638856  0.52165662  1
  O2-  O300  1  0.88851840  0.22976109  0.02447771  1
  O2-  O301  1  0.88776911  0.22231519  0.51654330  1
  O2-  O302  1  0.89015386  0.71310563  0.01006409  1
  O2-  O303  1  0.86972530  0.73781087  0.51273610  1
  O2-  O304  1  0.27064826  0.37284406  0.00588381  1
  O2-  O305  1  0.27558369  0.36377020  0.51290739  1
  O2-  O306  1  0.27727569  0.88519321  0.01082825  1
  O2-  O307  1  0.27811409  0.88656260  0.50776991  1
  O2-  O308  1  0.77843531  0.38711872  -0.00946694  1
  O2-  O309  1  0.77707429  0.38434327  0.48700440  1
  O2-  O310  1  0.77339659  0.88132064  -0.01586402  1
  O2-  O311  1  0.75618349  0.87208616  0.47585246  1
  O2-  O312  1  0.23092154  0.13519634  -0.00645249  1
  O2-  O313  1  0.24046837  0.12760469  0.48054626  1
  O2-  O314  1  0.22919980  0.61365364  -0.00580418  1
  O2-  O315  1  0.22810528  0.61621618  0.47121730  1
  O2-  O316  1  0.72491747  0.11797503  0.02244256  1
  O2-  O317  1  0.73215183  0.11390614  0.51918314  1
  O2-  O318  1  0.73320357  0.61293395  0.03292913  1
  O2-  O319  1  0.73005084  0.63279867  0.51089549  1
