# generated using pymatgen
data_Sr64Ca21Nb43O192
_symmetry_space_group_name_H-M   'P 1'
_cell_length_a   16.57752089
_cell_length_b   16.57587687
_cell_length_c   16.74063156
_cell_angle_alpha   89.94730235
_cell_angle_beta   90.06435894
_cell_angle_gamma   90.01789344
_symmetry_Int_Tables_number   1
_chemical_formula_structural   Sr64Ca21Nb43O192
_chemical_formula_sum   'Sr64 Ca21 Nb43 O192'
_cell_volume   4600.10193313
_cell_formula_units_Z   1
loop_
 _symmetry_equiv_pos_site_id
 _symmetry_equiv_pos_as_xyz
  1  'x, y, z'
loop_
 _atom_type_symbol
 _atom_type_oxidation_number
  Sr2+  2.0
  Ca2+  2.0
  Nb5+  5.0
  O2-  -2.0
loop_
 _atom_site_type_symbol
 _atom_site_label
 _atom_site_symmetry_multiplicity
 _atom_site_fract_x
 _atom_site_fract_y
 _atom_site_fract_z
 _atom_site_occupancy
  Sr2+  Sr0  1  0.10647707  0.11674821  0.12426531  1
  Sr2+  Sr1  1  0.12051518  0.10864180  0.63054295  1
  Sr2+  Sr2  1  0.11769012  0.62499458  0.12853705  1
  Sr2+  Sr3  1  0.11350286  0.63055777  0.62013532  1
  Sr2+  Sr4  1  0.61789882  0.11413329  0.13220741  1
  Sr2+  Sr5  1  0.61524008  0.11621178  0.62584309  1
  Sr2+  Sr6  1  0.62109728  0.63753728  0.12202608  1
  Sr2+  Sr7  1  0.61324964  0.62620073  0.61419490  1
  Sr2+  Sr8  1  0.36656122  0.37192454  0.12436721  1
  Sr2+  Sr9  1  0.37506149  0.35746794  0.62648909  1
  Sr2+  Sr10  1  0.37368216  0.87413828  0.12129656  1
  Sr2+  Sr11  1  0.36926794  0.87951925  0.62239688  1
  Sr2+  Sr12  1  0.86845503  0.36453736  0.13125069  1
  Sr2+  Sr13  1  0.86549135  0.36457336  0.61451332  1
  Sr2+  Sr14  1  0.86811974  0.88008875  0.12555498  1
  Sr2+  Sr15  1  0.87716400  0.87714602  0.62997467  1
  Sr2+  Sr16  1  0.13934159  0.37532279  0.37055004  1
  Sr2+  Sr17  1  0.13610821  0.38953777  0.87113116  1
  Sr2+  Sr18  1  0.13117999  0.87948104  0.39375390  1
  Sr2+  Sr19  1  0.13294071  0.87125093  0.87308676  1
  Sr2+  Sr20  1  0.64076428  0.38380968  0.37579561  1
  Sr2+  Sr21  1  0.63327588  0.37724424  0.87179213  1
  Sr2+  Sr22  1  0.63652389  0.87754514  0.38336449  1
  Sr2+  Sr23  1  0.63170747  0.88198220  0.87315381  1
  Sr2+  Sr24  1  0.37722332  0.13199568  0.37070918  1
  Sr2+  Sr25  1  0.38376911  0.12951504  0.87243345  1
  Sr2+  Sr26  1  0.38073572  0.62154979  0.36907640  1
  Sr2+  Sr27  1  0.35890573  0.62565995  0.88106422  1
  Sr2+  Sr28  1  0.89025772  0.13057591  0.37535879  1
  Sr2+  Sr29  1  0.88588124  0.13866139  0.87981537  1
  Sr2+  Sr30  1  0.88536560  0.62866682  0.37551321  1
  Sr2+  Sr31  1  0.87174322  0.62577890  0.86369376  1
  Sr2+  Sr32  1  0.12528895  0.14289061  0.37134855  1
  Sr2+  Sr33  1  0.13599184  0.12664960  0.87593133  1
  Sr2+  Sr34  1  0.13313450  0.61724848  0.37920755  1
  Sr2+  Sr35  1  0.12540132  0.62344652  0.86651449  1
  Sr2+  Sr36  1  0.63215445  0.12537519  0.37568951  1
  Sr2+  Sr37  1  0.62643191  0.13712624  0.87314018  1
  Sr2+  Sr38  1  0.62130501  0.62649814  0.38255256  1
  Sr2+  Sr39  1  0.62894313  0.63250358  0.87161405  1
  Sr2+  Sr40  1  0.37750283  0.38766115  0.36469758  1
  Sr2+  Sr41  1  0.38985140  0.38656239  0.87550243  1
  Sr2+  Sr42  1  0.38438959  0.86375302  0.37534551  1
  Sr2+  Sr43  1  0.37476054  0.88332832  0.87197617  1
  Sr2+  Sr44  1  0.88634079  0.38236581  0.37760686  1
  Sr2+  Sr45  1  0.87789673  0.39040900  0.87911224  1
  Sr2+  Sr46  1  0.87995168  0.89246311  0.37895316  1
  Sr2+  Sr47  1  0.88663576  0.87320145  0.87273198  1
  Sr2+  Sr48  1  0.11019912  0.37291412  0.12867086  1
  Sr2+  Sr49  1  0.11697747  0.36630265  0.62741505  1
  Sr2+  Sr50  1  0.10771290  0.87310262  0.12472651  1
  Sr2+  Sr51  1  0.10812180  0.87610713  0.63134134  1
  Sr2+  Sr52  1  0.62409259  0.37005102  0.12170753  1
  Sr2+  Sr53  1  0.61848538  0.36973007  0.61799212  1
  Sr2+  Sr54  1  0.61505444  0.88055581  0.12443482  1
  Sr2+  Sr55  1  0.64408030  0.87447229  0.62176564  1
  Sr2+  Sr56  1  0.37011184  0.11500021  0.12783922  1
  Sr2+  Sr57  1  0.35708275  0.12384014  0.62695585  1
  Sr2+  Sr58  1  0.36494704  0.62836725  0.13053749  1
  Sr2+  Sr59  1  0.37197471  0.62270983  0.59855423  1
  Sr2+  Sr60  1  0.86958068  0.12650845  0.12782762  1
  Sr2+  Sr61  1  0.86508057  0.11455798  0.61439267  1
  Sr2+  Sr62  1  0.86319884  0.62743159  0.13149299  1
  Sr2+  Sr63  1  0.86874146  0.62911753  0.62481525  1
  Ca2+  Ca64  1  0.00137665  0.00194105  0.50007185  1
  Ca2+  Ca65  1  0.00474640  0.49970706  0.50209639  1
  Ca2+  Ca66  1  0.49648465  0.00246333  0.50255074  1
  Ca2+  Ca67  1  -0.00157686  0.50313647  0.00029323  1
  Ca2+  Ca68  1  -0.00236670  0.00022164  -0.00197513  1
  Ca2+  Ca69  1  0.74785728  0.24815937  0.49819856  1
  Ca2+  Ca70  1  0.24957740  0.25047676  0.50034513  1
  Ca2+  Ca71  1  0.25008963  0.25186707  0.00051276  1
  Ca2+  Ca72  1  0.75392074  0.74779864  0.49992607  1
  Ca2+  Ca73  1  0.25011224  0.75228749  0.49984480  1
  Ca2+  Ca74  1  -0.00153488  0.25035256  0.75165833  1
  Ca2+  Ca75  1  0.75030561  -0.00120289  0.24879456  1
  Ca2+  Ca76  1  0.74942292  0.00288871  0.75464392  1
  Ca2+  Ca77  1  0.00011375  0.74903380  0.25004318  1
  Ca2+  Ca78  1  0.24788774  0.00147726  0.24782194  1
  Ca2+  Ca79  1  0.74880430  0.50006107  0.24892114  1
  Ca2+  Ca80  1  0.50374070  0.74968798  0.24909420  1
  Ca2+  Ca81  1  0.74684216  0.49449924  0.74776449  1
  Ca2+  Ca82  1  0.49695408  0.74937949  0.74890891  1
  Ca2+  Ca83  1  0.50094858  0.25037999  0.24869696  1
  Ca2+  Ca84  1  0.25576898  0.50023819  0.74691364  1
  Nb5+  Nb85  1  0.49897959  0.00666743  -0.00300471  1
  Nb5+  Nb86  1  0.50101394  0.49409723  0.49223928  1
  Nb5+  Nb87  1  0.50539274  0.50826577  -0.00500431  1
  Nb5+  Nb88  1  0.74990481  0.25419310  -0.00152642  1
  Nb5+  Nb89  1  0.74886396  0.75812661  -0.00211361  1
  Nb5+  Nb90  1  0.24346641  0.75220233  0.00239190  1
  Nb5+  Nb91  1  -0.00109355  0.25166080  0.24937826  1
  Nb5+  Nb92  1  0.50026870  0.24959729  0.74998189  1
  Nb5+  Nb93  1  0.00033787  0.74977175  0.75331795  1
  Nb5+  Nb94  1  0.24892680  0.00023682  0.75042389  1
  Nb5+  Nb95  1  0.25060230  0.50117317  0.24833262  1
  Nb5+  Nb96  1  -0.00106116  -0.00503243  0.24719925  1
  Nb5+  Nb97  1  -0.00304649  0.00443677  0.75983691  1
  Nb5+  Nb98  1  -0.00082812  0.50353198  0.25362347  1
  Nb5+  Nb99  1  -0.00149131  0.49375950  0.74420373  1
  Nb5+  Nb100  1  0.49874113  -0.00372996  0.25907840  1
  Nb5+  Nb101  1  0.49685974  -0.00234731  0.74834083  1
  Nb5+  Nb102  1  0.50224356  0.49894175  0.23788472  1
  Nb5+  Nb103  1  0.50158939  0.50308317  0.74187565  1
  Nb5+  Nb104  1  0.24975538  0.24659252  0.23986432  1
  Nb5+  Nb105  1  0.24948239  0.25565281  0.75858061  1
  Nb5+  Nb106  1  0.24763346  0.75291644  0.25296495  1
  Nb5+  Nb107  1  0.25258210  0.74933068  0.74846311  1
  Nb5+  Nb108  1  0.74904324  0.24756903  0.25423995  1
  Nb5+  Nb109  1  0.75160466  0.24647001  0.74762902  1
  Nb5+  Nb110  1  0.75028678  0.74653403  0.25340910  1
  Nb5+  Nb111  1  0.74881315  0.75401755  0.74944067  1
  Nb5+  Nb112  1  0.00341688  0.24801012  0.50712480  1
  Nb5+  Nb113  1  0.00340286  0.25822456  0.99593075  1
  Nb5+  Nb114  1  0.00158427  0.75339132  0.49550774  1
  Nb5+  Nb115  1  -0.00877941  0.74424272  1.00037273  1
  Nb5+  Nb116  1  0.49741525  0.25001211  0.49209649  1
  Nb5+  Nb117  1  0.49994044  0.25516026  1.00260510  1
  Nb5+  Nb118  1  0.49815752  0.75566153  0.50277748  1
  Nb5+  Nb119  1  0.49477542  0.75559533  0.99602305  1
  Nb5+  Nb120  1  0.24654854  0.00054573  0.00207521  1
  Nb5+  Nb121  1  0.24825779  0.00743640  0.49246607  1
  Nb5+  Nb122  1  0.25035928  0.49911636  0.00312220  1
  Nb5+  Nb123  1  0.25282021  0.49240647  0.50611627  1
  Nb5+  Nb124  1  0.74715728  0.01088095  -0.00216091  1
  Nb5+  Nb125  1  0.74795829  0.00084482  0.49910783  1
  Nb5+  Nb126  1  0.74946408  0.50890128  -0.00041989  1
  Nb5+  Nb127  1  0.75625923  0.50151330  0.49792391  1
  O2-  O128  1  -0.02112673  0.02449607  0.13000788  1
  O2-  O129  1  -0.01225551  0.01774863  0.64050977  1
  O2-  O130  1  -0.00665920  0.52254093  0.13698639  1
  O2-  O131  1  -0.00914311  0.53902900  0.63536931  1
  O2-  O132  1  0.48565324  0.01653358  0.11392911  1
  O2-  O133  1  0.47774450  0.02773296  0.63879209  1
  O2-  O134  1  0.49050832  0.52391817  0.12549978  1
  O2-  O135  1  0.48330521  0.51272291  0.62849150  1
  O2-  O136  1  0.01743569  -0.02425091  0.36334194  1
  O2-  O137  1  0.02094009  -0.03112268  0.86867559  1
  O2-  O138  1  0.02542558  0.47260518  0.36569469  1
  O2-  O139  1  0.01814104  0.48076538  0.86350466  1
  O2-  O140  1  0.50628656  -0.03158048  0.36915688  1
  O2-  O141  1  0.50811716  -0.01679035  0.87592843  1
  O2-  O142  1  0.51099984  0.47573950  0.37874631  1
  O2-  O143  1  0.51879732  0.48226282  0.88445219  1
  O2-  O144  1  0.23522791  0.28885453  0.13073399  1
  O2-  O145  1  0.24218622  0.27173948  0.64099648  1
  O2-  O146  1  0.27401389  0.76024664  0.11708435  1
  O2-  O147  1  0.27252756  0.76473744  0.63715238  1
  O2-  O148  1  0.73810891  0.27070264  0.11690223  1
  O2-  O149  1  0.73645668  0.27502048  0.63728223  1
  O2-  O150  1  0.77852600  0.75994987  0.11001841  1
  O2-  O151  1  0.77166754  0.76934793  0.63754735  1
  O2-  O152  1  0.25544404  0.23167199  0.35879761  1
  O2-  O153  1  0.26234025  0.21578033  0.86935457  1
  O2-  O154  1  0.22156201  0.73933331  0.36389680  1
  O2-  O155  1  0.23225933  0.73369619  0.88369186  1
  O2-  O156  1  0.76199573  0.21615011  0.36379177  1
  O2-  O157  1  0.75761541  0.22074615  0.88267668  1
  O2-  O158  1  0.72759202  0.73216861  0.36434103  1
  O2-  O159  1  0.74352571  0.73008259  0.88051683  1
  O2-  O160  1  0.01198957  0.23845724  0.12309504  1
  O2-  O161  1  0.02833637  0.22987348  0.61785809  1
  O2-  O162  1  -0.01102844  0.71992742  0.11289949  1
  O2-  O163  1  -0.00591627  0.73401320  0.63654885  1
  O2-  O164  1  0.52976750  0.23765911  0.11342653  1
  O2-  O165  1  0.51994275  0.24069022  0.63513231  1
  O2-  O166  1  0.49427698  0.72685625  0.10988017  1
  O2-  O167  1  0.47896741  0.72316119  0.61683482  1
  O2-  O168  1  0.22455462  0.02605448  0.38229202  1
  O2-  O169  1  0.23573261  0.00639558  0.87769036  1
  O2-  O170  1  0.24214170  0.51342510  0.36662441  1
  O2-  O171  1  0.23977605  0.52230758  0.88830574  1
  O2-  O172  1  0.72390359  0.01049108  0.38186584  1
  O2-  O173  1  0.71381154  0.01029030  0.88684786  1
  O2-  O174  1  0.72070627  0.51534191  0.38367341  1
  O2-  O175  1  0.71573018  0.50746485  0.88680897  1
  O2-  O176  1  -0.01839949  0.26434780  0.36488592  1
  O2-  O177  1  -0.02970018  0.27039668  0.88476748  1
  O2-  O178  1  0.00839638  0.77984054  0.38408556  1
  O2-  O179  1  0.01186385  0.77254784  0.87564275  1
  O2-  O180  1  0.46783456  0.26578063  0.38347324  1
  O2-  O181  1  0.48413014  0.26082286  0.87975493  1
  O2-  O182  1  0.52230643  0.76495787  0.38534529  1
  O2-  O183  1  0.52785013  0.76201970  0.88514334  1
  O2-  O184  1  0.27931861  -0.01353491  0.11197470  1
  O2-  O185  1  0.26894790  -0.01287321  0.63629161  1
  O2-  O186  1  0.27502367  0.49477912  0.12438139  1
  O2-  O187  1  0.28542544  0.48055618  0.61517355  1
  O2-  O188  1  0.75050487  -0.02501280  0.10944031  1
  O2-  O189  1  0.76939783  -0.01796587  0.62006169  1
  O2-  O190  1  0.76716414  0.47795800  0.11098512  1
  O2-  O191  1  0.76402785  0.47529873  0.61400338  1
  O2-  O192  1  0.12069075  0.26987611  0.25837879  1
  O2-  O193  1  0.13435438  0.27057879  0.77336060  1
  O2-  O194  1  0.13621198  0.75593673  0.21409585  1
  O2-  O195  1  0.12597196  0.76741506  0.74792680  1
  O2-  O196  1  0.63607456  0.27142467  0.26549862  1
  O2-  O197  1  0.61635652  0.26525394  0.77159991  1
  O2-  O198  1  0.63796131  0.76777632  0.21826639  1
  O2-  O199  1  0.63486526  0.77086342  0.74008194  1
  O2-  O200  1  0.36489154  0.23250027  0.22748637  1
  O2-  O201  1  0.37773099  0.22927841  0.74096064  1
  O2-  O202  1  0.36476753  0.72624254  0.25846361  1
  O2-  O203  1  0.36265347  0.74161305  0.78357229  1
  O2-  O204  1  0.87965591  0.23542553  0.23066101  1
  O2-  O205  1  0.86303945  0.21673433  0.73580076  1
  O2-  O206  1  0.86737470  0.71590758  0.25562484  1
  O2-  O207  1  0.88167098  0.74343018  0.76755415  1
  O2-  O208  1  0.26637294  0.38167312  0.26196936  1
  O2-  O209  1  0.27368920  0.36602025  0.78307921  1
  O2-  O210  1  0.26828119  0.86629163  0.26411018  1
  O2-  O211  1  0.25814047  0.87702423  0.76987648  1
  O2-  O212  1  0.77870219  0.36229349  0.26428815  1
  O2-  O213  1  0.76370367  0.35762260  0.78486951  1
  O2-  O214  1  0.78049440  0.86188476  0.26004989  1
  O2-  O215  1  0.76746679  0.86725453  0.78099735  1
  O2-  O216  1  0.22673185  0.13712138  0.21471274  1
  O2-  O217  1  0.23324901  0.11990629  0.73712531  1
  O2-  O218  1  0.23657584  0.62101834  0.23199775  1
  O2-  O219  1  0.23184760  0.63571162  0.73789997  1
  O2-  O220  1  0.73965811  0.13507914  0.21606625  1
  O2-  O221  1  0.71176865  0.13463598  0.74021734  1
  O2-  O222  1  0.73296594  0.63117932  0.21707172  1
  O2-  O223  1  0.74670885  0.63456506  0.74352589  1
  O2-  O224  1  0.13343631  0.48531942  0.23035187  1
  O2-  O225  1  0.12043226  0.48113733  0.73385624  1
  O2-  O226  1  0.11516764  0.99404778  0.22011001  1
  O2-  O227  1  0.12961056  0.98671964  0.73870177  1
  O2-  O228  1  0.61389749  0.46976014  0.23619671  1
  O2-  O229  1  0.61126820  0.46204482  0.73899542  1
  O2-  O230  1  0.61403179  0.98173591  0.23168010  1
  O2-  O231  1  0.60989965  0.97805844  0.73468297  1
  O2-  O232  1  0.38324570  0.03080493  0.25895400  1
  O2-  O233  1  0.36853149  0.01602829  0.77326440  1
  O2-  O234  1  0.37412467  0.51743137  0.25858242  1
  O2-  O235  1  0.39137968  0.51250221  0.78213977  1
  O2-  O236  1  0.88433364  0.02176706  0.26998380  1
  O2-  O237  1  0.88394646  0.01452331  0.78157471  1
  O2-  O238  1  0.88580848  0.51278745  0.27323091  1
  O2-  O239  1  0.88267686  0.50934852  0.77000882  1
  O2-  O240  1  0.46961064  0.38513414  0.23318252  1
  O2-  O241  1  0.47510847  0.36761954  0.74346878  1
  O2-  O242  1  0.47460232  0.88348307  0.22622203  1
  O2-  O243  1  0.46647947  0.88594355  0.73956882  1
  O2-  O244  1  0.98803360  0.37385207  0.22984193  1
  O2-  O245  1  0.98221358  0.38281563  0.71347805  1
  O2-  O246  1  0.98301262  0.88241574  0.22171006  1
  O2-  O247  1  0.98850714  0.87401799  0.73544595  1
  O2-  O248  1  0.01748787  0.13311848  0.26215512  1
  O2-  O249  1  0.02260236  0.11622228  0.77867466  1
  O2-  O250  1  0.02396642  0.61525106  0.27671563  1
  O2-  O251  1  0.01213783  0.63284449  0.77229628  1
  O2-  O252  1  0.52524250  0.11564477  0.26758741  1
  O2-  O253  1  0.51000661  0.12662307  0.77266686  1
  O2-  O254  1  0.51570255  0.61099991  0.27433746  1
  O2-  O255  1  0.53327244  0.61236243  0.75839943  1
  O2-  O256  1  0.13832011  0.48429068  0.02068159  1
  O2-  O257  1  0.13957841  0.47339763  0.51997358  1
  O2-  O258  1  0.13545463  0.97344305  0.01529331  1
  O2-  O259  1  0.13536057  0.97577654  0.52296896  1
  O2-  O260  1  0.61996863  0.48957135  0.02627156  1
  O2-  O261  1  0.61677337  0.48300287  0.51686801  1
  O2-  O262  1  0.61480590  0.98305925  0.01112858  1
  O2-  O263  1  0.62916090  0.97502689  0.51745761  1
  O2-  O264  1  0.37769306  0.00862125  -0.02107133  1
  O2-  O265  1  0.36394754  0.03538828  0.48985553  1
  O2-  O266  1  0.38644184  0.51737483  -0.00759679  1
  O2-  O267  1  0.38040390  0.51618418  0.48122245  1
  O2-  O268  1  0.86028665  0.02228948  -0.01940405  1
  O2-  O269  1  0.86558471  0.02385665  0.48130098  1
  O2-  O270  1  0.86195342  0.51689078  -0.02710834  1
  O2-  O271  1  0.86903774  0.51923153  0.47843112  1
  O2-  O272  1  0.48998699  0.37384508  0.01543875  1
  O2-  O273  1  0.48073843  0.37915247  0.52189406  1
  O2-  O274  1  0.48689208  0.87229932  0.01304189  1
  O2-  O275  1  0.47314889  0.86682178  0.51746270  1
  O2-  O276  1  0.97103865  0.36910625  0.02303928  1
  O2-  O277  1  0.97767304  0.36525496  0.51580175  1
  O2-  O278  1  0.98253922  0.86201347  0.02047919  1
  O2-  O279  1  0.97604707  0.86723818  0.52362634  1
  O2-  O280  1  0.01761082  0.13886438  -0.01766253  1
  O2-  O281  1  0.01611583  0.13463637  0.47145045  1
  O2-  O282  1  0.02823447  0.63544295  -0.02407892  1
  O2-  O283  1  0.03213355  0.63563420  0.48513682  1
  O2-  O284  1  0.51331187  0.12233314  -0.01865711  1
  O2-  O285  1  0.52303251  0.13749307  0.48178324  1
  O2-  O286  1  0.51974568  0.62355570  -0.01894321  1
  O2-  O287  1  0.51520647  0.61451094  0.49049837  1
  O2-  O288  1  0.11478510  0.28407526  -0.01744734  1
  O2-  O289  1  0.11587544  0.27316549  0.47661010  1
  O2-  O290  1  0.13009799  0.76632458  0.01574181  1
  O2-  O291  1  0.11754927  0.77386330  0.52261052  1
  O2-  O292  1  0.62531215  0.26088231  -0.02021265  1
  O2-  O293  1  0.61142559  0.28155728  0.48820417  1
  O2-  O294  1  0.63289212  0.76374171  0.01419348  1
  O2-  O295  1  0.61589866  0.75827377  0.52574997  1
  O2-  O296  1  0.38760356  0.23144083  0.02025913  1
  O2-  O297  1  0.38626135  0.23675610  0.53087018  1
  O2-  O298  1  0.38096206  0.74004419  -0.01929638  1
  O2-  O299  1  0.38346521  0.72661337  0.47571976  1
  O2-  O300  1  0.86551701  0.22998925  0.01375065  1
  O2-  O301  1  0.88324945  0.22902049  0.51732433  1
  O2-  O302  1  0.87698993  0.72871249  -0.02056370  1
  O2-  O303  1  0.88766806  0.71798039  0.49823109  1
  O2-  O304  1  0.27891459  0.38871675  -0.01627549  1
  O2-  O305  1  0.27299535  0.38288334  0.46910891  1
  O2-  O306  1  0.26844754  0.86839841  -0.01660672  1
  O2-  O307  1  0.27639664  0.88916954  0.48098797  1
  O2-  O308  1  0.75856421  0.36924885  -0.02064032  1
  O2-  O309  1  0.76562362  0.38208754  0.47429141  1
  O2-  O310  1  0.76503189  0.87130269  -0.02251330  1
  O2-  O311  1  0.76677020  0.88085485  0.48025346  1
  O2-  O312  1  0.22853129  0.11409472  0.01392515  1
  O2-  O313  1  0.22690383  0.11868665  0.53081324  1
  O2-  O314  1  0.25002344  0.62907557  0.01768689  1
  O2-  O315  1  0.23764752  0.61210196  0.50962232  1
  O2-  O316  1  0.72563139  0.12350563  0.02052275  1
  O2-  O317  1  0.72379361  0.11638453  0.52388320  1
  O2-  O318  1  0.73446959  0.62407859  0.01532084  1
  O2-  O319  1  0.73036161  0.61478507  0.52384381  1
