# generated using pymatgen
data_Sr64Ca21Nb43O192
_symmetry_space_group_name_H-M   'P 1'
_cell_length_a   16.54926264
_cell_length_b   16.56861240
_cell_length_c   16.69947539
_cell_angle_alpha   90.04405917
_cell_angle_beta   89.97888013
_cell_angle_gamma   90.04559929
_symmetry_Int_Tables_number   1
_chemical_formula_structural   Sr64Ca21Nb43O192
_chemical_formula_sum   'Sr64 Ca21 Nb43 O192'
_cell_volume   4578.96495277
_cell_formula_units_Z   1
loop_
 _symmetry_equiv_pos_site_id
 _symmetry_equiv_pos_as_xyz
  1  'x, y, z'
loop_
 _atom_type_symbol
 _atom_type_oxidation_number
  Sr2+  2.0
  Ca2+  2.0
  Nb5+  5.0
  O2-  -2.0
loop_
 _atom_site_type_symbol
 _atom_site_label
 _atom_site_symmetry_multiplicity
 _atom_site_fract_x
 _atom_site_fract_y
 _atom_site_fract_z
 _atom_site_occupancy
  Sr2+  Sr0  1  0.13041321  0.12508405  0.11738331  1
  Sr2+  Sr1  1  0.12490071  0.13130418  0.63259707  1
  Sr2+  Sr2  1  0.12679672  0.63669186  0.11416994  1
  Sr2+  Sr3  1  0.11904532  0.63537826  0.62171899  1
  Sr2+  Sr4  1  0.63258423  0.13728079  0.12317630  1
  Sr2+  Sr5  1  0.63601852  0.12543170  0.62459332  1
  Sr2+  Sr6  1  0.62927677  0.64777688  0.12418456  1
  Sr2+  Sr7  1  0.62492370  0.64067795  0.62628242  1
  Sr2+  Sr8  1  0.38564077  0.38472390  0.12020092  1
  Sr2+  Sr9  1  0.37615679  0.39034407  0.62422160  1
  Sr2+  Sr10  1  0.37663480  0.88020553  0.13512236  1
  Sr2+  Sr11  1  0.38829794  0.88605553  0.62706618  1
  Sr2+  Sr12  1  0.87463707  0.38336828  0.12292896  1
  Sr2+  Sr13  1  0.87355786  0.37913250  0.62703883  1
  Sr2+  Sr14  1  0.86944647  0.88854467  0.12735153  1
  Sr2+  Sr15  1  0.86084576  0.87765598  0.63135667  1
  Sr2+  Sr16  1  0.13107663  0.36826057  0.37375968  1
  Sr2+  Sr17  1  0.12534604  0.37385673  0.87690709  1
  Sr2+  Sr18  1  0.12656919  0.87339085  0.37096994  1
  Sr2+  Sr19  1  0.12391621  0.87061805  0.87772805  1
  Sr2+  Sr20  1  0.61369298  0.37075683  0.37515253  1
  Sr2+  Sr21  1  0.61305553  0.36469198  0.87747910  1
  Sr2+  Sr22  1  0.61674008  0.87013972  0.37181151  1
  Sr2+  Sr23  1  0.61170576  0.86686289  0.87662734  1
  Sr2+  Sr24  1  0.36342215  0.11966001  0.37876169  1
  Sr2+  Sr25  1  0.36688235  0.11154431  0.87404106  1
  Sr2+  Sr26  1  0.36772124  0.62106205  0.37505966  1
  Sr2+  Sr27  1  0.36187174  0.62392348  0.86991213  1
  Sr2+  Sr28  1  0.88734359  0.11697259  0.37803116  1
  Sr2+  Sr29  1  0.88535624  0.12561681  0.87203243  1
  Sr2+  Sr30  1  0.88291954  0.61704135  0.37062078  1
  Sr2+  Sr31  1  0.88720588  0.61416352  0.87595998  1
  Sr2+  Sr32  1  0.12602343  0.11510042  0.37663392  1
  Sr2+  Sr33  1  0.11650034  0.10653339  0.87090434  1
  Sr2+  Sr34  1  0.11846906  0.64702820  0.37685002  1
  Sr2+  Sr35  1  0.12666646  0.64576707  0.88059252  1
  Sr2+  Sr36  1  0.62594762  0.12024788  0.37602118  1
  Sr2+  Sr37  1  0.62151525  0.11176032  0.88439519  1
  Sr2+  Sr38  1  0.62269591  0.61983429  0.37134055  1
  Sr2+  Sr39  1  0.61776622  0.62717587  0.86913981  1
  Sr2+  Sr40  1  0.37585142  0.35895794  0.37507607  1
  Sr2+  Sr41  1  0.36692781  0.36724703  0.88149829  1
  Sr2+  Sr42  1  0.36232768  0.86371117  0.37443328  1
  Sr2+  Sr43  1  0.37134420  0.86284546  0.86520151  1
  Sr2+  Sr44  1  0.87779670  0.37439201  0.37499960  1
  Sr2+  Sr45  1  0.87811998  0.36962233  0.87382089  1
  Sr2+  Sr46  1  0.88383689  0.86925902  0.37105828  1
  Sr2+  Sr47  1  0.87640407  0.86667616  0.87220983  1
  Sr2+  Sr48  1  0.14023965  0.38406564  0.12248957  1
  Sr2+  Sr49  1  0.13433521  0.38127680  0.62668316  1
  Sr2+  Sr50  1  0.13578303  0.87967309  0.12231639  1
  Sr2+  Sr51  1  0.12983109  0.88218718  0.62736063  1
  Sr2+  Sr52  1  0.62523669  0.37719427  0.12287001  1
  Sr2+  Sr53  1  0.62383962  0.38287880  0.62700140  1
  Sr2+  Sr54  1  0.62934546  0.88509457  0.11908892  1
  Sr2+  Sr55  1  0.62606788  0.87610397  0.63662773  1
  Sr2+  Sr56  1  0.39088514  0.12892209  0.12795152  1
  Sr2+  Sr57  1  0.38310120  0.12886297  0.62534586  1
  Sr2+  Sr58  1  0.37775795  0.63532593  0.12281790  1
  Sr2+  Sr59  1  0.38596761  0.63097348  0.62489203  1
  Sr2+  Sr60  1  0.87999683  0.13251296  0.13235112  1
  Sr2+  Sr61  1  0.87482713  0.13542073  0.62790115  1
  Sr2+  Sr62  1  0.86818456  0.62669158  0.12003759  1
  Sr2+  Sr63  1  0.86002973  0.62646198  0.61726681  1
  Ca2+  Ca64  1  0.49636486  -0.00217744  0.00158458  1
  Ca2+  Ca65  1  0.50436198  0.50367015  -0.00114866  1
  Ca2+  Ca66  1  -0.00118423  0.00014374  0.50388930  1
  Ca2+  Ca67  1  -0.00251333  0.00102057  0.00182962  1
  Ca2+  Ca68  1  0.50112931  0.00302907  0.49575617  1
  Ca2+  Ca69  1  0.74836720  0.75097598  0.49545270  1
  Ca2+  Ca70  1  0.24868104  0.24599172  -0.00046173  1
  Ca2+  Ca71  1  0.25413110  0.75348450  0.00026858  1
  Ca2+  Ca72  1  0.25086774  0.74808463  0.50547484  1
  Ca2+  Ca73  1  0.75042173  0.75021652  -0.00168162  1
  Ca2+  Ca74  1  0.50123758  0.75201663  0.25213198  1
  Ca2+  Ca75  1  -0.00368297  0.74490063  0.74912016  1
  Ca2+  Ca76  1  0.25017434  0.49791868  0.25131823  1
  Ca2+  Ca77  1  0.50057298  0.25191895  0.75042050  1
  Ca2+  Ca78  1  0.24707522  0.50065096  0.74983755  1
  Ca2+  Ca79  1  0.75033251  0.49867922  0.75037538  1
  Ca2+  Ca80  1  -0.00413647  0.74944622  0.24743995  1
  Ca2+  Ca81  1  0.50158454  0.24878554  0.24974251  1
  Ca2+  Ca82  1  0.24818818  -0.00267527  0.74763923  1
  Ca2+  Ca83  1  0.75110413  0.00178921  0.75152712  1
  Ca2+  Ca84  1  0.00079614  0.25295456  0.25223020  1
  Nb5+  Nb85  1  -0.00134592  0.49817819  0.49588271  1
  Nb5+  Nb86  1  0.00156669  0.49712900  -0.00621474  1
  Nb5+  Nb87  1  0.49475403  0.50294865  0.49946191  1
  Nb5+  Nb88  1  0.75360685  0.25137229  0.50153259  1
  Nb5+  Nb89  1  0.75389000  0.25104861  0.00483496  1
  Nb5+  Nb90  1  0.25593043  0.24813155  0.50190681  1
  Nb5+  Nb91  1  0.75028444  0.50513368  0.24792813  1
  Nb5+  Nb92  1  0.49810556  0.74962624  0.74897809  1
  Nb5+  Nb93  1  -0.00035140  0.25286824  0.74996247  1
  Nb5+  Nb94  1  0.25536837  0.00184760  0.24960504  1
  Nb5+  Nb95  1  0.75283709  0.00936036  0.24973851  1
  Nb5+  Nb96  1  0.00743260  0.00000670  0.25146726  1
  Nb5+  Nb97  1  -0.00423808  -0.00746995  0.74602762  1
  Nb5+  Nb98  1  0.00398089  0.49569283  0.24346741  1
  Nb5+  Nb99  1  0.00482612  0.50098105  0.74225093  1
  Nb5+  Nb100  1  0.50742073  0.00101094  0.25206023  1
  Nb5+  Nb101  1  0.50371474  0.00782975  0.74720123  1
  Nb5+  Nb102  1  0.49961502  0.50319697  0.24842260  1
  Nb5+  Nb103  1  0.49545101  0.49964396  0.75577418  1
  Nb5+  Nb104  1  0.25448660  0.24841316  0.24384701  1
  Nb5+  Nb105  1  0.25247731  0.24750654  0.75160752  1
  Nb5+  Nb106  1  0.24648967  0.74386241  0.25265728  1
  Nb5+  Nb107  1  0.24544268  0.74820438  0.74437808  1
  Nb5+  Nb108  1  0.75119937  0.25608499  0.25763720  1
  Nb5+  Nb109  1  0.74804977  0.25436438  0.75830459  1
  Nb5+  Nb110  1  0.74963406  0.76169161  0.25180017  1
  Nb5+  Nb111  1  0.75181006  0.74609091  0.75567216  1
  Nb5+  Nb112  1  0.00768058  0.25428313  0.50228147  1
  Nb5+  Nb113  1  0.00076361  0.25279830  1.00298076  1
  Nb5+  Nb114  1  -0.00655563  0.75502923  0.50691298  1
  Nb5+  Nb115  1  -0.00539130  0.75467175  1.00371227  1
  Nb5+  Nb116  1  0.50785296  0.25194485  0.50538465  1
  Nb5+  Nb117  1  0.49615186  0.24692675  0.99503747  1
  Nb5+  Nb118  1  0.49987878  0.75356059  0.49731323  1
  Nb5+  Nb119  1  0.49758803  0.75089708  1.00296435  1
  Nb5+  Nb120  1  0.25133076  -0.00221770  -0.00298054  1
  Nb5+  Nb121  1  0.24977473  -0.00154601  0.50359183  1
  Nb5+  Nb122  1  0.25543747  0.50124584  0.00452236  1
  Nb5+  Nb123  1  0.24199770  0.49945424  0.49483563  1
  Nb5+  Nb124  1  0.75667872  0.00015812  -0.00462013  1
  Nb5+  Nb125  1  0.75136253  -0.00284346  0.49654065  1
  Nb5+  Nb126  1  0.75179459  0.49756685  -0.00310770  1
  Nb5+  Nb127  1  0.74414984  0.49765105  0.49565911  1
  O2-  O128  1  0.01806288  0.02206229  0.13655927  1
  O2-  O129  1  0.03536522  0.00719519  0.63494149  1
  O2-  O130  1  0.01304120  0.50230649  0.12685351  1
  O2-  O131  1  0.01999546  0.50483596  0.62486211  1
  O2-  O132  1  0.50332634  -0.03483912  0.13692331  1
  O2-  O133  1  0.51640725  -0.02365539  0.63049962  1
  O2-  O134  1  0.51395182  0.47860398  0.13595920  1
  O2-  O135  1  0.51256145  0.48401304  0.61644556  1
  O2-  O136  1  -0.02276280  -0.01367256  0.36826538  1
  O2-  O137  1  -0.02754445  0.00089811  0.86458155  1
  O2-  O138  1  -0.01397790  0.48312863  0.38141454  1
  O2-  O139  1  -0.01613245  0.48690388  0.87716035  1
  O2-  O140  1  0.48987194  0.04096909  0.36234453  1
  O2-  O141  1  0.48601484  0.02412832  0.86472667  1
  O2-  O142  1  0.49366649  0.52367125  0.37939028  1
  O2-  O143  1  0.48463917  0.53085909  0.86502734  1
  O2-  O144  1  0.26236515  0.21597079  0.13432967  1
  O2-  O145  1  0.25695264  0.22359350  0.61949644  1
  O2-  O146  1  0.26574881  0.73258833  0.13626713  1
  O2-  O147  1  0.25877753  0.70761014  0.63428683  1
  O2-  O148  1  0.77249393  0.24877697  0.12175855  1
  O2-  O149  1  0.76441395  0.25417024  0.61703160  1
  O2-  O150  1  0.77852342  0.75104999  0.13672617  1
  O2-  O151  1  0.76768787  0.75303910  0.63432154  1
  O2-  O152  1  0.24130036  0.26458339  0.38276536  1
  O2-  O153  1  0.23828220  0.27363801  0.86334268  1
  O2-  O154  1  0.23190234  0.76997963  0.37110295  1
  O2-  O155  1  0.24079231  0.77686269  0.86476045  1
  O2-  O156  1  0.72781262  0.25168516  0.37206214  1
  O2-  O157  1  0.73918060  0.25598258  0.87452723  1
  O2-  O158  1  0.71067187  0.74844934  0.36318897  1
  O2-  O159  1  0.71276412  0.74843934  0.86730617  1
  O2-  O160  1  -0.02028402  0.24611670  0.11550401  1
  O2-  O161  1  -0.01836116  0.24586933  0.62391767  1
  O2-  O162  1  -0.01542679  0.71806819  0.11576419  1
  O2-  O163  1  -0.02144902  0.71548939  0.61826082  1
  O2-  O164  1  0.48515726  0.27101120  0.11250576  1
  O2-  O165  1  0.48405688  0.28366426  0.61590242  1
  O2-  O166  1  0.47184572  0.75999511  0.11629405  1
  O2-  O167  1  0.47826644  0.75889151  0.62680216  1
  O2-  O168  1  0.26874101  -0.00986256  0.37133297  1
  O2-  O169  1  0.27370873  -0.01685212  0.88419021  1
  O2-  O170  1  0.26859011  0.46435111  0.38482692  1
  O2-  O171  1  0.26267609  0.47622712  0.88777938  1
  O2-  O172  1  0.76924023  0.01342470  0.36782715  1
  O2-  O173  1  0.78030157  0.01419371  0.88465572  1
  O2-  O174  1  0.77143952  0.50158082  0.37274822  1
  O2-  O175  1  0.77828593  0.50280432  0.88608174  1
  O2-  O176  1  0.00622810  0.27642877  0.38916379  1
  O2-  O177  1  0.00632787  0.26466368  0.86879195  1
  O2-  O178  1  0.01836028  0.76460884  0.38848698  1
  O2-  O179  1  0.01916902  0.75963862  0.88505957  1
  O2-  O180  1  0.52062069  0.24222484  0.38793331  1
  O2-  O181  1  0.53456564  0.23416099  0.88249347  1
  O2-  O182  1  0.52551560  0.73461253  0.38669643  1
  O2-  O183  1  0.51566066  0.73646032  0.86600592  1
  O2-  O184  1  0.22638859  0.01197872  0.13516788  1
  O2-  O185  1  0.22437478  0.01587951  0.61392184  1
  O2-  O186  1  0.22052822  0.51429558  0.11868107  1
  O2-  O187  1  0.23079720  0.50926627  0.61051430  1
  O2-  O188  1  0.72926629  0.00100424  0.13178360  1
  O2-  O189  1  0.72541671  -0.00444337  0.61030485  1
  O2-  O190  1  0.74253228  0.48288059  0.13145899  1
  O2-  O191  1  0.74516310  0.48122536  0.61002435  1
  O2-  O192  1  0.13700741  0.26853635  0.24474771  1
  O2-  O193  1  0.11595880  0.26813891  0.73098665  1
  O2-  O194  1  0.13113725  0.77035198  0.23334562  1
  O2-  O195  1  0.13093378  0.76730914  0.73014269  1
  O2-  O196  1  0.63800231  0.26428518  0.22375839  1
  O2-  O197  1  0.63706417  0.28019560  0.73511757  1
  O2-  O198  1  0.63386692  0.77176801  0.21819163  1
  O2-  O199  1  0.61756160  0.76340368  0.73055768  1
  O2-  O200  1  0.36772927  0.22786998  0.27510065  1
  O2-  O201  1  0.36465310  0.21985143  0.76094330  1
  O2-  O202  1  0.36589858  0.73849384  0.27422531  1
  O2-  O203  1  0.37819673  0.73224229  0.76253890  1
  O2-  O204  1  0.86256717  0.22222665  0.26471680  1
  O2-  O205  1  0.87561023  0.22948249  0.75881156  1
  O2-  O206  1  0.86165960  0.73858604  0.28497905  1
  O2-  O207  1  0.86340868  0.72661269  0.78200580  1
  O2-  O208  1  0.27779343  0.36186272  0.22652308  1
  O2-  O209  1  0.26343377  0.36048638  0.71973118  1
  O2-  O210  1  0.26255554  0.88149858  0.24078528  1
  O2-  O211  1  0.27127807  0.86298596  0.71813168  1
  O2-  O212  1  0.77340006  0.37114547  0.25498282  1
  O2-  O213  1  0.78304724  0.36605733  0.74840189  1
  O2-  O214  1  0.76464502  0.88034663  0.25601104  1
  O2-  O215  1  0.76844976  0.86659655  0.75556098  1
  O2-  O216  1  0.23258422  0.12050484  0.27031659  1
  O2-  O217  1  0.21590945  0.13409784  0.76029112  1
  O2-  O218  1  0.22796795  0.63112271  0.27235407  1
  O2-  O219  1  0.23676277  0.63301009  0.78161545  1
  O2-  O220  1  0.72725702  0.12509063  0.24875920  1
  O2-  O221  1  0.73318274  0.13807293  0.74128242  1
  O2-  O222  1  0.73263228  0.62005876  0.24444448  1
  O2-  O223  1  0.72385398  0.63060792  0.74144997  1
  O2-  O224  1  0.11374545  0.46552180  0.26050128  1
  O2-  O225  1  0.11447551  0.46024500  0.75885471  1
  O2-  O226  1  0.12347996  0.98539447  0.26938259  1
  O2-  O227  1  0.11362301  0.97987277  0.77727969  1
  O2-  O228  1  0.63555390  0.47792921  0.26872264  1
  O2-  O229  1  0.61302614  0.47790882  0.75827635  1
  O2-  O230  1  0.62529423  0.98545273  0.26675825  1
  O2-  O231  1  0.61734344  0.97935347  0.77174917  1
  O2-  O232  1  0.37060665  0.01658166  0.23397368  1
  O2-  O233  1  0.38371502  0.01503446  0.72942648  1
  O2-  O234  1  0.38695851  0.52928158  0.23854082  1
  O2-  O235  1  0.38259628  0.51633006  0.72146786  1
  O2-  O236  1  0.86806038  0.01798072  0.23154737  1
  O2-  O237  1  0.88334213  0.01907143  0.71526272  1
  O2-  O238  1  0.87040877  0.52039743  0.23663225  1
  O2-  O239  1  0.88814260  0.52267005  0.73324678  1
  O2-  O240  1  0.48962441  0.38713685  0.27627217  1
  O2-  O241  1  0.47306517  0.38562733  0.77431187  1
  O2-  O242  1  0.48318577  0.88767864  0.28553762  1
  O2-  O243  1  0.48420185  0.86949696  0.76108562  1
  O2-  O244  1  0.96246239  0.38549370  0.24744872  1
  O2-  O245  1  0.97297384  0.37213394  0.74196485  1
  O2-  O246  1  0.97628401  0.88596457  0.23470665  1
  O2-  O247  1  0.97176074  0.87933749  0.73956781  1
  O2-  O248  1  0.00802441  0.11806443  0.27468619  1
  O2-  O249  1  0.01247131  0.13283628  0.75511860  1
  O2-  O250  1  0.00992538  0.60950226  0.27388037  1
  O2-  O251  1  0.03260234  0.61030224  0.76534465  1
  O2-  O252  1  0.51587359  0.11489444  0.21549152  1
  O2-  O253  1  0.52308003  0.11935309  0.72276082  1
  O2-  O254  1  0.53732799  0.61524816  0.24119041  1
  O2-  O255  1  0.51524835  0.62665248  0.73051549  1
  O2-  O256  1  0.11621834  0.47175423  -0.00754333  1
  O2-  O257  1  0.12506897  0.47381446  0.48472601  1
  O2-  O258  1  0.13141694  0.97087541  -0.01020715  1
  O2-  O259  1  0.13494852  0.98714513  0.47123953  1
  O2-  O260  1  0.64004563  0.47065904  -0.01406461  1
  O2-  O261  1  0.62885157  0.48098370  0.48052472  1
  O2-  O262  1  0.63772395  0.98746502  -0.01461315  1
  O2-  O263  1  0.63642897  0.99194394  0.46407519  1
  O2-  O264  1  0.36283645  0.03208950  0.02157761  1
  O2-  O265  1  0.36489663  0.03120951  0.51049745  1
  O2-  O266  1  0.36830596  0.51909206  0.02522689  1
  O2-  O267  1  0.37730755  0.51317292  0.51146447  1
  O2-  O268  1  0.86501746  0.02464560  0.03543160  1
  O2-  O269  1  0.86168835  0.03839377  0.51034230  1
  O2-  O270  1  0.87987161  0.51055018  0.02137856  1
  O2-  O271  1  0.87995631  0.51101065  0.51008038  1
  O2-  O272  1  0.48729408  0.36732530  -0.02471382  1
  O2-  O273  1  0.48872314  0.38229029  0.47897917  1
  O2-  O274  1  0.48084452  0.86426830  -0.03089103  1
  O2-  O275  1  0.47633125  0.86625548  0.48311841  1
  O2-  O276  1  0.97334568  0.37453756  0.00047105  1
  O2-  O277  1  0.98599986  0.37748272  0.52035054  1
  O2-  O278  1  0.97168951  0.86635652  0.01747475  1
  O2-  O279  1  0.96965629  0.86576678  0.52440290  1
  O2-  O280  1  0.01591689  0.13861181  -0.01521100  1
  O2-  O281  1  0.01499768  0.13896898  0.49173202  1
  O2-  O282  1  0.01677867  0.61268971  -0.01354697  1
  O2-  O283  1  0.02361943  0.61218283  0.48998470  1
  O2-  O284  1  0.52549584  0.13424380  0.01902770  1
  O2-  O285  1  0.51704610  0.13970476  0.52850277  1
  O2-  O286  1  0.53413689  0.63579095  0.00728432  1
  O2-  O287  1  0.52164880  0.61809482  0.51555269  1
  O2-  O288  1  0.11336240  0.27795836  0.01218669  1
  O2-  O289  1  0.12388688  0.26823255  0.51592017  1
  O2-  O290  1  0.11566000  0.76041324  0.01918820  1
  O2-  O291  1  0.11354938  0.76017969  0.52771029  1
  O2-  O292  1  0.63711740  0.27217904  0.01445850  1
  O2-  O293  1  0.62593422  0.27486743  0.51643084  1
  O2-  O294  1  0.61632741  0.77711224  0.01906521  1
  O2-  O295  1  0.61420077  0.76665587  0.53011933  1
  O2-  O296  1  0.38401139  0.22746704  -0.02747884  1
  O2-  O297  1  0.37507217  0.23765410  0.48961852  1
  O2-  O298  1  0.38475622  0.71847829  -0.01995896  1
  O2-  O299  1  0.38597116  0.71839155  0.48874927  1
  O2-  O300  1  0.87340456  0.23551232  -0.02121850  1
  O2-  O301  1  0.87024628  0.23848119  0.48502396  1
  O2-  O302  1  0.88308007  0.72302671  -0.02365813  1
  O2-  O303  1  0.88298941  0.71868562  0.48018281  1
  O2-  O304  1  0.26740025  0.38048485  0.02617577  1
  O2-  O305  1  0.26310255  0.36718303  0.52087544  1
  O2-  O306  1  0.26995484  0.88544004  0.03132235  1
  O2-  O307  1  0.27312652  0.88513983  0.51534894  1
  O2-  O308  1  0.77673280  0.37218744  0.00232857  1
  O2-  O309  1  0.76552822  0.37156262  0.48426376  1
  O2-  O310  1  0.77665071  0.88606102  -0.00079957  1
  O2-  O311  1  0.78029977  0.88631632  0.48836099  1
  O2-  O312  1  0.21545251  0.11347709  -0.01288730  1
  O2-  O313  1  0.23238914  0.13113061  0.48221218  1
  O2-  O314  1  0.22731986  0.61487029  -0.01484817  1
  O2-  O315  1  0.23520312  0.61036661  0.46842333  1
  O2-  O316  1  0.73350403  0.13288452  -0.00054852  1
  O2-  O317  1  0.72449034  0.13684136  0.49585287  1
  O2-  O318  1  0.73784313  0.61060040  0.01812601  1
  O2-  O319  1  0.73454158  0.61226622  0.50298157  1
