# generated using pymatgen
data_Sr64Ca21Nb43O192
_symmetry_space_group_name_H-M   'P 1'
_cell_length_a   16.56852038
_cell_length_b   16.58705992
_cell_length_c   16.71823030
_cell_angle_alpha   90.02578503
_cell_angle_beta   90.07234764
_cell_angle_gamma   90.07629405
_symmetry_Int_Tables_number   1
_chemical_formula_structural   Sr64Ca21Nb43O192
_chemical_formula_sum   'Sr64 Ca21 Nb43 O192'
_cell_volume   4594.54667476
_cell_formula_units_Z   1
loop_
 _symmetry_equiv_pos_site_id
 _symmetry_equiv_pos_as_xyz
  1  'x, y, z'
loop_
 _atom_type_symbol
 _atom_type_oxidation_number
  Sr2+  2.0
  Ca2+  2.0
  Nb5+  5.0
  O2-  -2.0
loop_
 _atom_site_type_symbol
 _atom_site_label
 _atom_site_symmetry_multiplicity
 _atom_site_fract_x
 _atom_site_fract_y
 _atom_site_fract_z
 _atom_site_occupancy
  Sr2+  Sr0  1  0.12586519  0.11977241  0.12878574  1
  Sr2+  Sr1  1  0.13213623  0.12124586  0.63060305  1
  Sr2+  Sr2  1  0.12633038  0.64060578  0.12268030  1
  Sr2+  Sr3  1  0.12632411  0.63773489  0.62155648  1
  Sr2+  Sr4  1  0.63425881  0.11228797  0.10990429  1
  Sr2+  Sr5  1  0.61572339  0.12001444  0.62502518  1
  Sr2+  Sr6  1  0.63144302  0.62421480  0.11239250  1
  Sr2+  Sr7  1  0.63510314  0.61554126  0.62920836  1
  Sr2+  Sr8  1  0.37287665  0.38221653  0.12459549  1
  Sr2+  Sr9  1  0.37483217  0.37286132  0.62680570  1
  Sr2+  Sr10  1  0.37646865  0.87639399  0.12093995  1
  Sr2+  Sr11  1  0.37013819  0.87691063  0.63078744  1
  Sr2+  Sr12  1  0.88250140  0.36041607  0.12918807  1
  Sr2+  Sr13  1  0.88190172  0.36811939  0.63004960  1
  Sr2+  Sr14  1  0.88135191  0.86846777  0.12400305  1
  Sr2+  Sr15  1  0.87736593  0.87183889  0.62475312  1
  Sr2+  Sr16  1  0.12030141  0.37771030  0.37644284  1
  Sr2+  Sr17  1  0.12079154  0.38208013  0.87925052  1
  Sr2+  Sr18  1  0.12203501  0.88178149  0.37516422  1
  Sr2+  Sr19  1  0.11663887  0.88521145  0.87830443  1
  Sr2+  Sr20  1  0.63773845  0.38410189  0.37511393  1
  Sr2+  Sr21  1  0.63441252  0.37571585  0.86750607  1
  Sr2+  Sr22  1  0.62730039  0.87359611  0.38602144  1
  Sr2+  Sr23  1  0.61712938  0.88510816  0.87803434  1
  Sr2+  Sr24  1  0.38095555  0.13002300  0.37160227  1
  Sr2+  Sr25  1  0.39079147  0.13168337  0.88267243  1
  Sr2+  Sr26  1  0.38554717  0.63335221  0.37510761  1
  Sr2+  Sr27  1  0.39386399  0.63146592  0.87931601  1
  Sr2+  Sr28  1  0.86519662  0.13667790  0.37542368  1
  Sr2+  Sr29  1  0.84971570  0.13266428  0.87119298  1
  Sr2+  Sr30  1  0.85985856  0.62860467  0.36770733  1
  Sr2+  Sr31  1  0.86281448  0.62528066  0.88334082  1
  Sr2+  Sr32  1  0.12401952  0.13665341  0.37698250  1
  Sr2+  Sr33  1  0.12915699  0.13250344  0.88237327  1
  Sr2+  Sr34  1  0.12476864  0.63544726  0.37515707  1
  Sr2+  Sr35  1  0.11804576  0.63115806  0.88733964  1
  Sr2+  Sr36  1  0.62001030  0.11150300  0.37065146  1
  Sr2+  Sr37  1  0.61817554  0.13901815  0.87201682  1
  Sr2+  Sr38  1  0.62851907  0.63153276  0.37721250  1
  Sr2+  Sr39  1  0.62663311  0.65385705  0.87277035  1
  Sr2+  Sr40  1  0.37871407  0.38630167  0.37726497  1
  Sr2+  Sr41  1  0.38228634  0.37808610  0.87602176  1
  Sr2+  Sr42  1  0.38424255  0.88599251  0.36852900  1
  Sr2+  Sr43  1  0.38057794  0.88035859  0.88091221  1
  Sr2+  Sr44  1  0.87714884  0.38140453  0.36937540  1
  Sr2+  Sr45  1  0.86905730  0.38077650  0.88592990  1
  Sr2+  Sr46  1  0.85892199  0.88473143  0.37421370  1
  Sr2+  Sr47  1  0.86561084  0.89379407  0.87131963  1
  Sr2+  Sr48  1  0.12924263  0.37246374  0.11830229  1
  Sr2+  Sr49  1  0.13811598  0.37517072  0.62439521  1
  Sr2+  Sr50  1  0.12313240  0.87228855  0.12286906  1
  Sr2+  Sr51  1  0.11887233  0.87497871  0.63545923  1
  Sr2+  Sr52  1  0.64494030  0.36156184  0.12356829  1
  Sr2+  Sr53  1  0.62662715  0.36644722  0.62751592  1
  Sr2+  Sr54  1  0.62014681  0.86463659  0.11499012  1
  Sr2+  Sr55  1  0.64162749  0.87011688  0.62568239  1
  Sr2+  Sr56  1  0.36857704  0.11934842  0.13105064  1
  Sr2+  Sr57  1  0.36877871  0.12809976  0.63338119  1
  Sr2+  Sr58  1  0.37092029  0.62272632  0.12726458  1
  Sr2+  Sr59  1  0.37944243  0.62066231  0.62705088  1
  Sr2+  Sr60  1  0.88396777  0.12037307  0.12283576  1
  Sr2+  Sr61  1  0.89110923  0.11209476  0.62148644  1
  Sr2+  Sr62  1  0.89141549  0.61966391  0.12568456  1
  Sr2+  Sr63  1  0.89181268  0.62060510  0.63270971  1
  Ca2+  Ca64  1  -0.00058742  0.00333096  -0.00343051  1
  Ca2+  Ca65  1  0.49958690  0.00438468  0.00091834  1
  Ca2+  Ca66  1  0.49845770  -0.00250251  0.50257545  1
  Ca2+  Ca67  1  0.50290218  0.49827418  0.00155481  1
  Ca2+  Ca68  1  0.00336049  -0.00185170  0.49631998  1
  Ca2+  Ca69  1  0.75036778  0.25072863  0.00030576  1
  Ca2+  Ca70  1  0.25233820  0.75014538  -0.00203780  1
  Ca2+  Ca71  1  0.74926653  0.25159545  0.50108254  1
  Ca2+  Ca72  1  0.75396330  0.75450733  -0.00250539  1
  Ca2+  Ca73  1  0.25306155  0.24867357  0.00424017  1
  Ca2+  Ca74  1  0.75216995  -0.00169088  0.24618390  1
  Ca2+  Ca75  1  0.50167397  0.74759752  0.25141704  1
  Ca2+  Ca76  1  -0.00079864  0.25208006  0.74942282  1
  Ca2+  Ca77  1  0.75257599  0.50198768  0.74987695  1
  Ca2+  Ca78  1  -0.00455127  0.74706586  0.25323214  1
  Ca2+  Ca79  1  0.74594441  0.00332824  0.74570965  1
  Ca2+  Ca80  1  -0.00027107  0.74923335  0.75378011  1
  Ca2+  Ca81  1  0.24663342  0.50207937  0.74897632  1
  Ca2+  Ca82  1  0.75145663  0.50140814  0.24349144  1
  Ca2+  Ca83  1  0.49721120  0.25203976  0.25418689  1
  Ca2+  Ca84  1  0.49956365  0.75270799  0.74548537  1
  Nb5+  Nb85  1  0.00120234  0.49634010  0.00919371  1
  Nb5+  Nb86  1  0.50800265  0.49709110  0.50104292  1
  Nb5+  Nb87  1  0.00566775  0.49705857  0.50515733  1
  Nb5+  Nb88  1  0.25562569  0.75552579  0.49845458  1
  Nb5+  Nb89  1  0.75908828  0.74636781  0.50306709  1
  Nb5+  Nb90  1  0.25076482  0.25342061  0.49994894  1
  Nb5+  Nb91  1  0.24612621  0.50615122  0.25201283  1
  Nb5+  Nb92  1  0.25078635  0.00186558  0.75960527  1
  Nb5+  Nb93  1  0.49711753  0.25465292  0.74922061  1
  Nb5+  Nb94  1  0.00217266  0.24692787  0.25108325  1
  Nb5+  Nb95  1  0.24485788  0.00430022  0.25808296  1
  Nb5+  Nb96  1  -0.00278419  -0.00212514  0.25561872  1
  Nb5+  Nb97  1  -0.00205090  0.00486128  0.75237752  1
  Nb5+  Nb98  1  0.00637313  0.49842034  0.25591528  1
  Nb5+  Nb99  1  0.00110784  0.50012447  0.76252171  1
  Nb5+  Nb100  1  0.50385009  -0.00342961  0.24519982  1
  Nb5+  Nb101  1  0.49694819  0.00028828  0.74459798  1
  Nb5+  Nb102  1  0.50339775  0.49481320  0.24935061  1
  Nb5+  Nb103  1  0.50239627  0.50197657  0.75462942  1
  Nb5+  Nb104  1  0.24865163  0.25505353  0.25249870  1
  Nb5+  Nb105  1  0.25188702  0.25145568  0.75771965  1
  Nb5+  Nb106  1  0.24875593  0.75721326  0.25254338  1
  Nb5+  Nb107  1  0.25138790  0.74809428  0.75388486  1
  Nb5+  Nb108  1  0.74293037  0.24834630  0.25577112  1
  Nb5+  Nb109  1  0.75227831  0.24905112  0.73948779  1
  Nb5+  Nb110  1  0.74530385  0.74946283  0.24308134  1
  Nb5+  Nb111  1  0.75423322  0.75436803  0.75073434  1
  Nb5+  Nb112  1  0.00201384  0.24885850  0.50349510  1
  Nb5+  Nb113  1  -0.00016752  0.24590235  0.99386860  1
  Nb5+  Nb114  1  0.00303526  0.75074039  0.49373520  1
  Nb5+  Nb115  1  -0.00412744  0.75440594  0.99476239  1
  Nb5+  Nb116  1  0.50204366  0.25308710  0.49812548  1
  Nb5+  Nb117  1  0.50254129  0.25461017  1.01237197  1
  Nb5+  Nb118  1  0.50530899  0.74858874  0.50488559  1
  Nb5+  Nb119  1  0.49963448  0.74915239  1.00116510  1
  Nb5+  Nb120  1  0.24978365  -0.00100714  0.00790941  1
  Nb5+  Nb121  1  0.25091655  0.00398164  0.50328003  1
  Nb5+  Nb122  1  0.25104271  0.50129587  -0.00478814  1
  Nb5+  Nb123  1  0.25191303  0.50615276  0.49587679  1
  Nb5+  Nb124  1  0.75261609  0.00113042  -0.00196094  1
  Nb5+  Nb125  1  0.74988533  0.00713097  0.49799883  1
  Nb5+  Nb126  1  0.74687487  0.49992597  0.00438162  1
  Nb5+  Nb127  1  0.76427540  0.50147608  0.50111205  1
  O2-  O128  1  -0.01535553  -0.00764134  0.13653536  1
  O2-  O129  1  -0.01032525  -0.02308932  0.63287460  1
  O2-  O130  1  -0.00859412  0.47680571  0.12545228  1
  O2-  O131  1  -0.01690239  0.48311378  0.61622986  1
  O2-  O132  1  0.46901287  0.01319953  0.13380734  1
  O2-  O133  1  0.46330011  0.01653263  0.63207602  1
  O2-  O134  1  0.47506916  0.51438003  0.13906659  1
  O2-  O135  1  0.48127552  0.51017107  0.61642586  1
  O2-  O136  1  0.03999568  0.01285012  0.36441880  1
  O2-  O137  1  0.03714998  0.01949471  0.86243597  1
  O2-  O138  1  0.02456864  0.50867994  0.37128122  1
  O2-  O139  1  0.02045537  0.50874508  0.87747811  1
  O2-  O140  1  0.51691508  -0.02213108  0.36644102  1
  O2-  O141  1  0.51287492  0.00574734  0.86209859  1
  O2-  O142  1  0.51185666  0.47267959  0.38223886  1
  O2-  O143  1  0.51303995  0.47176417  0.86459077  1
  O2-  O144  1  0.22272218  0.24920936  0.14088665  1
  O2-  O145  1  0.23016717  0.24817074  0.61825243  1
  O2-  O146  1  0.23022833  0.75806658  0.13780724  1
  O2-  O147  1  0.22378349  0.75925414  0.61152174  1
  O2-  O148  1  0.73074164  0.22784887  0.13876133  1
  O2-  O149  1  0.71001579  0.23399796  0.62941186  1
  O2-  O150  1  0.72220298  0.74606822  0.13103612  1
  O2-  O151  1  0.72444483  0.73788371  0.61549142  1
  O2-  O152  1  0.26300844  0.23625433  0.38007374  1
  O2-  O153  1  0.28053524  0.24575273  0.86810524  1
  O2-  O154  1  0.26150735  0.73775424  0.37945315  1
  O2-  O155  1  0.28132762  0.74176868  0.86287594  1
  O2-  O156  1  0.77915439  0.27220542  0.36882265  1
  O2-  O157  1  0.76385904  0.27130376  0.85941363  1
  O2-  O158  1  0.76457560  0.75670016  0.38365975  1
  O2-  O159  1  0.78195310  0.76455364  0.86189450  1
  O2-  O160  1  0.02209203  0.26580144  0.13650921  1
  O2-  O161  1  0.02005685  0.28348094  0.61290585  1
  O2-  O162  1  0.01713352  0.76421521  0.11564657  1
  O2-  O163  1  0.01797242  0.75632956  0.61096902  1
  O2-  O164  1  0.53051616  0.25212084  0.12234620  1
  O2-  O165  1  0.50735725  0.24858604  0.62175917  1
  O2-  O166  1  0.52659624  0.73558359  0.11811189  1
  O2-  O167  1  0.50974360  0.70794465  0.61361610  1
  O2-  O168  1  0.22463081  -0.00052677  0.37160789  1
  O2-  O169  1  0.22720880  0.00469775  0.87079100  1
  O2-  O170  1  0.22414226  0.49558526  0.37651907  1
  O2-  O171  1  0.23192323  0.49138423  0.88344416  1
  O2-  O172  1  0.73281908  -0.02578065  0.38286676  1
  O2-  O173  1  0.73597827  -0.02412316  0.87920993  1
  O2-  O174  1  0.73981366  0.49459472  0.38414954  1
  O2-  O175  1  0.74899338  0.47322962  0.88603943  1
  O2-  O176  1  -0.00942488  0.23641888  0.37797425  1
  O2-  O177  1  -0.02575269  0.23006195  0.88405281  1
  O2-  O178  1  -0.01421658  0.70922653  0.38591969  1
  O2-  O179  1  -0.01265494  0.71126155  0.88479192  1
  O2-  O180  1  0.46578217  0.26086232  0.38893946  1
  O2-  O181  1  0.47907886  0.25899460  0.86541611  1
  O2-  O182  1  0.47608098  0.75843376  0.39084535  1
  O2-  O183  1  0.47523576  0.76013344  0.88101300  1
  O2-  O184  1  0.26628212  -0.00374534  0.12598104  1
  O2-  O185  1  0.27167852  0.00039860  0.61765933  1
  O2-  O186  1  0.26330552  0.50036652  0.13606510  1
  O2-  O187  1  0.26181803  0.49429382  0.61012732  1
  O2-  O188  1  0.76846613  0.02923154  0.11473844  1
  O2-  O189  1  0.77862008  0.01184128  0.61201450  1
  O2-  O190  1  0.77102940  0.53678172  0.11434134  1
  O2-  O191  1  0.76918167  0.53011886  0.61320484  1
  O2-  O192  1  0.12716815  0.25861260  0.28001668  1
  O2-  O193  1  0.13615656  0.25843536  0.77736784  1
  O2-  O194  1  0.13233941  0.75979123  0.27657411  1
  O2-  O195  1  0.13880412  0.78303106  0.76181050  1
  O2-  O196  1  0.63202467  0.26730497  0.27963075  1
  O2-  O197  1  0.61333959  0.27170573  0.76091992  1
  O2-  O198  1  0.63420306  0.77915523  0.27510252  1
  O2-  O199  1  0.63371296  0.77906717  0.76574470  1
  O2-  O200  1  0.35939595  0.22431710  0.24013969  1
  O2-  O201  1  0.37397681  0.23999440  0.72828438  1
  O2-  O202  1  0.36035153  0.72092318  0.24329047  1
  O2-  O203  1  0.36106562  0.74502165  0.71054497  1
  O2-  O204  1  0.88647269  0.23225121  0.23759089  1
  O2-  O205  1  0.86343635  0.22801608  0.71678006  1
  O2-  O206  1  0.86252158  0.71369996  0.24039612  1
  O2-  O207  1  0.86741196  0.73964905  0.71500480  1
  O2-  O208  1  0.26444640  0.37032315  0.25890285  1
  O2-  O209  1  0.26590949  0.36464680  0.74031496  1
  O2-  O210  1  0.26531337  0.87293127  0.26127627  1
  O2-  O211  1  0.27209373  0.88579954  0.75139536  1
  O2-  O212  1  0.76908621  0.36450997  0.22878036  1
  O2-  O213  1  0.75659763  0.36741537  0.71847768  1
  O2-  O214  1  0.78573931  0.86377491  0.24037126  1
  O2-  O215  1  0.76406369  0.87034037  0.71973658  1
  O2-  O216  1  0.22735486  0.11973984  0.25120765  1
  O2-  O217  1  0.24055612  0.12735733  0.73911811  1
  O2-  O218  1  0.22131643  0.61923816  0.25089499  1
  O2-  O219  1  0.22465015  0.63707795  0.73952393  1
  O2-  O220  1  0.74180409  0.13272716  0.28173279  1
  O2-  O221  1  0.72375132  0.13622191  0.76681907  1
  O2-  O222  1  0.71787688  0.63331319  0.26162500  1
  O2-  O223  1  0.72650391  0.63837657  0.75681348  1
  O2-  O224  1  0.12771793  0.46803894  0.23936200  1
  O2-  O225  1  0.11180432  0.46215669  0.73946854  1
  O2-  O226  1  0.13101638  0.98000524  0.22581171  1
  O2-  O227  1  0.13689453  0.99363893  0.72506578  1
  O2-  O228  1  0.61350967  0.46707664  0.23624464  1
  O2-  O229  1  0.61414125  0.48420894  0.72041450  1
  O2-  O230  1  0.61549669  0.98842791  0.21894137  1
  O2-  O231  1  0.60932540  0.99165154  0.71727397  1
  O2-  O232  1  0.36162784  0.01341728  0.26856984  1
  O2-  O233  1  0.36800443  0.02671481  0.76924991  1
  O2-  O234  1  0.35966305  0.51629981  0.27617953  1
  O2-  O235  1  0.38330977  0.52052607  0.75847118  1
  O2-  O236  1  0.88822849  0.02450466  0.27660021  1
  O2-  O237  1  0.88502392  0.02256168  0.77060627  1
  O2-  O238  1  0.89058866  0.50754896  0.26598744  1
  O2-  O239  1  0.88638048  0.53509270  0.76281022  1
  O2-  O240  1  0.45859565  0.38526855  0.24930369  1
  O2-  O241  1  0.47772445  0.37439468  0.73450649  1
  O2-  O242  1  0.46919252  0.88163341  0.23876283  1
  O2-  O243  1  0.47121969  0.88797287  0.74542676  1
  O2-  O244  1  0.99248574  0.36985255  0.26755074  1
  O2-  O245  1  0.96143391  0.38608041  0.76374725  1
  O2-  O246  1  0.98501063  0.88296985  0.27000202  1
  O2-  O247  1  0.99148230  0.88564557  0.77307921  1
  O2-  O248  1  0.02333405  0.12909712  0.24139366  1
  O2-  O249  1  0.01570532  0.11917574  0.71921156  1
  O2-  O250  1  0.02409423  0.60868644  0.22881973  1
  O2-  O251  1  0.02896216  0.61143207  0.72957514  1
  O2-  O252  1  0.50236195  0.11384335  0.27190276  1
  O2-  O253  1  0.50815028  0.13414306  0.74874101  1
  O2-  O254  1  0.50848223  0.60825264  0.28074410  1
  O2-  O255  1  0.51788848  0.61616172  0.76999064  1
  O2-  O256  1  0.12153424  0.47585635  0.00981557  1
  O2-  O257  1  0.12350932  0.47980909  0.51148020  1
  O2-  O258  1  0.13331665  0.96852892  0.01182022  1
  O2-  O259  1  0.14026520  0.96518445  0.51134193  1
  O2-  O260  1  0.63522644  0.48245621  0.02947198  1
  O2-  O261  1  0.62316542  0.48655704  0.51596669  1
  O2-  O262  1  0.63431400  0.97947832  0.01953410  1
  O2-  O263  1  0.63436406  0.98140621  0.52293363  1
  O2-  O264  1  0.36242785  0.02350954  -0.02005454  1
  O2-  O265  1  0.36237930  0.00786572  0.46630526  1
  O2-  O266  1  0.36417623  0.52630840  -0.01144894  1
  O2-  O267  1  0.36665735  0.51299037  0.47691811  1
  O2-  O268  1  0.86918613  0.03024256  -0.02563597  1
  O2-  O269  1  0.86930790  0.01587694  0.47335995  1
  O2-  O270  1  0.88597661  0.51286072  -0.01389017  1
  O2-  O271  1  0.88072001  0.51503582  0.47891295  1
  O2-  O272  1  0.46193146  0.36709677  0.00415756  1
  O2-  O273  1  0.47299445  0.37958567  0.51308578  1
  O2-  O274  1  0.47971875  0.86859250  0.01243757  1
  O2-  O275  1  0.48777031  0.85886801  0.53108617  1
  O2-  O276  1  0.98661164  0.37518937  -0.01275672  1
  O2-  O277  1  0.98847043  0.37905661  0.47569834  1
  O2-  O278  1  0.97688128  0.86585441  -0.02577492  1
  O2-  O279  1  0.98042899  0.86046324  0.47272600  1
  O2-  O280  1  0.02439763  0.13604000  0.02042633  1
  O2-  O281  1  0.02587352  0.13583094  0.51803063  1
  O2-  O282  1  0.02017079  0.61285871  0.02018589  1
  O2-  O283  1  0.01814183  0.61440291  0.51514498  1
  O2-  O284  1  0.52424717  0.13965660  -0.01199484  1
  O2-  O285  1  0.51965159  0.13733667  0.49191393  1
  O2-  O286  1  0.52305150  0.63124734  -0.01987432  1
  O2-  O287  1  0.50679095  0.61371051  0.47808728  1
  O2-  O288  1  0.11605669  0.27203973  -0.01869553  1
  O2-  O289  1  0.12931634  0.26432248  0.48100570  1
  O2-  O290  1  0.11607576  0.76033777  -0.02148423  1
  O2-  O291  1  0.12279189  0.75884161  0.47676321  1
  O2-  O292  1  0.61495644  0.28508568  -0.01898058  1
  O2-  O293  1  0.61144652  0.28468924  0.48435529  1
  O2-  O294  1  0.61878149  0.77436384  -0.02210682  1
  O2-  O295  1  0.62085966  0.75631554  0.48594556  1
  O2-  O296  1  0.38544908  0.22217138  0.02441714  1
  O2-  O297  1  0.36654368  0.23472948  0.51989580  1
  O2-  O298  1  0.38358110  0.72483081  0.02349710  1
  O2-  O299  1  0.36689114  0.72569025  0.51562388  1
  O2-  O300  1  0.88718152  0.24150865  0.03110605  1
  O2-  O301  1  0.88769082  0.23374127  0.51942802  1
  O2-  O302  1  0.88503730  0.72359101  0.02226864  1
  O2-  O303  1  0.87484799  0.72884677  0.51759442  1
  O2-  O304  1  0.26496949  0.38525995  0.01662239  1
  O2-  O305  1  0.26113123  0.37117184  0.49379960  1
  O2-  O306  1  0.27545756  0.88324861  -0.00838451  1
  O2-  O307  1  0.27450354  0.86912477  0.49000107  1
  O2-  O308  1  0.77409665  0.38526610  0.02907944  1
  O2-  O309  1  0.76930181  0.38797040  0.51812435  1
  O2-  O310  1  0.78392708  0.88664136  0.01588823  1
  O2-  O311  1  0.76610711  0.86562818  0.51285685  1
  O2-  O312  1  0.21943542  0.11468934  0.00510566  1
  O2-  O313  1  0.23101104  0.12011040  0.50158516  1
  O2-  O314  1  0.21926248  0.61398559  0.00949134  1
  O2-  O315  1  0.22915149  0.62095630  0.49896866  1
  O2-  O316  1  0.72524334  0.12013712  -0.02524051  1
  O2-  O317  1  0.72782020  0.11846447  0.47857192  1
  O2-  O318  1  0.73458407  0.61642674  -0.02763105  1
  O2-  O319  1  0.73615446  0.62662117  0.48501600  1
