# generated using pymatgen
data_Sr64Ca21Nb43O192
_symmetry_space_group_name_H-M   'P 1'
_cell_length_a   16.56713459
_cell_length_b   16.57008132
_cell_length_c   16.73571571
_cell_angle_alpha   90.04138240
_cell_angle_beta   90.03563069
_cell_angle_gamma   90.09162930
_symmetry_Int_Tables_number   1
_chemical_formula_structural   Sr64Ca21Nb43O192
_chemical_formula_sum   'Sr64 Ca21 Nb43 O192'
_cell_volume   4594.26008292
_cell_formula_units_Z   1
loop_
 _symmetry_equiv_pos_site_id
 _symmetry_equiv_pos_as_xyz
  1  'x, y, z'
loop_
 _atom_type_symbol
 _atom_type_oxidation_number
  Sr2+  2.0
  Ca2+  2.0
  Nb5+  5.0
  O2-  -2.0
loop_
 _atom_site_type_symbol
 _atom_site_label
 _atom_site_symmetry_multiplicity
 _atom_site_fract_x
 _atom_site_fract_y
 _atom_site_fract_z
 _atom_site_occupancy
  Sr2+  Sr0  1  0.12283670  0.14257868  0.12646519  1
  Sr2+  Sr1  1  0.12309866  0.12771242  0.62324196  1
  Sr2+  Sr2  1  0.11736780  0.60429364  0.12481677  1
  Sr2+  Sr3  1  0.12742281  0.59879344  0.62687027  1
  Sr2+  Sr4  1  0.63387827  0.12174595  0.11229896  1
  Sr2+  Sr5  1  0.61733422  0.12156521  0.62932188  1
  Sr2+  Sr6  1  0.62432918  0.60797060  0.12318960  1
  Sr2+  Sr7  1  0.62692026  0.61341617  0.62682754  1
  Sr2+  Sr8  1  0.37625546  0.37090355  0.11523415  1
  Sr2+  Sr9  1  0.36607858  0.36206989  0.62736352  1
  Sr2+  Sr10  1  0.37386888  0.86955713  0.11644237  1
  Sr2+  Sr11  1  0.37490582  0.86586757  0.62895890  1
  Sr2+  Sr12  1  0.87979748  0.36056570  0.13001389  1
  Sr2+  Sr13  1  0.88356829  0.36793336  0.63011804  1
  Sr2+  Sr14  1  0.88471873  0.86202132  0.12704295  1
  Sr2+  Sr15  1  0.87364558  0.87422192  0.62668042  1
  Sr2+  Sr16  1  0.12975163  0.38230451  0.37496973  1
  Sr2+  Sr17  1  0.12820720  0.39032414  0.87808705  1
  Sr2+  Sr18  1  0.12850993  0.88140373  0.37476165  1
  Sr2+  Sr19  1  0.12700602  0.88447699  0.88134314  1
  Sr2+  Sr20  1  0.62782691  0.38140041  0.37595580  1
  Sr2+  Sr21  1  0.62538897  0.37629809  0.86578057  1
  Sr2+  Sr22  1  0.62114646  0.87966737  0.37828136  1
  Sr2+  Sr23  1  0.62698052  0.87676431  0.87327035  1
  Sr2+  Sr24  1  0.37971807  0.12783138  0.36945595  1
  Sr2+  Sr25  1  0.39296487  0.12821475  0.87923889  1
  Sr2+  Sr26  1  0.37582361  0.63858219  0.37942874  1
  Sr2+  Sr27  1  0.38307333  0.62895937  0.88172143  1
  Sr2+  Sr28  1  0.86386142  0.12815033  0.37654855  1
  Sr2+  Sr29  1  0.85709446  0.12833147  0.88137726  1
  Sr2+  Sr30  1  0.86937041  0.63259135  0.37100856  1
  Sr2+  Sr31  1  0.86555618  0.62941437  0.87796816  1
  Sr2+  Sr32  1  0.12716395  0.13270586  0.37391237  1
  Sr2+  Sr33  1  0.11284588  0.13711231  0.88145137  1
  Sr2+  Sr34  1  0.12482242  0.63205737  0.37158119  1
  Sr2+  Sr35  1  0.11691768  0.62623300  0.86735022  1
  Sr2+  Sr36  1  0.61398107  0.14028841  0.37621960  1
  Sr2+  Sr37  1  0.62380567  0.13967959  0.87369384  1
  Sr2+  Sr38  1  0.62631115  0.60645619  0.37352667  1
  Sr2+  Sr39  1  0.61921279  0.62783504  0.87768218  1
  Sr2+  Sr40  1  0.38779206  0.37941266  0.37272635  1
  Sr2+  Sr41  1  0.38078933  0.39016519  0.87633552  1
  Sr2+  Sr42  1  0.37633018  0.88345433  0.37334727  1
  Sr2+  Sr43  1  0.37754712  0.86653497  0.87589049  1
  Sr2+  Sr44  1  0.86627179  0.38955365  0.37523947  1
  Sr2+  Sr45  1  0.86750137  0.38541553  0.86824142  1
  Sr2+  Sr46  1  0.87162670  0.87631187  0.37236920  1
  Sr2+  Sr47  1  0.87190462  0.88288997  0.88569092  1
  Sr2+  Sr48  1  0.13037753  0.37208441  0.11843436  1
  Sr2+  Sr49  1  0.12323079  0.36949649  0.63084558  1
  Sr2+  Sr50  1  0.12291102  0.87623644  0.12297717  1
  Sr2+  Sr51  1  0.12357788  0.87518981  0.62535131  1
  Sr2+  Sr52  1  0.63716461  0.36964060  0.13356791  1
  Sr2+  Sr53  1  0.63012103  0.36289156  0.62707498  1
  Sr2+  Sr54  1  0.64072981  0.86302714  0.12277486  1
  Sr2+  Sr55  1  0.63071258  0.86595407  0.62713045  1
  Sr2+  Sr56  1  0.35900194  0.11852277  0.12486743  1
  Sr2+  Sr57  1  0.36861009  0.11884665  0.62673403  1
  Sr2+  Sr58  1  0.36570143  0.61319907  0.11566749  1
  Sr2+  Sr59  1  0.36392388  0.62090314  0.62646215  1
  Sr2+  Sr60  1  0.88627089  0.11978658  0.12544419  1
  Sr2+  Sr61  1  0.88694000  0.11232091  0.62971974  1
  Sr2+  Sr62  1  0.87653399  0.61982525  0.12958016  1
  Sr2+  Sr63  1  0.89222994  0.61902425  0.62244107  1
  Ca2+  Ca64  1  -0.00446082  0.50074649  -0.00033224  1
  Ca2+  Ca65  1  0.50421169  0.49906391  -0.00137061  1
  Ca2+  Ca66  1  0.50061408  -0.00000350  -0.00136326  1
  Ca2+  Ca67  1  0.49753982  0.50088121  0.50179939  1
  Ca2+  Ca68  1  0.00165456  0.49863807  0.49776215  1
  Ca2+  Ca69  1  0.74948946  0.25415011  -0.00045488  1
  Ca2+  Ca70  1  0.75170226  0.24941764  0.50126755  1
  Ca2+  Ca71  1  0.75114653  0.74705778  0.00303895  1
  Ca2+  Ca72  1  0.25230848  0.24812351  -0.00389617  1
  Ca2+  Ca73  1  0.24710374  0.74736817  0.00268079  1
  Ca2+  Ca74  1  -0.00089803  0.24791919  0.25379069  1
  Ca2+  Ca75  1  0.75024968  0.00015120  0.74865002  1
  Ca2+  Ca76  1  0.49956174  0.74923467  0.25238980  1
  Ca2+  Ca77  1  0.25011040  0.00267761  0.74949443  1
  Ca2+  Ca78  1  0.25382755  0.49966652  0.75161530  1
  Ca2+  Ca79  1  0.75047339  -0.00340281  0.24910555  1
  Ca2+  Ca80  1  -0.00242020  0.75335207  0.74759667  1
  Ca2+  Ca81  1  0.74911974  0.50289986  0.74645518  1
  Ca2+  Ca82  1  0.00060810  0.24677401  0.75252855  1
  Ca2+  Ca83  1  0.24949706  0.50181376  0.25028885  1
  Ca2+  Ca84  1  0.49980041  0.24949444  0.24727808  1
  Nb5+  Nb85  1  -0.00305568  -0.00071946  0.50038476  1
  Nb5+  Nb86  1  0.49358249  0.00089725  0.50092820  1
  Nb5+  Nb87  1  -0.00021247  -0.00127684  0.00871715  1
  Nb5+  Nb88  1  0.24944356  0.24407425  0.49827161  1
  Nb5+  Nb89  1  0.25184725  0.74735928  0.50354535  1
  Nb5+  Nb90  1  0.75452293  0.74796906  0.50144272  1
  Nb5+  Nb91  1  0.75184448  0.49827225  0.24986637  1
  Nb5+  Nb92  1  0.50173480  0.74477765  0.74931052  1
  Nb5+  Nb93  1  0.00240726  0.74853590  0.25052449  1
  Nb5+  Nb94  1  0.49702716  0.24831021  0.74862224  1
  Nb5+  Nb95  1  0.24861290  -0.00189985  0.24901301  1
  Nb5+  Nb96  1  0.00255697  -0.00013650  0.25749772  1
  Nb5+  Nb97  1  0.00082935  -0.00127968  0.76339336  1
  Nb5+  Nb98  1  0.00019751  0.49348823  0.25296807  1
  Nb5+  Nb99  1  -0.00185457  0.49929280  0.75153464  1
  Nb5+  Nb100  1  0.49994374  -0.00308133  0.24262995  1
  Nb5+  Nb101  1  0.50116872  -0.00460085  0.75029638  1
  Nb5+  Nb102  1  0.49124793  0.50417428  0.25016226  1
  Nb5+  Nb103  1  0.49963641  0.49486419  0.74380179  1
  Nb5+  Nb104  1  0.25252709  0.25602868  0.25281787  1
  Nb5+  Nb105  1  0.25149074  0.24563267  0.75705724  1
  Nb5+  Nb106  1  0.24776079  0.75133115  0.24890486  1
  Nb5+  Nb107  1  0.24847879  0.75267480  0.75410768  1
  Nb5+  Nb108  1  0.74909197  0.24195801  0.25411045  1
  Nb5+  Nb109  1  0.75528545  0.24753320  0.74266464  1
  Nb5+  Nb110  1  0.74518934  0.74860948  0.25278907  1
  Nb5+  Nb111  1  0.75279647  0.74786033  0.74983333  1
  Nb5+  Nb112  1  -0.00365139  0.24737093  0.49693505  1
  Nb5+  Nb113  1  -0.00593283  0.25501363  0.99580711  1
  Nb5+  Nb114  1  0.00652162  0.75281361  0.49941497  1
  Nb5+  Nb115  1  0.00119966  0.74703890  0.99539464  1
  Nb5+  Nb116  1  0.49660858  0.25392754  0.50084454  1
  Nb5+  Nb117  1  0.50396209  0.25183821  1.00604566  1
  Nb5+  Nb118  1  0.50765359  0.75176853  0.50011352  1
  Nb5+  Nb119  1  0.50390907  0.75300377  1.00797542  1
  Nb5+  Nb120  1  0.24830185  0.00369495  -0.00932914  1
  Nb5+  Nb121  1  0.24718703  -0.00433447  0.49855255  1
  Nb5+  Nb122  1  0.24828972  0.50030733  -0.00188885  1
  Nb5+  Nb123  1  0.25337232  0.48970182  0.49694963  1
  Nb5+  Nb124  1  0.74722476  -0.00271882  0.00435760  1
  Nb5+  Nb125  1  0.74079933  -0.00022573  0.49892029  1
  Nb5+  Nb126  1  0.74846580  0.49845745  -0.00190303  1
  Nb5+  Nb127  1  0.75567519  0.50043605  0.50518998  1
  O2-  O128  1  -0.01212463  -0.01684830  0.12586797  1
  O2-  O129  1  -0.01403658  -0.01356650  0.61495701  1
  O2-  O130  1  -0.02184904  0.50640351  0.13731665  1
  O2-  O131  1  -0.02525414  0.49017088  0.63101462  1
  O2-  O132  1  0.47105945  0.01156641  0.13340787  1
  O2-  O133  1  0.47829779  0.01092237  0.62001813  1
  O2-  O134  1  0.48030219  0.51378590  0.13316111  1
  O2-  O135  1  0.47694734  0.52473099  0.63323943  1
  O2-  O136  1  0.02600824  0.00843101  0.37233753  1
  O2-  O137  1  0.01789059  0.00226229  0.87884215  1
  O2-  O138  1  0.02651170  0.51323267  0.36562525  1
  O2-  O139  1  0.02482772  0.50693527  0.86704831  1
  O2-  O140  1  0.51318010  -0.01172025  0.38356598  1
  O2-  O141  1  0.53026556  -0.00247861  0.86128381  1
  O2-  O142  1  0.51943817  0.48418870  0.36676824  1
  O2-  O143  1  0.53182622  0.49680005  0.86038769  1
  O2-  O144  1  0.23502109  0.26522124  0.13767565  1
  O2-  O145  1  0.23701494  0.27110340  0.61240463  1
  O2-  O146  1  0.23904083  0.78202304  0.13972018  1
  O2-  O147  1  0.23987273  0.77696667  0.61799735  1
  O2-  O148  1  0.72218582  0.24105047  0.13716947  1
  O2-  O149  1  0.71624942  0.23486955  0.63059781  1
  O2-  O150  1  0.72832881  0.72817637  0.14028431  1
  O2-  O151  1  0.72721628  0.73558385  0.61583014  1
  O2-  O152  1  0.26864116  0.23083152  0.37937877  1
  O2-  O153  1  0.26867363  0.21177952  0.86372684  1
  O2-  O154  1  0.25812961  0.73943933  0.38351583  1
  O2-  O155  1  0.27138010  0.73330775  0.86489578  1
  O2-  O156  1  0.78039521  0.26697385  0.36771152  1
  O2-  O157  1  0.76710205  0.26886294  0.86060835  1
  O2-  O158  1  0.76939990  0.76167211  0.37942177  1
  O2-  O159  1  0.77130575  0.76239546  0.86358719  1
  O2-  O160  1  0.02005855  0.26296950  0.11495516  1
  O2-  O161  1  0.02800604  0.25220876  0.61191488  1
  O2-  O162  1  0.01917882  0.76054900  0.13578143  1
  O2-  O163  1  0.00236273  0.78318664  0.61095148  1
  O2-  O164  1  0.53539769  0.24832456  0.11528882  1
  O2-  O165  1  0.51344007  0.24283043  0.62182222  1
  O2-  O166  1  0.52486377  0.76064138  0.11957359  1
  O2-  O167  1  0.51415184  0.75389123  0.62257027  1
  O2-  O168  1  0.23350890  0.01327730  0.37877439  1
  O2-  O169  1  0.21798224  0.02062957  0.88274213  1
  O2-  O170  1  0.21828036  0.51371171  0.38629015  1
  O2-  O171  1  0.22224532  0.52354030  0.88321989  1
  O2-  O172  1  0.74393307  -0.03164903  0.38580017  1
  O2-  O173  1  0.74695236  -0.02781203  0.88565767  1
  O2-  O174  1  0.73626478  0.48775007  0.37329391  1
  O2-  O175  1  0.73733907  0.47633000  0.88491024  1
  O2-  O176  1  -0.00971900  0.21304034  0.38523948  1
  O2-  O177  1  -0.02051538  0.21794760  0.88399309  1
  O2-  O178  1  -0.01632494  0.74286743  0.38003276  1
  O2-  O179  1  -0.02319416  0.73972761  0.88389060  1
  O2-  O180  1  0.47603716  0.24948173  0.38568559  1
  O2-  O181  1  0.47377304  0.25886930  0.86161997  1
  O2-  O182  1  0.47652347  0.76613550  0.38958500  1
  O2-  O183  1  0.48417949  0.75236761  0.86507895  1
  O2-  O184  1  0.26410186  -0.02206946  0.13535507  1
  O2-  O185  1  0.27142517  -0.01063180  0.61115964  1
  O2-  O186  1  0.27227538  0.47531372  0.11747503  1
  O2-  O187  1  0.27790687  0.49118791  0.61371169  1
  O2-  O188  1  0.76732754  0.02959295  0.11790833  1
  O2-  O189  1  0.77808564  0.00796115  0.60903408  1
  O2-  O190  1  0.76275200  0.52464584  0.13681006  1
  O2-  O191  1  0.76896763  0.53344071  0.61364927  1
  O2-  O192  1  0.13570960  0.25646908  0.27681867  1
  O2-  O193  1  0.13785356  0.26836922  0.76822322  1
  O2-  O194  1  0.11971053  0.76760707  0.27742678  1
  O2-  O195  1  0.13537405  0.77355034  0.76808499  1
  O2-  O196  1  0.63405850  0.27144573  0.27837361  1
  O2-  O197  1  0.61375468  0.27233315  0.75926138  1
  O2-  O198  1  0.63547768  0.77261971  0.27551566  1
  O2-  O199  1  0.61751626  0.77783286  0.75801126  1
  O2-  O200  1  0.36365752  0.21929722  0.23827275  1
  O2-  O201  1  0.37881054  0.23508584  0.72237575  1
  O2-  O202  1  0.36077984  0.72814948  0.24397861  1
  O2-  O203  1  0.38327533  0.73668843  0.72782250  1
  O2-  O204  1  0.86543309  0.23199498  0.22513309  1
  O2-  O205  1  0.86668672  0.22961970  0.71951111  1
  O2-  O206  1  0.88199338  0.73336585  0.24163246  1
  O2-  O207  1  0.86195877  0.72291908  0.72530651  1
  O2-  O208  1  0.27029255  0.36657287  0.27639991  1
  O2-  O209  1  0.27927445  0.36142917  0.75891050  1
  O2-  O210  1  0.25673642  0.87543474  0.27939110  1
  O2-  O211  1  0.28165911  0.86696010  0.75574298  1
  O2-  O212  1  0.77063647  0.38203930  0.23807626  1
  O2-  O213  1  0.76221817  0.36769050  0.72380229  1
  O2-  O214  1  0.77535528  0.86102335  0.23472908  1
  O2-  O215  1  0.75631220  0.86354257  0.72292169  1
  O2-  O216  1  0.22778184  0.11444659  0.24013847  1
  O2-  O217  1  0.24093531  0.13632411  0.71238845  1
  O2-  O218  1  0.21644916  0.63902994  0.24077830  1
  O2-  O219  1  0.23999415  0.63938768  0.72084497  1
  O2-  O220  1  0.73177288  0.13004374  0.27697503  1
  O2-  O221  1  0.72602681  0.13425489  0.76615681  1
  O2-  O222  1  0.74341912  0.62630849  0.27440735  1
  O2-  O223  1  0.71250839  0.63748920  0.75875463  1
  O2-  O224  1  0.11411455  0.47546846  0.22769378  1
  O2-  O225  1  0.11827150  0.47778990  0.73025222  1
  O2-  O226  1  0.12581089  0.97400315  0.24232131  1
  O2-  O227  1  0.11384762  0.96606263  0.73862597  1
  O2-  O228  1  0.63343890  0.48400700  0.23763210  1
  O2-  O229  1  0.61592173  0.48348483  0.71582407  1
  O2-  O230  1  0.61252301  0.97300105  0.23038563  1
  O2-  O231  1  0.61390507  0.99211418  0.71325674  1
  O2-  O232  1  0.36448891  0.01362556  0.27066464  1
  O2-  O233  1  0.38773185  0.02627693  0.76526999  1
  O2-  O234  1  0.38167041  0.53121856  0.27471167  1
  O2-  O235  1  0.38768100  0.51992755  0.77818226  1
  O2-  O236  1  0.88789663  0.01256852  0.27217742  1
  O2-  O237  1  0.88561799  0.03295960  0.76225261  1
  O2-  O238  1  0.87406235  0.51759306  0.27182167  1
  O2-  O239  1  0.88180167  0.52534160  0.77511236  1
  O2-  O240  1  0.47410091  0.38437889  0.23856889  1
  O2-  O241  1  0.48027652  0.37726804  0.73372022  1
  O2-  O242  1  0.46531259  0.88453286  0.25103452  1
  O2-  O243  1  0.48083074  0.87976792  0.74408766  1
  O2-  O244  1  0.97378794  0.38194086  0.26551252  1
  O2-  O245  1  0.97295639  0.38050882  0.75876321  1
  O2-  O246  1  0.98532380  0.87339507  0.26056541  1
  O2-  O247  1  0.96185705  0.88596890  0.75895823  1
  O2-  O248  1  0.01914364  0.11065853  0.23055718  1
  O2-  O249  1  0.02985492  0.11142265  0.73718104  1
  O2-  O250  1  0.01716669  0.63100064  0.24919033  1
  O2-  O251  1  0.02288898  0.61917124  0.73406725  1
  O2-  O252  1  0.50997592  0.11141330  0.27036582  1
  O2-  O253  1  0.51685456  0.13151827  0.75224959  1
  O2-  O254  1  0.53271080  0.61694980  0.25642657  1
  O2-  O255  1  0.52274573  0.63182331  0.75120394  1
  O2-  O256  1  0.13005727  0.47738907  0.02000214  1
  O2-  O257  1  0.13623920  0.48049072  0.52717463  1
  O2-  O258  1  0.12041124  0.97681807  0.01235221  1
  O2-  O259  1  0.12975754  0.98239990  0.51328612  1
  O2-  O260  1  0.63539532  0.48091208  0.03358340  1
  O2-  O261  1  0.63672539  0.48709187  0.51198140  1
  O2-  O262  1  0.63422079  0.97844685  0.02509616  1
  O2-  O263  1  0.62516217  0.98551490  0.51753692  1
  O2-  O264  1  0.36277473  0.02201823  -0.01883869  1
  O2-  O265  1  0.37590009  0.01401306  0.48022379  1
  O2-  O266  1  0.36715386  0.51952837  -0.02041055  1
  O2-  O267  1  0.36348130  0.52537155  0.47343821  1
  O2-  O268  1  0.88328716  0.01664666  -0.01375492  1
  O2-  O269  1  0.88338608  0.01321107  0.47801573  1
  O2-  O270  1  0.86333857  0.53315348  -0.00802114  1
  O2-  O271  1  0.86774957  0.52445381  0.47270451  1
  O2-  O272  1  0.47329552  0.36598312  -0.00345004  1
  O2-  O273  1  0.47083214  0.36592739  0.51071449  1
  O2-  O274  1  0.47089638  0.86818037  -0.00725330  1
  O2-  O275  1  0.48693409  0.88085848  0.51326799  1
  O2-  O276  1  0.96992708  0.36616939  -0.01839084  1
  O2-  O277  1  0.98343895  0.36057787  0.47896023  1
  O2-  O278  1  0.97993990  0.87699542  -0.00485508  1
  O2-  O279  1  0.99301343  0.88054577  0.47518231  1
  O2-  O280  1  0.02074296  0.11466725  0.01595699  1
  O2-  O281  1  0.02514366  0.11378075  0.50868980  1
  O2-  O282  1  0.02997061  0.63594699  0.00585424  1
  O2-  O283  1  0.01778101  0.63932025  0.51663392  1
  O2-  O284  1  0.51894754  0.13468118  -0.01873880  1
  O2-  O285  1  0.51484374  0.12089532  0.49646911  1
  O2-  O286  1  0.52114013  0.63686159  -0.00870701  1
  O2-  O287  1  0.51865514  0.63838394  0.49082755  1
  O2-  O288  1  0.11417857  0.26051249  -0.02436477  1
  O2-  O289  1  0.13217942  0.26144359  0.47656364  1
  O2-  O290  1  0.11433258  0.78095334  -0.01063398  1
  O2-  O291  1  0.12417041  0.76972508  0.48750145  1
  O2-  O292  1  0.61543782  0.26998961  -0.03403904  1
  O2-  O293  1  0.61204471  0.26743152  0.48236651  1
  O2-  O294  1  0.61804978  0.77944993  -0.01974514  1
  O2-  O295  1  0.62243903  0.77394943  0.48630515  1
  O2-  O296  1  0.38599216  0.22706918  0.02368814  1
  O2-  O297  1  0.37081432  0.22886946  0.51772929  1
  O2-  O298  1  0.38415637  0.73004028  0.01854167  1
  O2-  O299  1  0.37077305  0.74025868  0.51754672  1
  O2-  O300  1  0.88241485  0.22274931  0.02194881  1
  O2-  O301  1  0.88660485  0.22213689  0.52277401  1
  O2-  O302  1  0.88805885  0.73575277  0.03189205  1
  O2-  O303  1  0.87208798  0.73813206  0.51376462  1
  O2-  O304  1  0.26362196  0.38127676  -0.02907750  1
  O2-  O305  1  0.27008759  0.37358261  0.47897322  1
  O2-  O306  1  0.26493783  0.88592709  -0.01517848  1
  O2-  O307  1  0.26251169  0.87888698  0.48250527  1
  O2-  O308  1  0.77598965  0.38640972  0.02842234  1
  O2-  O309  1  0.77690919  0.38661892  0.51709087  1
  O2-  O310  1  0.77547810  0.88251999  0.02691419  1
  O2-  O311  1  0.76066918  0.86921837  0.51498840  1
  O2-  O312  1  0.23088698  0.11206456  0.03346622  1
  O2-  O313  1  0.23458942  0.12519021  0.51028214  1
  O2-  O314  1  0.23399811  0.61589562  0.03269923  1
  O2-  O315  1  0.23329491  0.63403087  0.51666061  1
  O2-  O316  1  0.73101108  0.11508809  -0.02158132  1
  O2-  O317  1  0.73388261  0.11270531  0.47557846  1
  O2-  O318  1  0.72149612  0.61653083  -0.01303025  1
  O2-  O319  1  0.73145436  0.63278492  0.48065555  1
