# generated using pymatgen
data_Sr64Ca21Nb43O192
_symmetry_space_group_name_H-M   'P 1'
_cell_length_a   16.58260683
_cell_length_b   16.56533974
_cell_length_c   16.72891215
_cell_angle_alpha   89.98292721
_cell_angle_beta   89.95199209
_cell_angle_gamma   89.93806760
_symmetry_Int_Tables_number   1
_chemical_formula_structural   Sr64Ca21Nb43O192
_chemical_formula_sum   'Sr64 Ca21 Nb43 O192'
_cell_volume   4595.36937985
_cell_formula_units_Z   1
loop_
 _symmetry_equiv_pos_site_id
 _symmetry_equiv_pos_as_xyz
  1  'x, y, z'
loop_
 _atom_type_symbol
 _atom_type_oxidation_number
  Sr2+  2.0
  Ca2+  2.0
  Nb5+  5.0
  O2-  -2.0
loop_
 _atom_site_type_symbol
 _atom_site_label
 _atom_site_symmetry_multiplicity
 _atom_site_fract_x
 _atom_site_fract_y
 _atom_site_fract_z
 _atom_site_occupancy
  Sr2+  Sr0  1  0.12880036  0.13682388  0.12483200  1
  Sr2+  Sr1  1  0.13003169  0.13020176  0.62214585  1
  Sr2+  Sr2  1  0.12603849  0.62313075  0.12590335  1
  Sr2+  Sr3  1  0.12032038  0.62382169  0.62564141  1
  Sr2+  Sr4  1  0.62967946  0.12358006  0.12678763  1
  Sr2+  Sr5  1  0.62298844  0.14357320  0.62370584  1
  Sr2+  Sr6  1  0.63152828  0.61673088  0.13268082  1
  Sr2+  Sr7  1  0.63553506  0.61505723  0.62335620  1
  Sr2+  Sr8  1  0.37365654  0.37143277  0.11546080  1
  Sr2+  Sr9  1  0.38226986  0.37973682  0.62183356  1
  Sr2+  Sr10  1  0.37058413  0.87902681  0.11554322  1
  Sr2+  Sr11  1  0.37877134  0.88357589  0.62572112  1
  Sr2+  Sr12  1  0.88873255  0.37347164  0.11981067  1
  Sr2+  Sr13  1  0.88043754  0.37561033  0.62732562  1
  Sr2+  Sr14  1  0.88327349  0.88144925  0.13218518  1
  Sr2+  Sr15  1  0.88477149  0.87831948  0.61532397  1
  Sr2+  Sr16  1  0.12510334  0.36968858  0.38353429  1
  Sr2+  Sr17  1  0.11342835  0.37914794  0.88216390  1
  Sr2+  Sr18  1  0.12262939  0.86499148  0.37637453  1
  Sr2+  Sr19  1  0.12708806  0.87499480  0.86863129  1
  Sr2+  Sr20  1  0.61497578  0.37821542  0.37066407  1
  Sr2+  Sr21  1  0.62497104  0.37645897  0.86605196  1
  Sr2+  Sr22  1  0.63326590  0.87836665  0.37438307  1
  Sr2+  Sr23  1  0.63869402  0.86855668  0.88300187  1
  Sr2+  Sr24  1  0.37460806  0.12986646  0.37737923  1
  Sr2+  Sr25  1  0.37154796  0.12698967  0.88038309  1
  Sr2+  Sr26  1  0.37361024  0.63062431  0.38179738  1
  Sr2+  Sr27  1  0.37444379  0.63586070  0.87501239  1
  Sr2+  Sr28  1  0.85897702  0.12419765  0.37035639  1
  Sr2+  Sr29  1  0.85731279  0.12205061  0.87766449  1
  Sr2+  Sr30  1  0.86587479  0.63776963  0.37447640  1
  Sr2+  Sr31  1  0.86419656  0.63089457  0.87188880  1
  Sr2+  Sr32  1  0.12737448  0.12845647  0.37873767  1
  Sr2+  Sr33  1  0.12518987  0.13846469  0.87057442  1
  Sr2+  Sr34  1  0.12573158  0.62789061  0.37200039  1
  Sr2+  Sr35  1  0.11902223  0.63108004  0.87176806  1
  Sr2+  Sr36  1  0.61548903  0.12339822  0.36260178  1
  Sr2+  Sr37  1  0.61168383  0.11288244  0.89004491  1
  Sr2+  Sr38  1  0.61323914  0.63752873  0.37892516  1
  Sr2+  Sr39  1  0.62577628  0.62812732  0.86507518  1
  Sr2+  Sr40  1  0.36972550  0.39475917  0.37386311  1
  Sr2+  Sr41  1  0.36751152  0.39450386  0.87174855  1
  Sr2+  Sr42  1  0.37128754  0.89217880  0.36977664  1
  Sr2+  Sr43  1  0.36638429  0.89154677  0.87283137  1
  Sr2+  Sr44  1  0.87675188  0.38169056  0.37834263  1
  Sr2+  Sr45  1  0.86860698  0.38470362  0.87627845  1
  Sr2+  Sr46  1  0.87528773  0.87988380  0.37005994  1
  Sr2+  Sr47  1  0.88105746  0.87498865  0.86988256  1
  Sr2+  Sr48  1  0.12718239  0.37415246  0.11902859  1
  Sr2+  Sr49  1  0.12186585  0.36153405  0.62757469  1
  Sr2+  Sr50  1  0.12762760  0.87260186  0.12464098  1
  Sr2+  Sr51  1  0.12390770  0.87828727  0.62620892  1
  Sr2+  Sr52  1  0.62722810  0.36479132  0.13247104  1
  Sr2+  Sr53  1  0.63816912  0.37600936  0.62766225  1
  Sr2+  Sr54  1  0.64093408  0.87792789  0.12558526  1
  Sr2+  Sr55  1  0.62733370  0.87615524  0.61632195  1
  Sr2+  Sr56  1  0.39522722  0.12884623  0.12553696  1
  Sr2+  Sr57  1  0.38352323  0.12952279  0.62665413  1
  Sr2+  Sr58  1  0.39058623  0.62576262  0.12600321  1
  Sr2+  Sr59  1  0.39466241  0.61988464  0.62591252  1
  Sr2+  Sr60  1  0.85816107  0.12465462  0.12582278  1
  Sr2+  Sr61  1  0.87450324  0.13350240  0.62927397  1
  Sr2+  Sr62  1  0.88273509  0.62629925  0.13507667  1
  Sr2+  Sr63  1  0.87172705  0.62544675  0.62826290  1
  Ca2+  Ca64  1  0.49983973  0.50030493  0.00019592  1
  Ca2+  Ca65  1  0.49790810  -0.00702303  0.00047877  1
  Ca2+  Ca66  1  0.00150945  0.50116071  0.50068701  1
  Ca2+  Ca67  1  0.00084567  -0.00181664  0.00086843  1
  Ca2+  Ca68  1  -0.00120956  0.00176781  0.49638477  1
  Ca2+  Ca69  1  0.75085709  0.25093648  0.49769660  1
  Ca2+  Ca70  1  0.74991547  0.74973138  0.50092428  1
  Ca2+  Ca71  1  0.75676716  0.74552066  0.00378051  1
  Ca2+  Ca72  1  0.25168679  0.75262453  0.50328454  1
  Ca2+  Ca73  1  0.74920024  0.25404986  -0.00069530  1
  Ca2+  Ca74  1  0.24851097  0.50354694  0.74599112  1
  Ca2+  Ca75  1  0.50043988  0.75273329  0.75143082  1
  Ca2+  Ca76  1  0.74657948  0.00068547  0.74792577  1
  Ca2+  Ca77  1  -0.00194957  0.24982570  0.75279756  1
  Ca2+  Ca78  1  0.00316873  0.25213971  0.24990473  1
  Ca2+  Ca79  1  0.49711999  0.24771322  0.75384221  1
  Ca2+  Ca80  1  0.75304198  0.50099203  0.25036774  1
  Ca2+  Ca81  1  0.25084086  0.49926953  0.24728734  1
  Ca2+  Ca82  1  0.49580967  0.25092237  0.25394049  1
  Ca2+  Ca83  1  0.24658013  0.00532369  0.24930794  1
  Ca2+  Ca84  1  0.49765824  0.75365531  0.25055833  1
  Nb5+  Nb85  1  0.50540460  0.50569510  0.49984692  1
  Nb5+  Nb86  1  0.49958382  0.00740222  0.50174428  1
  Nb5+  Nb87  1  -0.00209027  0.50384129  -0.00190722  1
  Nb5+  Nb88  1  0.25212961  0.25547035  -0.00474985  1
  Nb5+  Nb89  1  0.24902125  0.75248625  -0.00106103  1
  Nb5+  Nb90  1  0.25353281  0.25187257  0.49694041  1
  Nb5+  Nb91  1  0.00255092  0.75148194  0.24677858  1
  Nb5+  Nb92  1  -0.00201081  0.75107936  0.74439753  1
  Nb5+  Nb93  1  0.75160464  -0.00010932  0.25039739  1
  Nb5+  Nb94  1  0.24512896  0.00413658  0.74892742  1
  Nb5+  Nb95  1  0.75297554  0.49916728  0.75017823  1
  Nb5+  Nb96  1  0.00554490  0.00374160  0.25163326  1
  Nb5+  Nb97  1  -0.00137359  0.00502148  0.74839412  1
  Nb5+  Nb98  1  0.00328425  0.49971300  0.25461673  1
  Nb5+  Nb99  1  0.00010846  0.49937597  0.74821786  1
  Nb5+  Nb100  1  0.50013558  -0.00682508  0.24450018  1
  Nb5+  Nb101  1  0.50198236  -0.00472819  0.75107706  1
  Nb5+  Nb102  1  0.49886740  0.49884247  0.24663082  1
  Nb5+  Nb103  1  0.50103979  0.50281523  0.75385570  1
  Nb5+  Nb104  1  0.25083391  0.25283895  0.24399109  1
  Nb5+  Nb105  1  0.25496581  0.25423785  0.74659197  1
  Nb5+  Nb106  1  0.25264272  0.74753341  0.25026815  1
  Nb5+  Nb107  1  0.24920276  0.75075786  0.74742007  1
  Nb5+  Nb108  1  0.75536267  0.25795640  0.24883626  1
  Nb5+  Nb109  1  0.74685127  0.24385491  0.75609672  1
  Nb5+  Nb110  1  0.74708567  0.74881546  0.25251612  1
  Nb5+  Nb111  1  0.75095973  0.75555572  0.74710627  1
  Nb5+  Nb112  1  -0.00255077  0.24476943  0.49827271  1
  Nb5+  Nb113  1  -0.00008446  0.24365987  1.00028733  1
  Nb5+  Nb114  1  0.00157168  0.74771899  0.49472053  1
  Nb5+  Nb115  1  -0.00244249  0.74908579  0.99662649  1
  Nb5+  Nb116  1  0.49906160  0.25794213  0.49994441  1
  Nb5+  Nb117  1  0.50340131  0.25359676  0.99949614  1
  Nb5+  Nb118  1  0.49485178  0.76359490  0.49890475  1
  Nb5+  Nb119  1  0.50566201  0.75068606  1.00311654  1
  Nb5+  Nb120  1  0.24065166  0.00804247  0.00218400  1
  Nb5+  Nb121  1  0.25070330  -0.00042648  0.49852232  1
  Nb5+  Nb122  1  0.24695473  0.50968069  -0.00502978  1
  Nb5+  Nb123  1  0.24731692  0.50147347  0.50467796  1
  Nb5+  Nb124  1  0.75256590  -0.00416060  -0.00271391  1
  Nb5+  Nb125  1  0.74806370  0.00745152  0.50587785  1
  Nb5+  Nb126  1  0.74714797  0.50083399  0.00317487  1
  Nb5+  Nb127  1  0.75204430  0.49609409  0.49257026  1
  O2-  O128  1  0.00968125  -0.02630190  0.13683456  1
  O2-  O129  1  0.00587283  -0.02060583  0.63303610  1
  O2-  O130  1  -0.02158921  0.50165710  0.11470497  1
  O2-  O131  1  -0.02961388  0.50521560  0.63501919  1
  O2-  O132  1  0.50955363  -0.03637494  0.13474780  1
  O2-  O133  1  0.50567964  -0.02612642  0.61995803  1
  O2-  O134  1  0.47194668  0.48222185  0.13551251  1
  O2-  O135  1  0.49085588  0.48360489  0.62071877  1
  O2-  O136  1  -0.03209909  0.01233758  0.36336863  1
  O2-  O137  1  -0.00511830  -0.01377112  0.86374983  1
  O2-  O138  1  0.03474200  0.50067687  0.36469845  1
  O2-  O139  1  0.02063218  0.50871629  0.87184845  1
  O2-  O140  1  0.48637358  0.02211963  0.38447211  1
  O2-  O141  1  0.48120871  0.01946334  0.86327678  1
  O2-  O142  1  0.52627806  0.51270106  0.38389626  1
  O2-  O143  1  0.52676356  0.51362188  0.86586585  1
  O2-  O144  1  0.24394030  0.25104316  0.12344705  1
  O2-  O145  1  0.24871563  0.24553113  0.62907693  1
  O2-  O146  1  0.23669349  0.74762120  0.11756740  1
  O2-  O147  1  0.23752908  0.77009649  0.63634916  1
  O2-  O148  1  0.73778915  0.22693099  0.13258787  1
  O2-  O149  1  0.75217205  0.22667753  0.63584145  1
  O2-  O150  1  0.75258240  0.72258948  0.13792611  1
  O2-  O151  1  0.74421626  0.72202800  0.63486961  1
  O2-  O152  1  0.25036142  0.25154154  0.37990177  1
  O2-  O153  1  0.25530489  0.24597306  0.87786360  1
  O2-  O154  1  0.24610975  0.75411884  0.36570363  1
  O2-  O155  1  0.24321901  0.74846754  0.87703617  1
  O2-  O156  1  0.76999930  0.27535749  0.36530132  1
  O2-  O157  1  0.75316626  0.28378662  0.86641663  1
  O2-  O158  1  0.76925449  0.77240101  0.36718608  1
  O2-  O159  1  0.76933432  0.76978283  0.86623293  1
  O2-  O160  1  0.01386439  0.27115784  0.11427896  1
  O2-  O161  1  0.00608249  0.25809966  0.61794678  1
  O2-  O162  1  0.00590223  0.75429914  0.12577586  1
  O2-  O163  1  0.00320690  0.75229436  0.62696886  1
  O2-  O164  1  0.49351270  0.27126923  0.11880172  1
  O2-  O165  1  0.48371602  0.25818447  0.61665797  1
  O2-  O166  1  0.47839793  0.77436728  0.11646466  1
  O2-  O167  1  0.50917931  0.77482136  0.61575758  1
  O2-  O168  1  0.27075173  0.01471245  0.38518162  1
  O2-  O169  1  0.25611933  0.00776350  0.87193805  1
  O2-  O170  1  0.23812311  0.48208515  0.38726656  1
  O2-  O171  1  0.22590127  0.48662251  0.87983519  1
  O2-  O172  1  0.76115304  -0.01903325  0.36977163  1
  O2-  O173  1  0.76506033  -0.02721494  0.88311587  1
  O2-  O174  1  0.73948437  0.46407239  0.38313975  1
  O2-  O175  1  0.73887182  0.47759169  0.86934817  1
  O2-  O176  1  0.02178778  0.24477586  0.38312040  1
  O2-  O177  1  0.01182574  0.25080647  0.88535300  1
  O2-  O178  1  0.00523331  0.73951087  0.37371975  1
  O2-  O179  1  -0.00387241  0.74420501  0.87628587  1
  O2-  O180  1  0.49766224  0.22174322  0.38886208  1
  O2-  O181  1  0.49741587  0.21691436  0.88679025  1
  O2-  O182  1  0.48777187  0.72595315  0.38576576  1
  O2-  O183  1  0.49963779  0.71501037  0.88806478  1
  O2-  O184  1  0.22273000  0.00134175  0.11557187  1
  O2-  O185  1  0.23475008  -0.00154694  0.62679874  1
  O2-  O186  1  0.26831121  0.50004448  0.10946720  1
  O2-  O187  1  0.28710935  0.50538566  0.61512653  1
  O2-  O188  1  0.73614695  0.01548437  0.12937679  1
  O2-  O189  1  0.72279317  0.03018928  0.61587763  1
  O2-  O190  1  0.76715469  0.53150265  0.11245808  1
  O2-  O191  1  0.76103383  0.52063020  0.63066122  1
  O2-  O192  1  0.13880945  0.29363514  0.25398777  1
  O2-  O193  1  0.13834458  0.27129670  0.76041706  1
  O2-  O194  1  0.12073312  0.77604349  0.24919782  1
  O2-  O195  1  0.11525172  0.77184977  0.75612770  1
  O2-  O196  1  0.63570539  0.26099600  0.26389229  1
  O2-  O197  1  0.63171204  0.27602348  0.74350917  1
  O2-  O198  1  0.63464207  0.77451364  0.25277289  1
  O2-  O199  1  0.63680897  0.76562649  0.76637335  1
  O2-  O200  1  0.36317763  0.20998064  0.24953756  1
  O2-  O201  1  0.36273435  0.21016535  0.75607824  1
  O2-  O202  1  0.36307709  0.71766300  0.24408578  1
  O2-  O203  1  0.36151982  0.72561448  0.74719094  1
  O2-  O204  1  0.86904695  0.21986351  0.24291740  1
  O2-  O205  1  0.86595311  0.22310475  0.75558976  1
  O2-  O206  1  0.88247328  0.73487032  0.24705016  1
  O2-  O207  1  0.87859512  0.72701873  0.74593751  1
  O2-  O208  1  0.29229856  0.36471095  0.24497363  1
  O2-  O209  1  0.28368095  0.36544015  0.74485984  1
  O2-  O210  1  0.27017487  0.86536511  0.23697342  1
  O2-  O211  1  0.25837450  0.87622693  0.76340314  1
  O2-  O212  1  0.77127731  0.36775125  0.21674962  1
  O2-  O213  1  0.77098995  0.38149306  0.73005655  1
  O2-  O214  1  0.76660485  0.87655488  0.23085120  1
  O2-  O215  1  0.77157154  0.86641875  0.71922113  1
  O2-  O216  1  0.21072574  0.13901613  0.25189726  1
  O2-  O217  1  0.22022143  0.12009773  0.75029662  1
  O2-  O218  1  0.21546483  0.63426747  0.24768377  1
  O2-  O219  1  0.21528225  0.63852502  0.74786283  1
  O2-  O220  1  0.73814245  0.11728620  0.26811830  1
  O2-  O221  1  0.72236648  0.13343233  0.78638803  1
  O2-  O222  1  0.73272837  0.63549787  0.28097133  1
  O2-  O223  1  0.74029520  0.62129185  0.76812548  1
  O2-  O224  1  0.11293542  0.48946784  0.21349154  1
  O2-  O225  1  0.11297597  0.48457131  0.72296125  1
  O2-  O226  1  0.11443569  0.97687527  0.27847160  1
  O2-  O227  1  0.12575494  0.97400940  0.75397239  1
  O2-  O228  1  0.61883891  0.47856524  0.23049541  1
  O2-  O229  1  0.63110607  0.48522454  0.73678909  1
  O2-  O230  1  0.63011368  0.98354098  0.25923403  1
  O2-  O231  1  0.61244952  0.96628610  0.76440241  1
  O2-  O232  1  0.38479317  0.00832853  0.23840776  1
  O2-  O233  1  0.36198002  0.01523445  0.73499039  1
  O2-  O234  1  0.38588341  0.52348658  0.27851719  1
  O2-  O235  1  0.38635559  0.52547611  0.76751044  1
  O2-  O236  1  0.87080611  0.01078152  0.23189136  1
  O2-  O237  1  0.88298679  0.02832411  0.74308032  1
  O2-  O238  1  0.88907255  0.53478687  0.26468217  1
  O2-  O239  1  0.87295119  0.51738173  0.76997805  1
  O2-  O240  1  0.48956540  0.38442196  0.28247262  1
  O2-  O241  1  0.48195910  0.38537123  0.76211678  1
  O2-  O242  1  0.49661325  0.88575339  0.29129969  1
  O2-  O243  1  0.45948520  0.88443026  0.75628823  1
  O2-  O244  1  0.96937131  0.38860642  0.25342377  1
  O2-  O245  1  0.97809118  0.38606156  0.75968187  1
  O2-  O246  1  0.98112130  0.86863419  0.26256335  1
  O2-  O247  1  0.97316188  0.86696034  0.75008972  1
  O2-  O248  1  0.02470750  0.11564099  0.23413466  1
  O2-  O249  1  0.03171852  0.11507647  0.74533113  1
  O2-  O250  1  0.02246235  0.63113088  0.24339324  1
  O2-  O251  1  0.01648377  0.62819935  0.74705704  1
  O2-  O252  1  0.52224715  0.11040398  0.23453852  1
  O2-  O253  1  0.51288125  0.10873244  0.72041217  1
  O2-  O254  1  0.52436981  0.61627300  0.23764016  1
  O2-  O255  1  0.52130448  0.61651739  0.72243403  1
  O2-  O256  1  0.12440482  0.48089904  0.01164670  1
  O2-  O257  1  0.13821168  0.47434935  0.53027656  1
  O2-  O258  1  0.13343453  0.96689945  -0.01620560  1
  O2-  O259  1  0.13724958  0.97895364  0.48670722  1
  O2-  O260  1  0.63594003  0.47551981  0.01988339  1
  O2-  O261  1  0.62256611  0.47527597  0.51413723  1
  O2-  O262  1  0.63184741  0.97819084  -0.01202880  1
  O2-  O263  1  0.61555570  0.97970916  0.48952146  1
  O2-  O264  1  0.35933900  0.00886979  0.01265241  1
  O2-  O265  1  0.37736454  0.02067550  0.51957994  1
  O2-  O266  1  0.36205530  0.51920626  -0.02966535  1
  O2-  O267  1  0.38492879  0.51323967  0.48222704  1
  O2-  O268  1  0.86726774  0.02604671  0.00911771  1
  O2-  O269  1  0.86139943  0.02397150  0.51791932  1
  O2-  O270  1  0.88440602  0.51890571  -0.02596555  1
  O2-  O271  1  0.86577703  0.51750943  0.47678157  1
  O2-  O272  1  0.46414954  0.36351759  -0.02139227  1
  O2-  O273  1  0.48086508  0.37218537  0.48326986  1
  O2-  O274  1  0.47022457  0.86022853  -0.02728564  1
  O2-  O275  1  0.47155121  0.87743501  0.48281583  1
  O2-  O276  1  0.98895927  0.38221767  -0.01099839  1
  O2-  O277  1  0.97972119  0.36545845  0.49208177  1
  O2-  O278  1  0.96805010  0.86006540  -0.00268329  1
  O2-  O279  1  0.96979542  0.86455217  0.48834941  1
  O2-  O280  1  0.03206878  0.13286908  0.00685411  1
  O2-  O281  1  0.03707891  0.13212509  0.50699489  1
  O2-  O282  1  0.02998133  0.62111446  0.00170323  1
  O2-  O283  1  0.03590847  0.63314250  0.50204905  1
  O2-  O284  1  0.51558112  0.13189016  0.02668246  1
  O2-  O285  1  0.51433208  0.12077654  0.52205183  1
  O2-  O286  1  0.51385016  0.63295566  0.03623179  1
  O2-  O287  1  0.52051498  0.61868001  0.51951596  1
  O2-  O288  1  0.13354335  0.26895271  -0.00305988  1
  O2-  O289  1  0.13640294  0.27306536  0.50566745  1
  O2-  O290  1  0.12072858  0.76657673  -0.00387030  1
  O2-  O291  1  0.11569151  0.78220259  0.50342373  1
  O2-  O292  1  0.61478833  0.28204350  -0.00418425  1
  O2-  O293  1  0.61427112  0.26681483  0.50834716  1
  O2-  O294  1  0.61858396  0.77392054  0.00480350  1
  O2-  O295  1  0.61376998  0.76918394  0.48442082  1
  O2-  O296  1  0.36550157  0.22267342  0.00862314  1
  O2-  O297  1  0.37199417  0.22717019  0.50146417  1
  O2-  O298  1  0.36088204  0.72156105  0.00163394  1
  O2-  O299  1  0.38414519  0.72171652  0.51632734  1
  O2-  O300  1  0.88602875  0.22645158  0.00374730  1
  O2-  O301  1  0.88598546  0.21556383  0.49673795  1
  O2-  O302  1  0.88977146  0.70907829  0.00735189  1
  O2-  O303  1  0.88640493  0.71823118  0.50766156  1
  O2-  O304  1  0.26882938  0.37057910  -0.00185009  1
  O2-  O305  1  0.27734794  0.36861017  0.50843818  1
  O2-  O306  1  0.26642802  0.86875942  -0.00244219  1
  O2-  O307  1  0.28124307  0.88786958  0.49801415  1
  O2-  O308  1  0.78659944  0.38925284  0.01106660  1
  O2-  O309  1  0.76675988  0.38445901  0.53290207  1
  O2-  O310  1  0.76801062  0.88227300  0.03148033  1
  O2-  O311  1  0.75654635  0.88837572  0.51940817  1
  O2-  O312  1  0.22413120  0.12424008  -0.00412823  1
  O2-  O313  1  0.23416687  0.12860952  0.50553523  1
  O2-  O314  1  0.22160740  0.62420869  -0.00707719  1
  O2-  O315  1  0.22932868  0.61515127  0.49442175  1
  O2-  O316  1  0.72901714  0.11552961  -0.01609012  1
  O2-  O317  1  0.72439356  0.11589009  0.46471626  1
  O2-  O318  1  0.73569877  0.61291305  -0.03441125  1
  O2-  O319  1  0.72187422  0.61047836  0.48527459  1
