# generated using pymatgen
data_Sr64Ca21Nb43O192
_symmetry_space_group_name_H-M   'P 1'
_cell_length_a   16.57000495
_cell_length_b   16.56404446
_cell_length_c   16.78154299
_cell_angle_alpha   90.02989812
_cell_angle_beta   89.98767535
_cell_angle_gamma   90.05359965
_symmetry_Int_Tables_number   1
_chemical_formula_structural   Sr64Ca21Nb43O192
_chemical_formula_sum   'Sr64 Ca21 Nb43 O192'
_cell_volume   4605.96524151
_cell_formula_units_Z   1
loop_
 _symmetry_equiv_pos_site_id
 _symmetry_equiv_pos_as_xyz
  1  'x, y, z'
loop_
 _atom_type_symbol
 _atom_type_oxidation_number
  Sr2+  2.0
  Ca2+  2.0
  Nb5+  5.0
  O2-  -2.0
loop_
 _atom_site_type_symbol
 _atom_site_label
 _atom_site_symmetry_multiplicity
 _atom_site_fract_x
 _atom_site_fract_y
 _atom_site_fract_z
 _atom_site_occupancy
  Sr2+  Sr0  1  0.13111857  0.12296643  0.12519714  1
  Sr2+  Sr1  1  0.12451312  0.10302010  0.62179876  1
  Sr2+  Sr2  1  0.11906058  0.61924758  0.12624289  1
  Sr2+  Sr3  1  0.13420798  0.62072092  0.64887410  1
  Sr2+  Sr4  1  0.62820373  0.12248267  0.12416911  1
  Sr2+  Sr5  1  0.63031733  0.11988414  0.63171005  1
  Sr2+  Sr6  1  0.62482099  0.63023540  0.12681302  1
  Sr2+  Sr7  1  0.63280183  0.60222841  0.62549721  1
  Sr2+  Sr8  1  0.37435647  0.37218914  0.12792016  1
  Sr2+  Sr9  1  0.38072943  0.35594987  0.61691302  1
  Sr2+  Sr10  1  0.38823476  0.86858111  0.12657817  1
  Sr2+  Sr11  1  0.37057927  0.86127155  0.62619465  1
  Sr2+  Sr12  1  0.87757657  0.37225181  0.12528712  1
  Sr2+  Sr13  1  0.87255368  0.37831525  0.61566505  1
  Sr2+  Sr14  1  0.86869000  0.87717730  0.12543065  1
  Sr2+  Sr15  1  0.88259190  0.87345602  0.63119900  1
  Sr2+  Sr16  1  0.12546450  0.37533929  0.38229469  1
  Sr2+  Sr17  1  0.11708301  0.37760448  0.86301165  1
  Sr2+  Sr18  1  0.11446074  0.87897134  0.38053464  1
  Sr2+  Sr19  1  0.13324935  0.88252355  0.85566091  1
  Sr2+  Sr20  1  0.61097482  0.38439471  0.38528857  1
  Sr2+  Sr21  1  0.61302042  0.37933844  0.87131403  1
  Sr2+  Sr22  1  0.62554800  0.88119678  0.38400196  1
  Sr2+  Sr23  1  0.61550233  0.88130754  0.87509804  1
  Sr2+  Sr24  1  0.36015580  0.12914264  0.38034097  1
  Sr2+  Sr25  1  0.36452016  0.13245337  0.87090057  1
  Sr2+  Sr26  1  0.36526830  0.62871960  0.37542916  1
  Sr2+  Sr27  1  0.36352840  0.63392756  0.87151879  1
  Sr2+  Sr28  1  0.88487203  0.12731899  0.37214938  1
  Sr2+  Sr29  1  0.86937161  0.13457682  0.87506935  1
  Sr2+  Sr30  1  0.87978338  0.63471250  0.38397775  1
  Sr2+  Sr31  1  0.86413545  0.63120993  0.86931296  1
  Sr2+  Sr32  1  0.11615186  0.12114490  0.37935928  1
  Sr2+  Sr33  1  0.12353165  0.12093520  0.87361928  1
  Sr2+  Sr34  1  0.12357806  0.63437180  0.37081430  1
  Sr2+  Sr35  1  0.12036382  0.63387602  0.87351700  1
  Sr2+  Sr36  1  0.62414837  0.12871351  0.39136831  1
  Sr2+  Sr37  1  0.61983866  0.13158460  0.86772894  1
  Sr2+  Sr38  1  0.62507724  0.63038425  0.39149193  1
  Sr2+  Sr39  1  0.62057784  0.63578315  0.87022376  1
  Sr2+  Sr40  1  0.36564162  0.38957815  0.38003783  1
  Sr2+  Sr41  1  0.36724688  0.38357228  0.87261845  1
  Sr2+  Sr42  1  0.36412812  0.88399641  0.38038864  1
  Sr2+  Sr43  1  0.37048082  0.89194877  0.87558523  1
  Sr2+  Sr44  1  0.87592771  0.38122973  0.38023835  1
  Sr2+  Sr45  1  0.87354737  0.38296195  0.87162513  1
  Sr2+  Sr46  1  0.87439991  0.88520615  0.37789696  1
  Sr2+  Sr47  1  0.87627883  0.87907647  0.86745268  1
  Sr2+  Sr48  1  0.12601514  0.37214812  0.12641294  1
  Sr2+  Sr49  1  0.13646299  0.36787056  0.62327259  1
  Sr2+  Sr50  1  0.13084608  0.86210271  0.12454519  1
  Sr2+  Sr51  1  0.14020599  0.86579671  0.62417038  1
  Sr2+  Sr52  1  0.61766321  0.37136935  0.12408200  1
  Sr2+  Sr53  1  0.63699394  0.36765837  0.62064125  1
  Sr2+  Sr54  1  0.62843897  0.87531501  0.12395568  1
  Sr2+  Sr55  1  0.63042866  0.87287225  0.63064821  1
  Sr2+  Sr56  1  0.38640997  0.12533646  0.12440666  1
  Sr2+  Sr57  1  0.38867114  0.12196447  0.62259330  1
  Sr2+  Sr58  1  0.37960696  0.61769323  0.12690814  1
  Sr2+  Sr59  1  0.38977094  0.62818760  0.62205809  1
  Sr2+  Sr60  1  0.86339222  0.12376678  0.12659638  1
  Sr2+  Sr61  1  0.87789870  0.12464913  0.62252233  1
  Sr2+  Sr62  1  0.88005144  0.62240246  0.12702166  1
  Sr2+  Sr63  1  0.86137502  0.61849475  0.62030961  1
  Ca2+  Ca64  1  0.00230302  0.50330441  0.49780530  1
  Ca2+  Ca65  1  0.00010318  0.00061796  -0.00149055  1
  Ca2+  Ca66  1  -0.00373461  -0.00100134  0.50256711  1
  Ca2+  Ca67  1  0.50000641  -0.00317151  0.49901929  1
  Ca2+  Ca68  1  0.49641542  0.49871950  0.50138988  1
  Ca2+  Ca69  1  0.75215559  0.24471143  0.49406593  1
  Ca2+  Ca70  1  0.24728027  0.74631968  0.49741934  1
  Ca2+  Ca71  1  0.24859862  0.24735260  0.49754393  1
  Ca2+  Ca72  1  0.75007745  0.75045934  0.50110527  1
  Ca2+  Ca73  1  0.25011778  0.75208871  -0.00045434  1
  Ca2+  Ca74  1  0.00004992  0.24833656  0.75193695  1
  Ca2+  Ca75  1  -0.00230841  0.74665996  0.75037751  1
  Ca2+  Ca76  1  0.50202181  0.75024568  0.75325981  1
  Ca2+  Ca77  1  0.50261616  0.25233868  0.74956125  1
  Ca2+  Ca78  1  0.24955792  0.00059783  0.24911669  1
  Ca2+  Ca79  1  0.74983421  0.49967366  0.24996603  1
  Ca2+  Ca80  1  0.75055911  0.49346460  0.75422338  1
  Ca2+  Ca81  1  0.25299323  0.00450999  0.74606673  1
  Ca2+  Ca82  1  0.75286344  -0.00050765  0.75633192  1
  Ca2+  Ca83  1  0.49771876  0.25033710  0.25704363  1
  Ca2+  Ca84  1  0.25546028  0.49701760  0.75060162  1
  Nb5+  Nb85  1  -0.00547004  0.50308169  -0.00175422  1
  Nb5+  Nb86  1  0.49439741  0.50023156  -0.00018961  1
  Nb5+  Nb87  1  0.50118990  0.00049058  0.00288705  1
  Nb5+  Nb88  1  0.24167880  0.25638568  -0.00263681  1
  Nb5+  Nb89  1  0.74621738  0.25616469  0.00227649  1
  Nb5+  Nb90  1  0.75038150  0.75604681  -0.00016487  1
  Nb5+  Nb91  1  0.74613027  0.00195675  0.25139123  1
  Nb5+  Nb92  1  0.24764537  0.50093923  0.24698585  1
  Nb5+  Nb93  1  0.50611456  0.74886550  0.25278683  1
  Nb5+  Nb94  1  0.00215267  0.24747482  0.24780332  1
  Nb5+  Nb95  1  0.00097793  0.75142329  0.24686973  1
  Nb5+  Nb96  1  0.00126423  -0.00410270  0.24000481  1
  Nb5+  Nb97  1  0.00029710  0.00018810  0.75199771  1
  Nb5+  Nb98  1  -0.00100297  0.49760881  0.25102264  1
  Nb5+  Nb99  1  -0.00336913  0.49908038  0.74319631  1
  Nb5+  Nb100  1  0.50223272  0.00491839  0.25158027  1
  Nb5+  Nb101  1  0.49781750  -0.00434083  0.74492658  1
  Nb5+  Nb102  1  0.50169077  0.50215863  0.24995681  1
  Nb5+  Nb103  1  0.49659546  0.49537610  0.74518183  1
  Nb5+  Nb104  1  0.24735379  0.25181219  0.24773585  1
  Nb5+  Nb105  1  0.24872701  0.24506821  0.74011934  1
  Nb5+  Nb106  1  0.25824442  0.75225139  0.24160128  1
  Nb5+  Nb107  1  0.25321601  0.74903846  0.75243487  1
  Nb5+  Nb108  1  0.74974616  0.25321790  0.25041286  1
  Nb5+  Nb109  1  0.75340766  0.24781880  0.74532256  1
  Nb5+  Nb110  1  0.75446495  0.74911937  0.24726929  1
  Nb5+  Nb111  1  0.74651895  0.74734659  0.74598573  1
  Nb5+  Nb112  1  0.00021624  0.25203634  0.50599474  1
  Nb5+  Nb113  1  -0.00295293  0.25100306  1.00296090  1
  Nb5+  Nb114  1  0.00269719  0.74734234  0.50715140  1
  Nb5+  Nb115  1  -0.00396305  0.75493366  0.99843693  1
  Nb5+  Nb116  1  0.50171123  0.24639947  0.49835393  1
  Nb5+  Nb117  1  0.49258825  0.24848431  1.00349226  1
  Nb5+  Nb118  1  0.50254246  0.75308693  0.50511090  1
  Nb5+  Nb119  1  0.49904356  0.74616525  1.00406771  1
  Nb5+  Nb120  1  0.24787013  -0.00126135  0.01012428  1
  Nb5+  Nb121  1  0.25006927  -0.00070930  0.49835271  1
  Nb5+  Nb122  1  0.24095264  0.49963296  0.00036933  1
  Nb5+  Nb123  1  0.25220807  0.50682803  0.50954264  1
  Nb5+  Nb124  1  0.74899109  0.00569036  -0.00040027  1
  Nb5+  Nb125  1  0.75292637  -0.00232767  0.50865630  1
  Nb5+  Nb126  1  0.74237079  0.50429739  0.00453469  1
  Nb5+  Nb127  1  0.74923274  0.49650694  0.49452447  1
  O2-  O128  1  -0.03685653  0.01240045  0.13214163  1
  O2-  O129  1  -0.03266284  0.00458641  0.63568718  1
  O2-  O130  1  -0.01375434  0.50510381  0.12672770  1
  O2-  O131  1  -0.03427913  0.50275078  0.63317261  1
  O2-  O132  1  0.48320926  -0.01577041  0.12661525  1
  O2-  O133  1  0.47066770  -0.02185553  0.63589275  1
  O2-  O134  1  0.47926816  0.48704229  0.12001905  1
  O2-  O135  1  0.46346032  0.48485068  0.63665782  1
  O2-  O136  1  0.01104586  0.00121659  0.35773353  1
  O2-  O137  1  0.03605151  -0.00445184  0.86969888  1
  O2-  O138  1  0.03546061  0.49734337  0.35863227  1
  O2-  O139  1  0.03064450  0.50172580  0.89097617  1
  O2-  O140  1  0.53610821  0.00617863  0.36045764  1
  O2-  O141  1  0.52488905  0.01324982  0.89159268  1
  O2-  O142  1  0.51845598  0.52376723  0.36036769  1
  O2-  O143  1  0.53409621  0.51274451  0.89294957  1
  O2-  O144  1  0.22536380  0.24603714  0.12172994  1
  O2-  O145  1  0.22669800  0.22357457  0.63122607  1
  O2-  O146  1  0.21820269  0.73092574  0.13196564  1
  O2-  O147  1  0.23122095  0.73527982  0.63394933  1
  O2-  O148  1  0.74203463  0.24511450  0.12533074  1
  O2-  O149  1  0.73871648  0.24471304  0.63212013  1
  O2-  O150  1  0.72819720  0.75656182  0.12182119  1
  O2-  O151  1  0.71575351  0.74141977  0.63569271  1
  O2-  O152  1  0.26159030  0.27763525  0.35897657  1
  O2-  O153  1  0.26480587  0.27161541  0.88562471  1
  O2-  O154  1  0.26172502  0.76265363  0.35608631  1
  O2-  O155  1  0.27844496  0.77071387  0.86994428  1
  O2-  O156  1  0.76793270  0.22413195  0.35823020  1
  O2-  O157  1  0.76978621  0.25344126  0.88959009  1
  O2-  O158  1  0.76937335  0.74630479  0.35978777  1
  O2-  O159  1  0.77156370  0.75592498  0.88617658  1
  O2-  O160  1  0.01705986  0.26099948  0.12609408  1
  O2-  O161  1  -0.00077795  0.26566509  0.61840841  1
  O2-  O162  1  0.01103761  0.74804962  0.12386415  1
  O2-  O163  1  0.03298609  0.74091365  0.61571482  1
  O2-  O164  1  0.51104457  0.26843742  0.11817805  1
  O2-  O165  1  0.51683603  0.27815399  0.61552424  1
  O2-  O166  1  0.52194752  0.76336332  0.12561157  1
  O2-  O167  1  0.50937783  0.78230040  0.61576044  1
  O2-  O168  1  0.22907644  -0.02950497  0.37843815  1
  O2-  O169  1  0.23922584  -0.00832271  0.89302644  1
  O2-  O170  1  0.23544860  0.47883818  0.35769471  1
  O2-  O171  1  0.23600361  0.46995175  0.88895977  1
  O2-  O172  1  0.72375169  0.00342067  0.36280343  1
  O2-  O173  1  0.71565388  -0.00392484  0.89073540  1
  O2-  O174  1  0.71696828  0.49550551  0.37957702  1
  O2-  O175  1  0.73632696  0.47590294  0.89347146  1
  O2-  O176  1  -0.00732789  0.24804560  0.36328382  1
  O2-  O177  1  -0.01787143  0.25399651  0.89038658  1
  O2-  O178  1  -0.02915783  0.76182115  0.35644895  1
  O2-  O179  1  -0.03197659  0.74128554  0.88871049  1
  O2-  O180  1  0.48672265  0.20917069  0.38360152  1
  O2-  O181  1  0.49580179  0.23035230  0.89007771  1
  O2-  O182  1  0.48884662  0.72092407  0.36123768  1
  O2-  O183  1  0.48808806  0.72887053  0.89206975  1
  O2-  O184  1  0.27010355  0.03994930  0.11778323  1
  O2-  O185  1  0.26779462  0.03045371  0.61250834  1
  O2-  O186  1  0.26851947  0.51529375  0.11872395  1
  O2-  O187  1  0.26931432  0.53794026  0.61691125  1
  O2-  O188  1  0.76599185  -0.00324403  0.12073930  1
  O2-  O189  1  0.77969052  -0.00349764  0.61937326  1
  O2-  O190  1  0.78475088  0.50096314  0.11361324  1
  O2-  O191  1  0.76833071  0.49909671  0.61749744  1
  O2-  O192  1  0.12094162  0.27851430  0.25574063  1
  O2-  O193  1  0.13591818  0.27340599  0.76447051  1
  O2-  O194  1  0.11617768  0.76928523  0.26091829  1
  O2-  O195  1  0.13343379  0.76107945  0.77322533  1
  O2-  O196  1  0.63725582  0.27549273  0.25894579  1
  O2-  O197  1  0.63986969  0.27279798  0.77292201  1
  O2-  O198  1  0.62316376  0.75885705  0.26258669  1
  O2-  O199  1  0.63494410  0.76746049  0.78366194  1
  O2-  O200  1  0.36085717  0.23993352  0.22431687  1
  O2-  O201  1  0.36876748  0.22502255  0.73747442  1
  O2-  O202  1  0.37417285  0.73612126  0.22663617  1
  O2-  O203  1  0.37048317  0.72742956  0.73007044  1
  O2-  O204  1  0.88418130  0.23347132  0.22946580  1
  O2-  O205  1  0.86740494  0.20987375  0.74697427  1
  O2-  O206  1  0.87102959  0.74583614  0.22110562  1
  O2-  O207  1  0.86354831  0.72173207  0.73038209  1
  O2-  O208  1  0.25676790  0.38220269  0.22233096  1
  O2-  O209  1  0.27588473  0.36311501  0.72795226  1
  O2-  O210  1  0.26348436  0.86587506  0.21789487  1
  O2-  O211  1  0.26640887  0.86874600  0.73490562  1
  O2-  O212  1  0.78361859  0.36355363  0.25055331  1
  O2-  O213  1  0.78949487  0.36103937  0.74827311  1
  O2-  O214  1  0.75520664  0.87655122  0.24360483  1
  O2-  O215  1  0.77489247  0.86307730  0.74899933  1
  O2-  O216  1  0.22326436  0.13971572  0.26412793  1
  O2-  O217  1  0.23689764  0.13522534  0.78349175  1
  O2-  O218  1  0.23860805  0.62316581  0.25713163  1
  O2-  O219  1  0.23495649  0.63044511  0.77737722  1
  O2-  O220  1  0.73989443  0.12071432  0.23208225  1
  O2-  O221  1  0.72430599  0.13127308  0.76334918  1
  O2-  O222  1  0.73832439  0.63554254  0.23418657  1
  O2-  O223  1  0.73294985  0.62937736  0.77213086  1
  O2-  O224  1  0.12780611  0.49771855  0.22028795  1
  O2-  O225  1  0.11736570  0.47970184  0.72543588  1
  O2-  O226  1  0.11301176  0.98576696  0.21663129  1
  O2-  O227  1  0.11809897  0.97272321  0.72412972  1
  O2-  O228  1  0.61314672  0.49100434  0.21898151  1
  O2-  O229  1  0.61534453  0.47172653  0.73125067  1
  O2-  O230  1  0.62766909  0.98777312  0.22163298  1
  O2-  O231  1  0.61708767  0.97696640  0.73382467  1
  O2-  O232  1  0.38794873  0.01140998  0.27241284  1
  O2-  O233  1  0.38632533  0.01603884  0.78274392  1
  O2-  O234  1  0.37071373  0.51633456  0.25529359  1
  O2-  O235  1  0.38794309  0.51637715  0.78942432  1
  O2-  O236  1  0.86614347  0.00826804  0.26560956  1
  O2-  O237  1  0.88644031  0.01680970  0.78972911  1
  O2-  O238  1  0.88834478  0.52064143  0.27249280  1
  O2-  O239  1  0.88632954  0.51403238  0.78582297  1
  O2-  O240  1  0.48151738  0.38839036  0.26591825  1
  O2-  O241  1  0.48621504  0.38377769  0.78622037  1
  O2-  O242  1  0.48650605  0.86665657  0.25773841  1
  O2-  O243  1  0.48836449  0.88344453  0.78608656  1
  O2-  O244  1  0.98371453  0.37973943  0.24567922  1
  O2-  O245  1  0.98800327  0.38472164  0.77136976  1
  O2-  O246  1  0.98303104  0.87771545  0.23460094  1
  O2-  O247  1  0.97519516  0.87935365  0.75281780  1
  O2-  O248  1  0.01942098  0.12950030  0.24431881  1
  O2-  O249  1  0.03231513  0.11584719  0.74753137  1
  O2-  O250  1  0.01075406  0.63157164  0.24635287  1
  O2-  O251  1  0.02545443  0.61262941  0.76101069  1
  O2-  O252  1  0.51465444  0.11590037  0.22499106  1
  O2-  O253  1  0.52189681  0.11325355  0.74186942  1
  O2-  O254  1  0.50389180  0.62791292  0.22160519  1
  O2-  O255  1  0.52481084  0.61226024  0.74165137  1
  O2-  O256  1  0.12745545  0.49177696  0.02540319  1
  O2-  O257  1  0.13572767  0.48360719  0.51893194  1
  O2-  O258  1  0.13474500  0.99130118  0.03233159  1
  O2-  O259  1  0.13144489  0.97999181  0.51988656  1
  O2-  O260  1  0.62926117  0.49209553  0.03114874  1
  O2-  O261  1  0.62996262  0.47439682  0.51945678  1
  O2-  O262  1  0.62146675  0.99749721  0.03028688  1
  O2-  O263  1  0.63504797  0.96838922  0.51741993  1
  O2-  O264  1  0.38290424  0.01511042  -0.01058691  1
  O2-  O265  1  0.36792544  0.01278309  0.46952438  1
  O2-  O266  1  0.38072729  0.51087206  -0.01824140  1
  O2-  O267  1  0.36570199  0.51413066  0.46857533  1
  O2-  O268  1  0.86164056  0.01444910  -0.02205261  1
  O2-  O269  1  0.86275573  0.01914261  0.46780324  1
  O2-  O270  1  0.88013544  0.51366206  -0.02060542  1
  O2-  O271  1  0.86589957  0.51482794  0.46887452  1
  O2-  O272  1  0.49370626  0.37655179  -0.01054768  1
  O2-  O273  1  0.48052632  0.36393272  0.46917847  1
  O2-  O274  1  0.49582997  0.87593012  -0.00624656  1
  O2-  O275  1  0.48417457  0.86272664  0.46471444  1
  O2-  O276  1  0.98648093  0.38184291  0.00944201  1
  O2-  O277  1  0.97421717  0.36788081  0.48687927  1
  O2-  O278  1  0.96764067  0.86610370  0.00733321  1
  O2-  O279  1  0.97778750  0.86332795  0.49450697  1
  O2-  O280  1  0.02483257  0.13955324  0.00675192  1
  O2-  O281  1  0.02811371  0.13368859  0.50054335  1
  O2-  O282  1  0.01011644  0.62385008  0.01015544  1
  O2-  O283  1  0.00754608  0.63578268  0.46649304  1
  O2-  O284  1  0.50818395  0.12764747  0.02374171  1
  O2-  O285  1  0.52304012  0.12969707  0.52937549  1
  O2-  O286  1  0.51076866  0.62389059  0.02210563  1
  O2-  O287  1  0.52290065  0.63304076  0.52303344  1
  O2-  O288  1  0.12508327  0.27877455  -0.01208460  1
  O2-  O289  1  0.11595748  0.27616387  0.48801232  1
  O2-  O290  1  0.10975462  0.77020144  -0.01883689  1
  O2-  O291  1  0.11404156  0.76303374  0.46633284  1
  O2-  O292  1  0.62892483  0.26106049  -0.00541406  1
  O2-  O293  1  0.61866651  0.26589439  0.47353099  1
  O2-  O294  1  0.62724585  0.75520125  -0.01140089  1
  O2-  O295  1  0.61616183  0.76086097  0.46984316  1
  O2-  O296  1  0.37525422  0.24283417  0.01612288  1
  O2-  O297  1  0.38240416  0.22986926  0.51927929  1
  O2-  O298  1  0.38629325  0.74195244  0.02979447  1
  O2-  O299  1  0.38541747  0.72676776  0.50381803  1
  O2-  O300  1  0.87869629  0.23997956  0.02278428  1
  O2-  O301  1  0.88568371  0.21748286  0.49793485  1
  O2-  O302  1  0.86476373  0.73259720  0.02586950  1
  O2-  O303  1  0.88358105  0.72778522  0.52146062  1
  O2-  O304  1  0.26761779  0.37630772  0.02176880  1
  O2-  O305  1  0.26939091  0.38650908  0.51570400  1
  O2-  O306  1  0.26932951  0.88769656  0.02960799  1
  O2-  O307  1  0.27061194  0.88071975  0.51959548  1
  O2-  O308  1  0.76109073  0.37134879  0.01701379  1
  O2-  O309  1  0.77518070  0.37770800  0.49757329  1
  O2-  O310  1  0.75512255  0.87512288  0.00470189  1
  O2-  O311  1  0.77024635  0.88188752  0.48358367  1
  O2-  O312  1  0.23540097  0.13864856  -0.01290277  1
  O2-  O313  1  0.23252870  0.11572775  0.46584162  1
  O2-  O314  1  0.24221893  0.61406964  -0.02084991  1
  O2-  O315  1  0.23505592  0.61377634  0.46233169  1
  O2-  O316  1  0.73980238  0.12669622  0.00529828  1
  O2-  O317  1  0.72057391  0.11144717  0.50502166  1
  O2-  O318  1  0.73624764  0.62244187  -0.00539770  1
  O2-  O319  1  0.73134924  0.61543936  0.50204964  1
