# generated using pymatgen
data_Sr64Ca21Nb43O192
_symmetry_space_group_name_H-M   'P 1'
_cell_length_a   16.57352258
_cell_length_b   16.56789592
_cell_length_c   16.73285746
_cell_angle_alpha   90.05465669
_cell_angle_beta   90.02021596
_cell_angle_gamma   89.92104853
_symmetry_Int_Tables_number   1
_chemical_formula_structural   Sr64Ca21Nb43O192
_chemical_formula_sum   'Sr64 Ca21 Nb43 O192'
_cell_volume   4594.64177062
_cell_formula_units_Z   1
loop_
 _symmetry_equiv_pos_site_id
 _symmetry_equiv_pos_as_xyz
  1  'x, y, z'
loop_
 _atom_type_symbol
 _atom_type_oxidation_number
  Sr2+  2.0
  Ca2+  2.0
  Nb5+  5.0
  O2-  -2.0
loop_
 _atom_site_type_symbol
 _atom_site_label
 _atom_site_symmetry_multiplicity
 _atom_site_fract_x
 _atom_site_fract_y
 _atom_site_fract_z
 _atom_site_occupancy
  Sr2+  Sr0  1  0.12679130  0.11094194  0.12741585  1
  Sr2+  Sr1  1  0.13487506  0.12226838  0.62554525  1
  Sr2+  Sr2  1  0.12763464  0.64465645  0.12450873  1
  Sr2+  Sr3  1  0.12624276  0.60993449  0.62358380  1
  Sr2+  Sr4  1  0.62427317  0.12324239  0.11754415  1
  Sr2+  Sr5  1  0.62692744  0.11639091  0.62082821  1
  Sr2+  Sr6  1  0.62124730  0.61221133  0.12771335  1
  Sr2+  Sr7  1  0.62924740  0.62389052  0.61448770  1
  Sr2+  Sr8  1  0.37290651  0.36300082  0.13039373  1
  Sr2+  Sr9  1  0.36676025  0.36325433  0.62194884  1
  Sr2+  Sr10  1  0.37514489  0.85295464  0.12104590  1
  Sr2+  Sr11  1  0.38102846  0.85943880  0.62726885  1
  Sr2+  Sr12  1  0.87871006  0.36152451  0.12093141  1
  Sr2+  Sr13  1  0.89059695  0.36790022  0.62604241  1
  Sr2+  Sr14  1  0.88670213  0.85980103  0.12464679  1
  Sr2+  Sr15  1  0.87824732  0.86345195  0.61988192  1
  Sr2+  Sr16  1  0.10906271  0.38257416  0.37865744  1
  Sr2+  Sr17  1  0.11106172  0.38573412  0.86663072  1
  Sr2+  Sr18  1  0.11483845  0.88492224  0.35995417  1
  Sr2+  Sr19  1  0.10889951  0.88068053  0.88093229  1
  Sr2+  Sr20  1  0.62468807  0.38246820  0.37102151  1
  Sr2+  Sr21  1  0.62460311  0.37024399  0.87861229  1
  Sr2+  Sr22  1  0.62204009  0.87428801  0.37357302  1
  Sr2+  Sr23  1  0.62479641  0.88073595  0.87124416  1
  Sr2+  Sr24  1  0.37020515  0.12993673  0.38326425  1
  Sr2+  Sr25  1  0.38232412  0.12805854  0.87504310  1
  Sr2+  Sr26  1  0.38134028  0.63281732  0.37229790  1
  Sr2+  Sr27  1  0.37980798  0.63010402  0.87420333  1
  Sr2+  Sr28  1  0.88118811  0.12445418  0.37083758  1
  Sr2+  Sr29  1  0.86545418  0.13617168  0.87298018  1
  Sr2+  Sr30  1  0.85854463  0.63335148  0.37194819  1
  Sr2+  Sr31  1  0.86756810  0.63216944  0.88933219  1
  Sr2+  Sr32  1  0.12201833  0.13146770  0.38008185  1
  Sr2+  Sr33  1  0.12232271  0.13212643  0.87353931  1
  Sr2+  Sr34  1  0.12773981  0.63679598  0.36723577  1
  Sr2+  Sr35  1  0.11274752  0.63884211  0.87301107  1
  Sr2+  Sr36  1  0.61311824  0.12723082  0.37869030  1
  Sr2+  Sr37  1  0.62466521  0.12868949  0.86947985  1
  Sr2+  Sr38  1  0.62512639  0.62751266  0.36886561  1
  Sr2+  Sr39  1  0.62147095  0.60650621  0.87993167  1
  Sr2+  Sr40  1  0.37347153  0.36699369  0.37429826  1
  Sr2+  Sr41  1  0.38049264  0.38493898  0.87136812  1
  Sr2+  Sr42  1  0.38137969  0.87934670  0.37747996  1
  Sr2+  Sr43  1  0.37304331  0.87136073  0.87264698  1
  Sr2+  Sr44  1  0.87122192  0.39059959  0.37572567  1
  Sr2+  Sr45  1  0.86556785  0.38001086  0.87327787  1
  Sr2+  Sr46  1  0.86883530  0.88079922  0.36566543  1
  Sr2+  Sr47  1  0.87110070  0.88431849  0.87273771  1
  Sr2+  Sr48  1  0.12100257  0.37060445  0.13099386  1
  Sr2+  Sr49  1  0.12264245  0.36924109  0.62786738  1
  Sr2+  Sr50  1  0.11877144  0.87085234  0.12386886  1
  Sr2+  Sr51  1  0.12844435  0.86446254  0.63335636  1
  Sr2+  Sr52  1  0.62654643  0.36265128  0.12584547  1
  Sr2+  Sr53  1  0.62877307  0.36369088  0.61955691  1
  Sr2+  Sr54  1  0.62574271  0.86967866  0.11306876  1
  Sr2+  Sr55  1  0.63277825  0.86623797  0.62350565  1
  Sr2+  Sr56  1  0.37700173  0.12193165  0.13042507  1
  Sr2+  Sr57  1  0.37805079  0.12058464  0.61782861  1
  Sr2+  Sr58  1  0.36507984  0.61648752  0.12059901  1
  Sr2+  Sr59  1  0.36344389  0.62053685  0.62207069  1
  Sr2+  Sr60  1  0.89052055  0.12175223  0.12440863  1
  Sr2+  Sr61  1  0.89062107  0.11390122  0.62857662  1
  Sr2+  Sr62  1  0.89085772  0.61603362  0.12539432  1
  Sr2+  Sr63  1  0.89235796  0.62826690  0.62212516  1
  Ca2+  Ca64  1  0.00344190  0.49509304  0.00248704  1
  Ca2+  Ca65  1  -0.00300271  0.00265938  -0.00200259  1
  Ca2+  Ca66  1  0.00273865  -0.00368336  0.50064288  1
  Ca2+  Ca67  1  0.49906022  0.50008875  0.50031458  1
  Ca2+  Ca68  1  0.00061619  0.50463682  0.49738789  1
  Ca2+  Ca69  1  0.75091724  0.24737870  0.49793620  1
  Ca2+  Ca70  1  0.25125235  0.75116105  -0.00317821  1
  Ca2+  Ca71  1  0.25352566  0.25254829  -0.00325010  1
  Ca2+  Ca72  1  0.74651184  0.74950215  -0.00040028  1
  Ca2+  Ca73  1  0.24878778  0.74975782  0.49918241  1
  Ca2+  Ca74  1  0.74582246  0.00093864  0.24727572  1
  Ca2+  Ca75  1  -0.00025968  0.24895218  0.75178892  1
  Ca2+  Ca76  1  -0.00286519  0.74499140  0.25348618  1
  Ca2+  Ca77  1  0.50356370  0.24575014  0.25019134  1
  Ca2+  Ca78  1  0.00097989  0.25199776  0.24942095  1
  Ca2+  Ca79  1  0.74963247  0.50090240  0.74823434  1
  Ca2+  Ca80  1  -0.00321002  0.75280542  0.74872064  1
  Ca2+  Ca81  1  0.25354673  0.00223620  0.25234364  1
  Ca2+  Ca82  1  0.50212157  0.74782567  0.75201277  1
  Ca2+  Ca83  1  0.50095435  0.75205939  0.24814453  1
  Ca2+  Ca84  1  0.49818380  0.25276477  0.74889328  1
  Nb5+  Nb85  1  0.49766109  -0.00444309  -0.00522053  1
  Nb5+  Nb86  1  0.50093169  -0.00200350  0.49745259  1
  Nb5+  Nb87  1  0.49838542  0.49126230  0.00418187  1
  Nb5+  Nb88  1  0.74865311  0.75022340  0.49931551  1
  Nb5+  Nb89  1  0.74894220  0.24773940  0.00213134  1
  Nb5+  Nb90  1  0.24787370  0.25132536  0.49936579  1
  Nb5+  Nb91  1  0.74516530  0.49834284  0.24801243  1
  Nb5+  Nb92  1  0.25578046  -0.00484800  0.75016581  1
  Nb5+  Nb93  1  0.75665079  0.00250198  0.74957527  1
  Nb5+  Nb94  1  0.25193107  0.49361624  0.74642336  1
  Nb5+  Nb95  1  0.24471086  0.49622164  0.24371621  1
  Nb5+  Nb96  1  -0.00137520  -0.00023616  0.24783629  1
  Nb5+  Nb97  1  0.01085453  -0.00002970  0.74784043  1
  Nb5+  Nb98  1  -0.00671114  0.50076611  0.25313891  1
  Nb5+  Nb99  1  -0.00785684  0.50654970  0.75518366  1
  Nb5+  Nb100  1  0.49981169  -0.00091833  0.23920157  1
  Nb5+  Nb101  1  0.50303605  -0.00072765  0.74582906  1
  Nb5+  Nb102  1  0.49164040  0.50051893  0.25207257  1
  Nb5+  Nb103  1  0.50030417  0.50180392  0.74307680  1
  Nb5+  Nb104  1  0.24606393  0.24919213  0.24865450  1
  Nb5+  Nb105  1  0.25485168  0.24535835  0.75382411  1
  Nb5+  Nb106  1  0.25498831  0.75541538  0.25299819  1
  Nb5+  Nb107  1  0.24711629  0.73960587  0.74921985  1
  Nb5+  Nb108  1  0.75227497  0.24803340  0.25678335  1
  Nb5+  Nb109  1  0.74846884  0.25089562  0.74351707  1
  Nb5+  Nb110  1  0.74561896  0.75077070  0.24130075  1
  Nb5+  Nb111  1  0.74648864  0.74644118  0.75186001  1
  Nb5+  Nb112  1  -0.00506402  0.24463042  0.49981588  1
  Nb5+  Nb113  1  0.00783604  0.25188110  0.99607959  1
  Nb5+  Nb114  1  0.00538317  0.75420916  0.49450340  1
  Nb5+  Nb115  1  -0.00286460  0.74801950  0.99881106  1
  Nb5+  Nb116  1  0.50092559  0.25289669  0.50108059  1
  Nb5+  Nb117  1  0.49962322  0.24326812  1.00135070  1
  Nb5+  Nb118  1  0.50188455  0.74569327  0.50152368  1
  Nb5+  Nb119  1  0.50316376  0.74066531  0.99938413  1
  Nb5+  Nb120  1  0.24967935  0.00028952  0.00224139  1
  Nb5+  Nb121  1  0.24959588  -0.00522260  0.50402843  1
  Nb5+  Nb122  1  0.24808105  0.49310886  -0.00558780  1
  Nb5+  Nb123  1  0.24686014  0.50039942  0.48875984  1
  Nb5+  Nb124  1  0.75137448  0.00409259  0.00131621  1
  Nb5+  Nb125  1  0.74992756  0.00057821  0.49732196  1
  Nb5+  Nb126  1  0.74949412  0.49908046  0.00235311  1
  Nb5+  Nb127  1  0.75477769  0.49890088  0.50742092  1
  O2-  O128  1  -0.02425893  -0.02065396  0.13078833  1
  O2-  O129  1  -0.02543923  -0.01963365  0.63646348  1
  O2-  O130  1  -0.01434065  0.47048155  0.13771715  1
  O2-  O131  1  -0.01813910  0.48732271  0.63667235  1
  O2-  O132  1  0.48853890  0.01106675  0.12210833  1
  O2-  O133  1  0.48660469  0.00863781  0.63081724  1
  O2-  O134  1  0.48341896  0.51052660  0.12395898  1
  O2-  O135  1  0.48519858  0.53081800  0.63455662  1
  O2-  O136  1  0.02366757  0.01811906  0.36612401  1
  O2-  O137  1  0.02327487  0.02119007  0.86433415  1
  O2-  O138  1  0.03131701  0.52121047  0.36422721  1
  O2-  O139  1  0.03047795  0.51476219  0.86747912  1
  O2-  O140  1  0.51429385  -0.00587728  0.38215094  1
  O2-  O141  1  0.51151715  -0.00979943  0.87844570  1
  O2-  O142  1  0.51888011  0.49309936  0.36448236  1
  O2-  O143  1  0.51747412  0.48224828  0.88599652  1
  O2-  O144  1  0.23170019  0.25975860  0.13360243  1
  O2-  O145  1  0.23107898  0.25713518  0.61969594  1
  O2-  O146  1  0.23128709  0.76362898  0.13409465  1
  O2-  O147  1  0.21915851  0.74231262  0.63262858  1
  O2-  O148  1  0.72641689  0.23892826  0.11985368  1
  O2-  O149  1  0.72203448  0.23860982  0.63270714  1
  O2-  O150  1  0.71372835  0.73835783  0.13299124  1
  O2-  O151  1  0.72402952  0.74207653  0.62000610  1
  O2-  O152  1  0.27098715  0.24805283  0.37960741  1
  O2-  O153  1  0.28884832  0.25147608  0.86198614  1
  O2-  O154  1  0.27378324  0.73094355  0.36776947  1
  O2-  O155  1  0.27918518  0.74688896  0.86308892  1
  O2-  O156  1  0.77804836  0.27217047  0.36603117  1
  O2-  O157  1  0.76479925  0.26356716  0.88099875  1
  O2-  O158  1  0.76689686  0.76476514  0.38236480  1
  O2-  O159  1  0.77519496  0.76169971  0.86337248  1
  O2-  O160  1  0.00809969  0.27834481  0.11315545  1
  O2-  O161  1  0.01109829  0.27260333  0.61647629  1
  O2-  O162  1  0.01313874  0.76880203  0.11804848  1
  O2-  O163  1  0.00728588  0.78066795  0.61338552  1
  O2-  O164  1  0.52561473  0.24431533  0.11599696  1
  O2-  O165  1  0.52798594  0.24139584  0.61576558  1
  O2-  O166  1  0.52431765  0.75892934  0.11475046  1
  O2-  O167  1  0.52594864  0.75240655  0.61708268  1
  O2-  O168  1  0.23460080  0.00328515  0.39041796  1
  O2-  O169  1  0.23535090  -0.01164079  0.86483553  1
  O2-  O170  1  0.23231362  0.49666904  0.37388867  1
  O2-  O171  1  0.23949338  0.49504889  0.87686091  1
  O2-  O172  1  0.73367678  -0.02273214  0.38649253  1
  O2-  O173  1  0.73042388  -0.00859201  0.87147757  1
  O2-  O174  1  0.73350469  0.48759882  0.36872570  1
  O2-  O175  1  0.73091366  0.47911279  0.88715314  1
  O2-  O176  1  -0.00381411  0.22059105  0.38326372  1
  O2-  O177  1  -0.01334505  0.21787710  0.88372130  1
  O2-  O178  1  -0.02079619  0.71732273  0.38555542  1
  O2-  O179  1  -0.01859188  0.72299203  0.88222300  1
  O2-  O180  1  0.47985521  0.23590424  0.38482141  1
  O2-  O181  1  0.48290546  0.26695666  0.88689991  1
  O2-  O182  1  0.48057577  0.76364873  0.38566241  1
  O2-  O183  1  0.47279618  0.75728895  0.88636770  1
  O2-  O184  1  0.26793799  0.01667514  0.11446990  1
  O2-  O185  1  0.26592298  0.01757198  0.62870174  1
  O2-  O186  1  0.27098340  0.48854547  0.12974192  1
  O2-  O187  1  0.26913560  0.49838910  0.63053116  1
  O2-  O188  1  0.75522938  0.03289093  0.11247537  1
  O2-  O189  1  0.75731195  0.01668172  0.63110170  1
  O2-  O190  1  0.76232366  0.51680170  0.12740890  1
  O2-  O191  1  0.77026931  0.53205519  0.61547523  1
  O2-  O192  1  0.13638331  0.28500850  0.27045041  1
  O2-  O193  1  0.13928990  0.27024021  0.76603230  1
  O2-  O194  1  0.13554960  0.75691324  0.27133199  1
  O2-  O195  1  0.13620325  0.77400192  0.77514240  1
  O2-  O196  1  0.63923863  0.28450924  0.25970009  1
  O2-  O197  1  0.63386667  0.26338272  0.77516449  1
  O2-  O198  1  0.63525923  0.75772305  0.28260463  1
  O2-  O199  1  0.63527554  0.78777699  0.75849603  1
  O2-  O200  1  0.36555841  0.23521111  0.23393950  1
  O2-  O201  1  0.36481776  0.23622780  0.71213697  1
  O2-  O202  1  0.36712062  0.72299235  0.22663899  1
  O2-  O203  1  0.36398717  0.73655719  0.71971143  1
  O2-  O204  1  0.86359511  0.23695522  0.21964520  1
  O2-  O205  1  0.86273873  0.22007238  0.73927153  1
  O2-  O206  1  0.86056388  0.72078061  0.23493024  1
  O2-  O207  1  0.85996605  0.74027307  0.71866235  1
  O2-  O208  1  0.27894346  0.38004529  0.25801603  1
  O2-  O209  1  0.27166057  0.37723288  0.75008832  1
  O2-  O210  1  0.27409066  0.86805093  0.26633179  1
  O2-  O211  1  0.26726572  0.88040975  0.73462737  1
  O2-  O212  1  0.77573187  0.38439756  0.23585040  1
  O2-  O213  1  0.77415720  0.36512942  0.73397460  1
  O2-  O214  1  0.77173399  0.86371925  0.23286482  1
  O2-  O215  1  0.76698066  0.88528691  0.73857166  1
  O2-  O216  1  0.22006053  0.13681779  0.25481485  1
  O2-  O217  1  0.23251065  0.12747181  0.75506290  1
  O2-  O218  1  0.23448445  0.61416129  0.24349472  1
  O2-  O219  1  0.23064376  0.62174782  0.75270637  1
  O2-  O220  1  0.73168407  0.13703243  0.27832372  1
  O2-  O221  1  0.72857904  0.12178248  0.76219378  1
  O2-  O222  1  0.73346085  0.61911734  0.26249300  1
  O2-  O223  1  0.71631404  0.63559103  0.76186085  1
  O2-  O224  1  0.13246611  0.47671001  0.23490118  1
  O2-  O225  1  0.13455134  0.47992884  0.73600182  1
  O2-  O226  1  0.11912326  0.97805239  0.22762037  1
  O2-  O227  1  0.12798032  0.98619788  0.72884599  1
  O2-  O228  1  0.63026309  0.48131044  0.23016489  1
  O2-  O229  1  0.61339257  0.47587190  0.73281181  1
  O2-  O230  1  0.61248702  0.95863145  0.23774351  1
  O2-  O231  1  0.61958643  0.98691304  0.73834942  1
  O2-  O232  1  0.38900891  0.03836158  0.26615504  1
  O2-  O233  1  0.36972302  0.01887638  0.76452829  1
  O2-  O234  1  0.37736862  0.52032387  0.26706920  1
  O2-  O235  1  0.36876824  0.52049654  0.76946534  1
  O2-  O236  1  0.88043313  0.01712964  0.27041875  1
  O2-  O237  1  0.86970546  0.01989462  0.76849510  1
  O2-  O238  1  0.87658081  0.51977095  0.26754049  1
  O2-  O239  1  0.88143126  0.52975903  0.77819962  1
  O2-  O240  1  0.48348181  0.38363959  0.24029922  1
  O2-  O241  1  0.46708156  0.38868688  0.74134578  1
  O2-  O242  1  0.46126632  0.88708937  0.24716024  1
  O2-  O243  1  0.47244323  0.88675105  0.75250607  1
  O2-  O244  1  0.98683465  0.38488476  0.28198310  1
  O2-  O245  1  0.98231012  0.38570405  0.76978056  1
  O2-  O246  1  0.98484755  0.87981519  0.27055020  1
  O2-  O247  1  0.98674150  0.88665463  0.77747473  1
  O2-  O248  1  0.01442811  0.11722045  0.22350272  1
  O2-  O249  1  0.01603444  0.11612247  0.72347995  1
  O2-  O250  1  0.01949467  0.61206868  0.22125335  1
  O2-  O251  1  0.02545360  0.61869075  0.73261897  1
  O2-  O252  1  0.54177430  0.11194163  0.24905164  1
  O2-  O253  1  0.50366954  0.11523555  0.77089753  1
  O2-  O254  1  0.52478696  0.61472194  0.24941225  1
  O2-  O255  1  0.50924478  0.61312073  0.78285765  1
  O2-  O256  1  0.13987908  0.46204149  0.01193950  1
  O2-  O257  1  0.13661777  0.47198912  0.52166287  1
  O2-  O258  1  0.13665984  0.97696638  0.01339959  1
  O2-  O259  1  0.13864312  0.97678221  0.52845728  1
  O2-  O260  1  0.62066916  0.48522991  0.02389750  1
  O2-  O261  1  0.63666923  0.48147856  0.51615207  1
  O2-  O262  1  0.61960326  0.99064642  0.01135888  1
  O2-  O263  1  0.61767397  0.98240847  0.52183478  1
  O2-  O264  1  0.38350864  0.02750692  -0.01409032  1
  O2-  O265  1  0.37976302  0.02080501  0.49209843  1
  O2-  O266  1  0.38561827  0.52339926  -0.01541020  1
  O2-  O267  1  0.36365673  0.52234743  0.48584809  1
  O2-  O268  1  0.86135185  0.02344038  -0.02505501  1
  O2-  O269  1  0.86236719  0.02397571  0.49016709  1
  O2-  O270  1  0.86390983  0.51303162  -0.01044578  1
  O2-  O271  1  0.86458650  0.51943302  0.46917271  1
  O2-  O272  1  0.48532395  0.37664227  0.01664948  1
  O2-  O273  1  0.47507151  0.36596573  0.50837858  1
  O2-  O274  1  0.48021498  0.88275141  0.00720078  1
  O2-  O275  1  0.48068790  0.88127198  0.50939832  1
  O2-  O276  1  0.97087445  0.36310541  -0.02726329  1
  O2-  O277  1  0.98242547  0.36349448  0.47949702  1
  O2-  O278  1  0.97617139  0.86640090  -0.02086536  1
  O2-  O279  1  0.96741636  0.86577987  0.47439695  1
  O2-  O280  1  0.01573304  0.13550392  0.02786138  1
  O2-  O281  1  0.03297755  0.13203102  0.52036353  1
  O2-  O282  1  0.02005473  0.62919045  0.01918222  1
  O2-  O283  1  0.01279827  0.63789707  0.52951532  1
  O2-  O284  1  0.52072971  0.12716034  -0.01248168  1
  O2-  O285  1  0.51526373  0.11956291  0.50390323  1
  O2-  O286  1  0.52398925  0.62438138  -0.00299868  1
  O2-  O287  1  0.52813519  0.63421149  0.48852833  1
  O2-  O288  1  0.11935260  0.27180825  -0.02627145  1
  O2-  O289  1  0.13314291  0.26826744  0.48223487  1
  O2-  O290  1  0.11674090  0.76588415  -0.01988409  1
  O2-  O291  1  0.11605644  0.77540172  0.47045922  1
  O2-  O292  1  0.62478096  0.26749827  -0.01491820  1
  O2-  O293  1  0.61508559  0.27226871  0.47531961  1
  O2-  O294  1  0.61442775  0.77628604  -0.02476219  1
  O2-  O295  1  0.62550977  0.77455039  0.48482212  1
  O2-  O296  1  0.38697241  0.22766231  0.02438128  1
  O2-  O297  1  0.37404837  0.23342581  0.51809698  1
  O2-  O298  1  0.38623562  0.73166420  0.02531252  1
  O2-  O299  1  0.38673057  0.73058803  0.52321502  1
  O2-  O300  1  0.86448245  0.23082250  0.01587318  1
  O2-  O301  1  0.88338120  0.21829717  0.51572663  1
  O2-  O302  1  0.87904490  0.72728442  0.02314866  1
  O2-  O303  1  0.86297672  0.73571794  0.51938630  1
  O2-  O304  1  0.29550254  0.38566635  -0.00045447  1
  O2-  O305  1  0.27461930  0.37263216  0.49647340  1
  O2-  O306  1  0.28606380  0.88829880  -0.00440767  1
  O2-  O307  1  0.28317059  0.88484840  0.50926266  1
  O2-  O308  1  0.75787576  0.37292947  0.01840299  1
  O2-  O309  1  0.77435494  0.38529827  0.52314575  1
  O2-  O310  1  0.76159309  0.88942963  0.01617817  1
  O2-  O311  1  0.75793697  0.87778660  0.52124898  1
  O2-  O312  1  0.23521403  0.11556515  -0.02337673  1
  O2-  O313  1  0.23958498  0.12963574  0.50194990  1
  O2-  O314  1  0.24039565  0.60929958  0.01491662  1
  O2-  O315  1  0.22291182  0.61288632  0.50207356  1
  O2-  O316  1  0.72527598  0.13048999  -0.01838580  1
  O2-  O317  1  0.71509474  0.11237289  0.49261360  1
  O2-  O318  1  0.72643593  0.61304842  -0.01191828  1
  O2-  O319  1  0.72737417  0.63179631  0.48487106  1
