# generated using pymatgen
data_Sr64Ca21Nb43O192
_symmetry_space_group_name_H-M   'P 1'
_cell_length_a   16.56710142
_cell_length_b   16.55913780
_cell_length_c   16.74276117
_cell_angle_alpha   89.98690735
_cell_angle_beta   90.00090927
_cell_angle_gamma   89.96067973
_symmetry_Int_Tables_number   1
_chemical_formula_structural   Sr64Ca21Nb43O192
_chemical_formula_sum   'Sr64 Ca21 Nb43 O192'
_cell_volume   4593.15625235
_cell_formula_units_Z   1
loop_
 _symmetry_equiv_pos_site_id
 _symmetry_equiv_pos_as_xyz
  1  'x, y, z'
loop_
 _atom_type_symbol
 _atom_type_oxidation_number
  Sr2+  2.0
  Ca2+  2.0
  Nb5+  5.0
  O2-  -2.0
loop_
 _atom_site_type_symbol
 _atom_site_label
 _atom_site_symmetry_multiplicity
 _atom_site_fract_x
 _atom_site_fract_y
 _atom_site_fract_z
 _atom_site_occupancy
  Sr2+  Sr0  1  0.13093862  0.11857232  0.13879144  1
  Sr2+  Sr1  1  0.12951992  0.11585815  0.62516449  1
  Sr2+  Sr2  1  0.12164982  0.63696495  0.11783104  1
  Sr2+  Sr3  1  0.13532989  0.63826599  0.62920553  1
  Sr2+  Sr4  1  0.63075897  0.12752808  0.11135083  1
  Sr2+  Sr5  1  0.63689203  0.11976410  0.62366560  1
  Sr2+  Sr6  1  0.63526333  0.63827954  0.12914833  1
  Sr2+  Sr7  1  0.62277025  0.62625297  0.62171792  1
  Sr2+  Sr8  1  0.37591799  0.37811201  0.11781967  1
  Sr2+  Sr9  1  0.37901406  0.38629908  0.62281976  1
  Sr2+  Sr10  1  0.38451873  0.87848294  0.12749298  1
  Sr2+  Sr11  1  0.38042364  0.87111230  0.62311326  1
  Sr2+  Sr12  1  0.87906829  0.38753397  0.13378590  1
  Sr2+  Sr13  1  0.87677608  0.37425353  0.62099407  1
  Sr2+  Sr14  1  0.88427097  0.86656432  0.12376600  1
  Sr2+  Sr15  1  0.88967019  0.87571912  0.62218704  1
  Sr2+  Sr16  1  0.11435739  0.36556212  0.36996002  1
  Sr2+  Sr17  1  0.11278143  0.37086850  0.87914825  1
  Sr2+  Sr18  1  0.11063763  0.86622673  0.37242090  1
  Sr2+  Sr19  1  0.12356210  0.88073894  0.87948729  1
  Sr2+  Sr20  1  0.61228508  0.37209699  0.37252124  1
  Sr2+  Sr21  1  0.60990478  0.36399655  0.87201291  1
  Sr2+  Sr22  1  0.62382288  0.87186827  0.36079669  1
  Sr2+  Sr23  1  0.61553804  0.87204232  0.87959506  1
  Sr2+  Sr24  1  0.37902362  0.12341588  0.37372560  1
  Sr2+  Sr25  1  0.38286354  0.12060512  0.87837633  1
  Sr2+  Sr26  1  0.37205802  0.62337634  0.37516080  1
  Sr2+  Sr27  1  0.35942652  0.62758962  0.87685267  1
  Sr2+  Sr28  1  0.88824173  0.12596823  0.37460591  1
  Sr2+  Sr29  1  0.85943093  0.13143901  0.87251615  1
  Sr2+  Sr30  1  0.85839268  0.62478477  0.37035464  1
  Sr2+  Sr31  1  0.86989479  0.62768656  0.87784920  1
  Sr2+  Sr32  1  0.12543833  0.12189226  0.37417998  1
  Sr2+  Sr33  1  0.12718374  0.13149596  0.87084418  1
  Sr2+  Sr34  1  0.12078173  0.61907877  0.38707628  1
  Sr2+  Sr35  1  0.11176060  0.61348577  0.87605749  1
  Sr2+  Sr36  1  0.62460114  0.12844800  0.37971136  1
  Sr2+  Sr37  1  0.61731488  0.11427194  0.87574784  1
  Sr2+  Sr38  1  0.61339541  0.61707891  0.36855820  1
  Sr2+  Sr39  1  0.62137909  0.63622834  0.86978736  1
  Sr2+  Sr40  1  0.37037144  0.36330909  0.37364735  1
  Sr2+  Sr41  1  0.36713504  0.36318180  0.87665225  1
  Sr2+  Sr42  1  0.36403485  0.86449261  0.36438859  1
  Sr2+  Sr43  1  0.37258349  0.88527370  0.88393292  1
  Sr2+  Sr44  1  0.86713483  0.36728518  0.37244568  1
  Sr2+  Sr45  1  0.87728667  0.36610158  0.87172179  1
  Sr2+  Sr46  1  0.86837925  0.89043129  0.37100099  1
  Sr2+  Sr47  1  0.86190436  0.88126646  0.87471547  1
  Sr2+  Sr48  1  0.12944927  0.38155067  0.12623184  1
  Sr2+  Sr49  1  0.12929533  0.37663012  0.62994103  1
  Sr2+  Sr50  1  0.11472170  0.87285563  0.12553474  1
  Sr2+  Sr51  1  0.12549142  0.87386908  0.62544295  1
  Sr2+  Sr52  1  0.63765781  0.37685618  0.12337094  1
  Sr2+  Sr53  1  0.62691885  0.38478984  0.62381923  1
  Sr2+  Sr54  1  0.63105499  0.87671510  0.11985577  1
  Sr2+  Sr55  1  0.63767550  0.86659711  0.62626233  1
  Sr2+  Sr56  1  0.39126398  0.12318151  0.12359385  1
  Sr2+  Sr57  1  0.38167289  0.11941980  0.62525705  1
  Sr2+  Sr58  1  0.38571900  0.63886237  0.12672664  1
  Sr2+  Sr59  1  0.37812822  0.63400475  0.61843860  1
  Sr2+  Sr60  1  0.88711341  0.11381038  0.13010230  1
  Sr2+  Sr61  1  0.88447629  0.12599223  0.62062696  1
  Sr2+  Sr62  1  0.88367855  0.63001967  0.12389152  1
  Sr2+  Sr63  1  0.85974065  0.62346730  0.62567918  1
  Ca2+  Ca64  1  -0.00258412  0.50242689  0.50377156  1
  Ca2+  Ca65  1  0.49980823  0.50201205  -0.00160094  1
  Ca2+  Ca66  1  0.00067295  -0.00105780  0.49991646  1
  Ca2+  Ca67  1  0.50070694  -0.00125959  0.50059056  1
  Ca2+  Ca68  1  0.00277975  0.00284409  -0.00322844  1
  Ca2+  Ca69  1  0.75242210  0.75061752  0.00187033  1
  Ca2+  Ca70  1  0.75324901  0.25228718  0.00042255  1
  Ca2+  Ca71  1  0.74874562  0.74974528  0.49775740  1
  Ca2+  Ca72  1  0.25214570  0.75213551  -0.00200791  1
  Ca2+  Ca73  1  0.24831916  0.24658352  -0.00289006  1
  Ca2+  Ca74  1  -0.00081301  0.25224894  0.24937699  1
  Ca2+  Ca75  1  0.74994038  -0.00063051  0.75030465  1
  Ca2+  Ca76  1  0.49950730  0.75012609  0.25127393  1
  Ca2+  Ca77  1  0.74754323  0.00541914  0.24926917  1
  Ca2+  Ca78  1  0.24884066  0.50385129  0.25164521  1
  Ca2+  Ca79  1  0.49968577  0.24704603  0.74744769  1
  Ca2+  Ca80  1  0.50084658  0.25085399  0.24830597  1
  Ca2+  Ca81  1  0.00172865  0.74528381  0.25273665  1
  Ca2+  Ca82  1  0.25296174  -0.00112860  0.24928567  1
  Ca2+  Ca83  1  0.49720413  0.74862967  0.75029455  1
  Ca2+  Ca84  1  0.00020365  0.74466340  0.74864144  1
  Nb5+  Nb85  1  0.49657723  0.50112180  0.50065704  1
  Nb5+  Nb86  1  0.50119904  -0.00214894  0.00154630  1
  Nb5+  Nb87  1  -0.00148063  0.49720547  0.00122128  1
  Nb5+  Nb88  1  0.25226951  0.24547046  0.49883538  1
  Nb5+  Nb89  1  0.75223759  0.25052076  0.50182708  1
  Nb5+  Nb90  1  0.24876485  0.74765823  0.49772232  1
  Nb5+  Nb91  1  0.24437127  0.50180464  0.75122408  1
  Nb5+  Nb92  1  0.74625512  0.50168003  0.24459294  1
  Nb5+  Nb93  1  0.25117309  0.00511368  0.74899867  1
  Nb5+  Nb94  1  0.74176692  0.49716850  0.74980434  1
  Nb5+  Nb95  1  0.00137320  0.24746609  0.74885499  1
  Nb5+  Nb96  1  0.00031554  -0.00208717  0.24940252  1
  Nb5+  Nb97  1  -0.00204184  -0.00389479  0.75610445  1
  Nb5+  Nb98  1  -0.00075892  0.50412711  0.25896934  1
  Nb5+  Nb99  1  -0.00671205  0.49742773  0.74727120  1
  Nb5+  Nb100  1  0.50434415  0.00458809  0.25467098  1
  Nb5+  Nb101  1  0.50123915  -0.00729671  0.74580123  1
  Nb5+  Nb102  1  0.49729848  0.49690883  0.24221412  1
  Nb5+  Nb103  1  0.48743742  0.50314333  0.75274829  1
  Nb5+  Nb104  1  0.25331164  0.25032103  0.24260151  1
  Nb5+  Nb105  1  0.25031226  0.25261286  0.74604837  1
  Nb5+  Nb106  1  0.24768718  0.74654239  0.24421342  1
  Nb5+  Nb107  1  0.25503766  0.76197853  0.74987037  1
  Nb5+  Nb108  1  0.75069120  0.24753661  0.24924836  1
  Nb5+  Nb109  1  0.74568899  0.25392138  0.74908599  1
  Nb5+  Nb110  1  0.75617533  0.75743181  0.24861867  1
  Nb5+  Nb111  1  0.75517141  0.75338171  0.74801202  1
  Nb5+  Nb112  1  0.00846309  0.25341684  0.50285713  1
  Nb5+  Nb113  1  -0.00047132  0.25059467  1.00723991  1
  Nb5+  Nb114  1  -0.00508258  0.74458281  0.50069445  1
  Nb5+  Nb115  1  -0.00159299  0.75376876  0.99183283  1
  Nb5+  Nb116  1  0.50541039  0.25000519  0.50755193  1
  Nb5+  Nb117  1  0.49838256  0.25388285  0.99846652  1
  Nb5+  Nb118  1  0.49912937  0.75682260  0.49515556  1
  Nb5+  Nb119  1  0.50303925  0.74467947  1.00111261  1
  Nb5+  Nb120  1  0.25121403  0.00177359  0.00530346  1
  Nb5+  Nb121  1  0.25238674  -0.00810056  0.49944160  1
  Nb5+  Nb122  1  0.24920329  0.50397669  0.00627285  1
  Nb5+  Nb123  1  0.24866353  0.49339435  0.50022724  1
  Nb5+  Nb124  1  0.75563546  0.00353097  -0.00138014  1
  Nb5+  Nb125  1  0.75093945  -0.00527497  0.50657781  1
  Nb5+  Nb126  1  0.74732894  0.49425643  -0.01226138  1
  Nb5+  Nb127  1  0.74585263  0.49749836  0.49442770  1
  O2-  O128  1  -0.02063596  -0.01979127  0.12930930  1
  O2-  O129  1  -0.01210903  -0.01074712  0.63804615  1
  O2-  O130  1  0.00673872  0.47448930  0.11608363  1
  O2-  O131  1  0.00712949  0.46733396  0.63595499  1
  O2-  O132  1  0.48983720  -0.01245063  0.11869555  1
  O2-  O133  1  0.47618640  -0.01517697  0.63373934  1
  O2-  O134  1  0.51163144  0.46526587  0.13373420  1
  O2-  O135  1  0.50956507  0.48274391  0.62506026  1
  O2-  O136  1  0.02118557  0.01710138  0.36672260  1
  O2-  O137  1  0.03704642  0.01685963  0.86439034  1
  O2-  O138  1  -0.01646514  0.53442283  0.36773543  1
  O2-  O139  1  -0.00975910  0.51027257  0.87050755  1
  O2-  O140  1  0.51362746  0.02741623  0.36776400  1
  O2-  O141  1  0.50732084  0.00656550  0.87563011  1
  O2-  O142  1  0.49120993  0.51991221  0.38466021  1
  O2-  O143  1  0.47519502  0.52590469  0.86479661  1
  O2-  O144  1  0.26795459  0.22724419  0.13202041  1
  O2-  O145  1  0.25554705  0.23296072  0.62107261  1
  O2-  O146  1  0.25256928  0.72017368  0.13201900  1
  O2-  O147  1  0.26022834  0.74087027  0.62018326  1
  O2-  O148  1  0.77008587  0.22879098  0.13887193  1
  O2-  O149  1  0.76658022  0.23897541  0.62622367  1
  O2-  O150  1  0.75925414  0.72114502  0.13517293  1
  O2-  O151  1  0.74039072  0.72047838  0.63268618  1
  O2-  O152  1  0.23171420  0.27406323  0.38752897  1
  O2-  O153  1  0.22806460  0.26820036  0.85772445  1
  O2-  O154  1  0.24353184  0.76990329  0.38308010  1
  O2-  O155  1  0.25472518  0.77804105  0.86251865  1
  O2-  O156  1  0.73204417  0.27646935  0.39015099  1
  O2-  O157  1  0.74433752  0.28165912  0.86204447  1
  O2-  O158  1  0.75158628  0.77700160  0.36698377  1
  O2-  O159  1  0.76064125  0.76103700  0.86592849  1
  O2-  O160  1  -0.02702002  0.27034546  0.11541949  1
  O2-  O161  1  -0.01335620  0.26984763  0.62640579  1
  O2-  O162  1  0.00024598  0.76292894  0.11329101  1
  O2-  O163  1  0.00277311  0.77647843  0.61571567  1
  O2-  O164  1  0.46913790  0.25938239  0.11448280  1
  O2-  O165  1  0.46886728  0.26987040  0.61656777  1
  O2-  O166  1  0.48601154  0.76633491  0.11822143  1
  O2-  O167  1  0.48668482  0.75691372  0.61352036  1
  O2-  O168  1  0.23740580  -0.01884270  0.38649755  1
  O2-  O169  1  0.24420952  -0.02381088  0.86351328  1
  O2-  O170  1  0.27933902  0.49260229  0.38959062  1
  O2-  O171  1  0.27270325  0.48264609  0.86181434  1
  O2-  O172  1  0.72843514  -0.01885010  0.39044436  1
  O2-  O173  1  0.73466538  -0.02939763  0.88368725  1
  O2-  O174  1  0.76019183  0.47998493  0.38198651  1
  O2-  O175  1  0.77014876  0.47905264  0.87427109  1
  O2-  O176  1  0.01889102  0.23307854  0.38772228  1
  O2-  O177  1  0.02043754  0.23934688  0.86496497  1
  O2-  O178  1  0.02404626  0.73159142  0.38696125  1
  O2-  O179  1  0.00262940  0.71694674  0.88023289  1
  O2-  O180  1  0.51325548  0.23689333  0.39026707  1
  O2-  O181  1  0.52668339  0.23361505  0.88179048  1
  O2-  O182  1  0.50322717  0.72002784  0.38486527  1
  O2-  O183  1  0.51173694  0.74107568  0.88340486  1
  O2-  O184  1  0.26148019  0.03207890  0.11371605  1
  O2-  O185  1  0.26606088  0.01426116  0.62859382  1
  O2-  O186  1  0.21613163  0.51478445  0.11475655  1
  O2-  O187  1  0.23461654  0.51110521  0.62458455  1
  O2-  O188  1  0.75410375  0.03509585  0.11388610  1
  O2-  O189  1  0.76708715  0.03305695  0.62061505  1
  O2-  O190  1  0.73126917  0.51476800  0.13159114  1
  O2-  O191  1  0.73070834  0.51411321  0.63321290  1
  O2-  O192  1  0.13480833  0.27891968  0.23957393  1
  O2-  O193  1  0.12290430  0.25996789  0.72698405  1
  O2-  O194  1  0.13444543  0.78324516  0.24550614  1
  O2-  O195  1  0.13913793  0.75757417  0.73614269  1
  O2-  O196  1  0.63703114  0.28094261  0.24394563  1
  O2-  O197  1  0.63489853  0.27572429  0.72863741  1
  O2-  O198  1  0.63631152  0.76370606  0.24259660  1
  O2-  O199  1  0.63557216  0.76510618  0.75377888  1
  O2-  O200  1  0.36509330  0.23752538  0.28135959  1
  O2-  O201  1  0.36178440  0.22920046  0.76197948  1
  O2-  O202  1  0.36489751  0.72243851  0.26448694  1
  O2-  O203  1  0.36225374  0.71327101  0.74888235  1
  O2-  O204  1  0.86396456  0.24627967  0.28466361  1
  O2-  O205  1  0.88015367  0.23960877  0.75781964  1
  O2-  O206  1  0.86886088  0.71998341  0.25883696  1
  O2-  O207  1  0.86812272  0.71348805  0.74361057  1
  O2-  O208  1  0.27551173  0.36990556  0.23238392  1
  O2-  O209  1  0.26432770  0.37016147  0.72552374  1
  O2-  O210  1  0.28096846  0.86389857  0.23638911  1
  O2-  O211  1  0.26964767  0.87606191  0.72641386  1
  O2-  O212  1  0.76916677  0.38198619  0.24081891  1
  O2-  O213  1  0.77376316  0.38031198  0.73099687  1
  O2-  O214  1  0.77623956  0.86882314  0.22683771  1
  O2-  O215  1  0.77990115  0.86442355  0.72610662  1
  O2-  O216  1  0.22558863  0.13705525  0.27087733  1
  O2-  O217  1  0.22759537  0.12311946  0.75588932  1
  O2-  O218  1  0.21862413  0.63584135  0.27800364  1
  O2-  O219  1  0.22966491  0.61551075  0.76302525  1
  O2-  O220  1  0.73134231  0.13880337  0.28069683  1
  O2-  O221  1  0.73348172  0.13929263  0.76851809  1
  O2-  O222  1  0.73327329  0.61588767  0.27697029  1
  O2-  O223  1  0.73718885  0.61214219  0.77316890  1
  O2-  O224  1  0.11249266  0.47914106  0.26902752  1
  O2-  O225  1  0.13119857  0.47369561  0.76119879  1
  O2-  O226  1  0.11810448  0.98667970  0.22566351  1
  O2-  O227  1  0.13189617  0.98470030  0.73183786  1
  O2-  O228  1  0.62946802  0.48072665  0.26753644  1
  O2-  O229  1  0.62951859  0.47575436  0.76734807  1
  O2-  O230  1  0.61709912  0.96801385  0.23831560  1
  O2-  O231  1  0.61435997  0.96574706  0.74038339  1
  O2-  O232  1  0.38682988  0.03163412  0.24997285  1
  O2-  O233  1  0.36931015  0.02430180  0.76068276  1
  O2-  O234  1  0.38543282  0.52543497  0.23443154  1
  O2-  O235  1  0.37299979  0.51440297  0.72531222  1
  O2-  O236  1  0.88133160  0.02225863  0.26668672  1
  O2-  O237  1  0.88613096  0.01716180  0.77736706  1
  O2-  O238  1  0.86813693  0.51827205  0.23922788  1
  O2-  O239  1  0.87746129  0.51264204  0.73856243  1
  O2-  O240  1  0.48624951  0.38684337  0.28306445  1
  O2-  O241  1  0.48527072  0.38588918  0.76925225  1
  O2-  O242  1  0.47676235  0.88628489  0.26883354  1
  O2-  O243  1  0.46383651  0.88139505  0.76514080  1
  O2-  O244  1  0.97316267  0.38840109  0.26515481  1
  O2-  O245  1  0.99228402  0.37177605  0.76894632  1
  O2-  O246  1  0.98037956  0.88146487  0.26987940  1
  O2-  O247  1  0.98750366  0.88186180  0.77280727  1
  O2-  O248  1  0.01091810  0.12002709  0.22615968  1
  O2-  O249  1  0.01338278  0.13000028  0.73176808  1
  O2-  O250  1  0.01225390  0.61133345  0.21370873  1
  O2-  O251  1  0.02861558  0.60600886  0.73373994  1
  O2-  O252  1  0.53147416  0.11802131  0.22382209  1
  O2-  O253  1  0.52068967  0.11142197  0.73765718  1
  O2-  O254  1  0.53016661  0.61084152  0.23611702  1
  O2-  O255  1  0.53035453  0.61135068  0.73538480  1
  O2-  O256  1  0.12088522  0.48243173  -0.02004845  1
  O2-  O257  1  0.13578440  0.48188999  0.47960725  1
  O2-  O258  1  0.13807419  0.97360731  0.00862028  1
  O2-  O259  1  0.13716059  0.99294237  0.52585254  1
  O2-  O260  1  0.63523320  0.46800104  -0.01837433  1
  O2-  O261  1  0.61989314  0.47920105  0.49541509  1
  O2-  O262  1  0.62065177  0.98758764  0.00828911  1
  O2-  O263  1  0.63329035  0.99172545  0.53282920  1
  O2-  O264  1  0.38002359  0.01705919  -0.01216335  1
  O2-  O265  1  0.36278049  0.03213725  0.49514183  1
  O2-  O266  1  0.36298348  0.52351442  0.02585590  1
  O2-  O267  1  0.37689605  0.51300227  0.52180583  1
  O2-  O268  1  0.86856658  0.02309396  -0.02058862  1
  O2-  O269  1  0.86446241  0.02521113  0.48354815  1
  O2-  O270  1  0.87859460  0.51698582  0.00655551  1
  O2-  O271  1  0.85838942  0.51067050  0.52042935  1
  O2-  O272  1  0.48198690  0.36766617  -0.02409171  1
  O2-  O273  1  0.48174084  0.37861570  0.48692473  1
  O2-  O274  1  0.48403384  0.87931297  -0.01261726  1
  O2-  O275  1  0.46870820  0.86644600  0.47702826  1
  O2-  O276  1  0.98371305  0.37875233  -0.02316632  1
  O2-  O277  1  0.97811724  0.36628226  0.48152813  1
  O2-  O278  1  0.97758699  0.86609681  -0.02922233  1
  O2-  O279  1  0.97566473  0.86402886  0.47830120  1
  O2-  O280  1  0.02456550  0.13768489  0.02013133  1
  O2-  O281  1  0.00689781  0.13742504  0.52487231  1
  O2-  O282  1  0.02082653  0.61421889  0.01070389  1
  O2-  O283  1  0.03297468  0.63313834  0.52463431  1
  O2-  O284  1  0.51270603  0.12081925  0.01017848  1
  O2-  O285  1  0.51230362  0.13614875  0.52705423  1
  O2-  O286  1  0.53191716  0.63266673  0.01939713  1
  O2-  O287  1  0.51239610  0.61884171  0.51885352  1
  O2-  O288  1  0.11428970  0.28166608  0.00821889  1
  O2-  O289  1  0.12336996  0.27172723  0.51789630  1
  O2-  O290  1  0.11793858  0.76811516  -0.00189185  1
  O2-  O291  1  0.13419379  0.77335759  0.50933147  1
  O2-  O292  1  0.61620323  0.26316478  0.02638570  1
  O2-  O293  1  0.62017839  0.26888933  0.52468000  1
  O2-  O294  1  0.61950354  0.77763968  0.00636224  1
  O2-  O295  1  0.61331344  0.77856536  0.50130936  1
  O2-  O296  1  0.38208500  0.23442930  -0.02766052  1
  O2-  O297  1  0.36753281  0.23781538  0.48476534  1
  O2-  O298  1  0.38536366  0.72263015  -0.00796019  1
  O2-  O299  1  0.37038181  0.72989456  0.49113279  1
  O2-  O300  1  0.88818305  0.23951248  -0.03168013  1
  O2-  O301  1  0.86820913  0.23948028  0.49103870  1
  O2-  O302  1  0.88481917  0.72062124  0.00050762  1
  O2-  O303  1  0.88343208  0.71248883  0.49913091  1
  O2-  O304  1  0.26880591  0.38656052  0.00433162  1
  O2-  O305  1  0.26468747  0.37727994  0.52086674  1
  O2-  O306  1  0.28286002  0.88681841  0.01228381  1
  O2-  O307  1  0.27248340  0.87675732  0.51569894  1
  O2-  O308  1  0.77179480  0.38659273  0.03140838  1
  O2-  O309  1  0.75320397  0.37571594  0.52582916  1
  O2-  O310  1  0.76917500  0.88758673  0.02782292  1
  O2-  O311  1  0.77110923  0.88346994  0.53084485  1
  O2-  O312  1  0.24106128  0.11213544  -0.03741705  1
  O2-  O313  1  0.22728858  0.13216935  0.48784471  1
  O2-  O314  1  0.23183503  0.61323360  -0.03551414  1
  O2-  O315  1  0.23514834  0.62697129  0.49346436  1
  O2-  O316  1  0.73003055  0.11982339  -0.03001049  1
  O2-  O317  1  0.72465855  0.13745390  0.49188061  1
  O2-  O318  1  0.73103200  0.60977538  -0.01486964  1
  O2-  O319  1  0.72278396  0.61131474  0.48428423  1
