# generated using pymatgen
data_Sr64Ca21Nb43O192
_symmetry_space_group_name_H-M   'P 1'
_cell_length_a   16.53037884
_cell_length_b   16.55941831
_cell_length_c   16.73319540
_cell_angle_alpha   89.98968579
_cell_angle_beta   89.99192297
_cell_angle_gamma   90.05072556
_symmetry_Int_Tables_number   1
_chemical_formula_structural   Sr64Ca21Nb43O192
_chemical_formula_sum   'Sr64 Ca21 Nb43 O192'
_cell_volume   4580.43352748
_cell_formula_units_Z   1
loop_
 _symmetry_equiv_pos_site_id
 _symmetry_equiv_pos_as_xyz
  1  'x, y, z'
loop_
 _atom_type_symbol
 _atom_type_oxidation_number
  Sr2+  2.0
  Ca2+  2.0
  Nb5+  5.0
  O2-  -2.0
loop_
 _atom_site_type_symbol
 _atom_site_label
 _atom_site_symmetry_multiplicity
 _atom_site_fract_x
 _atom_site_fract_y
 _atom_site_fract_z
 _atom_site_occupancy
  Sr2+  Sr0  1  0.12368211  0.12388585  0.12591070  1
  Sr2+  Sr1  1  0.13494971  0.12151338  0.62062086  1
  Sr2+  Sr2  1  0.12424369  0.63416390  0.12018220  1
  Sr2+  Sr3  1  0.13507329  0.62556077  0.62915851  1
  Sr2+  Sr4  1  0.63516505  0.12568463  0.12667918  1
  Sr2+  Sr5  1  0.63417968  0.12274400  0.61980157  1
  Sr2+  Sr6  1  0.62238082  0.64003952  0.12137016  1
  Sr2+  Sr7  1  0.62403171  0.63551151  0.62985455  1
  Sr2+  Sr8  1  0.38540960  0.38430074  0.12475271  1
  Sr2+  Sr9  1  0.37952620  0.36851010  0.64065698  1
  Sr2+  Sr10  1  0.37684147  0.87582519  0.11957329  1
  Sr2+  Sr11  1  0.38026589  0.87863203  0.62700324  1
  Sr2+  Sr12  1  0.87298875  0.38459986  0.12174046  1
  Sr2+  Sr13  1  0.86953863  0.38205520  0.61860866  1
  Sr2+  Sr14  1  0.86986385  0.87726171  0.12987328  1
  Sr2+  Sr15  1  0.87497503  0.87668426  0.63399148  1
  Sr2+  Sr16  1  0.11056112  0.37837824  0.37844216  1
  Sr2+  Sr17  1  0.11220559  0.38316240  0.87665608  1
  Sr2+  Sr18  1  0.11878454  0.87745165  0.38455780  1
  Sr2+  Sr19  1  0.12704010  0.87795318  0.86649634  1
  Sr2+  Sr20  1  0.61216306  0.37441382  0.37766529  1
  Sr2+  Sr21  1  0.59391832  0.37053885  0.87595964  1
  Sr2+  Sr22  1  0.61546035  0.87963750  0.37675453  1
  Sr2+  Sr23  1  0.63066180  0.88234255  0.86514776  1
  Sr2+  Sr24  1  0.36123276  0.13332277  0.37370017  1
  Sr2+  Sr25  1  0.36902738  0.12590425  0.87762699  1
  Sr2+  Sr26  1  0.36646798  0.61866417  0.37233674  1
  Sr2+  Sr27  1  0.36609752  0.61707080  0.88109862  1
  Sr2+  Sr28  1  0.87505338  0.12812785  0.37873277  1
  Sr2+  Sr29  1  0.86836206  0.11987411  0.86924678  1
  Sr2+  Sr30  1  0.87308794  0.61954787  0.37759771  1
  Sr2+  Sr31  1  0.87637364  0.61674468  0.87473265  1
  Sr2+  Sr32  1  0.11927813  0.13384889  0.37862701  1
  Sr2+  Sr33  1  0.11021779  0.13806014  0.86628291  1
  Sr2+  Sr34  1  0.12629540  0.63532028  0.37688726  1
  Sr2+  Sr35  1  0.12374688  0.62327588  0.87691904  1
  Sr2+  Sr36  1  0.62328790  0.12765048  0.38077976  1
  Sr2+  Sr37  1  0.63073412  0.12954725  0.88780802  1
  Sr2+  Sr38  1  0.62453473  0.61702394  0.37801678  1
  Sr2+  Sr39  1  0.62106411  0.62624072  0.85982325  1
  Sr2+  Sr40  1  0.37149580  0.38111448  0.36818417  1
  Sr2+  Sr41  1  0.36665575  0.38207492  0.87756021  1
  Sr2+  Sr42  1  0.36399531  0.87294985  0.37418062  1
  Sr2+  Sr43  1  0.36691526  0.86300490  0.87560526  1
  Sr2+  Sr44  1  0.86830420  0.38510635  0.37188296  1
  Sr2+  Sr45  1  0.87646950  0.37685417  0.87813053  1
  Sr2+  Sr46  1  0.87854069  0.87087459  0.37470667  1
  Sr2+  Sr47  1  0.87359542  0.85872304  0.86287139  1
  Sr2+  Sr48  1  0.12491555  0.37899405  0.12079389  1
  Sr2+  Sr49  1  0.13331204  0.37922245  0.63798295  1
  Sr2+  Sr50  1  0.13044230  0.87919933  0.11826956  1
  Sr2+  Sr51  1  0.14458422  0.87957020  0.62573583  1
  Sr2+  Sr52  1  0.62677682  0.37441436  0.12816929  1
  Sr2+  Sr53  1  0.62686894  0.38016133  0.63238683  1
  Sr2+  Sr54  1  0.61547146  0.88514491  0.12526551  1
  Sr2+  Sr55  1  0.64240095  0.87899465  0.62174866  1
  Sr2+  Sr56  1  0.35807232  0.11335559  0.13204640  1
  Sr2+  Sr57  1  0.38544584  0.11696960  0.62856938  1
  Sr2+  Sr58  1  0.37958122  0.63250195  0.12234321  1
  Sr2+  Sr59  1  0.38347639  0.61737641  0.63417179  1
  Sr2+  Sr60  1  0.86293187  0.11989297  0.11910148  1
  Sr2+  Sr61  1  0.88276001  0.11716985  0.62307069  1
  Sr2+  Sr62  1  0.86419668  0.63174247  0.12690345  1
  Sr2+  Sr63  1  0.86081525  0.62891803  0.63131799  1
  Ca2+  Ca64  1  -0.00325442  -0.00099785  -0.00052059  1
  Ca2+  Ca65  1  0.00390503  0.50032745  0.50306614  1
  Ca2+  Ca66  1  0.50067686  0.50209382  0.00241783  1
  Ca2+  Ca67  1  0.49329267  0.49698176  0.50019694  1
  Ca2+  Ca68  1  0.49820082  0.00316033  -0.00006606  1
  Ca2+  Ca69  1  0.74922721  0.75121578  -0.00270576  1
  Ca2+  Ca70  1  0.25247876  0.74797409  0.50007181  1
  Ca2+  Ca71  1  0.75055401  0.75067542  0.49448207  1
  Ca2+  Ca72  1  0.25089101  0.25771360  0.50260042  1
  Ca2+  Ca73  1  0.24799021  0.24879065  -0.00017065  1
  Ca2+  Ca74  1  0.74962888  0.49930252  0.24714377  1
  Ca2+  Ca75  1  0.74998080  -0.00396324  0.25370208  1
  Ca2+  Ca76  1  0.25316534  0.00012702  0.75233523  1
  Ca2+  Ca77  1  0.24738243  0.49704976  0.24661881  1
  Ca2+  Ca78  1  0.75070360  0.49332421  0.75436493  1
  Ca2+  Ca79  1  0.24472977  -0.00459917  0.25415770  1
  Ca2+  Ca80  1  0.74634369  0.00716880  0.74855114  1
  Ca2+  Ca81  1  0.49675140  0.75638235  0.74781601  1
  Ca2+  Ca82  1  0.00136446  0.74938367  0.74881405  1
  Ca2+  Ca83  1  -0.00388683  0.25199383  0.74725695  1
  Ca2+  Ca84  1  0.50187988  0.24516070  0.74804981  1
  Nb5+  Nb85  1  -0.00181667  0.50363889  0.00320275  1
  Nb5+  Nb86  1  0.50407413  -0.00190222  0.49851603  1
  Nb5+  Nb87  1  0.00555092  -0.00046393  0.50162327  1
  Nb5+  Nb88  1  0.75026679  0.25200705  0.50342992  1
  Nb5+  Nb89  1  0.24895603  0.74997027  0.00028244  1
  Nb5+  Nb90  1  0.74912109  0.25588856  0.00587293  1
  Nb5+  Nb91  1  0.49559554  0.24853381  0.24924064  1
  Nb5+  Nb92  1  0.24904649  0.50016366  0.75348638  1
  Nb5+  Nb93  1  -0.00454333  0.75094836  0.24876266  1
  Nb5+  Nb94  1  -0.00701995  0.25281494  0.24946518  1
  Nb5+  Nb95  1  0.49343089  0.75575443  0.25306158  1
  Nb5+  Nb96  1  -0.00004538  0.00684006  0.25018520  1
  Nb5+  Nb97  1  0.00023061  0.00281683  0.75070979  1
  Nb5+  Nb98  1  0.00525619  0.50787516  0.24974990  1
  Nb5+  Nb99  1  -0.00193522  0.50195073  0.74800568  1
  Nb5+  Nb100  1  0.50073914  0.00787905  0.25175237  1
  Nb5+  Nb101  1  0.50072931  0.00547886  0.75547223  1
  Nb5+  Nb102  1  0.50262135  0.50920435  0.24758093  1
  Nb5+  Nb103  1  0.49922911  0.49818386  0.75331039  1
  Nb5+  Nb104  1  0.24030586  0.25078775  0.25104564  1
  Nb5+  Nb105  1  0.24806168  0.24520703  0.75341867  1
  Nb5+  Nb106  1  0.24161627  0.75107526  0.24860474  1
  Nb5+  Nb107  1  0.25463710  0.74692638  0.74537293  1
  Nb5+  Nb108  1  0.74857590  0.25054818  0.25479861  1
  Nb5+  Nb109  1  0.75201821  0.25205691  0.75961285  1
  Nb5+  Nb110  1  0.74022129  0.74896076  0.24694540  1
  Nb5+  Nb111  1  0.74685499  0.74983252  0.74861501  1
  Nb5+  Nb112  1  -0.00086640  0.25490245  0.50180327  1
  Nb5+  Nb113  1  -0.00127172  0.24774420  1.00138344  1
  Nb5+  Nb114  1  -0.00071270  0.74871842  0.50437450  1
  Nb5+  Nb115  1  -0.00101731  0.75019748  1.00034619  1
  Nb5+  Nb116  1  0.49785489  0.24781636  0.49983400  1
  Nb5+  Nb117  1  0.49420320  0.24174344  1.00373067  1
  Nb5+  Nb118  1  0.49959232  0.74726117  0.49754519  1
  Nb5+  Nb119  1  0.50490080  0.75428068  0.99607515  1
  Nb5+  Nb120  1  0.24233216  0.00442830  -0.00597237  1
  Nb5+  Nb121  1  0.25966951  0.00312405  0.49901006  1
  Nb5+  Nb122  1  0.24755579  0.50052442  0.00647650  1
  Nb5+  Nb123  1  0.25203228  0.49856644  0.49850191  1
  Nb5+  Nb124  1  0.75456096  -0.00674459  -0.00324580  1
  Nb5+  Nb125  1  0.75777909  0.00096327  0.49497805  1
  Nb5+  Nb126  1  0.74350142  0.49947814  -0.00236163  1
  Nb5+  Nb127  1  0.74677056  0.50380019  0.50249106  1
  O2-  O128  1  -0.02190193  0.00439938  0.13798165  1
  O2-  O129  1  -0.01768048  -0.00913201  0.61670234  1
  O2-  O130  1  0.01927673  0.49499376  0.12266264  1
  O2-  O131  1  0.01147298  0.48166945  0.63663597  1
  O2-  O132  1  0.48697921  -0.01413779  0.13801957  1
  O2-  O133  1  0.48248203  -0.01213194  0.61228879  1
  O2-  O134  1  0.52046574  0.47940432  0.13437855  1
  O2-  O135  1  0.49332572  0.47665853  0.63509656  1
  O2-  O136  1  0.01822055  0.01171914  0.38194955  1
  O2-  O137  1  0.00693383  0.02028853  0.86448091  1
  O2-  O138  1  -0.00918737  0.50620152  0.36489966  1
  O2-  O139  1  -0.00936582  0.51121070  0.88395991  1
  O2-  O140  1  0.51580029  0.01346382  0.37601161  1
  O2-  O141  1  0.51843561  0.02645390  0.86611106  1
  O2-  O142  1  0.47717981  0.51058253  0.36338828  1
  O2-  O143  1  0.48554899  0.51913919  0.87023094  1
  O2-  O144  1  0.23644392  0.22025408  0.13544169  1
  O2-  O145  1  0.21580198  0.25183038  0.63653653  1
  O2-  O146  1  0.26232332  0.72827296  0.12443571  1
  O2-  O147  1  0.27274104  0.72079461  0.63501539  1
  O2-  O148  1  0.73697568  0.25890205  0.12355776  1
  O2-  O149  1  0.73488749  0.25834975  0.61659974  1
  O2-  O150  1  0.77533775  0.76005901  0.13176460  1
  O2-  O151  1  0.77372382  0.75368126  0.62950884  1
  O2-  O152  1  0.27355033  0.26719554  0.36433126  1
  O2-  O153  1  0.28749572  0.25705460  0.86725211  1
  O2-  O154  1  0.22932387  0.76820625  0.36362320  1
  O2-  O155  1  0.23054058  0.76413197  0.88372988  1
  O2-  O156  1  0.76958090  0.24465742  0.36905655  1
  O2-  O157  1  0.76830976  0.24497125  0.87720933  1
  O2-  O158  1  0.73554240  0.72325522  0.36109540  1
  O2-  O159  1  0.71621525  0.75215284  0.86514988  1
  O2-  O160  1  0.02056651  0.25629904  0.13399961  1
  O2-  O161  1  0.00923090  0.27760457  0.61281360  1
  O2-  O162  1  -0.01091789  0.73252401  0.13034562  1
  O2-  O163  1  -0.03190020  0.75129230  0.61384907  1
  O2-  O164  1  0.52140133  0.25934415  0.13153408  1
  O2-  O165  1  0.51946493  0.27151436  0.60895940  1
  O2-  O166  1  0.48437667  0.76173714  0.13430849  1
  O2-  O167  1  0.46978525  0.75609335  0.60863067  1
  O2-  O168  1  0.24003160  -0.03056043  0.38784208  1
  O2-  O169  1  0.25463134  -0.03522624  0.88401771  1
  O2-  O170  1  0.25990596  0.48807408  0.38350825  1
  O2-  O171  1  0.25750872  0.49353146  0.87896579  1
  O2-  O172  1  0.72449205  0.01057070  0.38469048  1
  O2-  O173  1  0.73666377  0.01689033  0.88239955  1
  O2-  O174  1  0.76877391  0.50626300  0.38390733  1
  O2-  O175  1  0.78243110  0.50016395  0.88689534  1
  O2-  O176  1  -0.01250080  0.23065449  0.36708957  1
  O2-  O177  1  -0.02347795  0.23730932  0.88851699  1
  O2-  O178  1  0.02661020  0.74982609  0.36322637  1
  O2-  O179  1  0.02424575  0.75940804  0.88845709  1
  O2-  O180  1  0.49808571  0.22504155  0.36621570  1
  O2-  O181  1  0.49639206  0.22811500  0.88738740  1
  O2-  O182  1  0.52997261  0.73862958  0.36435188  1
  O2-  O183  1  0.52587852  0.74766318  0.88406441  1
  O2-  O184  1  0.23889903  0.01302180  0.11589546  1
  O2-  O185  1  0.25770578  0.02392571  0.61645964  1
  O2-  O186  1  0.22082899  0.51668765  0.11633297  1
  O2-  O187  1  0.24050759  0.51320902  0.63595472  1
  O2-  O188  1  0.75888859  -0.00343242  0.11731763  1
  O2-  O189  1  0.75149412  0.01031850  0.61195314  1
  O2-  O190  1  0.74292152  0.47685786  0.11259542  1
  O2-  O191  1  0.74315486  0.47768021  0.61820950  1
  O2-  O192  1  0.12470309  0.26681255  0.26770752  1
  O2-  O193  1  0.13324790  0.27145420  0.78344717  1
  O2-  O194  1  0.12717890  0.76405302  0.22489565  1
  O2-  O195  1  0.13700932  0.76364319  0.73342016  1
  O2-  O196  1  0.63202299  0.26622440  0.26232239  1
  O2-  O197  1  0.63810420  0.29164799  0.75764080  1
  O2-  O198  1  0.62546128  0.76864557  0.22860538  1
  O2-  O199  1  0.62963374  0.76602544  0.71832132  1
  O2-  O200  1  0.38421591  0.22385595  0.23658562  1
  O2-  O201  1  0.36402450  0.23664146  0.71717610  1
  O2-  O202  1  0.38112699  0.72843995  0.26475080  1
  O2-  O203  1  0.36534894  0.73105999  0.78551086  1
  O2-  O204  1  0.88116254  0.22406024  0.23394216  1
  O2-  O205  1  0.86243240  0.21489261  0.73219880  1
  O2-  O206  1  0.88495265  0.71964246  0.26386307  1
  O2-  O207  1  0.86502566  0.72869823  0.77600882  1
  O2-  O208  1  0.27422372  0.36068601  0.22369731  1
  O2-  O209  1  0.26629103  0.38199107  0.74554827  1
  O2-  O210  1  0.27946208  0.86139223  0.23226300  1
  O2-  O211  1  0.27165282  0.86253503  0.73246106  1
  O2-  O212  1  0.78130926  0.36256961  0.24659740  1
  O2-  O213  1  0.79384053  0.36359974  0.74755736  1
  O2-  O214  1  0.77626169  0.86058467  0.26414135  1
  O2-  O215  1  0.76905356  0.86997947  0.75313040  1
  O2-  O216  1  0.23622945  0.13155904  0.27473565  1
  O2-  O217  1  0.22510075  0.13311073  0.76619841  1
  O2-  O218  1  0.24088561  0.63359610  0.26792183  1
  O2-  O219  1  0.23250569  0.62293458  0.76915758  1
  O2-  O220  1  0.74307805  0.13405310  0.23613991  1
  O2-  O221  1  0.71042108  0.14094405  0.74993011  1
  O2-  O222  1  0.73513495  0.63114715  0.22256114  1
  O2-  O223  1  0.72702349  0.62931559  0.74195838  1
  O2-  O224  1  0.11373742  0.46115985  0.25404906  1
  O2-  O225  1  0.12951166  0.48372227  0.76358695  1
  O2-  O226  1  0.10913887  0.96337852  0.24813509  1
  O2-  O227  1  0.11639877  0.97156370  0.73941567  1
  O2-  O228  1  0.61594035  0.48022148  0.27218803  1
  O2-  O229  1  0.61422745  0.48018922  0.76457672  1
  O2-  O230  1  0.61404483  0.96989352  0.24806701  1
  O2-  O231  1  0.61310440  0.96786059  0.73649789  1
  O2-  O232  1  0.38407921  0.01970009  0.26810136  1
  O2-  O233  1  0.38373219  0.03717970  0.75782648  1
  O2-  O234  1  0.38459279  0.50945934  0.22401796  1
  O2-  O235  1  0.36859566  0.51987796  0.75013357  1
  O2-  O236  1  0.88712845  0.00660852  0.28314293  1
  O2-  O237  1  0.88184962  0.02786496  0.74824106  1
  O2-  O238  1  0.88963232  0.51425955  0.22804974  1
  O2-  O239  1  0.88578151  0.52877500  0.74214254  1
  O2-  O240  1  0.48461716  0.36423680  0.26203258  1
  O2-  O241  1  0.47246878  0.38076908  0.77250143  1
  O2-  O242  1  0.48037162  0.87065296  0.26895334  1
  O2-  O243  1  0.46429306  0.89011781  0.75982505  1
  O2-  O244  1  0.97679364  0.36655350  0.25822060  1
  O2-  O245  1  0.98999767  0.38679516  0.77677967  1
  O2-  O246  1  0.97560756  0.86511637  0.24721715  1
  O2-  O247  1  0.97210907  0.88460691  0.75366006  1
  O2-  O248  1  0.02615512  0.12165841  0.24688686  1
  O2-  O249  1  0.02752877  0.11802344  0.72465944  1
  O2-  O250  1  0.03282554  0.62116096  0.24825614  1
  O2-  O251  1  0.03162137  0.61569121  0.75245624  1
  O2-  O252  1  0.52886446  0.12217569  0.23845604  1
  O2-  O253  1  0.52104823  0.11537473  0.71235222  1
  O2-  O254  1  0.51969094  0.62537376  0.23630234  1
  O2-  O255  1  0.51344619  0.61709942  0.73253122  1
  O2-  O256  1  0.12259712  0.48662187  -0.01298103  1
  O2-  O257  1  0.13800711  0.45654094  0.50537703  1
  O2-  O258  1  0.12891876  0.96504147  -0.00364136  1
  O2-  O259  1  0.12148190  0.98800165  0.51559977  1
  O2-  O260  1  0.63440435  0.47333266  -0.02328449  1
  O2-  O261  1  0.63185086  0.47256328  0.48830897  1
  O2-  O262  1  0.63504185  0.97323595  0.00501621  1
  O2-  O263  1  0.62126383  0.98499003  0.50972963  1
  O2-  O264  1  0.36160322  0.02676921  0.00062749  1
  O2-  O265  1  0.37659096  0.02151870  0.48445743  1
  O2-  O266  1  0.36334157  0.51998622  0.01790067  1
  O2-  O267  1  0.36300588  0.54562522  0.50886250  1
  O2-  O268  1  0.86634981  0.03600548  -0.00777305  1
  O2-  O269  1  0.87440703  0.02002301  0.48522737  1
  O2-  O270  1  0.88195907  0.52193877  0.02005362  1
  O2-  O271  1  0.86772444  0.52125820  0.51840685  1
  O2-  O272  1  0.47988297  0.36097551  -0.00683849  1
  O2-  O273  1  0.48621453  0.35846488  0.46583480  1
  O2-  O274  1  0.46872909  0.86663133  -0.00467199  1
  O2-  O275  1  0.48154826  0.88320100  0.47610948  1
  O2-  O276  1  0.98108938  0.38196866  -0.00014665  1
  O2-  O277  1  0.97591636  0.36459984  0.47335678  1
  O2-  O278  1  0.98270326  0.86191796  0.02342883  1
  O2-  O279  1  0.98297258  0.88242165  0.48631759  1
  O2-  O280  1  0.02263284  0.13626802  0.01457888  1
  O2-  O281  1  0.00977197  0.12478055  0.51212583  1
  O2-  O282  1  0.02314961  0.62386226  0.00508664  1
  O2-  O283  1  0.02501759  0.63646058  0.49941680  1
  O2-  O284  1  0.54043459  0.13451393  0.01735225  1
  O2-  O285  1  0.52422488  0.12361595  0.50558697  1
  O2-  O286  1  0.50653933  0.63798698  0.02044128  1
  O2-  O287  1  0.52719134  0.63513627  0.50365618  1
  O2-  O288  1  0.11161592  0.28004656  -0.00834628  1
  O2-  O289  1  0.11228317  0.25791173  0.47449114  1
  O2-  O290  1  0.12743075  0.75737333  0.02424013  1
  O2-  O291  1  0.11341583  0.78165285  0.51221246  1
  O2-  O292  1  0.63467858  0.27639138  -0.01020395  1
  O2-  O293  1  0.63256713  0.25790143  0.47638220  1
  O2-  O294  1  0.61494769  0.77128359  0.02776976  1
  O2-  O295  1  0.61268550  0.78484723  0.50500411  1
  O2-  O296  1  0.38506151  0.21672636  0.02399047  1
  O2-  O297  1  0.38698776  0.22112592  0.51019368  1
  O2-  O298  1  0.36902904  0.73217675  -0.01144181  1
  O2-  O299  1  0.38764360  0.74319606  0.45711592  1
  O2-  O300  1  0.87821496  0.24257438  0.02909591  1
  O2-  O301  1  0.87394408  0.22921633  0.50819212  1
  O2-  O302  1  0.88688782  0.72367358  -0.01704223  1
  O2-  O303  1  0.88821108  0.74188297  0.46206956  1
  O2-  O304  1  0.26592490  0.38480653  0.01652825  1
  O2-  O305  1  0.29571221  0.38908022  0.51939203  1
  O2-  O306  1  0.26466090  0.86540637  0.02109450  1
  O2-  O307  1  0.26753353  0.88444948  0.52730223  1
  O2-  O308  1  0.78030869  0.37098967  -0.00474830  1
  O2-  O309  1  0.77361290  0.36763175  0.48993813  1
  O2-  O310  1  0.78714579  0.88354264  -0.01391102  1
  O2-  O311  1  0.77045088  0.88617913  0.49373897  1
  O2-  O312  1  0.21514097  0.11470280  -0.02786702  1
  O2-  O313  1  0.23190769  0.11711178  0.47855336  1
  O2-  O314  1  0.23310626  0.62642549  -0.01373181  1
  O2-  O315  1  0.21077340  0.61418538  0.49590459  1
  O2-  O316  1  0.73558662  0.13667933  0.00779005  1
  O2-  O317  1  0.73950912  0.13065725  0.49545646  1
  O2-  O318  1  0.72706865  0.61433659  0.00712012  1
  O2-  O319  1  0.72203079  0.61662452  0.51278510  1
