# generated using pymatgen
data_Sr64Ca21Nb43O192
_symmetry_space_group_name_H-M   'P 1'
_cell_length_a   16.54030525
_cell_length_b   16.55785216
_cell_length_c   16.74956793
_cell_angle_alpha   90.03387608
_cell_angle_beta   89.95563228
_cell_angle_gamma   90.01443399
_symmetry_Int_Tables_number   1
_chemical_formula_structural   Sr64Ca21Nb43O192
_chemical_formula_sum   'Sr64 Ca21 Nb43 O192'
_cell_volume   4587.23415387
_cell_formula_units_Z   1
loop_
 _symmetry_equiv_pos_site_id
 _symmetry_equiv_pos_as_xyz
  1  'x, y, z'
loop_
 _atom_type_symbol
 _atom_type_oxidation_number
  Sr2+  2.0
  Ca2+  2.0
  Nb5+  5.0
  O2-  -2.0
loop_
 _atom_site_type_symbol
 _atom_site_label
 _atom_site_symmetry_multiplicity
 _atom_site_fract_x
 _atom_site_fract_y
 _atom_site_fract_z
 _atom_site_occupancy
  Sr2+  Sr0  1  0.12980063  0.12217667  0.12189241  1
  Sr2+  Sr1  1  0.12778310  0.12470902  0.62617654  1
  Sr2+  Sr2  1  0.13528600  0.63629131  0.12064997  1
  Sr2+  Sr3  1  0.13462191  0.62596649  0.63259646  1
  Sr2+  Sr4  1  0.63075616  0.12856126  0.12895055  1
  Sr2+  Sr5  1  0.63508485  0.11168635  0.62256165  1
  Sr2+  Sr6  1  0.63172591  0.62297880  0.12297213  1
  Sr2+  Sr7  1  0.62706452  0.62243872  0.62347189  1
  Sr2+  Sr8  1  0.38780924  0.36656835  0.11918653  1
  Sr2+  Sr9  1  0.37852570  0.37876435  0.61721043  1
  Sr2+  Sr10  1  0.37712373  0.88706506  0.13254731  1
  Sr2+  Sr11  1  0.38249622  0.88119480  0.62336140  1
  Sr2+  Sr12  1  0.87909669  0.35869825  0.12902359  1
  Sr2+  Sr13  1  0.87678962  0.36975289  0.62606607  1
  Sr2+  Sr14  1  0.86836347  0.88289925  0.11792079  1
  Sr2+  Sr15  1  0.87856729  0.88144414  0.62308062  1
  Sr2+  Sr16  1  0.12010667  0.37922364  0.37413602  1
  Sr2+  Sr17  1  0.12236199  0.37941558  0.88490035  1
  Sr2+  Sr18  1  0.12134734  0.87344077  0.37119877  1
  Sr2+  Sr19  1  0.10919957  0.86897930  0.87609809  1
  Sr2+  Sr20  1  0.62090542  0.38272116  0.37868214  1
  Sr2+  Sr21  1  0.60580343  0.37883519  0.87487755  1
  Sr2+  Sr22  1  0.60814591  0.86296996  0.37315744  1
  Sr2+  Sr23  1  0.61616893  0.86554171  0.87121073  1
  Sr2+  Sr24  1  0.36526799  0.12543384  0.36799079  1
  Sr2+  Sr25  1  0.37660956  0.13182065  0.88944985  1
  Sr2+  Sr26  1  0.37931257  0.62267480  0.37399085  1
  Sr2+  Sr27  1  0.35448331  0.61494248  0.87512524  1
  Sr2+  Sr28  1  0.87246266  0.12359758  0.36235793  1
  Sr2+  Sr29  1  0.87259133  0.12238049  0.90241044  1
  Sr2+  Sr30  1  0.87796548  0.61641636  0.37474201  1
  Sr2+  Sr31  1  0.88158092  0.62340150  0.87615932  1
  Sr2+  Sr32  1  0.12181971  0.11906152  0.36948224  1
  Sr2+  Sr33  1  0.11488126  0.13196101  0.88926523  1
  Sr2+  Sr34  1  0.12159563  0.62008300  0.36423081  1
  Sr2+  Sr35  1  0.11832751  0.62904049  0.87770759  1
  Sr2+  Sr36  1  0.62033586  0.12877077  0.36806349  1
  Sr2+  Sr37  1  0.61563700  0.11181672  0.87859096  1
  Sr2+  Sr38  1  0.62650782  0.61740979  0.35783501  1
  Sr2+  Sr39  1  0.62746522  0.62083352  0.88144183  1
  Sr2+  Sr40  1  0.37219684  0.37369283  0.38056165  1
  Sr2+  Sr41  1  0.36507268  0.37631312  0.87719337  1
  Sr2+  Sr42  1  0.36056964  0.86843942  0.36997418  1
  Sr2+  Sr43  1  0.37471635  0.86501873  0.87247006  1
  Sr2+  Sr44  1  0.87200521  0.36428776  0.37943831  1
  Sr2+  Sr45  1  0.87495848  0.35764100  0.87192838  1
  Sr2+  Sr46  1  0.87203380  0.86010199  0.37462204  1
  Sr2+  Sr47  1  0.86700937  0.86635549  0.87228627  1
  Sr2+  Sr48  1  0.12996450  0.37755451  0.11885113  1
  Sr2+  Sr49  1  0.13877148  0.36669278  0.62861959  1
  Sr2+  Sr50  1  0.14732479  0.87955489  0.12106917  1
  Sr2+  Sr51  1  0.13461705  0.88508842  0.62806176  1
  Sr2+  Sr52  1  0.62529773  0.37313768  0.12851205  1
  Sr2+  Sr53  1  0.62533787  0.37473074  0.63000968  1
  Sr2+  Sr54  1  0.61858566  0.87345029  0.11813922  1
  Sr2+  Sr55  1  0.63721975  0.87337444  0.62658943  1
  Sr2+  Sr56  1  0.40289935  0.12543291  0.12863539  1
  Sr2+  Sr57  1  0.37635854  0.13358335  0.62621656  1
  Sr2+  Sr58  1  0.37091036  0.62418281  0.12352650  1
  Sr2+  Sr59  1  0.38174667  0.62502359  0.62043111  1
  Sr2+  Sr60  1  0.89823570  0.12800208  0.12780005  1
  Sr2+  Sr61  1  0.87835808  0.12151116  0.62639738  1
  Sr2+  Sr62  1  0.86893534  0.63094826  0.13640578  1
  Sr2+  Sr63  1  0.88015928  0.62264205  0.62225181  1
  Ca2+  Ca64  1  -0.00537015  0.50137318  0.00005235  1
  Ca2+  Ca65  1  0.50030748  0.00047106  0.49876110  1
  Ca2+  Ca66  1  0.49976532  0.50250158  -0.00410167  1
  Ca2+  Ca67  1  0.00240831  -0.00493678  0.00114469  1
  Ca2+  Ca68  1  0.50033928  -0.00210748  -0.00120490  1
  Ca2+  Ca69  1  0.25220704  0.24994182  0.00819349  1
  Ca2+  Ca70  1  0.74776074  0.25181221  -0.00073166  1
  Ca2+  Ca71  1  0.24680664  0.74835293  0.50224242  1
  Ca2+  Ca72  1  0.74952064  0.74794019  0.50105688  1
  Ca2+  Ca73  1  0.25000346  0.75351840  -0.00350783  1
  Ca2+  Ca74  1  0.49760925  0.24890000  0.75068391  1
  Ca2+  Ca75  1  0.00058539  0.25048275  0.74962335  1
  Ca2+  Ca76  1  0.24728841  0.49577379  0.74901320  1
  Ca2+  Ca77  1  0.49947481  0.25238573  0.25587996  1
  Ca2+  Ca78  1  0.24752650  0.00334535  0.75092420  1
  Ca2+  Ca79  1  0.75394752  0.49650859  0.24987550  1
  Ca2+  Ca80  1  0.00463570  0.25165585  0.25526927  1
  Ca2+  Ca81  1  0.49852278  0.74825647  0.24719867  1
  Ca2+  Ca82  1  0.00107381  0.75079720  0.24908886  1
  Ca2+  Ca83  1  0.25379431  0.49762325  0.24814240  1
  Ca2+  Ca84  1  0.75048352  -0.00298880  0.24965735  1
  Nb5+  Nb85  1  -0.00158641  0.49381463  0.50014766  1
  Nb5+  Nb86  1  -0.00047990  -0.00592404  0.49730521  1
  Nb5+  Nb87  1  0.49974631  0.50096116  0.49991841  1
  Nb5+  Nb88  1  0.74796395  0.75054121  -0.00081234  1
  Nb5+  Nb89  1  0.25438854  0.24804116  0.50111142  1
  Nb5+  Nb90  1  0.75420289  0.24699112  0.50374095  1
  Nb5+  Nb91  1  0.50380050  0.74875857  0.74710156  1
  Nb5+  Nb92  1  0.25070681  0.00299749  0.24856096  1
  Nb5+  Nb93  1  0.75371643  0.49559665  0.75122320  1
  Nb5+  Nb94  1  0.75109581  -0.00562751  0.75202802  1
  Nb5+  Nb95  1  0.00175627  0.75145841  0.74279521  1
  Nb5+  Nb96  1  0.00233641  -0.00589527  0.24560413  1
  Nb5+  Nb97  1  -0.00170949  0.00173749  0.75033637  1
  Nb5+  Nb98  1  0.00135152  0.49572536  0.24158801  1
  Nb5+  Nb99  1  -0.00251776  0.50003279  0.74614702  1
  Nb5+  Nb100  1  0.50590795  -0.00174527  0.25786719  1
  Nb5+  Nb101  1  0.49630897  0.00429933  0.74236742  1
  Nb5+  Nb102  1  0.50121281  0.49825001  0.24311008  1
  Nb5+  Nb103  1  0.49462893  0.50379592  0.75008309  1
  Nb5+  Nb104  1  0.24980461  0.25214614  0.24976787  1
  Nb5+  Nb105  1  0.24752041  0.24883778  0.75951184  1
  Nb5+  Nb106  1  0.24792029  0.74626563  0.25211710  1
  Nb5+  Nb107  1  0.25753078  0.74953021  0.74883909  1
  Nb5+  Nb108  1  0.74871454  0.24918490  0.24994349  1
  Nb5+  Nb109  1  0.74904989  0.24166619  0.75117502  1
  Nb5+  Nb110  1  0.74793292  0.75304628  0.25424263  1
  Nb5+  Nb111  1  0.75242356  0.74369946  0.74898198  1
  Nb5+  Nb112  1  0.00681193  0.24443248  0.50301433  1
  Nb5+  Nb113  1  0.00026961  0.25388029  1.00172069  1
  Nb5+  Nb114  1  0.00362891  0.74045305  0.50092059  1
  Nb5+  Nb115  1  -0.00560110  0.75374402  1.00566749  1
  Nb5+  Nb116  1  0.50823972  0.24838926  0.50332694  1
  Nb5+  Nb117  1  0.50665250  0.25122971  0.99957694  1
  Nb5+  Nb118  1  0.49831220  0.74864355  0.49821373  1
  Nb5+  Nb119  1  0.49427758  0.74810165  0.99738517  1
  Nb5+  Nb120  1  0.25674793  -0.00038533  -0.00896506  1
  Nb5+  Nb121  1  0.25356989  0.00163469  0.50135985  1
  Nb5+  Nb122  1  0.24804433  0.50207879  0.00375706  1
  Nb5+  Nb123  1  0.24320026  0.50109721  0.49914420  1
  Nb5+  Nb124  1  0.74361957  0.00024042  0.00299758  1
  Nb5+  Nb125  1  0.75490286  -0.00395109  0.49415048  1
  Nb5+  Nb126  1  0.75478245  0.49673378  0.00060576  1
  Nb5+  Nb127  1  0.74940057  0.49886041  0.50321419  1
  O2-  O128  1  0.01680381  -0.03660974  0.13592974  1
  O2-  O129  1  0.01085367  -0.01817718  0.61823456  1
  O2-  O130  1  -0.00898366  0.46735262  0.13246106  1
  O2-  O131  1  -0.02067207  0.49227174  0.61841807  1
  O2-  O132  1  0.50631834  -0.02548850  0.13811939  1
  O2-  O133  1  0.52404674  -0.03234385  0.63209498  1
  O2-  O134  1  0.50314588  0.47673226  0.13050964  1
  O2-  O135  1  0.49942778  0.48332841  0.62466489  1
  O2-  O136  1  -0.00922913  0.02671295  0.38377574  1
  O2-  O137  1  -0.01658321  0.02006692  0.86213327  1
  O2-  O138  1  0.00697998  0.52430029  0.38746258  1
  O2-  O139  1  0.00647268  0.52287843  0.85851367  1
  O2-  O140  1  0.48374604  0.03256309  0.36903583  1
  O2-  O141  1  0.48752186  0.01970238  0.85868862  1
  O2-  O142  1  0.50965636  0.52072466  0.38502774  1
  O2-  O143  1  0.50868302  0.52794201  0.86050628  1
  O2-  O144  1  0.21704832  0.24098228  0.14087282  1
  O2-  O145  1  0.23551776  0.23177015  0.61962702  1
  O2-  O146  1  0.26913665  0.73721228  0.13350287  1
  O2-  O147  1  0.25977074  0.71564905  0.63531470  1
  O2-  O148  1  0.72705570  0.25291331  0.13675705  1
  O2-  O149  1  0.72230438  0.24985105  0.62028068  1
  O2-  O150  1  0.76621386  0.75180040  0.11396940  1
  O2-  O151  1  0.76575458  0.76155630  0.63661652  1
  O2-  O152  1  0.27154099  0.26010587  0.38448372  1
  O2-  O153  1  0.26067540  0.26565208  0.87172314  1
  O2-  O154  1  0.23064540  0.77223444  0.36851228  1
  O2-  O155  1  0.23208379  0.78215697  0.86097806  1
  O2-  O156  1  0.76834316  0.24563738  0.38715397  1
  O2-  O157  1  0.77484331  0.24132153  0.86247511  1
  O2-  O158  1  0.72260033  0.75455626  0.36699426  1
  O2-  O159  1  0.73056932  0.75433721  0.86852413  1
  O2-  O160  1  0.01015768  0.27729375  0.11982981  1
  O2-  O161  1  0.01002973  0.27958532  0.61386061  1
  O2-  O162  1  -0.03838123  0.76126347  0.11428525  1
  O2-  O163  1  -0.03358086  0.75875353  0.62588874  1
  O2-  O164  1  0.51107593  0.27338094  0.12075530  1
  O2-  O165  1  0.50067127  0.28328150  0.61620504  1
  O2-  O166  1  0.47928046  0.76765751  0.11005524  1
  O2-  O167  1  0.47519904  0.76076072  0.63021930  1
  O2-  O168  1  0.26052001  -0.00778443  0.37899180  1
  O2-  O169  1  0.28539247  -0.00982959  0.88086327  1
  O2-  O170  1  0.25335960  0.47237709  0.38621755  1
  O2-  O171  1  0.24996851  0.47451447  0.88268663  1
  O2-  O172  1  0.78080802  0.00132946  0.38424340  1
  O2-  O173  1  0.77643369  0.00304493  0.86579758  1
  O2-  O174  1  0.74372078  0.50522257  0.38795506  1
  O2-  O175  1  0.76109360  0.51300786  0.86674155  1
  O2-  O176  1  -0.02628481  0.23759573  0.39214670  1
  O2-  O177  1  -0.01789667  0.22510417  0.88235615  1
  O2-  O178  1  0.03036604  0.73742489  0.38913195  1
  O2-  O179  1  0.00933403  0.73756210  0.86003568  1
  O2-  O180  1  0.47963004  0.23419595  0.39201165  1
  O2-  O181  1  0.50362948  0.22058302  0.88318796  1
  O2-  O182  1  0.52258242  0.72541821  0.38781468  1
  O2-  O183  1  0.52035083  0.73214156  0.86318348  1
  O2-  O184  1  0.23105908  0.01012153  0.13446165  1
  O2-  O185  1  0.22516982  0.01618245  0.61375440  1
  O2-  O186  1  0.24651138  0.53450632  0.11832087  1
  O2-  O187  1  0.26173551  0.51315023  0.61322190  1
  O2-  O188  1  0.71494868  -0.00552305  0.11399271  1
  O2-  O189  1  0.74048803  -0.00202832  0.62746637  1
  O2-  O190  1  0.73562020  0.49647772  0.11371373  1
  O2-  O191  1  0.75932839  0.48948501  0.62775279  1
  O2-  O192  1  0.13737100  0.25902979  0.29025484  1
  O2-  O193  1  0.13203512  0.28938725  0.75944625  1
  O2-  O194  1  0.13350977  0.77448225  0.22608885  1
  O2-  O195  1  0.11560106  0.76585182  0.72808281  1
  O2-  O196  1  0.63501885  0.27108981  0.28217620  1
  O2-  O197  1  0.63769585  0.27850441  0.75929032  1
  O2-  O198  1  0.63331012  0.77937629  0.22953932  1
  O2-  O199  1  0.62203457  0.76261722  0.73126152  1
  O2-  O200  1  0.36372015  0.21767923  0.24377087  1
  O2-  O201  1  0.36245514  0.20933413  0.75158007  1
  O2-  O202  1  0.36619755  0.73869073  0.27539118  1
  O2-  O203  1  0.37403749  0.73554567  0.76887907  1
  O2-  O204  1  0.86755349  0.22229590  0.24154061  1
  O2-  O205  1  0.86129033  0.24681668  0.71586848  1
  O2-  O206  1  0.86654994  0.72636312  0.27369116  1
  O2-  O207  1  0.86760778  0.73592209  0.76787316  1
  O2-  O208  1  0.27954978  0.36308217  0.23889507  1
  O2-  O209  1  0.28060718  0.36092045  0.72649226  1
  O2-  O210  1  0.26774182  0.88271650  0.24163812  1
  O2-  O211  1  0.26348744  0.86428446  0.71674232  1
  O2-  O212  1  0.78251933  0.36405298  0.25492129  1
  O2-  O213  1  0.77099622  0.38125918  0.75472182  1
  O2-  O214  1  0.78410205  0.86509723  0.24038955  1
  O2-  O215  1  0.75580396  0.87595073  0.75285717  1
  O2-  O216  1  0.23326586  0.12025386  0.26940047  1
  O2-  O217  1  0.20456670  0.13628251  0.76282334  1
  O2-  O218  1  0.22820137  0.63341513  0.26562435  1
  O2-  O219  1  0.22609439  0.63491207  0.77378073  1
  O2-  O220  1  0.72676387  0.13117598  0.26223877  1
  O2-  O221  1  0.73582746  0.12460620  0.74368237  1
  O2-  O222  1  0.73140477  0.63539442  0.23512329  1
  O2-  O223  1  0.73170107  0.62890010  0.74186333  1
  O2-  O224  1  0.11877329  0.47047713  0.25283444  1
  O2-  O225  1  0.11080007  0.48995817  0.72253095  1
  O2-  O226  1  0.12848713  0.98544427  0.26965749  1
  O2-  O227  1  0.11029941  0.97145666  0.75989297  1
  O2-  O228  1  0.61857761  0.47338310  0.25864128  1
  O2-  O229  1  0.63281621  0.49071753  0.74357286  1
  O2-  O230  1  0.61801776  0.97929537  0.27980618  1
  O2-  O231  1  0.63242284  0.99031063  0.76433362  1
  O2-  O232  1  0.36984018  0.01759607  0.24097617  1
  O2-  O233  1  0.38389758  0.00813636  0.71753580  1
  O2-  O234  1  0.38786342  0.53573773  0.25159353  1
  O2-  O235  1  0.38246339  0.52659202  0.74733298  1
  O2-  O236  1  0.88786952  0.01637331  0.23292051  1
  O2-  O237  1  0.87292952  0.00271301  0.72646652  1
  O2-  O238  1  0.88649280  0.53061177  0.25366845  1
  O2-  O239  1  0.87171230  0.53050435  0.74385626  1
  O2-  O240  1  0.47346587  0.38718952  0.27507978  1
  O2-  O241  1  0.48493482  0.38881813  0.76988490  1
  O2-  O242  1  0.47954024  0.88298358  0.28047293  1
  O2-  O243  1  0.48743775  0.86839463  0.76492956  1
  O2-  O244  1  0.98030342  0.38604832  0.28412630  1
  O2-  O245  1  0.96971992  0.38916312  0.75855544  1
  O2-  O246  1  0.99007606  0.88535648  0.28930013  1
  O2-  O247  1  0.97521146  0.87073517  0.75452658  1
  O2-  O248  1  0.02445333  0.11298570  0.23502987  1
  O2-  O249  1  0.00698138  0.11343824  0.72038467  1
  O2-  O250  1  0.03100910  0.61381314  0.23294175  1
  O2-  O251  1  0.00617740  0.63088434  0.72443455  1
  O2-  O252  1  0.52336252  0.11640691  0.23087725  1
  O2-  O253  1  0.52063910  0.11488636  0.71987459  1
  O2-  O254  1  0.53366619  0.61578944  0.23767738  1
  O2-  O255  1  0.51383797  0.62859105  0.72342533  1
  O2-  O256  1  0.12918258  0.47851454  0.00513172  1
  O2-  O257  1  0.12275204  0.48081693  0.51109102  1
  O2-  O258  1  0.13729710  0.97462597  -0.01791573  1
  O2-  O259  1  0.11981627  0.99047838  0.48483185  1
  O2-  O260  1  0.63899031  0.48862169  -0.02375251  1
  O2-  O261  1  0.62756192  0.48454681  0.51177537  1
  O2-  O262  1  0.63459714  0.97850616  -0.03619533  1
  O2-  O263  1  0.63944273  0.98592767  0.48293045  1
  O2-  O264  1  0.36858892  0.02616059  0.02412970  1
  O2-  O265  1  0.36516688  0.02730697  0.51622086  1
  O2-  O266  1  0.36746719  0.52895307  -0.00121972  1
  O2-  O267  1  0.37885154  0.50746799  0.49686789  1
  O2-  O268  1  0.86302815  0.01431478  0.02157134  1
  O2-  O269  1  0.88056711  0.01902117  0.51743862  1
  O2-  O270  1  0.86274088  0.54418998  0.00454092  1
  O2-  O271  1  0.87525581  0.50705890  0.49358384  1
  O2-  O272  1  0.47598138  0.36802414  -0.02714464  1
  O2-  O273  1  0.49348337  0.38040457  0.48218973  1
  O2-  O274  1  0.49185688  0.86360666  -0.03216751  1
  O2-  O275  1  0.47864089  0.86230258  0.48001069  1
  O2-  O276  1  0.98174699  0.36792375  -0.02833625  1
  O2-  O277  1  0.98935518  0.37894430  0.48274841  1
  O2-  O278  1  0.97859969  0.86508318  -0.03246265  1
  O2-  O279  1  0.98264847  0.87951373  0.48474013  1
  O2-  O280  1  0.01719900  0.13057685  0.02165936  1
  O2-  O281  1  0.01175408  0.12973134  0.52295787  1
  O2-  O282  1  0.01385838  0.63860641  -0.00029721  1
  O2-  O283  1  0.01483313  0.62501456  0.52233325  1
  O2-  O284  1  0.53198474  0.13291488  0.02015614  1
  O2-  O285  1  0.51784701  0.13649072  0.52920149  1
  O2-  O286  1  0.53228591  0.63761063  0.00980492  1
  O2-  O287  1  0.51335019  0.61735266  0.52435612  1
  O2-  O288  1  0.11745182  0.26670375  -0.01605946  1
  O2-  O289  1  0.12224245  0.26166484  0.48633896  1
  O2-  O290  1  0.11011603  0.77274815  0.01617827  1
  O2-  O291  1  0.11153827  0.77028400  0.53551897  1
  O2-  O292  1  0.62030762  0.29009400  -0.00674564  1
  O2-  O293  1  0.62461864  0.26313832  0.48441905  1
  O2-  O294  1  0.63021078  0.77484855  0.00410605  1
  O2-  O295  1  0.61300063  0.75956796  0.53052144  1
  O2-  O296  1  0.38679550  0.22904130  0.01469319  1
  O2-  O297  1  0.37131504  0.24320010  0.51863485  1
  O2-  O298  1  0.38464359  0.72811980  -0.03077061  1
  O2-  O299  1  0.38329287  0.71796798  0.49295770  1
  O2-  O300  1  0.88066514  0.23245363  0.02188401  1
  O2-  O301  1  0.87048400  0.24316742  0.52517493  1
  O2-  O302  1  0.86702694  0.73914731  -0.02789759  1
  O2-  O303  1  0.88612439  0.73496145  0.47762120  1
  O2-  O304  1  0.27035460  0.38583366  0.03062446  1
  O2-  O305  1  0.25491851  0.36908450  0.51821212  1
  O2-  O306  1  0.27520448  0.88545762  0.02311653  1
  O2-  O307  1  0.26828089  0.88647885  0.51396011  1
  O2-  O308  1  0.78805369  0.38726941  -0.00668385  1
  O2-  O309  1  0.76127699  0.37226351  0.50355073  1
  O2-  O310  1  0.76878586  0.87555624  -0.00563785  1
  O2-  O311  1  0.77653273  0.88330305  0.50500751  1
  O2-  O312  1  0.22619037  0.11527560  -0.00948823  1
  O2-  O313  1  0.23177673  0.12981854  0.48338332  1
  O2-  O314  1  0.22581026  0.62035353  -0.02479027  1
  O2-  O315  1  0.22523965  0.61238835  0.47783428  1
  O2-  O316  1  0.72846391  0.11526754  -0.01167601  1
  O2-  O317  1  0.74048556  0.12609631  0.50555521  1
  O2-  O318  1  0.72682203  0.63450778  -0.00276409  1
  O2-  O319  1  0.74358438  0.61358888  0.51994190  1
