# generated using pymatgen
data_Sr64Ca21Nb43O192
_symmetry_space_group_name_H-M   'P 1'
_cell_length_a   16.53288619
_cell_length_b   16.54256044
_cell_length_c   16.71113360
_cell_angle_alpha   90.00442656
_cell_angle_beta   89.99040151
_cell_angle_gamma   90.07313048
_symmetry_Int_Tables_number   1
_chemical_formula_structural   Sr64Ca21Nb43O192
_chemical_formula_sum   'Sr64 Ca21 Nb43 O192'
_cell_volume   4570.42889145
_cell_formula_units_Z   1
loop_
 _symmetry_equiv_pos_site_id
 _symmetry_equiv_pos_as_xyz
  1  'x, y, z'
loop_
 _atom_type_symbol
 _atom_type_oxidation_number
  Sr2+  2.0
  Ca2+  2.0
  Nb5+  5.0
  O2-  -2.0
loop_
 _atom_site_type_symbol
 _atom_site_label
 _atom_site_symmetry_multiplicity
 _atom_site_fract_x
 _atom_site_fract_y
 _atom_site_fract_z
 _atom_site_occupancy
  Sr2+  Sr0  1  0.12652736  0.12664305  0.12798496  1
  Sr2+  Sr1  1  0.11983474  0.11986631  0.62044815  1
  Sr2+  Sr2  1  0.12205408  0.62788249  0.12698017  1
  Sr2+  Sr3  1  0.11975585  0.64020107  0.63070868  1
  Sr2+  Sr4  1  0.62343155  0.10120430  0.12877574  1
  Sr2+  Sr5  1  0.61894003  0.11924879  0.62357332  1
  Sr2+  Sr6  1  0.62461971  0.62490605  0.12255490  1
  Sr2+  Sr7  1  0.61939257  0.62336717  0.62487937  1
  Sr2+  Sr8  1  0.37616126  0.36872325  0.12209394  1
  Sr2+  Sr9  1  0.37183939  0.38896469  0.62581838  1
  Sr2+  Sr10  1  0.37541867  0.87021506  0.12455939  1
  Sr2+  Sr11  1  0.37278549  0.88056785  0.62217684  1
  Sr2+  Sr12  1  0.87738605  0.35836951  0.12132654  1
  Sr2+  Sr13  1  0.86044337  0.39031805  0.62475940  1
  Sr2+  Sr14  1  0.87135173  0.87354202  0.12640085  1
  Sr2+  Sr15  1  0.87398205  0.87483579  0.62415451  1
  Sr2+  Sr16  1  0.12445458  0.36864457  0.37521944  1
  Sr2+  Sr17  1  0.11185903  0.37223624  0.87414353  1
  Sr2+  Sr18  1  0.13083435  0.87477190  0.37449290  1
  Sr2+  Sr19  1  0.12633327  0.87950341  0.86875890  1
  Sr2+  Sr20  1  0.64089003  0.37287414  0.37154795  1
  Sr2+  Sr21  1  0.64727897  0.37079036  0.87343950  1
  Sr2+  Sr22  1  0.62112203  0.86810904  0.37020294  1
  Sr2+  Sr23  1  0.62801548  0.87209600  0.87870696  1
  Sr2+  Sr24  1  0.35864556  0.13178229  0.37312755  1
  Sr2+  Sr25  1  0.38106326  0.13065785  0.86928583  1
  Sr2+  Sr26  1  0.36998687  0.62006655  0.36328400  1
  Sr2+  Sr27  1  0.38083618  0.61480001  0.87895205  1
  Sr2+  Sr28  1  0.86078870  0.12551153  0.37691942  1
  Sr2+  Sr29  1  0.87019409  0.13800539  0.88313503  1
  Sr2+  Sr30  1  0.88191587  0.61432438  0.38037172  1
  Sr2+  Sr31  1  0.88928603  0.62039104  0.87674284  1
  Sr2+  Sr32  1  0.12211224  0.12339822  0.37732429  1
  Sr2+  Sr33  1  0.13130341  0.11835886  0.87270266  1
  Sr2+  Sr34  1  0.13612760  0.62160397  0.36653494  1
  Sr2+  Sr35  1  0.12932058  0.62550441  0.87811829  1
  Sr2+  Sr36  1  0.62356966  0.12112993  0.37398483  1
  Sr2+  Sr37  1  0.61921588  0.12626407  0.86554694  1
  Sr2+  Sr38  1  0.62393760  0.62201144  0.36897191  1
  Sr2+  Sr39  1  0.63176827  0.62320214  0.87836640  1
  Sr2+  Sr40  1  0.37337510  0.37097010  0.37794919  1
  Sr2+  Sr41  1  0.37687742  0.37593490  0.87538383  1
  Sr2+  Sr42  1  0.37639837  0.84553888  0.37464713  1
  Sr2+  Sr43  1  0.37275051  0.90145240  0.87601453  1
  Sr2+  Sr44  1  0.87248939  0.37581464  0.37668080  1
  Sr2+  Sr45  1  0.87982455  0.37604163  0.87438611  1
  Sr2+  Sr46  1  0.88993466  0.87159815  0.37869920  1
  Sr2+  Sr47  1  0.86552191  0.86864460  0.88063716  1
  Sr2+  Sr48  1  0.10846037  0.37571856  0.12936246  1
  Sr2+  Sr49  1  0.11976605  0.37856617  0.62649724  1
  Sr2+  Sr50  1  0.12561369  0.88218960  0.12506770  1
  Sr2+  Sr51  1  0.10178966  0.87793118  0.62378581  1
  Sr2+  Sr52  1  0.62334862  0.37343136  0.12932756  1
  Sr2+  Sr53  1  0.61901101  0.37789609  0.61819450  1
  Sr2+  Sr54  1  0.64625859  0.87134885  0.12555407  1
  Sr2+  Sr55  1  0.62698930  0.86994710  0.62714600  1
  Sr2+  Sr56  1  0.37345707  0.12208735  0.12728742  1
  Sr2+  Sr57  1  0.36857215  0.12473036  0.62467046  1
  Sr2+  Sr58  1  0.37436318  0.63474401  0.12183492  1
  Sr2+  Sr59  1  0.37191762  0.62919846  0.63555956  1
  Sr2+  Sr60  1  0.88179625  0.11430624  0.12386349  1
  Sr2+  Sr61  1  0.87371588  0.12030278  0.61921238  1
  Sr2+  Sr62  1  0.87257859  0.62929064  0.12328839  1
  Sr2+  Sr63  1  0.86592354  0.63880410  0.62059426  1
  Ca2+  Ca64  1  0.49606151  -0.00113143  0.49584796  1
  Ca2+  Ca65  1  0.49788475  0.50258133  0.49805516  1
  Ca2+  Ca66  1  0.00195373  -0.00231432  -0.00438929  1
  Ca2+  Ca67  1  0.49989740  0.00232641  0.00135317  1
  Ca2+  Ca68  1  0.00252653  0.49937252  0.50377840  1
  Ca2+  Ca69  1  0.74668635  0.75329195  0.49485702  1
  Ca2+  Ca70  1  0.74542251  0.24805623  0.00198671  1
  Ca2+  Ca71  1  0.25212165  0.75269096  -0.00535407  1
  Ca2+  Ca72  1  0.25161051  0.74690319  0.50402747  1
  Ca2+  Ca73  1  0.24823028  0.24909821  -0.00269402  1
  Ca2+  Ca74  1  0.24956802  0.49494545  0.24537382  1
  Ca2+  Ca75  1  0.75136683  0.49988085  0.24742043  1
  Ca2+  Ca76  1  0.49773468  0.75128538  0.75741933  1
  Ca2+  Ca77  1  -0.00111171  0.24592676  0.25354805  1
  Ca2+  Ca78  1  -0.00211290  0.75096577  0.75087792  1
  Ca2+  Ca79  1  -0.00111669  0.74934754  0.25037410  1
  Ca2+  Ca80  1  0.74809774  0.50521362  0.74919418  1
  Ca2+  Ca81  1  0.25269442  -0.00173366  0.25604470  1
  Ca2+  Ca82  1  0.00021684  0.24800773  0.74780536  1
  Ca2+  Ca83  1  0.75280378  0.00043046  0.75044002  1
  Ca2+  Ca84  1  0.75240196  -0.00015810  0.25225484  1
  Nb5+  Nb85  1  0.50687214  0.49489507  0.00032444  1
  Nb5+  Nb86  1  -0.00121260  0.00308207  0.49889960  1
  Nb5+  Nb87  1  0.00523048  0.49973729  -0.00050991  1
  Nb5+  Nb88  1  0.24549407  0.25431561  0.50336519  1
  Nb5+  Nb89  1  0.74346323  0.25077894  0.50143055  1
  Nb5+  Nb90  1  0.75149953  0.74619784  0.00140728  1
  Nb5+  Nb91  1  0.50088343  0.25280734  0.74239443  1
  Nb5+  Nb92  1  0.24787582  0.00673384  0.74657368  1
  Nb5+  Nb93  1  0.50247353  0.24384039  0.24600074  1
  Nb5+  Nb94  1  0.24709970  0.50412733  0.75086072  1
  Nb5+  Nb95  1  0.50282065  0.74256156  0.24778429  1
  Nb5+  Nb96  1  0.00228795  -0.00139622  0.24782620  1
  Nb5+  Nb97  1  -0.00363402  0.00676523  0.75268473  1
  Nb5+  Nb98  1  -0.00302911  0.49800423  0.25529300  1
  Nb5+  Nb99  1  -0.00180234  0.50428681  0.74461463  1
  Nb5+  Nb100  1  0.49767460  -0.01020885  0.25121970  1
  Nb5+  Nb101  1  0.49925401  -0.00159771  0.74591600  1
  Nb5+  Nb102  1  0.49385302  0.49141861  0.25118562  1
  Nb5+  Nb103  1  0.50252846  0.49858995  0.75305691  1
  Nb5+  Nb104  1  0.24860709  0.25269001  0.24714623  1
  Nb5+  Nb105  1  0.25238108  0.25684915  0.75003590  1
  Nb5+  Nb106  1  0.24653549  0.75197703  0.24457336  1
  Nb5+  Nb107  1  0.25325241  0.76112463  0.75063904  1
  Nb5+  Nb108  1  0.74960149  0.24662321  0.24691450  1
  Nb5+  Nb109  1  0.75406295  0.24784724  0.74745650  1
  Nb5+  Nb110  1  0.75231902  0.74470835  0.25425951  1
  Nb5+  Nb111  1  0.74818207  0.75196854  0.74817602  1
  Nb5+  Nb112  1  -0.00863038  0.25137981  0.50344423  1
  Nb5+  Nb113  1  0.00301511  0.24449087  1.00103997  1
  Nb5+  Nb114  1  0.00369904  0.74446148  0.49449114  1
  Nb5+  Nb115  1  0.00217166  0.75393984  1.00313125  1
  Nb5+  Nb116  1  0.49435853  0.24877093  0.49477226  1
  Nb5+  Nb117  1  0.50366534  0.24926046  0.99599776  1
  Nb5+  Nb118  1  0.49959646  0.74701125  0.50439727  1
  Nb5+  Nb119  1  0.50034243  0.75109328  0.99799149  1
  Nb5+  Nb120  1  0.24956840  0.00217363  0.00421122  1
  Nb5+  Nb121  1  0.25056353  -0.00116302  0.49837987  1
  Nb5+  Nb122  1  0.25391866  0.49842103  0.00300764  1
  Nb5+  Nb123  1  0.24779959  0.50173679  0.50288929  1
  Nb5+  Nb124  1  0.74879974  0.00392146  -0.00366081  1
  Nb5+  Nb125  1  0.74842563  -0.00274877  0.50336076  1
  Nb5+  Nb126  1  0.75980191  0.49895350  0.00108299  1
  Nb5+  Nb127  1  0.74588351  0.50595916  0.50043849  1
  O2-  O128  1  -0.00256877  0.00795186  0.13180728  1
  O2-  O129  1  -0.00977521  0.01656557  0.62235868  1
  O2-  O130  1  0.02031410  0.50660201  0.11624737  1
  O2-  O131  1  0.03473460  0.51087286  0.63561062  1
  O2-  O132  1  0.47663804  0.01053635  0.13446701  1
  O2-  O133  1  0.47736785  0.01674094  0.63209534  1
  O2-  O134  1  0.51966374  0.49101177  0.11995639  1
  O2-  O135  1  0.51793828  0.50003682  0.63766584  1
  O2-  O136  1  0.01750136  -0.01091936  0.38283997  1
  O2-  O137  1  0.02516139  -0.00681855  0.86306246  1
  O2-  O138  1  -0.02324869  0.48943628  0.36873410  1
  O2-  O139  1  -0.01964351  0.49158597  0.87607529  1
  O2-  O140  1  0.53225092  -0.00422210  0.36486098  1
  O2-  O141  1  0.50745061  0.01224646  0.86409696  1
  O2-  O142  1  0.46571616  0.49981170  0.36340584  1
  O2-  O143  1  0.47577309  0.49370034  0.88023816  1
  O2-  O144  1  0.25433171  0.24115212  0.13349336  1
  O2-  O145  1  0.25751399  0.25442896  0.62531179  1
  O2-  O146  1  0.27651832  0.75341660  0.12970828  1
  O2-  O147  1  0.28801666  0.75374642  0.63544871  1
  O2-  O148  1  0.73885821  0.26435592  0.13491085  1
  O2-  O149  1  0.74149642  0.26056534  0.62276600  1
  O2-  O150  1  0.76585234  0.74396628  0.12348737  1
  O2-  O151  1  0.75822970  0.75459360  0.63173489  1
  O2-  O152  1  0.25553708  0.25549556  0.38330458  1
  O2-  O153  1  0.26293628  0.23267958  0.86194758  1
  O2-  O154  1  0.23869461  0.74306958  0.36557204  1
  O2-  O155  1  0.21431368  0.75215686  0.86285439  1
  O2-  O156  1  0.74938080  0.23917892  0.38185541  1
  O2-  O157  1  0.75286509  0.24794354  0.86516249  1
  O2-  O158  1  0.71858547  0.74918009  0.36382027  1
  O2-  O159  1  0.73149554  0.75498534  0.88377493  1
  O2-  O160  1  0.00605203  0.25155235  0.11920914  1
  O2-  O161  1  0.01632651  0.23476536  0.61502955  1
  O2-  O162  1  -0.02624348  0.73424656  0.11697522  1
  O2-  O163  1  -0.01871718  0.73773473  0.61332660  1
  O2-  O164  1  0.50489386  0.25532600  0.12916719  1
  O2-  O165  1  0.50689350  0.24845692  0.62551966  1
  O2-  O166  1  0.48558270  0.74684707  0.12596753  1
  O2-  O167  1  0.49126846  0.73559047  0.61949288  1
  O2-  O168  1  0.22305438  0.00898531  0.38822606  1
  O2-  O169  1  0.23694115  0.00308437  0.86546091  1
  O2-  O170  1  0.26560381  0.50664161  0.38743051  1
  O2-  O171  1  0.26738995  0.50718965  0.86898098  1
  O2-  O172  1  0.73791484  0.01866925  0.38790368  1
  O2-  O173  1  0.74041753  -0.02613822  0.88273875  1
  O2-  O174  1  0.77423251  0.50193632  0.38499008  1
  O2-  O175  1  0.76145139  0.50992848  0.88382371  1
  O2-  O176  1  0.01115444  0.26012087  0.38768950  1
  O2-  O177  1  -0.01695904  0.26105950  0.88361701  1
  O2-  O178  1  0.01390003  0.78048996  0.38269293  1
  O2-  O179  1  0.01268812  0.75929183  0.88575126  1
  O2-  O180  1  0.49460652  0.25467010  0.37635643  1
  O2-  O181  1  0.49518874  0.24949232  0.87618999  1
  O2-  O182  1  0.51587875  0.75474418  0.36535546  1
  O2-  O183  1  0.53202358  0.74386893  0.88880036  1
  O2-  O184  1  0.25648640  0.00762191  0.11967810  1
  O2-  O185  1  0.26655397  -0.00149406  0.62632496  1
  O2-  O186  1  0.22256807  0.48359869  0.11156371  1
  O2-  O187  1  0.23603220  0.47882277  0.63370250  1
  O2-  O188  1  0.77090317  0.00550364  0.11511592  1
  O2-  O189  1  0.78319311  -0.00001380  0.61719245  1
  O2-  O190  1  0.72198274  0.49489238  0.11205761  1
  O2-  O191  1  0.72673488  0.48461938  0.61702268  1
  O2-  O192  1  0.13667633  0.27934555  0.25012678  1
  O2-  O193  1  0.13857308  0.27592084  0.75204806  1
  O2-  O194  1  0.13397175  0.77324893  0.22838498  1
  O2-  O195  1  0.13765683  0.76395945  0.71655514  1
  O2-  O196  1  0.61738116  0.27751097  0.25797960  1
  O2-  O197  1  0.61754331  0.27704659  0.75234882  1
  O2-  O198  1  0.61751586  0.76999371  0.23111535  1
  O2-  O199  1  0.63252158  0.78871736  0.74915924  1
  O2-  O200  1  0.38367868  0.22687189  0.24994629  1
  O2-  O201  1  0.37908829  0.22959385  0.74197351  1
  O2-  O202  1  0.38261801  0.72883813  0.26134442  1
  O2-  O203  1  0.36222118  0.72383760  0.78048399  1
  O2-  O204  1  0.86266057  0.21985309  0.24516666  1
  O2-  O205  1  0.86491422  0.21867825  0.73761657  1
  O2-  O206  1  0.86343851  0.72135095  0.27334880  1
  O2-  O207  1  0.86186959  0.71794556  0.76853165  1
  O2-  O208  1  0.28870834  0.36397595  0.25535738  1
  O2-  O209  1  0.27755018  0.37106794  0.75588892  1
  O2-  O210  1  0.28254315  0.86581810  0.25593886  1
  O2-  O211  1  0.27364078  0.87762675  0.75640317  1
  O2-  O212  1  0.76401828  0.36364866  0.27023938  1
  O2-  O213  1  0.77168182  0.36686570  0.75314571  1
  O2-  O214  1  0.76312077  0.86344367  0.24028740  1
  O2-  O215  1  0.78487571  0.86657773  0.75303764  1
  O2-  O216  1  0.23710234  0.13668698  0.26695868  1
  O2-  O217  1  0.23235554  0.12408327  0.73738609  1
  O2-  O218  1  0.23306751  0.63106774  0.24092987  1
  O2-  O219  1  0.23202974  0.61839181  0.73781229  1
  O2-  O220  1  0.71279724  0.13511788  0.25053592  1
  O2-  O221  1  0.71283013  0.13573945  0.74433546  1
  O2-  O222  1  0.71651798  0.63265369  0.24150258  1
  O2-  O223  1  0.70985799  0.63643664  0.74713123  1
  O2-  O224  1  0.11506106  0.46845282  0.26241423  1
  O2-  O225  1  0.13245494  0.47738622  0.76993252  1
  O2-  O226  1  0.11775467  0.96349450  0.24918499  1
  O2-  O227  1  0.13417885  0.97735080  0.73311180  1
  O2-  O228  1  0.61098514  0.48454173  0.26958507  1
  O2-  O229  1  0.61248584  0.47248024  0.77352092  1
  O2-  O230  1  0.61548554  0.98272702  0.22309560  1
  O2-  O231  1  0.61376612  0.98468445  0.73033725  1
  O2-  O232  1  0.38828362  0.02833305  0.27283521  1
  O2-  O233  1  0.36969187  0.02330198  0.76188113  1
  O2-  O234  1  0.38478495  0.52266917  0.21859063  1
  O2-  O235  1  0.37257536  0.51281903  0.73666476  1
  O2-  O236  1  0.88786561  0.03207369  0.26689437  1
  O2-  O237  1  0.88685371  0.03706296  0.76787251  1
  O2-  O238  1  0.88462208  0.52905856  0.22938683  1
  O2-  O239  1  0.88574271  0.52572205  0.72468332  1
  O2-  O240  1  0.47627719  0.37526368  0.24546502  1
  O2-  O241  1  0.47254807  0.37142608  0.74857975  1
  O2-  O242  1  0.47732768  0.87381078  0.24991469  1
  O2-  O243  1  0.46939482  0.88638862  0.74872798  1
  O2-  O244  1  0.97076683  0.38212504  0.23558321  1
  O2-  O245  1  0.98352965  0.38552361  0.74327607  1
  O2-  O246  1  0.96507506  0.88413329  0.24564116  1
  O2-  O247  1  0.98488460  0.88875082  0.73210308  1
  O2-  O248  1  0.03889262  0.11510481  0.25452283  1
  O2-  O249  1  0.04086777  0.11656459  0.75001137  1
  O2-  O250  1  0.03201194  0.61450362  0.25761468  1
  O2-  O251  1  0.02739084  0.61636351  0.76934679  1
  O2-  O252  1  0.52648292  0.13132591  0.25068051  1
  O2-  O253  1  0.51675892  0.13374170  0.75053899  1
  O2-  O254  1  0.51929479  0.62541331  0.24801930  1
  O2-  O255  1  0.51369665  0.61309206  0.76401987  1
  O2-  O256  1  0.11893479  0.48401359  -0.02410623  1
  O2-  O257  1  0.13683328  0.45918358  0.49359419  1
  O2-  O258  1  0.13649928  0.96067804  -0.00149891  1
  O2-  O259  1  0.12529129  0.99327581  0.52235007  1
  O2-  O260  1  0.61975404  0.48153348  -0.02235160  1
  O2-  O261  1  0.63305768  0.47123636  0.48043954  1
  O2-  O262  1  0.63344413  0.97363095  0.01687324  1
  O2-  O263  1  0.63635083  0.98724702  0.52902369  1
  O2-  O264  1  0.36426478  0.03224336  -0.01962155  1
  O2-  O265  1  0.36114824  0.03425257  0.48964300  1
  O2-  O266  1  0.37012044  0.51834060  0.01706584  1
  O2-  O267  1  0.36302831  0.51631007  0.53222890  1
  O2-  O268  1  0.86801353  0.02420347  -0.01785926  1
  O2-  O269  1  0.88276645  0.02526619  0.48563280  1
  O2-  O270  1  0.87359340  0.52428905  0.01426926  1
  O2-  O271  1  0.86536820  0.51936163  0.52665823  1
  O2-  O272  1  0.47059123  0.37916506  0.00291028  1
  O2-  O273  1  0.48254330  0.36485552  0.51011877  1
  O2-  O274  1  0.47916993  0.86435170  -0.00381083  1
  O2-  O275  1  0.46377324  0.86479337  0.50099235  1
  O2-  O276  1  0.97326407  0.38440707  0.00627419  1
  O2-  O277  1  0.97240097  0.36519063  0.51615442  1
  O2-  O278  1  0.96870167  0.86480725  0.00806558  1
  O2-  O279  1  0.98184966  0.88513912  0.51388162  1
  O2-  O280  1  0.03193677  0.13337240  -0.00476004  1
  O2-  O281  1  0.02051848  0.12498634  0.49151418  1
  O2-  O282  1  0.01136479  0.62140244  -0.01208397  1
  O2-  O283  1  0.02493851  0.63246545  0.47447794  1
  O2-  O284  1  0.53591505  0.13902910  0.00265441  1
  O2-  O285  1  0.53119007  0.13696632  0.49899256  1
  O2-  O286  1  0.51687940  0.61439275  0.00271523  1
  O2-  O287  1  0.53715170  0.63401519  0.49194800  1
  O2-  O288  1  0.11433072  0.28665128  -0.00308424  1
  O2-  O289  1  0.13181517  0.27483275  0.50382783  1
  O2-  O290  1  0.11437458  0.76253695  0.02815961  1
  O2-  O291  1  0.11707959  0.77389445  0.51750219  1
  O2-  O292  1  0.61333197  0.29420687  -0.00022616  1
  O2-  O293  1  0.62805192  0.27252632  0.49612291  1
  O2-  O294  1  0.62602477  0.75620433  0.02446757  1
  O2-  O295  1  0.61261718  0.78981174  0.50376124  1
  O2-  O296  1  0.38756840  0.23109436  0.01152805  1
  O2-  O297  1  0.37944754  0.22555708  0.50217235  1
  O2-  O298  1  0.38910892  0.71834001  -0.01234485  1
  O2-  O299  1  0.38670992  0.71827316  0.47389540  1
  O2-  O300  1  0.88181125  0.22580283  0.01474246  1
  O2-  O301  1  0.87631821  0.22532427  0.50233314  1
  O2-  O302  1  0.86781421  0.72589586  -0.01653255  1
  O2-  O303  1  0.88275013  0.73263514  0.47834634  1
  O2-  O304  1  0.26960638  0.38359925  -0.01846294  1
  O2-  O305  1  0.28156820  0.36930339  0.50246844  1
  O2-  O306  1  0.28636980  0.88593196  -0.00400347  1
  O2-  O307  1  0.27124742  0.88586492  0.49383857  1
  O2-  O308  1  0.77646744  0.38419859  -0.00633772  1
  O2-  O309  1  0.77528859  0.36614814  0.49497496  1
  O2-  O310  1  0.76804563  0.86551782  0.00904596  1
  O2-  O311  1  0.77884374  0.88695295  0.48987808  1
  O2-  O312  1  0.21323038  0.11578571  -0.00134074  1
  O2-  O313  1  0.23038710  0.13470613  0.50722373  1
  O2-  O314  1  0.22675008  0.61418220  -0.00220059  1
  O2-  O315  1  0.21631179  0.61198544  0.51579748  1
  O2-  O316  1  0.72085852  0.11549660  -0.01655835  1
  O2-  O317  1  0.73825505  0.13057700  0.51447670  1
  O2-  O318  1  0.72946015  0.62470352  0.00352460  1
  O2-  O319  1  0.72277242  0.61853325  0.50608776  1
