# generated using pymatgen
data_Sr64Ca21Nb43O192
_symmetry_space_group_name_H-M   'P 1'
_cell_length_a   16.60081749
_cell_length_b   16.61222099
_cell_length_c   16.78278130
_cell_angle_alpha   90.02143739
_cell_angle_beta   89.98153525
_cell_angle_gamma   90.06184412
_symmetry_Int_Tables_number   1
_chemical_formula_structural   Sr64Ca21Nb43O192
_chemical_formula_sum   'Sr64 Ca21 Nb43 O192'
_cell_volume   4628.29256848
_cell_formula_units_Z   1
loop_
 _symmetry_equiv_pos_site_id
 _symmetry_equiv_pos_as_xyz
  1  'x, y, z'
loop_
 _atom_type_symbol
 _atom_type_oxidation_number
  Sr2+  2.0
  Ca2+  2.0
  Nb5+  5.0
  O2-  -2.0
loop_
 _atom_site_type_symbol
 _atom_site_label
 _atom_site_symmetry_multiplicity
 _atom_site_fract_x
 _atom_site_fract_y
 _atom_site_fract_z
 _atom_site_occupancy
  Sr2+  Sr0  1  0.11791275  0.12262351  0.12577464  1
  Sr2+  Sr1  1  0.12897626  0.12016735  0.62510950  1
  Sr2+  Sr2  1  0.11749899  0.62663844  0.12578763  1
  Sr2+  Sr3  1  0.11492801  0.63555332  0.63033275  1
  Sr2+  Sr4  1  0.63282894  0.12693058  0.12851614  1
  Sr2+  Sr5  1  0.62880312  0.12562509  0.62249792  1
  Sr2+  Sr6  1  0.62318653  0.62399918  0.12699881  1
  Sr2+  Sr7  1  0.62838978  0.62841700  0.62435239  1
  Sr2+  Sr8  1  0.37542551  0.36720174  0.12291279  1
  Sr2+  Sr9  1  0.37466667  0.36009392  0.63119144  1
  Sr2+  Sr10  1  0.37460512  0.88688405  0.12794047  1
  Sr2+  Sr11  1  0.38611055  0.88665001  0.63235186  1
  Sr2+  Sr12  1  0.87478992  0.34565191  0.12215607  1
  Sr2+  Sr13  1  0.87304597  0.36525174  0.63369357  1
  Sr2+  Sr14  1  0.87676410  0.90069554  0.12755712  1
  Sr2+  Sr15  1  0.87833969  0.89912654  0.61890458  1
  Sr2+  Sr16  1  0.13042254  0.37513013  0.38232475  1
  Sr2+  Sr17  1  0.11121203  0.37404709  0.87204286  1
  Sr2+  Sr18  1  0.11999723  0.87304044  0.38573183  1
  Sr2+  Sr19  1  0.14030091  0.86890782  0.87002732  1
  Sr2+  Sr20  1  0.62175327  0.38232657  0.37707515  1
  Sr2+  Sr21  1  0.60729445  0.38523066  0.87662892  1
  Sr2+  Sr22  1  0.60861836  0.86465616  0.38232283  1
  Sr2+  Sr23  1  0.61345417  0.86490775  0.87218497  1
  Sr2+  Sr24  1  0.37308350  0.12903412  0.37694872  1
  Sr2+  Sr25  1  0.37656688  0.12471388  0.85210233  1
  Sr2+  Sr26  1  0.35844215  0.62224019  0.37012282  1
  Sr2+  Sr27  1  0.35631479  0.62586393  0.87972745  1
  Sr2+  Sr28  1  0.86973269  0.11698955  0.38457639  1
  Sr2+  Sr29  1  0.87089888  0.12112792  0.87681777  1
  Sr2+  Sr30  1  0.85165690  0.62407670  0.37685293  1
  Sr2+  Sr31  1  0.86327677  0.61997814  0.87442695  1
  Sr2+  Sr32  1  0.13716326  0.13131178  0.38312027  1
  Sr2+  Sr33  1  0.13874721  0.10779173  0.86685090  1
  Sr2+  Sr34  1  0.11936715  0.62377987  0.37437134  1
  Sr2+  Sr35  1  0.12017950  0.62814135  0.87175494  1
  Sr2+  Sr36  1  0.61175042  0.12079453  0.38226659  1
  Sr2+  Sr37  1  0.60837848  0.12031955  0.86615093  1
  Sr2+  Sr38  1  0.61831424  0.62701159  0.37562503  1
  Sr2+  Sr39  1  0.62325448  0.62568128  0.87326097  1
  Sr2+  Sr40  1  0.36892030  0.36761726  0.37622502  1
  Sr2+  Sr41  1  0.37755706  0.35399186  0.87859485  1
  Sr2+  Sr42  1  0.38052152  0.87871894  0.37325382  1
  Sr2+  Sr43  1  0.37530932  0.89715265  0.87985192  1
  Sr2+  Sr44  1  0.87228160  0.38174083  0.38158403  1
  Sr2+  Sr45  1  0.87579904  0.37682649  0.87178425  1
  Sr2+  Sr46  1  0.88099463  0.86975186  0.37796377  1
  Sr2+  Sr47  1  0.86564839  0.85977074  0.88747921  1
  Sr2+  Sr48  1  0.11031853  0.36617882  0.12392675  1
  Sr2+  Sr49  1  0.11854775  0.36447404  0.62301952  1
  Sr2+  Sr50  1  0.11351875  0.87949761  0.12832115  1
  Sr2+  Sr51  1  0.11184430  0.88323430  0.62808335  1
  Sr2+  Sr52  1  0.62386802  0.36939551  0.12577839  1
  Sr2+  Sr53  1  0.62899793  0.37078392  0.63338331  1
  Sr2+  Sr54  1  0.63084558  0.88396598  0.12601299  1
  Sr2+  Sr55  1  0.64052600  0.87876176  0.62570599  1
  Sr2+  Sr56  1  0.37084786  0.12576244  0.12478873  1
  Sr2+  Sr57  1  0.39134402  0.12974810  0.62293176  1
  Sr2+  Sr58  1  0.36304042  0.62626443  0.12597723  1
  Sr2+  Sr59  1  0.35915407  0.62976164  0.63709221  1
  Sr2+  Sr60  1  0.86845141  0.12632798  0.12758277  1
  Sr2+  Sr61  1  0.87167362  0.12350112  0.62209281  1
  Sr2+  Sr62  1  0.87317982  0.62483612  0.12646483  1
  Sr2+  Sr63  1  0.87578989  0.61631060  0.62865472  1
  Ca2+  Ca64  1  0.49572241  0.49989914  0.49788386  1
  Ca2+  Ca65  1  0.49925394  -0.00162545  0.50072183  1
  Ca2+  Ca66  1  0.00197809  -0.00444547  -0.00116368  1
  Ca2+  Ca67  1  0.00038154  0.49938880  0.49898015  1
  Ca2+  Ca68  1  0.50341210  -0.00062149  0.00149832  1
  Ca2+  Ca69  1  0.24740932  0.25263496  0.00067841  1
  Ca2+  Ca70  1  0.75079712  0.25331220  0.49830945  1
  Ca2+  Ca71  1  0.74874212  0.75060692  0.50008052  1
  Ca2+  Ca72  1  0.74781732  0.25167974  -0.00680697  1
  Ca2+  Ca73  1  0.25030810  0.75212387  0.49845721  1
  Ca2+  Ca74  1  0.49650614  0.74636794  0.75488178  1
  Ca2+  Ca75  1  -0.00152698  0.24505748  0.75049224  1
  Ca2+  Ca76  1  -0.00507093  0.75561655  0.75400146  1
  Ca2+  Ca77  1  0.50463823  0.25326016  0.74902395  1
  Ca2+  Ca78  1  0.24721178  -0.00284151  0.25154072  1
  Ca2+  Ca79  1  0.50189126  0.25196659  0.25179515  1
  Ca2+  Ca80  1  0.75219521  -0.00282604  0.75229841  1
  Ca2+  Ca81  1  0.00045900  0.25174903  0.25599266  1
  Ca2+  Ca82  1  0.24937931  0.49777410  0.75277803  1
  Ca2+  Ca83  1  0.25140108  -0.00136630  0.74443450  1
  Ca2+  Ca84  1  0.74777132  -0.00288719  0.25601287  1
  Nb5+  Nb85  1  0.49121262  0.50506547  0.00028307  1
  Nb5+  Nb86  1  0.00147482  0.00574589  0.49701653  1
  Nb5+  Nb87  1  -0.00641160  0.50205872  0.00332036  1
  Nb5+  Nb88  1  0.74156273  0.74924822  0.00433188  1
  Nb5+  Nb89  1  0.24474430  0.75034233  0.00443843  1
  Nb5+  Nb90  1  0.25016071  0.25036452  0.50200039  1
  Nb5+  Nb91  1  0.74552933  0.49731037  0.24931798  1
  Nb5+  Nb92  1  0.24195463  0.49893686  0.24559609  1
  Nb5+  Nb93  1  -0.00718818  0.74662611  0.24984892  1
  Nb5+  Nb94  1  0.49156563  0.74691735  0.24824568  1
  Nb5+  Nb95  1  0.74779126  0.49916747  0.75693812  1
  Nb5+  Nb96  1  0.00544026  0.00657822  0.25467735  1
  Nb5+  Nb97  1  -0.00469386  -0.00452222  0.76279214  1
  Nb5+  Nb98  1  -0.00682282  0.50107818  0.24685084  1
  Nb5+  Nb99  1  0.00131651  0.50107529  0.74665378  1
  Nb5+  Nb100  1  0.50336608  0.00408524  0.24815618  1
  Nb5+  Nb101  1  0.50472410  -0.00353909  0.74791186  1
  Nb5+  Nb102  1  0.49184229  0.50216585  0.24840093  1
  Nb5+  Nb103  1  0.49367139  0.50502495  0.74711667  1
  Nb5+  Nb104  1  0.24643843  0.24837143  0.24590424  1
  Nb5+  Nb105  1  0.24832729  0.25183477  0.75350407  1
  Nb5+  Nb106  1  0.24340060  0.74956688  0.24727685  1
  Nb5+  Nb107  1  0.25200352  0.75407445  0.74261788  1
  Nb5+  Nb108  1  0.74682467  0.24696625  0.25506211  1
  Nb5+  Nb109  1  0.74876261  0.24462144  0.75331757  1
  Nb5+  Nb110  1  0.74182734  0.74946684  0.24550808  1
  Nb5+  Nb111  1  0.75293339  0.74990727  0.74368208  1
  Nb5+  Nb112  1  -0.00298710  0.25226121  0.50126324  1
  Nb5+  Nb113  1  0.00511444  0.23920487  0.99531825  1
  Nb5+  Nb114  1  -0.00198621  0.74751398  0.50400129  1
  Nb5+  Nb115  1  -0.00409272  0.74699608  1.00315864  1
  Nb5+  Nb116  1  0.50567275  0.25502918  0.49712064  1
  Nb5+  Nb117  1  0.50441075  0.24489034  1.00329640  1
  Nb5+  Nb118  1  0.49376020  0.74658500  0.50916448  1
  Nb5+  Nb119  1  0.49080799  0.74700423  1.00236671  1
  Nb5+  Nb120  1  0.24849062  0.00461321  0.00488394  1
  Nb5+  Nb121  1  0.25203604  -0.00160462  0.49772533  1
  Nb5+  Nb122  1  0.24215965  0.49987055  0.00303869  1
  Nb5+  Nb123  1  0.25188719  0.49963337  0.50849472  1
  Nb5+  Nb124  1  0.74689769  0.00475192  -0.00388334  1
  Nb5+  Nb125  1  0.74550154  -0.00055300  0.49303426  1
  Nb5+  Nb126  1  0.74691962  0.50056799  0.00526541  1
  Nb5+  Nb127  1  0.74966859  0.50033750  0.51069358  1
  O2-  O128  1  0.02073471  0.00580722  0.13575444  1
  O2-  O129  1  0.01781752  0.01562345  0.61130819  1
  O2-  O130  1  -0.00258300  0.52663259  0.12197572  1
  O2-  O131  1  -0.00410260  0.52016359  0.63450159  1
  O2-  O132  1  0.52045887  -0.01962876  0.13374425  1
  O2-  O133  1  0.52255498  -0.02884636  0.63237143  1
  O2-  O134  1  0.50095382  0.49151716  0.12314643  1
  O2-  O135  1  0.48715228  0.48500151  0.63549500  1
  O2-  O136  1  -0.01856030  -0.01576334  0.37190199  1
  O2-  O137  1  -0.03004686  -0.03114465  0.86906233  1
  O2-  O138  1  0.01049028  0.48464478  0.35943778  1
  O2-  O139  1  0.00693528  0.49305893  0.88535787  1
  O2-  O140  1  0.47563028  0.00898838  0.36504782  1
  O2-  O141  1  0.48362801  0.02078612  0.86721871  1
  O2-  O142  1  0.52063458  0.51394477  0.35864904  1
  O2-  O143  1  0.51290894  0.52002911  0.88579045  1
  O2-  O144  1  0.24101220  0.27820340  0.13503949  1
  O2-  O145  1  0.23904937  0.26989603  0.61834000  1
  O2-  O146  1  0.27191507  0.75812165  0.12538792  1
  O2-  O147  1  0.27452091  0.77379402  0.63264129  1
  O2-  O148  1  0.73779528  0.23974731  0.13187680  1
  O2-  O149  1  0.72156757  0.24732132  0.63387019  1
  O2-  O150  1  0.75739632  0.71993934  0.12296197  1
  O2-  O151  1  0.76269112  0.71695212  0.63469993  1
  O2-  O152  1  0.25992565  0.23932801  0.37632050  1
  O2-  O153  1  0.26022123  0.23345946  0.86694292  1
  O2-  O154  1  0.23418762  0.72335487  0.35998051  1
  O2-  O155  1  0.23300205  0.72940538  0.88881846  1
  O2-  O156  1  0.76604763  0.28218270  0.36384172  1
  O2-  O157  1  0.78828761  0.25776776  0.86384995  1
  O2-  O158  1  0.73477635  0.75822831  0.35991557  1
  O2-  O159  1  0.73362130  0.76307627  0.88700667  1
  O2-  O160  1  0.01665408  0.23711106  0.11654316  1
  O2-  O161  1  0.02333937  0.22526742  0.61400339  1
  O2-  O162  1  -0.00485634  0.72494979  0.12975204  1
  O2-  O163  1  -0.02371328  0.73448945  0.61516291  1
  O2-  O164  1  0.50949226  0.27340533  0.11809565  1
  O2-  O165  1  0.50655156  0.27945349  0.61524097  1
  O2-  O166  1  0.48878990  0.75499369  0.12499874  1
  O2-  O167  1  0.46658597  0.75085978  0.61917542  1
  O2-  O168  1  0.25659880  0.03218212  0.38359499  1
  O2-  O169  1  0.27234754  0.01661805  0.88573248  1
  O2-  O170  1  0.23113314  0.51942123  0.36012607  1
  O2-  O171  1  0.23671114  0.52593173  0.88988551  1
  O2-  O172  1  0.78585091  -0.01739489  0.38346155  1
  O2-  O173  1  0.77894618  -0.02054575  0.88593852  1
  O2-  O174  1  0.74743044  0.48556727  0.36463677  1
  O2-  O175  1  0.74821270  0.49257173  0.87584874  1
  O2-  O176  1  -0.00786508  0.28344837  0.38711164  1
  O2-  O177  1  -0.01272041  0.27607833  0.88576713  1
  O2-  O178  1  0.02066061  0.75657561  0.36374273  1
  O2-  O179  1  0.02053142  0.76584194  0.89273227  1
  O2-  O180  1  0.48824297  0.22300759  0.38357675  1
  O2-  O181  1  0.48576715  0.23663450  0.88464296  1
  O2-  O182  1  0.51949592  0.73966744  0.36094648  1
  O2-  O183  1  0.52096426  0.73412718  0.89167464  1
  O2-  O184  1  0.22971713  -0.02617478  0.11744777  1
  O2-  O185  1  0.22115661  -0.01384963  0.61070025  1
  O2-  O186  1  0.26785991  0.49050505  0.12450523  1
  O2-  O187  1  0.28033239  0.48234603  0.61610077  1
  O2-  O188  1  0.73107834  0.01066717  0.11776151  1
  O2-  O189  1  0.73787171  0.02049775  0.61184396  1
  O2-  O190  1  0.75485596  0.52175056  0.12016115  1
  O2-  O191  1  0.75095686  0.51756281  0.62679967  1
  O2-  O192  1  0.13516394  0.28077000  0.26731445  1
  O2-  O193  1  0.13361007  0.28245869  0.75327897  1
  O2-  O194  1  0.12890062  0.76073580  0.22853390  1
  O2-  O195  1  0.13241214  0.76951059  0.73884844  1
  O2-  O196  1  0.63556170  0.28942742  0.25710886  1
  O2-  O197  1  0.63760640  0.28072965  0.77418049  1
  O2-  O198  1  0.62724444  0.75882133  0.22785067  1
  O2-  O199  1  0.63630851  0.76805260  0.74445752  1
  O2-  O200  1  0.36502318  0.23422858  0.24348381  1
  O2-  O201  1  0.36762125  0.23082109  0.73099515  1
  O2-  O202  1  0.37787126  0.72351550  0.25626702  1
  O2-  O203  1  0.36278526  0.72006643  0.76858633  1
  O2-  O204  1  0.86588947  0.23456156  0.23572975  1
  O2-  O205  1  0.86434442  0.23903823  0.71720538  1
  O2-  O206  1  0.87859649  0.72419533  0.25946072  1
  O2-  O207  1  0.86280417  0.73724464  0.78643759  1
  O2-  O208  1  0.27161763  0.38667994  0.26123655  1
  O2-  O209  1  0.28229823  0.36732466  0.76180129  1
  O2-  O210  1  0.27421596  0.85893232  0.26303421  1
  O2-  O211  1  0.26773717  0.86489946  0.78015554  1
  O2-  O212  1  0.77437163  0.38874756  0.22537953  1
  O2-  O213  1  0.77004671  0.38472737  0.74127340  1
  O2-  O214  1  0.77019045  0.85860560  0.22536339  1
  O2-  O215  1  0.77189174  0.86278694  0.72397030  1
  O2-  O216  1  0.22528463  0.13575870  0.23095073  1
  O2-  O217  1  0.22548914  0.13476576  0.73767432  1
  O2-  O218  1  0.24130442  0.62277110  0.22520689  1
  O2-  O219  1  0.22678174  0.63403519  0.72885386  1
  O2-  O220  1  0.72277274  0.13563308  0.27313737  1
  O2-  O221  1  0.72840738  0.13248142  0.76807142  1
  O2-  O222  1  0.73976358  0.62194642  0.25871993  1
  O2-  O223  1  0.73387920  0.62165415  0.76742803  1
  O2-  O224  1  0.12792298  0.48686399  0.22806977  1
  O2-  O225  1  0.11423211  0.47522106  0.74636081  1
  O2-  O226  1  0.11366425  0.96016380  0.26596077  1
  O2-  O227  1  0.11555882  0.98213924  0.76836910  1
  O2-  O228  1  0.63062785  0.48734852  0.23463407  1
  O2-  O229  1  0.63119917  0.48023070  0.74668632  1
  O2-  O230  1  0.61466417  0.96612060  0.27266655  1
  O2-  O231  1  0.61966173  0.97759597  0.77372522  1
  O2-  O232  1  0.38406876  0.01149620  0.22571645  1
  O2-  O233  1  0.38486183  0.01745078  0.72482911  1
  O2-  O234  1  0.37784712  0.52545516  0.25157747  1
  O2-  O235  1  0.38450737  0.53601484  0.76152920  1
  O2-  O236  1  0.88716907  0.01671954  0.23407401  1
  O2-  O237  1  0.88506872  0.02009117  0.72579648  1
  O2-  O238  1  0.87817882  0.52420023  0.25287763  1
  O2-  O239  1  0.86978676  0.52227916  0.75465319  1
  O2-  O240  1  0.47674948  0.38860871  0.25733849  1
  O2-  O241  1  0.48705210  0.39128433  0.77917116  1
  O2-  O242  1  0.47848416  0.86344138  0.25586758  1
  O2-  O243  1  0.47637330  0.88063257  0.76945063  1
  O2-  O244  1  0.98514218  0.38955663  0.21931056  1
  O2-  O245  1  0.97047598  0.38710804  0.74936853  1
  O2-  O246  1  0.97853761  0.86135138  0.23723803  1
  O2-  O247  1  0.98847471  0.88574136  0.71665449  1
  O2-  O248  1  0.03318326  0.11617334  0.26780822  1
  O2-  O249  1  0.01407597  0.11320893  0.77886500  1
  O2-  O250  1  0.02482657  0.62263307  0.25707624  1
  O2-  O251  1  0.01294524  0.61813582  0.76770302  1
  O2-  O252  1  0.53079150  0.11601070  0.23876989  1
  O2-  O253  1  0.52489146  0.11729816  0.73169849  1
  O2-  O254  1  0.51814848  0.62584021  0.23241136  1
  O2-  O255  1  0.53750453  0.61435689  0.74304254  1
  O2-  O256  1  0.12726762  0.48440878  0.01595209  1
  O2-  O257  1  0.13670974  0.47389283  0.50320713  1
  O2-  O258  1  0.13629933  0.97508498  -0.02509676  1
  O2-  O259  1  0.12001239  0.99273332  0.47758155  1
  O2-  O260  1  0.63199179  0.48700679  0.00668899  1
  O2-  O261  1  0.63628358  0.46800910  0.50663885  1
  O2-  O262  1  0.63849909  0.95943488  -0.01434865  1
  O2-  O263  1  0.63280396  0.98700003  0.46959859  1
  O2-  O264  1  0.36681357  0.00491482  0.02559756  1
  O2-  O265  1  0.36372234  0.01409398  0.52221547  1
  O2-  O266  1  0.37869147  0.52807722  -0.00070462  1
  O2-  O267  1  0.35972728  0.50610420  0.46271971  1
  O2-  O268  1  0.86598661  0.01614348  0.02220462  1
  O2-  O269  1  0.88213688  0.01863174  0.51196672  1
  O2-  O270  1  0.87950287  0.52794642  -0.00341261  1
  O2-  O271  1  0.86690265  0.53042381  0.49230313  1
  O2-  O272  1  0.48084738  0.38884007  -0.01184570  1
  O2-  O273  1  0.47945213  0.36725406  0.47231769  1
  O2-  O274  1  0.48171301  0.86104988  -0.00895495  1
  O2-  O275  1  0.47965145  0.86278619  0.48098955  1
  O2-  O276  1  0.98137118  0.38901859  0.02005744  1
  O2-  O277  1  0.98806586  0.36482230  0.53217702  1
  O2-  O278  1  0.98677730  0.85925410  0.03019454  1
  O2-  O279  1  0.98586587  0.88038935  0.50201299  1
  O2-  O280  1  0.03061554  0.12998208  -0.02376016  1
  O2-  O281  1  0.01177762  0.12273516  0.46911554  1
  O2-  O282  1  0.02769702  0.62654756  -0.00645029  1
  O2-  O283  1  0.02585130  0.63579470  0.49004942  1
  O2-  O284  1  0.53259550  0.13438038  0.01621972  1
  O2-  O285  1  0.51420779  0.13499041  0.52359942  1
  O2-  O286  1  0.52106371  0.62402809  0.01910877  1
  O2-  O287  1  0.52942246  0.63294490  0.50430073  1
  O2-  O288  1  0.11530066  0.28598591  -0.00732478  1
  O2-  O289  1  0.12768909  0.26041854  0.48523982  1
  O2-  O290  1  0.13068155  0.76052853  0.02519907  1
  O2-  O291  1  0.11388829  0.77679718  0.51427896  1
  O2-  O292  1  0.61553379  0.28697000  -0.01159013  1
  O2-  O293  1  0.61812555  0.26969401  0.48048906  1
  O2-  O294  1  0.62847341  0.76090290  0.02249805  1
  O2-  O295  1  0.61356129  0.77396066  0.51820457  1
  O2-  O296  1  0.38466359  0.24083661  0.01748291  1
  O2-  O297  1  0.36897042  0.23736437  0.51059587  1
  O2-  O298  1  0.37699779  0.72397186  -0.00522763  1
  O2-  O299  1  0.38346189  0.72470094  0.47213753  1
  O2-  O300  1  0.88666997  0.22790560  0.01466801  1
  O2-  O301  1  0.88511029  0.22496916  0.50866426  1
  O2-  O302  1  0.88126346  0.72628102  -0.00907032  1
  O2-  O303  1  0.88598816  0.74261249  0.46668354  1
  O2-  O304  1  0.27663155  0.39157884  -0.01249217  1
  O2-  O305  1  0.26037763  0.37022437  0.48171801  1
  O2-  O306  1  0.26945204  0.86287625  -0.01207130  1
  O2-  O307  1  0.25940426  0.88671652  0.46818540  1
  O2-  O308  1  0.77936191  0.39077021  0.00763792  1
  O2-  O309  1  0.78644468  0.38804178  0.50981699  1
  O2-  O310  1  0.77584022  0.85896452  0.02060597  1
  O2-  O311  1  0.76380474  0.88391487  0.52134422  1
  O2-  O312  1  0.22994913  0.11696664  0.02387948  1
  O2-  O313  1  0.23232378  0.13112201  0.51287760  1
  O2-  O314  1  0.24158112  0.62501880  0.02487717  1
  O2-  O315  1  0.23258683  0.61450437  0.52292169  1
  O2-  O316  1  0.72239789  0.11481938  -0.02386180  1
  O2-  O317  1  0.73958714  0.11858341  0.47277656  1
  O2-  O318  1  0.74150034  0.62436158  -0.01752181  1
  O2-  O319  1  0.72584664  0.61360061  0.47931907  1
