# generated using pymatgen
data_Sr64Ca21Nb43O192
_symmetry_space_group_name_H-M   'P 1'
_cell_length_a   16.60588407
_cell_length_b   16.58332503
_cell_length_c   16.71710144
_cell_angle_alpha   89.98726632
_cell_angle_beta   90.08179482
_cell_angle_gamma   89.97657156
_symmetry_Int_Tables_number   1
_chemical_formula_structural   Sr64Ca21Nb43O192
_chemical_formula_sum   'Sr64 Ca21 Nb43 O192'
_cell_volume   4603.56312507
_cell_formula_units_Z   1
loop_
 _symmetry_equiv_pos_site_id
 _symmetry_equiv_pos_as_xyz
  1  'x, y, z'
loop_
 _atom_type_symbol
 _atom_type_oxidation_number
  Sr2+  2.0
  Ca2+  2.0
  Nb5+  5.0
  O2-  -2.0
loop_
 _atom_site_type_symbol
 _atom_site_label
 _atom_site_symmetry_multiplicity
 _atom_site_fract_x
 _atom_site_fract_y
 _atom_site_fract_z
 _atom_site_occupancy
  Sr2+  Sr0  1  0.11306953  0.11679822  0.12763759  1
  Sr2+  Sr1  1  0.11956949  0.10977344  0.63021392  1
  Sr2+  Sr2  1  0.12454566  0.62697669  0.11343912  1
  Sr2+  Sr3  1  0.12106597  0.64021258  0.62797908  1
  Sr2+  Sr4  1  0.62560940  0.10877220  0.13200573  1
  Sr2+  Sr5  1  0.61160666  0.11723691  0.62523382  1
  Sr2+  Sr6  1  0.61244180  0.63346392  0.12215869  1
  Sr2+  Sr7  1  0.61801755  0.63277642  0.62446844  1
  Sr2+  Sr8  1  0.36846734  0.37640152  0.11174465  1
  Sr2+  Sr9  1  0.36862336  0.37146194  0.62636153  1
  Sr2+  Sr10  1  0.37055712  0.86872813  0.12893681  1
  Sr2+  Sr11  1  0.36778066  0.87936872  0.62119767  1
  Sr2+  Sr12  1  0.86744902  0.36626530  0.12763403  1
  Sr2+  Sr13  1  0.86281976  0.37505711  0.63080696  1
  Sr2+  Sr14  1  0.86983750  0.87972395  0.11783999  1
  Sr2+  Sr15  1  0.87715891  0.86841269  0.62082466  1
  Sr2+  Sr16  1  0.11718965  0.37177387  0.37230453  1
  Sr2+  Sr17  1  0.10806653  0.37670821  0.87137628  1
  Sr2+  Sr18  1  0.12962737  0.88347401  0.37561984  1
  Sr2+  Sr19  1  0.12855730  0.88058207  0.88896638  1
  Sr2+  Sr20  1  0.64207362  0.38308811  0.37809286  1
  Sr2+  Sr21  1  0.64514306  0.37974177  0.87139684  1
  Sr2+  Sr22  1  0.63888017  0.87221415  0.37241968  1
  Sr2+  Sr23  1  0.63897492  0.88081364  0.86801174  1
  Sr2+  Sr24  1  0.38193716  0.13640603  0.37599218  1
  Sr2+  Sr25  1  0.39128093  0.13134301  0.87219851  1
  Sr2+  Sr26  1  0.38332209  0.62548233  0.36745837  1
  Sr2+  Sr27  1  0.38411980  0.62430586  0.87760769  1
  Sr2+  Sr28  1  0.88605997  0.12787157  0.37506230  1
  Sr2+  Sr29  1  0.88172075  0.13116566  0.88266117  1
  Sr2+  Sr30  1  0.88284474  0.61048811  0.37411120  1
  Sr2+  Sr31  1  0.87478461  0.62341511  0.87036925  1
  Sr2+  Sr32  1  0.12825254  0.13716369  0.37206421  1
  Sr2+  Sr33  1  0.12998059  0.13574602  0.88198958  1
  Sr2+  Sr34  1  0.13749705  0.61756361  0.37056691  1
  Sr2+  Sr35  1  0.13247729  0.61876303  0.86837487  1
  Sr2+  Sr36  1  0.63953227  0.13085091  0.37923141  1
  Sr2+  Sr37  1  0.62903547  0.13380637  0.86011705  1
  Sr2+  Sr38  1  0.62404297  0.61669749  0.37419267  1
  Sr2+  Sr39  1  0.63224095  0.62257642  0.88138316  1
  Sr2+  Sr40  1  0.37391123  0.38310028  0.37568826  1
  Sr2+  Sr41  1  0.38070098  0.37921765  0.86477865  1
  Sr2+  Sr42  1  0.38602559  0.87819041  0.37118329  1
  Sr2+  Sr43  1  0.38389588  0.89555000  0.87895727  1
  Sr2+  Sr44  1  0.88203054  0.36865094  0.37193477  1
  Sr2+  Sr45  1  0.87335419  0.37467285  0.87805723  1
  Sr2+  Sr46  1  0.88442326  0.88470776  0.37730962  1
  Sr2+  Sr47  1  0.88271467  0.87164687  0.87277257  1
  Sr2+  Sr48  1  0.10837036  0.37428220  0.13031905  1
  Sr2+  Sr49  1  0.12014333  0.37742590  0.63037324  1
  Sr2+  Sr50  1  0.11522120  0.86521124  0.12246288  1
  Sr2+  Sr51  1  0.11676291  0.87361498  0.61993711  1
  Sr2+  Sr52  1  0.62753637  0.37373536  0.10710863  1
  Sr2+  Sr53  1  0.61948051  0.37440003  0.62198694  1
  Sr2+  Sr54  1  0.63125042  0.87652324  0.13212620  1
  Sr2+  Sr55  1  0.64565249  0.87297158  0.62923876  1
  Sr2+  Sr56  1  0.36688268  0.11696761  0.12550365  1
  Sr2+  Sr57  1  0.37035229  0.12815581  0.63090114  1
  Sr2+  Sr58  1  0.36882523  0.62812301  0.12299784  1
  Sr2+  Sr59  1  0.36672612  0.62390300  0.62358189  1
  Sr2+  Sr60  1  0.85870134  0.12375152  0.12457637  1
  Sr2+  Sr61  1  0.86383288  0.11277065  0.62326959  1
  Sr2+  Sr62  1  0.88420419  0.62159997  0.12898543  1
  Sr2+  Sr63  1  0.85538155  0.63969379  0.62760095  1
  Ca2+  Ca64  1  -0.00051907  0.00044636  0.00554878  1
  Ca2+  Ca65  1  0.00189269  0.50126267  -0.00276094  1
  Ca2+  Ca66  1  0.50322701  0.00146431  0.00116740  1
  Ca2+  Ca67  1  0.00280127  0.49975609  0.50467678  1
  Ca2+  Ca68  1  0.49953376  -0.00336561  0.49825895  1
  Ca2+  Ca69  1  0.74711321  0.24751471  -0.00084045  1
  Ca2+  Ca70  1  0.74843120  0.74809046  0.49374699  1
  Ca2+  Ca71  1  0.74882126  0.74988733  0.00365589  1
  Ca2+  Ca72  1  0.75135361  0.25094425  0.50149250  1
  Ca2+  Ca73  1  0.25099350  0.25464740  -0.00109363  1
  Ca2+  Ca74  1  0.74770140  0.50023466  0.24706386  1
  Ca2+  Ca75  1  0.00085158  0.75133915  0.25370580  1
  Ca2+  Ca76  1  0.24679125  0.00006943  0.75253854  1
  Ca2+  Ca77  1  0.24936056  -0.00032512  0.25100966  1
  Ca2+  Ca78  1  0.74639549  0.50062306  0.74563921  1
  Ca2+  Ca79  1  0.00213605  0.24619087  0.74611435  1
  Ca2+  Ca80  1  0.49800554  0.74981193  0.75022460  1
  Ca2+  Ca81  1  0.00151487  0.75283086  0.75276575  1
  Ca2+  Ca82  1  0.75476892  0.00373843  0.74939949  1
  Ca2+  Ca83  1  0.49982282  0.25216086  0.24997060  1
  Ca2+  Ca84  1  0.24950817  0.49660904  0.24881440  1
  Nb5+  Nb85  1  0.50029011  0.49892614  -0.00676579  1
  Nb5+  Nb86  1  -0.00081219  0.00242046  0.50153754  1
  Nb5+  Nb87  1  0.49751304  0.49921728  0.49533114  1
  Nb5+  Nb88  1  0.25264392  0.74988293  -0.00958260  1
  Nb5+  Nb89  1  0.25217742  0.75326835  0.49282622  1
  Nb5+  Nb90  1  0.25071367  0.25651697  0.50067337  1
  Nb5+  Nb91  1  0.25069694  0.49873149  0.74910658  1
  Nb5+  Nb92  1  -0.00074050  0.24782204  0.24865363  1
  Nb5+  Nb93  1  0.49824198  0.74995816  0.24926093  1
  Nb5+  Nb94  1  0.75266604  -0.00190337  0.25426017  1
  Nb5+  Nb95  1  0.50143268  0.25441966  0.74976394  1
  Nb5+  Nb96  1  -0.00174752  -0.00239836  0.24891604  1
  Nb5+  Nb97  1  0.00109701  -0.00000013  0.75921130  1
  Nb5+  Nb98  1  0.00263289  0.50431843  0.25298893  1
  Nb5+  Nb99  1  -0.00638570  0.50235313  0.74287946  1
  Nb5+  Nb100  1  0.50030240  0.00541489  0.25926570  1
  Nb5+  Nb101  1  0.49692671  -0.00665622  0.74549953  1
  Nb5+  Nb102  1  0.49668194  0.49842370  0.24000758  1
  Nb5+  Nb103  1  0.50207211  0.50215639  0.74176201  1
  Nb5+  Nb104  1  0.25034690  0.25153994  0.24440942  1
  Nb5+  Nb105  1  0.25042921  0.24858012  0.75096074  1
  Nb5+  Nb106  1  0.24741181  0.75154568  0.24451174  1
  Nb5+  Nb107  1  0.25750957  0.75287920  0.74549461  1
  Nb5+  Nb108  1  0.74583575  0.25171245  0.25589951  1
  Nb5+  Nb109  1  0.75618259  0.24740905  0.74470934  1
  Nb5+  Nb110  1  0.75258004  0.74242492  0.24894824  1
  Nb5+  Nb111  1  0.74894084  0.75018190  0.75403205  1
  Nb5+  Nb112  1  -0.00019666  0.24734540  0.50587014  1
  Nb5+  Nb113  1  -0.00058598  0.25255426  0.99891057  1
  Nb5+  Nb114  1  -0.00037533  0.74446444  0.49345640  1
  Nb5+  Nb115  1  -0.00272172  0.74558423  0.99923779  1
  Nb5+  Nb116  1  0.50029873  0.25183822  0.49718454  1
  Nb5+  Nb117  1  0.50572649  0.24584405  1.00352938  1
  Nb5+  Nb118  1  0.49624966  0.75003595  0.50226599  1
  Nb5+  Nb119  1  0.49628704  0.75629469  1.00110434  1
  Nb5+  Nb120  1  0.24874220  0.00799707  0.00318203  1
  Nb5+  Nb121  1  0.24916974  0.01097990  0.49847673  1
  Nb5+  Nb122  1  0.25136281  0.49777687  -0.00408914  1
  Nb5+  Nb123  1  0.24948441  0.50371382  0.50228324  1
  Nb5+  Nb124  1  0.74705236  0.00306672  -0.00615223  1
  Nb5+  Nb125  1  0.74762913  -0.00349765  0.50099158  1
  Nb5+  Nb126  1  0.75572251  0.50464729  0.00178643  1
  Nb5+  Nb127  1  0.75625643  0.50440174  0.50125822  1
  O2-  O128  1  -0.02135873  0.02862027  0.13920922  1
  O2-  O129  1  -0.01314988  0.02254229  0.61636436  1
  O2-  O130  1  0.01673125  0.51925096  0.13452958  1
  O2-  O131  1  0.03827474  0.51676219  0.63461761  1
  O2-  O132  1  0.49164875  0.02108999  0.14084498  1
  O2-  O133  1  0.47884739  0.02363737  0.63049175  1
  O2-  O134  1  0.51207478  0.51328416  0.12530475  1
  O2-  O135  1  0.50859701  0.51772469  0.62521252  1
  O2-  O136  1  0.00823639  -0.01335247  0.37386270  1
  O2-  O137  1  0.00980983  -0.02256756  0.87103280  1
  O2-  O138  1  -0.01354984  0.47641623  0.36979284  1
  O2-  O139  1  -0.01511703  0.47567646  0.86123896  1
  O2-  O140  1  0.51779618  -0.03857285  0.36703733  1
  O2-  O141  1  0.51998793  -0.01950399  0.86350483  1
  O2-  O142  1  0.48096669  0.49186581  0.37987701  1
  O2-  O143  1  0.48748357  0.48975751  0.87699531  1
  O2-  O144  1  0.24001698  0.28514109  0.13575982  1
  O2-  O145  1  0.24042337  0.27186979  0.62041121  1
  O2-  O146  1  0.25617314  0.76077533  0.12668423  1
  O2-  O147  1  0.26546759  0.76153340  0.62426055  1
  O2-  O148  1  0.74036903  0.26543638  0.13864578  1
  O2-  O149  1  0.73581765  0.28038937  0.63225096  1
  O2-  O150  1  0.75491861  0.78359957  0.13844667  1
  O2-  O151  1  0.76221353  0.77069652  0.63109189  1
  O2-  O152  1  0.26107117  0.22549575  0.38551446  1
  O2-  O153  1  0.26808298  0.22525514  0.86310941  1
  O2-  O154  1  0.24319785  0.72789994  0.37918432  1
  O2-  O155  1  0.24635640  0.73032798  0.87480632  1
  O2-  O156  1  0.77010966  0.22230207  0.36867652  1
  O2-  O157  1  0.75838862  0.22223411  0.86368201  1
  O2-  O158  1  0.71858976  0.73596368  0.36066505  1
  O2-  O159  1  0.73923230  0.72684454  0.87017841  1
  O2-  O160  1  0.01910842  0.23541098  0.13301611  1
  O2-  O161  1  0.03243737  0.23049318  0.61341717  1
  O2-  O162  1  0.00647762  0.72308442  0.11925953  1
  O2-  O163  1  -0.00044615  0.74536846  0.61227341  1
  O2-  O164  1  0.53232178  0.23463034  0.11547173  1
  O2-  O165  1  0.51168493  0.24392861  0.62459727  1
  O2-  O166  1  0.48473361  0.73029802  0.12771680  1
  O2-  O167  1  0.48700296  0.72319860  0.61362957  1
  O2-  O168  1  0.21720877  0.01008258  0.38611949  1
  O2-  O169  1  0.21821948  0.00924652  0.88670602  1
  O2-  O170  1  0.26678210  0.51873738  0.38861149  1
  O2-  O171  1  0.27253590  0.52019303  0.86640831  1
  O2-  O172  1  0.73561658  0.01491270  0.37613443  1
  O2-  O173  1  0.72482123  0.01973244  0.88304301  1
  O2-  O174  1  0.74992610  0.52888435  0.38271165  1
  O2-  O175  1  0.74860929  0.52228423  0.88158882  1
  O2-  O176  1  -0.00674297  0.25976681  0.37549257  1
  O2-  O177  1  -0.02002566  0.26540856  0.88375762  1
  O2-  O178  1  0.01285756  0.78704859  0.38602421  1
  O2-  O179  1  0.01073641  0.78005325  0.88680087  1
  O2-  O180  1  0.46907894  0.26810006  0.38700687  1
  O2-  O181  1  0.47980944  0.26446846  0.86804025  1
  O2-  O182  1  0.49551431  0.75656305  0.37089100  1
  O2-  O183  1  0.49293242  0.76088591  0.88702706  1
  O2-  O184  1  0.28162501  -0.01454376  0.11692461  1
  O2-  O185  1  0.25574660  -0.02403108  0.61102854  1
  O2-  O186  1  0.24017274  0.48351063  0.11010118  1
  O2-  O187  1  0.24953818  0.47818193  0.62644573  1
  O2-  O188  1  0.76547353  -0.01464746  0.13752498  1
  O2-  O189  1  0.77465762  -0.02031481  0.61426414  1
  O2-  O190  1  0.74360469  0.46993381  0.11469365  1
  O2-  O191  1  0.73856368  0.47045853  0.61246773  1
  O2-  O192  1  0.12092540  0.26456679  0.26433195  1
  O2-  O193  1  0.13855597  0.27404848  0.76449256  1
  O2-  O194  1  0.13518151  0.78109532  0.25048671  1
  O2-  O195  1  0.14013395  0.75546539  0.73912373  1
  O2-  O196  1  0.63333960  0.26251373  0.27947125  1
  O2-  O197  1  0.61717121  0.27137995  0.76187122  1
  O2-  O198  1  0.61434036  0.76521741  0.23669838  1
  O2-  O199  1  0.63027632  0.77741448  0.74456341  1
  O2-  O200  1  0.36373029  0.22227058  0.23830490  1
  O2-  O201  1  0.37623395  0.24134445  0.73137931  1
  O2-  O202  1  0.37325958  0.72830451  0.25301788  1
  O2-  O203  1  0.36531419  0.70875506  0.75391707  1
  O2-  O204  1  0.88027317  0.23310712  0.23954979  1
  O2-  O205  1  0.86800359  0.22878036  0.72535448  1
  O2-  O206  1  0.86475376  0.72351862  0.26527381  1
  O2-  O207  1  0.86767115  0.72607198  0.75892641  1
  O2-  O208  1  0.26026793  0.36164963  0.28570877  1
  O2-  O209  1  0.27398410  0.37568552  0.75807887  1
  O2-  O210  1  0.27651851  0.86378543  0.27074140  1
  O2-  O211  1  0.27982184  0.86258454  0.76634337  1
  O2-  O212  1  0.76919435  0.36466032  0.27321134  1
  O2-  O213  1  0.76972602  0.36507125  0.77260304  1
  O2-  O214  1  0.76268814  0.87950337  0.27474232  1
  O2-  O215  1  0.76696686  0.86951886  0.77619010  1
  O2-  O216  1  0.22103750  0.13554663  0.23538083  1
  O2-  O217  1  0.23899600  0.13657934  0.72054128  1
  O2-  O218  1  0.22401507  0.63442667  0.23882243  1
  O2-  O219  1  0.23483529  0.61422598  0.72670495  1
  O2-  O220  1  0.73501609  0.12107837  0.23787818  1
  O2-  O221  1  0.71934229  0.13601937  0.72443379  1
  O2-  O222  1  0.72962911  0.63459535  0.21806614  1
  O2-  O223  1  0.72627248  0.63392106  0.72553105  1
  O2-  O224  1  0.11722919  0.47256684  0.26108249  1
  O2-  O225  1  0.13768701  0.48041847  0.76648548  1
  O2-  O226  1  0.11154564  0.97980192  0.23362242  1
  O2-  O227  1  0.11372293  0.97363835  0.72691679  1
  O2-  O228  1  0.60960525  0.48642506  0.27009439  1
  O2-  O229  1  0.61226719  0.46831160  0.75158721  1
  O2-  O230  1  0.62940493  0.98436914  0.24153012  1
  O2-  O231  1  0.61489417  0.98813112  0.72505106  1
  O2-  O232  1  0.38559557  0.01676268  0.27665082  1
  O2-  O233  1  0.38234215  0.02311737  0.77182630  1
  O2-  O234  1  0.38264671  0.52991627  0.24319264  1
  O2-  O235  1  0.37942133  0.51015460  0.73855409  1
  O2-  O236  1  0.87027389  0.01760134  0.27220081  1
  O2-  O237  1  0.88746477  0.04005417  0.76117390  1
  O2-  O238  1  0.88378510  0.51605591  0.23964471  1
  O2-  O239  1  0.88248443  0.51935764  0.72007800  1
  O2-  O240  1  0.46899182  0.38606871  0.23324632  1
  O2-  O241  1  0.47828765  0.37497657  0.73523320  1
  O2-  O242  1  0.48001588  0.86786911  0.23402192  1
  O2-  O243  1  0.47000352  0.88244013  0.73040018  1
  O2-  O244  1  0.98315472  0.36722812  0.23572820  1
  O2-  O245  1  0.99162734  0.38249836  0.72252808  1
  O2-  O246  1  0.96834195  0.88637346  0.23480903  1
  O2-  O247  1  0.96717398  0.88797049  0.73399476  1
  O2-  O248  1  0.01325678  0.12679054  0.27005242  1
  O2-  O249  1  0.03869799  0.11560829  0.76651752  1
  O2-  O250  1  0.01819203  0.61645013  0.27991556  1
  O2-  O251  1  0.01886211  0.61520998  0.77262236  1
  O2-  O252  1  0.52224770  0.11585142  0.28375217  1
  O2-  O253  1  0.51271589  0.13488167  0.76015361  1
  O2-  O254  1  0.51602619  0.62750273  0.26136878  1
  O2-  O255  1  0.52263217  0.61212279  0.76876176  1
  O2-  O256  1  0.13963185  0.48880881  -0.03011166  1
  O2-  O257  1  0.13965482  0.47190724  0.49140432  1
  O2-  O258  1  0.13626326  0.97318535  0.02568769  1
  O2-  O259  1  0.11958301  0.98491623  0.51395518  1
  O2-  O260  1  0.61659176  0.48146730  -0.00824432  1
  O2-  O261  1  0.61372243  0.48311140  0.49062929  1
  O2-  O262  1  0.63465143  0.97722258  0.02510162  1
  O2-  O263  1  0.63429961  0.97390992  0.51386813  1
  O2-  O264  1  0.36546019  0.01931428  -0.02609137  1
  O2-  O265  1  0.36214499  0.01688338  0.47699391  1
  O2-  O266  1  0.37926346  0.52043807  0.01070762  1
  O2-  O267  1  0.37545633  0.51048495  0.51723790  1
  O2-  O268  1  0.86534039  0.02559181  -0.00727338  1
  O2-  O269  1  0.87948105  0.01810432  0.48260848  1
  O2-  O270  1  0.86791005  0.53128074  0.00649276  1
  O2-  O271  1  0.86812580  0.53061223  0.51314998  1
  O2-  O272  1  0.48088383  0.38202312  0.01529994  1
  O2-  O273  1  0.48036776  0.38054242  0.51782564  1
  O2-  O274  1  0.46852095  0.86684618  0.01640410  1
  O2-  O275  1  0.46078826  0.85984777  0.50771910  1
  O2-  O276  1  0.98505357  0.36826070  0.03002881  1
  O2-  O277  1  0.98323628  0.36177635  0.51680399  1
  O2-  O278  1  0.99031301  0.86335564  0.02945203  1
  O2-  O279  1  0.98579284  0.88311582  0.51428802  1
  O2-  O280  1  0.02556849  0.13563446  -0.00902668  1
  O2-  O281  1  0.02065662  0.12214869  0.47925985  1
  O2-  O282  1  0.03374340  0.63444608  -0.02105326  1
  O2-  O283  1  0.02854624  0.63487803  0.47455932  1
  O2-  O284  1  0.52174754  0.13674081  -0.02838386  1
  O2-  O285  1  0.51609690  0.13681609  0.48474397  1
  O2-  O286  1  0.51389420  0.62136501  -0.01017335  1
  O2-  O287  1  0.50931345  0.62132805  0.48240101  1
  O2-  O288  1  0.11782761  0.27624024  -0.01442177  1
  O2-  O289  1  0.13222842  0.26345308  0.48354913  1
  O2-  O290  1  0.13743782  0.76568320  0.00772231  1
  O2-  O291  1  0.13489968  0.76157434  0.51101076  1
  O2-  O292  1  0.61417599  0.28504434  -0.01973457  1
  O2-  O293  1  0.61266480  0.27583589  0.48473088  1
  O2-  O294  1  0.61001956  0.76716398  0.01683284  1
  O2-  O295  1  0.60881260  0.77159709  0.50691926  1
  O2-  O296  1  0.38836371  0.23763824  0.02396033  1
  O2-  O297  1  0.37140204  0.23328785  0.51944576  1
  O2-  O298  1  0.37123508  0.72521294  0.00304343  1
  O2-  O299  1  0.36703232  0.71970198  0.49239157  1
  O2-  O300  1  0.88333735  0.23270911  0.01984235  1
  O2-  O301  1  0.88805947  0.22224983  0.51560773  1
  O2-  O302  1  0.88460685  0.72234226  -0.00622496  1
  O2-  O303  1  0.88556861  0.72607039  0.48551755  1
  O2-  O304  1  0.28185876  0.38758641  -0.02307883  1
  O2-  O305  1  0.27327795  0.37082843  0.48767249  1
  O2-  O306  1  0.27177882  0.86584968  -0.01906696  1
  O2-  O307  1  0.26607219  0.86702942  0.47950002  1
  O2-  O308  1  0.76442035  0.38540154  -0.02271260  1
  O2-  O309  1  0.76755127  0.38724000  0.47044259  1
  O2-  O310  1  0.77382905  0.88537868  -0.01630972  1
  O2-  O311  1  0.77119092  0.88195247  0.47464751  1
  O2-  O312  1  0.22999443  0.11961826  0.02543073  1
  O2-  O313  1  0.23470816  0.12422860  0.52214266  1
  O2-  O314  1  0.24025806  0.62461013  0.00943749  1
  O2-  O315  1  0.23247331  0.61864504  0.52182833  1
  O2-  O316  1  0.73072598  0.11597895  0.03024933  1
  O2-  O317  1  0.72990697  0.11403772  0.51728194  1
  O2-  O318  1  0.71677767  0.61517978  0.02007049  1
  O2-  O319  1  0.72014853  0.61685070  0.52233076  1
