# generated using pymatgen
data_Sr64Ca21Nb43O192
_symmetry_space_group_name_H-M   'P 1'
_cell_length_a   16.60018128
_cell_length_b   16.57873477
_cell_length_c   16.73174588
_cell_angle_alpha   90.04280775
_cell_angle_beta   90.02517200
_cell_angle_gamma   90.06790834
_symmetry_Int_Tables_number   1
_chemical_formula_structural   Sr64Ca21Nb43O192
_chemical_formula_sum   'Sr64 Ca21 Nb43 O192'
_cell_volume   4604.73886148
_cell_formula_units_Z   1
loop_
 _symmetry_equiv_pos_site_id
 _symmetry_equiv_pos_as_xyz
  1  'x, y, z'
loop_
 _atom_type_symbol
 _atom_type_oxidation_number
  Sr2+  2.0
  Ca2+  2.0
  Nb5+  5.0
  O2-  -2.0
loop_
 _atom_site_type_symbol
 _atom_site_label
 _atom_site_symmetry_multiplicity
 _atom_site_fract_x
 _atom_site_fract_y
 _atom_site_fract_z
 _atom_site_occupancy
  Sr2+  Sr0  1  0.13028886  0.11614112  0.12637293  1
  Sr2+  Sr1  1  0.13236885  0.12605258  0.64465786  1
  Sr2+  Sr2  1  0.13362242  0.60997900  0.11742516  1
  Sr2+  Sr3  1  0.12772354  0.60875074  0.62468668  1
  Sr2+  Sr4  1  0.63085657  0.12255339  0.12370930  1
  Sr2+  Sr5  1  0.62831023  0.11990631  0.62889857  1
  Sr2+  Sr6  1  0.63206922  0.60451795  0.12641004  1
  Sr2+  Sr7  1  0.63408740  0.61119948  0.63233524  1
  Sr2+  Sr8  1  0.38558389  0.36849319  0.12456622  1
  Sr2+  Sr9  1  0.38353323  0.36421657  0.63018085  1
  Sr2+  Sr10  1  0.37890399  0.86254786  0.12765396  1
  Sr2+  Sr11  1  0.38239067  0.86495388  0.62889467  1
  Sr2+  Sr12  1  0.87536528  0.37172541  0.12682604  1
  Sr2+  Sr13  1  0.87568514  0.38599175  0.61895468  1
  Sr2+  Sr14  1  0.88575000  0.86116208  0.12475151  1
  Sr2+  Sr15  1  0.87730734  0.86993266  0.62455285  1
  Sr2+  Sr16  1  0.12428838  0.37655321  0.37944452  1
  Sr2+  Sr17  1  0.12822715  0.37905917  0.87087890  1
  Sr2+  Sr18  1  0.13813345  0.87856308  0.37390624  1
  Sr2+  Sr19  1  0.12636396  0.87703401  0.86697380  1
  Sr2+  Sr20  1  0.61548991  0.38504359  0.37512847  1
  Sr2+  Sr21  1  0.61064539  0.37699396  0.87496200  1
  Sr2+  Sr22  1  0.61375965  0.87774547  0.38353009  1
  Sr2+  Sr23  1  0.61219381  0.88287002  0.87786584  1
  Sr2+  Sr24  1  0.36692739  0.12659038  0.37657087  1
  Sr2+  Sr25  1  0.36560600  0.13750063  0.87128619  1
  Sr2+  Sr26  1  0.36263376  0.63395562  0.37898288  1
  Sr2+  Sr27  1  0.35801451  0.63612155  0.87700690  1
  Sr2+  Sr28  1  0.88028300  0.13508466  0.37639385  1
  Sr2+  Sr29  1  0.87108989  0.13070377  0.88080001  1
  Sr2+  Sr30  1  0.86869314  0.62798923  0.37295607  1
  Sr2+  Sr31  1  0.88290869  0.63267664  0.87342533  1
  Sr2+  Sr32  1  0.12579032  0.11984174  0.37173567  1
  Sr2+  Sr33  1  0.11646060  0.13118874  0.88029879  1
  Sr2+  Sr34  1  0.11735939  0.62101433  0.37898312  1
  Sr2+  Sr35  1  0.12518072  0.61276352  0.87153129  1
  Sr2+  Sr36  1  0.62091896  0.12417411  0.38509701  1
  Sr2+  Sr37  1  0.62640197  0.12750170  0.88207981  1
  Sr2+  Sr38  1  0.61989848  0.63604885  0.36772088  1
  Sr2+  Sr39  1  0.61318953  0.63930477  0.86715901  1
  Sr2+  Sr40  1  0.36384229  0.38813110  0.37779657  1
  Sr2+  Sr41  1  0.36350324  0.39429984  0.86884230  1
  Sr2+  Sr42  1  0.37014858  0.88529218  0.38126709  1
  Sr2+  Sr43  1  0.36937822  0.87836242  0.87529664  1
  Sr2+  Sr44  1  0.87391980  0.38303835  0.37531207  1
  Sr2+  Sr45  1  0.86847346  0.38464514  0.87672104  1
  Sr2+  Sr46  1  0.87198387  0.87233117  0.37518246  1
  Sr2+  Sr47  1  0.88160405  0.88398550  0.87383059  1
  Sr2+  Sr48  1  0.13976549  0.36549834  0.12157329  1
  Sr2+  Sr49  1  0.15005385  0.37276946  0.62608613  1
  Sr2+  Sr50  1  0.13379821  0.87185758  0.12662716  1
  Sr2+  Sr51  1  0.13548029  0.86558869  0.62780453  1
  Sr2+  Sr52  1  0.62686173  0.36912955  0.13160227  1
  Sr2+  Sr53  1  0.63022754  0.36802193  0.62941083  1
  Sr2+  Sr54  1  0.63389987  0.86537098  0.11881747  1
  Sr2+  Sr55  1  0.64040278  0.87505811  0.62992657  1
  Sr2+  Sr56  1  0.38894777  0.11716240  0.12702087  1
  Sr2+  Sr57  1  0.38445136  0.12409866  0.63584718  1
  Sr2+  Sr58  1  0.39030587  0.61594431  0.11969100  1
  Sr2+  Sr59  1  0.39185978  0.61275401  0.62897351  1
  Sr2+  Sr60  1  0.88652685  0.12145563  0.12606087  1
  Sr2+  Sr61  1  0.86692660  0.12597778  0.62283469  1
  Sr2+  Sr62  1  0.87324888  0.62139520  0.12737190  1
  Sr2+  Sr63  1  0.88067125  0.62485118  0.62993339  1
  Ca2+  Ca64  1  0.50194606  0.49861641  0.49954785  1
  Ca2+  Ca65  1  -0.00076414  -0.00085916  0.49858560  1
  Ca2+  Ca66  1  0.50241770  0.49901349  -0.00383026  1
  Ca2+  Ca67  1  0.00030811  0.49767963  0.50000836  1
  Ca2+  Ca68  1  0.00063114  0.49904236  0.00089403  1
  Ca2+  Ca69  1  0.24951166  0.25126141  0.00153612  1
  Ca2+  Ca70  1  0.25148671  0.24847116  0.50058964  1
  Ca2+  Ca71  1  0.24974687  0.74898546  0.50189397  1
  Ca2+  Ca72  1  0.24460558  0.75312032  0.00177722  1
  Ca2+  Ca73  1  0.74989267  0.74784544  0.00055669  1
  Ca2+  Ca74  1  0.75070958  0.49853059  0.75143803  1
  Ca2+  Ca75  1  -0.00459095  0.24867681  0.74913451  1
  Ca2+  Ca76  1  0.24975431  0.49925725  0.24830841  1
  Ca2+  Ca77  1  0.25372298  0.50496050  0.74631862  1
  Ca2+  Ca78  1  0.49816060  0.75094454  0.24820993  1
  Ca2+  Ca79  1  0.50369625  0.24749637  0.25250641  1
  Ca2+  Ca80  1  0.50412447  0.24826361  0.75201082  1
  Ca2+  Ca81  1  0.50159040  0.75292871  0.74816847  1
  Ca2+  Ca82  1  0.24906893  0.00078032  0.75307427  1
  Ca2+  Ca83  1  0.74918230  0.00064870  0.75419332  1
  Ca2+  Ca84  1  0.75030147  -0.00022864  0.25083891  1
  Nb5+  Nb85  1  0.00703030  -0.00226820  0.00318491  1
  Nb5+  Nb86  1  0.49828122  -0.00272181  0.50969065  1
  Nb5+  Nb87  1  0.50318992  -0.00173935  0.00786719  1
  Nb5+  Nb88  1  0.74964307  0.75053049  0.50106912  1
  Nb5+  Nb89  1  0.75002586  0.25388575  0.50363578  1
  Nb5+  Nb90  1  0.74988880  0.25071118  0.00703506  1
  Nb5+  Nb91  1  0.00447795  0.74256961  0.24601964  1
  Nb5+  Nb92  1  0.75281958  0.49720161  0.25037429  1
  Nb5+  Nb93  1  0.00176982  0.75305145  0.74306501  1
  Nb5+  Nb94  1  0.00215597  0.24867060  0.24958692  1
  Nb5+  Nb95  1  0.25385858  0.00240114  0.24710511  1
  Nb5+  Nb96  1  0.00120728  -0.00780762  0.25270599  1
  Nb5+  Nb97  1  -0.00338613  0.00221069  0.74626526  1
  Nb5+  Nb98  1  0.00171751  0.49143587  0.24540614  1
  Nb5+  Nb99  1  -0.00427915  0.49368207  0.74929380  1
  Nb5+  Nb100  1  0.50487255  -0.00418337  0.25365806  1
  Nb5+  Nb101  1  0.49896538  0.00292344  0.76228072  1
  Nb5+  Nb102  1  0.49444965  0.50271239  0.25392590  1
  Nb5+  Nb103  1  0.50298417  0.49981459  0.75119628  1
  Nb5+  Nb104  1  0.25696604  0.24953055  0.24644231  1
  Nb5+  Nb105  1  0.24897705  0.25285484  0.75224551  1
  Nb5+  Nb106  1  0.24800293  0.74310732  0.24933930  1
  Nb5+  Nb107  1  0.25282657  0.74882329  0.74384326  1
  Nb5+  Nb108  1  0.75077329  0.24950007  0.25786539  1
  Nb5+  Nb109  1  0.75223563  0.25089074  0.76052618  1
  Nb5+  Nb110  1  0.74955105  0.75102689  0.25105569  1
  Nb5+  Nb111  1  0.75288309  0.75322205  0.76001058  1
  Nb5+  Nb112  1  0.00119713  0.24714175  0.50157382  1
  Nb5+  Nb113  1  -0.00415091  0.25411351  0.99969766  1
  Nb5+  Nb114  1  0.00076633  0.75309012  0.49354921  1
  Nb5+  Nb115  1  0.00330328  0.75034926  0.99425785  1
  Nb5+  Nb116  1  0.49809284  0.24689695  0.49612546  1
  Nb5+  Nb117  1  0.49533250  0.24839082  0.99737873  1
  Nb5+  Nb118  1  0.50117438  0.74477513  0.50483986  1
  Nb5+  Nb119  1  0.50069636  0.74628925  1.00297299  1
  Nb5+  Nb120  1  0.25806753  0.00247311  0.00039537  1
  Nb5+  Nb121  1  0.25004617  0.00402944  0.50841428  1
  Nb5+  Nb122  1  0.25229877  0.50154284  0.00176712  1
  Nb5+  Nb123  1  0.25373998  0.50187441  0.49892448  1
  Nb5+  Nb124  1  0.75853065  -0.00059599  0.00469615  1
  Nb5+  Nb125  1  0.75003495  0.00342938  0.49535981  1
  Nb5+  Nb126  1  0.74611182  0.50131312  -0.00703093  1
  Nb5+  Nb127  1  0.74976024  0.50643321  0.49605161  1
  O2-  O128  1  -0.01654777  -0.00407262  0.12743573  1
  O2-  O129  1  -0.03311822  0.00547315  0.63507120  1
  O2-  O130  1  -0.02933333  0.50876780  0.13425961  1
  O2-  O131  1  -0.02955607  0.50467455  0.63278161  1
  O2-  O132  1  0.47601936  -0.01683890  0.11915665  1
  O2-  O133  1  0.47634428  -0.01447758  0.62041756  1
  O2-  O134  1  0.48421587  0.48169834  0.13514781  1
  O2-  O135  1  0.47433698  0.48340179  0.63267933  1
  O2-  O136  1  0.03218096  -0.00720212  0.36331390  1
  O2-  O137  1  0.02188008  -0.00239064  0.88666268  1
  O2-  O138  1  0.02211119  0.50112194  0.36195444  1
  O2-  O139  1  0.02259505  0.50133333  0.86610650  1
  O2-  O140  1  0.51688176  0.01044543  0.36813046  1
  O2-  O141  1  0.51892437  0.01647415  0.87750312  1
  O2-  O142  1  0.53399507  0.51545756  0.36487674  1
  O2-  O143  1  0.54043807  0.51161451  0.86584943  1
  O2-  O144  1  0.21920379  0.23461468  0.13563643  1
  O2-  O145  1  0.23399691  0.23085979  0.63308495  1
  O2-  O146  1  0.21136937  0.74318063  0.13868890  1
  O2-  O147  1  0.21339522  0.73494221  0.63212717  1
  O2-  O148  1  0.73477416  0.24367315  0.12343009  1
  O2-  O149  1  0.73472838  0.23947992  0.61720028  1
  O2-  O150  1  0.73803174  0.72652550  0.13789093  1
  O2-  O151  1  0.73342398  0.73592460  0.61535395  1
  O2-  O152  1  0.25694459  0.26622176  0.36274449  1
  O2-  O153  1  0.26140765  0.27504133  0.86921790  1
  O2-  O154  1  0.26350415  0.77750197  0.36238191  1
  O2-  O155  1  0.26017624  0.77446689  0.86255718  1
  O2-  O156  1  0.77365859  0.25748920  0.37168763  1
  O2-  O157  1  0.77034727  0.25996331  0.87672181  1
  O2-  O158  1  0.77317322  0.75297144  0.37371579  1
  O2-  O159  1  0.78512286  0.76171291  0.86902006  1
  O2-  O160  1  0.00514369  0.25471252  0.12703499  1
  O2-  O161  1  0.00271090  0.22501112  0.61284624  1
  O2-  O162  1  0.01498501  0.75963170  0.13162334  1
  O2-  O163  1  0.00617994  0.76461807  0.62635864  1
  O2-  O164  1  0.51763544  0.26453583  0.11334227  1
  O2-  O165  1  0.52639889  0.25764303  0.61047604  1
  O2-  O166  1  0.51135642  0.78559716  0.11565767  1
  O2-  O167  1  0.52159506  0.78719807  0.61268513  1
  O2-  O168  1  0.24163384  -0.01452771  0.36506676  1
  O2-  O169  1  0.23963505  -0.02476067  0.88953946  1
  O2-  O170  1  0.23444831  0.47109001  0.38048941  1
  O2-  O171  1  0.23138851  0.48302527  0.88256688  1
  O2-  O172  1  0.71864531  -0.01538881  0.38309299  1
  O2-  O173  1  0.72805441  -0.01324028  0.89210722  1
  O2-  O174  1  0.73641955  0.48076692  0.37028777  1
  O2-  O175  1  0.73534866  0.46641723  0.88494952  1
  O2-  O176  1  -0.02287392  0.25818698  0.36333977  1
  O2-  O177  1  -0.01695688  0.23310816  0.88718345  1
  O2-  O178  1  -0.01753645  0.74145808  0.37664057  1
  O2-  O179  1  -0.01563343  0.75394531  0.87799887  1
  O2-  O180  1  0.49679224  0.21060762  0.38330350  1
  O2-  O181  1  0.50158547  0.21303663  0.88546928  1
  O2-  O182  1  0.48982467  0.73404160  0.38614620  1
  O2-  O183  1  0.48254284  0.73275260  0.88520996  1
  O2-  O184  1  0.26162566  0.02787909  0.12790871  1
  O2-  O185  1  0.26418199  0.03204345  0.61739440  1
  O2-  O186  1  0.26847683  0.53162374  0.11760456  1
  O2-  O187  1  0.26635420  0.53308112  0.61316570  1
  O2-  O188  1  0.75671681  0.03369448  0.11743352  1
  O2-  O189  1  0.76304341  0.00628688  0.61313348  1
  O2-  O190  1  0.77010179  0.51071962  0.13135227  1
  O2-  O191  1  0.77236405  0.51455813  0.60990151  1
  O2-  O192  1  0.11511733  0.27137541  0.26342807  1
  O2-  O193  1  0.12912099  0.27949453  0.75634675  1
  O2-  O194  1  0.11525563  0.77102665  0.27446793  1
  O2-  O195  1  0.11506896  0.77429241  0.76141154  1
  O2-  O196  1  0.63960013  0.28268526  0.26147563  1
  O2-  O197  1  0.63764697  0.28211875  0.76193520  1
  O2-  O198  1  0.63753956  0.76948036  0.27042005  1
  O2-  O199  1  0.63801696  0.77374797  0.77541404  1
  O2-  O200  1  0.36730759  0.22285830  0.23344358  1
  O2-  O201  1  0.36743618  0.22803597  0.74138022  1
  O2-  O202  1  0.36001995  0.72772741  0.22641377  1
  O2-  O203  1  0.36527983  0.73172871  0.72343976  1
  O2-  O204  1  0.87153614  0.23471174  0.23083358  1
  O2-  O205  1  0.86280915  0.20994792  0.74155227  1
  O2-  O206  1  0.88349755  0.73147348  0.24040342  1
  O2-  O207  1  0.87769221  0.73426765  0.73368582  1
  O2-  O208  1  0.27162648  0.36424058  0.22592753  1
  O2-  O209  1  0.27129911  0.37062786  0.72727279  1
  O2-  O210  1  0.25791569  0.88434716  0.22919123  1
  O2-  O211  1  0.26121138  0.86846988  0.72155949  1
  O2-  O212  1  0.77567076  0.37717746  0.24035686  1
  O2-  O213  1  0.78211484  0.36241210  0.73221439  1
  O2-  O214  1  0.77891914  0.86282053  0.23699953  1
  O2-  O215  1  0.76886650  0.86513117  0.72531013  1
  O2-  O216  1  0.22875211  0.12373339  0.26400008  1
  O2-  O217  1  0.22212345  0.13502784  0.77526227  1
  O2-  O218  1  0.22241006  0.63439366  0.27297569  1
  O2-  O219  1  0.22792873  0.63669806  0.77108265  1
  O2-  O220  1  0.72478867  0.13708434  0.26256945  1
  O2-  O221  1  0.71601048  0.13506439  0.75776010  1
  O2-  O222  1  0.74249188  0.62057806  0.26738303  1
  O2-  O223  1  0.73165838  0.63675584  0.75598113  1
  O2-  O224  1  0.11386022  0.47984656  0.22025919  1
  O2-  O225  1  0.11286585  0.48864085  0.72374873  1
  O2-  O226  1  0.12403817  0.99334799  0.22719802  1
  O2-  O227  1  0.11084182  0.97160872  0.73506338  1
  O2-  O228  1  0.63666597  0.48340037  0.23206554  1
  O2-  O229  1  0.62043872  0.48184501  0.71912959  1
  O2-  O230  1  0.61349473  0.96822846  0.22947166  1
  O2-  O231  1  0.61281787  0.97582121  0.73729843  1
  O2-  O232  1  0.36957481  0.02319084  0.25951582  1
  O2-  O233  1  0.38148220  0.02691470  0.77057509  1
  O2-  O234  1  0.38406583  0.52658985  0.27352874  1
  O2-  O235  1  0.38747354  0.52698210  0.77638057  1
  O2-  O236  1  0.88933724  0.02105439  0.26949499  1
  O2-  O237  1  0.88495155  0.01229094  0.78731556  1
  O2-  O238  1  0.87542397  0.51456187  0.27109975  1
  O2-  O239  1  0.88305366  0.52961246  0.77297682  1
  O2-  O240  1  0.48327809  0.38334494  0.27162854  1
  O2-  O241  1  0.48091193  0.38244747  0.77044710  1
  O2-  O242  1  0.46362459  0.88571137  0.26147696  1
  O2-  O243  1  0.47104302  0.88670256  0.76576629  1
  O2-  O244  1  0.97719167  0.37615529  0.24641257  1
  O2-  O245  1  0.96828610  0.38219353  0.75482863  1
  O2-  O246  1  0.98232598  0.87603444  0.25234370  1
  O2-  O247  1  0.97532477  0.87345530  0.75668181  1
  O2-  O248  1  0.01503893  0.13034296  0.24748664  1
  O2-  O249  1  0.02716408  0.11308457  0.75673047  1
  O2-  O250  1  0.02123660  0.62810204  0.24580934  1
  O2-  O251  1  0.01581495  0.63596904  0.74771538  1
  O2-  O252  1  0.51447427  0.10981308  0.22255618  1
  O2-  O253  1  0.51539892  0.11337276  0.72380025  1
  O2-  O254  1  0.52477177  0.61738562  0.22792610  1
  O2-  O255  1  0.52329382  0.61994225  0.72988984  1
  O2-  O256  1  0.13315963  0.47833685  0.02401495  1
  O2-  O257  1  0.13415254  0.48215246  0.51883587  1
  O2-  O258  1  0.11979504  0.98570799  0.02376241  1
  O2-  O259  1  0.13626669  0.98191116  0.51713185  1
  O2-  O260  1  0.63755658  0.47532760  0.03107351  1
  O2-  O261  1  0.63875957  0.47190975  0.51191368  1
  O2-  O262  1  0.61934942  0.98492939  0.02099044  1
  O2-  O263  1  0.62136749  0.97965432  0.51740684  1
  O2-  O264  1  0.37390900  0.02260014  -0.01287587  1
  O2-  O265  1  0.38284163  0.01714385  0.48068419  1
  O2-  O266  1  0.36900618  0.52442462  -0.02320309  1
  O2-  O267  1  0.37067438  0.51873357  0.47101951  1
  O2-  O268  1  0.87277626  0.01698946  -0.01243526  1
  O2-  O269  1  0.86196585  0.01010199  0.46871749  1
  O2-  O270  1  0.86283516  0.52431045  -0.01409104  1
  O2-  O271  1  0.86501562  0.50742367  0.46939735  1
  O2-  O272  1  0.48297600  0.36092081  -0.02724293  1
  O2-  O273  1  0.48705152  0.35939135  0.47336634  1
  O2-  O274  1  0.48206156  0.88644750  -0.02440577  1
  O2-  O275  1  0.48951390  0.88091914  0.47714503  1
  O2-  O276  1  0.96417473  0.36465088  -0.00264859  1
  O2-  O277  1  0.96716415  0.36002150  0.49767636  1
  O2-  O278  1  0.97119638  0.88334018  0.00088127  1
  O2-  O279  1  0.96160676  0.86482896  0.49720304  1
  O2-  O280  1  0.00896093  0.11970113  0.01260009  1
  O2-  O281  1  0.00472900  0.13377334  0.46690442  1
  O2-  O282  1  0.02875903  0.63880162  -0.00073551  1
  O2-  O283  1  0.01594437  0.63749046  0.51159929  1
  O2-  O284  1  0.51810413  0.11763078  0.02000663  1
  O2-  O285  1  0.52503304  0.11381760  0.51316238  1
  O2-  O286  1  0.52159704  0.63525332  0.02586452  1
  O2-  O287  1  0.52633234  0.63483606  0.52666449  1
  O2-  O288  1  0.10963745  0.27214528  -0.01031551  1
  O2-  O289  1  0.11303714  0.27083734  0.48803053  1
  O2-  O290  1  0.11055133  0.79433374  -0.00705820  1
  O2-  O291  1  0.11174248  0.78096135  0.48593683  1
  O2-  O292  1  0.63307389  0.26196164  -0.01443204  1
  O2-  O293  1  0.63509630  0.25791370  0.47345369  1
  O2-  O294  1  0.61661291  0.77735152  -0.01735945  1
  O2-  O295  1  0.63264464  0.76055595  0.47620177  1
  O2-  O296  1  0.38424109  0.22375271  0.01474312  1
  O2-  O297  1  0.38768060  0.22348034  0.51645936  1
  O2-  O298  1  0.38162267  0.74091493  0.02086740  1
  O2-  O299  1  0.38696289  0.73371909  0.52248553  1
  O2-  O300  1  0.87054364  0.22528824  0.01728907  1
  O2-  O301  1  0.86520257  0.22197278  0.50541549  1
  O2-  O302  1  0.88847264  0.73726719  0.02478864  1
  O2-  O303  1  0.86743927  0.72545487  0.51066310  1
  O2-  O304  1  0.27590079  0.38502100  0.02434947  1
  O2-  O305  1  0.27676072  0.38359423  0.52270624  1
  O2-  O306  1  0.26321007  0.89013124  0.03303787  1
  O2-  O307  1  0.27851404  0.88880141  0.51073854  1
  O2-  O308  1  0.77341449  0.36751848  0.01278545  1
  O2-  O309  1  0.76943373  0.36825058  0.50740828  1
  O2-  O310  1  0.76539820  0.88641076  0.03037600  1
  O2-  O311  1  0.76344151  0.86815461  0.50631379  1
  O2-  O312  1  0.22181987  0.11467355  -0.01167493  1
  O2-  O313  1  0.24109934  0.11410272  0.46746717  1
  O2-  O314  1  0.22316940  0.62070996  -0.01685153  1
  O2-  O315  1  0.23322458  0.61903907  0.46792546  1
  O2-  O316  1  0.73720147  0.12956626  -0.01483319  1
  O2-  O317  1  0.73186156  0.12042995  0.49099591  1
  O2-  O318  1  0.71886594  0.61327807  -0.01866633  1
  O2-  O319  1  0.73139553  0.62151018  0.47887971  1
