# generated using pymatgen
data_Sr64Ca21Nb43O192
_symmetry_space_group_name_H-M   'P 1'
_cell_length_a   16.52638628
_cell_length_b   16.54005369
_cell_length_c   16.69774423
_cell_angle_alpha   89.97061009
_cell_angle_beta   90.00937476
_cell_angle_gamma   90.00233416
_symmetry_Int_Tables_number   1
_chemical_formula_structural   Sr64Ca21Nb43O192
_chemical_formula_sum   'Sr64 Ca21 Nb43 O192'
_cell_volume   4564.28291047
_cell_formula_units_Z   1
loop_
 _symmetry_equiv_pos_site_id
 _symmetry_equiv_pos_as_xyz
  1  'x, y, z'
loop_
 _atom_type_symbol
 _atom_type_oxidation_number
  Sr2+  2.0
  Ca2+  2.0
  Nb5+  5.0
  O2-  -2.0
loop_
 _atom_site_type_symbol
 _atom_site_label
 _atom_site_symmetry_multiplicity
 _atom_site_fract_x
 _atom_site_fract_y
 _atom_site_fract_z
 _atom_site_occupancy
  Sr2+  Sr0  1  0.10829760  0.11507360  0.12194362  1
  Sr2+  Sr1  1  0.11832732  0.12798602  0.62758430  1
  Sr2+  Sr2  1  0.12334539  0.63253470  0.12926608  1
  Sr2+  Sr3  1  0.11504362  0.63479208  0.62294261  1
  Sr2+  Sr4  1  0.62098866  0.12514308  0.12832978  1
  Sr2+  Sr5  1  0.61372841  0.13995511  0.62053627  1
  Sr2+  Sr6  1  0.61194543  0.63976109  0.13228916  1
  Sr2+  Sr7  1  0.62215212  0.63793309  0.61632506  1
  Sr2+  Sr8  1  0.36514405  0.38680286  0.12882967  1
  Sr2+  Sr9  1  0.36677309  0.36613210  0.61599725  1
  Sr2+  Sr10  1  0.37587932  0.86560819  0.12263031  1
  Sr2+  Sr11  1  0.37529920  0.87830557  0.62587757  1
  Sr2+  Sr12  1  0.86771388  0.37802299  0.12057768  1
  Sr2+  Sr13  1  0.86979817  0.38978551  0.63261600  1
  Sr2+  Sr14  1  0.86790750  0.88659966  0.12862346  1
  Sr2+  Sr15  1  0.86723773  0.86116984  0.62366651  1
  Sr2+  Sr16  1  0.13820565  0.36791220  0.37311549  1
  Sr2+  Sr17  1  0.12444627  0.36507744  0.87829793  1
  Sr2+  Sr18  1  0.12789722  0.87924627  0.38091440  1
  Sr2+  Sr19  1  0.13711047  0.87276432  0.87319075  1
  Sr2+  Sr20  1  0.62939316  0.36741157  0.38630338  1
  Sr2+  Sr21  1  0.63843190  0.37090737  0.87474931  1
  Sr2+  Sr22  1  0.63951446  0.87556689  0.37487581  1
  Sr2+  Sr23  1  0.62613792  0.87550367  0.86575984  1
  Sr2+  Sr24  1  0.37899594  0.13385799  0.37745421  1
  Sr2+  Sr25  1  0.36362109  0.11881391  0.87386984  1
  Sr2+  Sr26  1  0.38209747  0.61679585  0.37748258  1
  Sr2+  Sr27  1  0.38044073  0.62655666  0.87541276  1
  Sr2+  Sr28  1  0.89483431  0.12007732  0.36851276  1
  Sr2+  Sr29  1  0.87140650  0.13403952  0.87668847  1
  Sr2+  Sr30  1  0.88655686  0.62000767  0.38441133  1
  Sr2+  Sr31  1  0.88769008  0.61017560  0.87062439  1
  Sr2+  Sr32  1  0.12712099  0.12879759  0.36946208  1
  Sr2+  Sr33  1  0.12841451  0.11501028  0.86764203  1
  Sr2+  Sr34  1  0.13058547  0.61038398  0.38097944  1
  Sr2+  Sr35  1  0.13231418  0.62432598  0.87914933  1
  Sr2+  Sr36  1  0.62683510  0.12257845  0.37666183  1
  Sr2+  Sr37  1  0.63228706  0.12333095  0.87405466  1
  Sr2+  Sr38  1  0.63794010  0.61183574  0.37599592  1
  Sr2+  Sr39  1  0.62611408  0.61262961  0.87295691  1
  Sr2+  Sr40  1  0.37708841  0.35907329  0.37329748  1
  Sr2+  Sr41  1  0.38726458  0.37050939  0.87815417  1
  Sr2+  Sr42  1  0.38192738  0.88974184  0.37938307  1
  Sr2+  Sr43  1  0.38067575  0.87408805  0.87319135  1
  Sr2+  Sr44  1  0.88240138  0.36985299  0.37467878  1
  Sr2+  Sr45  1  0.87918929  0.37100437  0.87829774  1
  Sr2+  Sr46  1  0.88435880  0.87422935  0.37599489  1
  Sr2+  Sr47  1  0.88067622  0.87296978  0.86719878  1
  Sr2+  Sr48  1  0.12226188  0.38134657  0.13218388  1
  Sr2+  Sr49  1  0.11934743  0.36947168  0.63479035  1
  Sr2+  Sr50  1  0.10285565  0.86611200  0.12121285  1
  Sr2+  Sr51  1  0.10480787  0.88258487  0.62764113  1
  Sr2+  Sr52  1  0.61216391  0.37746409  0.12241711  1
  Sr2+  Sr53  1  0.61226176  0.38453563  0.61816423  1
  Sr2+  Sr54  1  0.61777180  0.88169634  0.12739815  1
  Sr2+  Sr55  1  0.62317530  0.86969034  0.62145004  1
  Sr2+  Sr56  1  0.37317544  0.12189555  0.12995979  1
  Sr2+  Sr57  1  0.36453801  0.12778251  0.61605476  1
  Sr2+  Sr58  1  0.36394497  0.63021471  0.13142073  1
  Sr2+  Sr59  1  0.36561985  0.63225351  0.62066675  1
  Sr2+  Sr60  1  0.86421523  0.12220748  0.13095377  1
  Sr2+  Sr61  1  0.87528323  0.13235417  0.62922341  1
  Sr2+  Sr62  1  0.87045449  0.63241256  0.12200237  1
  Sr2+  Sr63  1  0.85754603  0.62787605  0.62370029  1
  Ca2+  Ca64  1  0.00177358  0.49357634  0.50146997  1
  Ca2+  Ca65  1  -0.00412605  -0.00101269  -0.00354678  1
  Ca2+  Ca66  1  -0.00064192  0.00166162  0.50106516  1
  Ca2+  Ca67  1  0.49804086  0.50331077  0.50041676  1
  Ca2+  Ca68  1  0.50443136  0.00005560  0.50283461  1
  Ca2+  Ca69  1  0.24788672  0.25136546  0.00172061  1
  Ca2+  Ca70  1  0.75588323  0.24698195  0.49997927  1
  Ca2+  Ca71  1  0.74872490  0.74974735  -0.00070834  1
  Ca2+  Ca72  1  0.24316691  0.24931633  0.50004572  1
  Ca2+  Ca73  1  0.24941256  0.75164657  0.50240327  1
  Ca2+  Ca74  1  0.25135486  0.50050767  0.75341450  1
  Ca2+  Ca75  1  0.49871514  0.25201022  0.75109812  1
  Ca2+  Ca76  1  -0.00146207  0.25098878  0.24439676  1
  Ca2+  Ca77  1  0.25186986  -0.00236760  0.24474112  1
  Ca2+  Ca78  1  0.00149981  0.74650097  0.25471944  1
  Ca2+  Ca79  1  0.74623021  0.49925025  0.75032644  1
  Ca2+  Ca80  1  0.74799551  0.00111641  0.74556435  1
  Ca2+  Ca81  1  0.75169926  0.49862533  0.24870346  1
  Ca2+  Ca82  1  0.50305376  0.25208771  0.24573117  1
  Ca2+  Ca83  1  -0.00078823  0.74805271  0.75068019  1
  Ca2+  Ca84  1  0.49835400  0.75332839  0.25226428  1
  Nb5+  Nb85  1  0.49929851  -0.00289945  -0.00125662  1
  Nb5+  Nb86  1  -0.00413963  0.49964274  0.00264200  1
  Nb5+  Nb87  1  0.49321748  0.49835764  0.00330914  1
  Nb5+  Nb88  1  0.74826456  0.25073094  0.00017374  1
  Nb5+  Nb89  1  0.25032250  0.75054007  0.00149644  1
  Nb5+  Nb90  1  0.74915262  0.74861220  0.49607181  1
  Nb5+  Nb91  1  0.49754046  0.75043227  0.74924802  1
  Nb5+  Nb92  1  -0.00217748  0.24931329  0.75121794  1
  Nb5+  Nb93  1  0.74866256  0.00069374  0.25271854  1
  Nb5+  Nb94  1  0.25181610  0.50111695  0.25409877  1
  Nb5+  Nb95  1  0.25084239  -0.00318625  0.74755133  1
  Nb5+  Nb96  1  0.00500247  -0.00543449  0.24638335  1
  Nb5+  Nb97  1  -0.00714437  0.00057039  0.75337949  1
  Nb5+  Nb98  1  -0.00247211  0.50053746  0.24916354  1
  Nb5+  Nb99  1  0.00749045  0.50079666  0.74963535  1
  Nb5+  Nb100  1  0.50126925  0.00191932  0.25396850  1
  Nb5+  Nb101  1  0.49999109  0.00346673  0.74930121  1
  Nb5+  Nb102  1  0.50204955  0.49642200  0.25567043  1
  Nb5+  Nb103  1  0.49603893  0.50346407  0.74730370  1
  Nb5+  Nb104  1  0.24732463  0.24414888  0.24236224  1
  Nb5+  Nb105  1  0.25306359  0.25237632  0.75703064  1
  Nb5+  Nb106  1  0.24897291  0.75035759  0.25911093  1
  Nb5+  Nb107  1  0.24792477  0.75033050  0.74872470  1
  Nb5+  Nb108  1  0.75049283  0.25127246  0.25209101  1
  Nb5+  Nb109  1  0.74695148  0.25469329  0.74339247  1
  Nb5+  Nb110  1  0.75211615  0.74772126  0.24672727  1
  Nb5+  Nb111  1  0.74752467  0.74614930  0.75627770  1
  Nb5+  Nb112  1  -0.00103012  0.25058921  0.49655401  1
  Nb5+  Nb113  1  0.00043070  0.24690700  0.99981267  1
  Nb5+  Nb114  1  0.00305050  0.75037777  0.50335814  1
  Nb5+  Nb115  1  -0.00744120  0.74739474  0.99633923  1
  Nb5+  Nb116  1  0.50028989  0.25088613  0.50192800  1
  Nb5+  Nb117  1  0.49912711  0.24061672  0.99377093  1
  Nb5+  Nb118  1  0.49940223  0.75438587  0.49065184  1
  Nb5+  Nb119  1  0.50173772  0.74679273  0.99826833  1
  Nb5+  Nb120  1  0.24789278  -0.00130680  0.00480424  1
  Nb5+  Nb121  1  0.24897469  0.00121988  0.49363816  1
  Nb5+  Nb122  1  0.24555488  0.50023096  -0.00108685  1
  Nb5+  Nb123  1  0.24861737  0.49618733  0.50866434  1
  Nb5+  Nb124  1  0.75029049  -0.00084816  -0.00333710  1
  Nb5+  Nb125  1  0.75456066  0.00141943  0.50413578  1
  Nb5+  Nb126  1  0.74034614  0.50248386  0.00367392  1
  Nb5+  Nb127  1  0.75371197  0.49356029  0.49633877  1
  O2-  O128  1  -0.01623331  0.02106958  0.12997169  1
  O2-  O129  1  -0.00079198  0.02789203  0.63856885  1
  O2-  O130  1  0.02420569  0.51517936  0.11638548  1
  O2-  O131  1  0.03076741  0.50547986  0.63656666  1
  O2-  O132  1  0.49457688  0.02629380  0.11481508  1
  O2-  O133  1  0.47999044  0.02136130  0.63802696  1
  O2-  O134  1  0.52178267  0.52018465  0.11653029  1
  O2-  O135  1  0.52327086  0.52379732  0.63785833  1
  O2-  O136  1  0.00868411  -0.02300373  0.36374615  1
  O2-  O137  1  0.02272814  -0.02321178  0.86566430  1
  O2-  O138  1  -0.01686693  0.47989812  0.36169236  1
  O2-  O139  1  -0.01471138  0.48298209  0.88171879  1
  O2-  O140  1  0.51468560  -0.02247853  0.36507082  1
  O2-  O141  1  0.51235926  -0.01926638  0.87918484  1
  O2-  O142  1  0.47009835  0.48278854  0.36438664  1
  O2-  O143  1  0.47720857  0.49621532  0.88474866  1
  O2-  O144  1  0.25899437  0.28205822  0.13135153  1
  O2-  O145  1  0.25086357  0.26340969  0.63923784  1
  O2-  O146  1  0.27070434  0.75857880  0.11770194  1
  O2-  O147  1  0.27893583  0.76356984  0.63868633  1
  O2-  O148  1  0.77241881  0.25667854  0.11504485  1
  O2-  O149  1  0.77811195  0.26670665  0.63398302  1
  O2-  O150  1  0.78055637  0.76247616  0.13505911  1
  O2-  O151  1  0.75409357  0.76048252  0.62309709  1
  O2-  O152  1  0.24023889  0.23127222  0.36366635  1
  O2-  O153  1  0.22605657  0.22706576  0.86951527  1
  O2-  O154  1  0.21899972  0.73696931  0.36848511  1
  O2-  O155  1  0.23956073  0.73689654  0.87746790  1
  O2-  O156  1  0.72373552  0.23897593  0.36319875  1
  O2-  O157  1  0.73948231  0.23301603  0.87711625  1
  O2-  O158  1  0.72664474  0.74034790  0.37945587  1
  O2-  O159  1  0.71617620  0.73733622  0.86688402  1
  O2-  O160  1  -0.01441537  0.22280624  0.11081252  1
  O2-  O161  1  -0.00326106  0.23070865  0.63350616  1
  O2-  O162  1  -0.00471254  0.72155876  0.11244243  1
  O2-  O163  1  -0.02187348  0.71898988  0.61952185  1
  O2-  O164  1  0.49253278  0.22899896  0.10859339  1
  O2-  O165  1  0.48524020  0.22466587  0.61998918  1
  O2-  O166  1  0.48044950  0.73557733  0.11355781  1
  O2-  O167  1  0.48810561  0.72803933  0.63542885  1
  O2-  O168  1  0.23020857  0.01650328  0.38042791  1
  O2-  O169  1  0.24191402  0.00888834  0.88042367  1
  O2-  O170  1  0.26345344  0.52394165  0.36674014  1
  O2-  O171  1  0.26077229  0.53220987  0.88832110  1
  O2-  O172  1  0.72912024  0.00893789  0.36743754  1
  O2-  O173  1  0.72823343  0.01022849  0.88290141  1
  O2-  O174  1  0.76982799  0.52626064  0.38147422  1
  O2-  O175  1  0.76590248  0.52015292  0.88960777  1
  O2-  O176  1  0.00000628  0.26860764  0.38161576  1
  O2-  O177  1  0.00107763  0.27113482  0.87313395  1
  O2-  O178  1  0.01169730  0.78074751  0.38833830  1
  O2-  O179  1  0.02162103  0.76804071  0.88444347  1
  O2-  O180  1  0.50955104  0.27396593  0.38240618  1
  O2-  O181  1  0.51836421  0.28261456  0.88404371  1
  O2-  O182  1  0.50589625  0.79066205  0.38326935  1
  O2-  O183  1  0.50809750  0.77407553  0.87982543  1
  O2-  O184  1  0.28517211  -0.01677423  0.11267496  1
  O2-  O185  1  0.26906870  -0.01483066  0.63433968  1
  O2-  O186  1  0.24094180  0.48957891  0.12119978  1
  O2-  O187  1  0.24059069  0.46522077  0.61934325  1
  O2-  O188  1  0.75442903  -0.00969865  0.12257707  1
  O2-  O189  1  0.78702819  -0.00999281  0.61394418  1
  O2-  O190  1  0.74082099  0.46509529  0.11440920  1
  O2-  O191  1  0.73534838  0.47513002  0.61493082  1
  O2-  O192  1  0.13258140  0.27795291  0.24541004  1
  O2-  O193  1  0.12002342  0.26107891  0.74668005  1
  O2-  O194  1  0.13807313  0.76444617  0.22090774  1
  O2-  O195  1  0.13539092  0.77989210  0.73883825  1
  O2-  O196  1  0.63912938  0.26332294  0.21501785  1
  O2-  O197  1  0.63345211  0.27922580  0.72980625  1
  O2-  O198  1  0.63518126  0.77564452  0.23631379  1
  O2-  O199  1  0.61617573  0.77221908  0.73935225  1
  O2-  O200  1  0.36714208  0.23036636  0.25523275  1
  O2-  O201  1  0.36508683  0.22426800  0.76429028  1
  O2-  O202  1  0.36409662  0.71820930  0.26168763  1
  O2-  O203  1  0.37608522  0.73958830  0.77192253  1
  O2-  O204  1  0.86427415  0.21674353  0.25510360  1
  O2-  O205  1  0.87788276  0.22910317  0.76022114  1
  O2-  O206  1  0.86450572  0.73039607  0.28100994  1
  O2-  O207  1  0.86226726  0.72768581  0.77230893  1
  O2-  O208  1  0.27221132  0.38281666  0.26534221  1
  O2-  O209  1  0.27015210  0.36458435  0.77911007  1
  O2-  O210  1  0.27863600  0.86342813  0.26776163  1
  O2-  O211  1  0.26584852  0.87722412  0.77282017  1
  O2-  O212  1  0.78135457  0.36307868  0.25952040  1
  O2-  O213  1  0.76982362  0.36623502  0.77760000  1
  O2-  O214  1  0.76806149  0.87890025  0.26314676  1
  O2-  O215  1  0.76677917  0.86473391  0.76033086  1
  O2-  O216  1  0.22592085  0.13288653  0.21583611  1
  O2-  O217  1  0.23752578  0.11605879  0.74162831  1
  O2-  O218  1  0.23329697  0.62121378  0.23283966  1
  O2-  O219  1  0.22404010  0.63700325  0.73604572  1
  O2-  O220  1  0.73257579  0.11919864  0.23341780  1
  O2-  O221  1  0.72619882  0.13675097  0.73613679  1
  O2-  O222  1  0.72545510  0.63456732  0.23324299  1
  O2-  O223  1  0.72540069  0.63315590  0.72758146  1
  O2-  O224  1  0.13267704  0.47813039  0.25779356  1
  O2-  O225  1  0.11836303  0.46769585  0.77439851  1
  O2-  O226  1  0.11826786  0.97545924  0.22723477  1
  O2-  O227  1  0.13185014  0.98519160  0.74306008  1
  O2-  O228  1  0.61591758  0.47327031  0.27208460  1
  O2-  O229  1  0.61000509  0.48884886  0.78213877  1
  O2-  O230  1  0.62844640  0.98240945  0.23531179  1
  O2-  O231  1  0.61223211  0.97321209  0.73775539  1
  O2-  O232  1  0.38693015  0.02723673  0.26203477  1
  O2-  O233  1  0.37431229  0.00747256  0.77171944  1
  O2-  O234  1  0.37278340  0.51634746  0.22925898  1
  O2-  O235  1  0.38384198  0.54111977  0.74395442  1
  O2-  O236  1  0.86855275  0.01491945  0.25546619  1
  O2-  O237  1  0.88191346  0.01970133  0.77645838  1
  O2-  O238  1  0.88735210  0.52754905  0.22604959  1
  O2-  O239  1  0.88764230  0.51312205  0.73798651  1
  O2-  O240  1  0.48448688  0.38631914  0.21533854  1
  O2-  O241  1  0.46842085  0.39113316  0.73517354  1
  O2-  O242  1  0.48659556  0.88937512  0.21762668  1
  O2-  O243  1  0.47721679  0.87236896  0.74306539  1
  O2-  O244  1  0.98705912  0.38605882  0.21625809  1
  O2-  O245  1  0.98267343  0.36904374  0.73709241  1
  O2-  O246  1  0.97751592  0.87934584  0.22575189  1
  O2-  O247  1  0.97657697  0.88547522  0.73020901  1
  O2-  O248  1  0.01964059  0.11414177  0.26598016  1
  O2-  O249  1  0.01418476  0.12756105  0.77230184  1
  O2-  O250  1  0.03324855  0.61285841  0.26300242  1
  O2-  O251  1  0.02389515  0.61331234  0.77376783  1
  O2-  O252  1  0.53113998  0.11691252  0.25838602  1
  O2-  O253  1  0.51843360  0.11480103  0.77487541  1
  O2-  O254  1  0.52100500  0.61467154  0.26081418  1
  O2-  O255  1  0.51517294  0.63581199  0.77825981  1
  O2-  O256  1  0.12833027  0.48422311  -0.01271699  1
  O2-  O257  1  0.13582912  0.48349324  0.47124944  1
  O2-  O258  1  0.13459553  0.97925858  0.02071845  1
  O2-  O259  1  0.13536785  0.96725891  0.51114132  1
  O2-  O260  1  0.62374613  0.48521054  -0.01718658  1
  O2-  O261  1  0.63373928  0.48808061  0.47834053  1
  O2-  O262  1  0.62277247  0.98994061  0.01124133  1
  O2-  O263  1  0.64024719  0.96768246  0.50644991  1
  O2-  O264  1  0.38204514  0.01592069  -0.01680431  1
  O2-  O265  1  0.36919461  0.02345997  0.48338539  1
  O2-  O266  1  0.37860226  0.52154966  0.01985921  1
  O2-  O267  1  0.36460175  0.52857726  0.51067205  1
  O2-  O268  1  0.86230457  0.03122597  -0.00908771  1
  O2-  O269  1  0.86452225  0.00742940  0.46249999  1
  O2-  O270  1  0.87851074  0.51674005  0.01836758  1
  O2-  O271  1  0.86768279  0.52062655  0.52193565  1
  O2-  O272  1  0.48334283  0.38274074  0.01772329  1
  O2-  O273  1  0.48472451  0.36999879  0.52677771  1
  O2-  O274  1  0.48512944  0.88097070  0.01549395  1
  O2-  O275  1  0.49034120  0.86429124  0.53576440  1
  O2-  O276  1  0.98018811  0.38002840  0.01389531  1
  O2-  O277  1  0.95787500  0.36097701  0.51880895  1
  O2-  O278  1  0.97580974  0.86159053  0.01892093  1
  O2-  O279  1  0.97769266  0.86601708  0.52894758  1
  O2-  O280  1  0.02097649  0.13577643  -0.02662333  1
  O2-  O281  1  0.03902968  0.13498151  0.48854706  1
  O2-  O282  1  0.01668581  0.61808774  -0.02225519  1
  O2-  O283  1  0.01329912  0.63284323  0.47514113  1
  O2-  O284  1  0.51845764  0.12680892  -0.02597796  1
  O2-  O285  1  0.52489140  0.13329002  0.48259510  1
  O2-  O286  1  0.51571224  0.63035610  -0.01811909  1
  O2-  O287  1  0.52682071  0.63908323  0.47925995  1
  O2-  O288  1  0.11153441  0.28043072  0.00897519  1
  O2-  O289  1  0.11241562  0.28732074  0.51134855  1
  O2-  O290  1  0.13115098  0.76105411  0.01123857  1
  O2-  O291  1  0.11524916  0.76481965  0.53115551  1
  O2-  O292  1  0.62854485  0.26905401  0.01000928  1
  O2-  O293  1  0.62014544  0.27021464  0.52144559  1
  O2-  O294  1  0.61411230  0.77011407  0.01924014  1
  O2-  O295  1  0.62658580  0.76576557  0.51366303  1
  O2-  O296  1  0.38490580  0.23702902  -0.02487134  1
  O2-  O297  1  0.38045696  0.23429884  0.49056820  1
  O2-  O298  1  0.37538809  0.74210920  -0.01696669  1
  O2-  O299  1  0.38574972  0.72775854  0.48879236  1
  O2-  O300  1  0.87381448  0.24394320  -0.01801704  1
  O2-  O301  1  0.88676546  0.20391580  0.49658789  1
  O2-  O302  1  0.88198635  0.72069989  -0.02396396  1
  O2-  O303  1  0.86799828  0.73187258  0.48923656  1
  O2-  O304  1  0.27488426  0.38987984  -0.01891966  1
  O2-  O305  1  0.27487083  0.38410803  0.47527875  1
  O2-  O306  1  0.26463026  0.87119768  -0.01703627  1
  O2-  O307  1  0.28111190  0.88469903  0.48883308  1
  O2-  O308  1  0.76144041  0.37207389  -0.01978714  1
  O2-  O309  1  0.76856052  0.38116656  0.47003307  1
  O2-  O310  1  0.77417517  0.88540975  -0.01389156  1
  O2-  O311  1  0.76921411  0.86790920  0.48638459  1
  O2-  O312  1  0.23651426  0.11407584  0.01753937  1
  O2-  O313  1  0.23238227  0.11341450  0.52968955  1
  O2-  O314  1  0.23962808  0.62899989  0.01769816  1
  O2-  O315  1  0.22530452  0.61543628  0.52448434  1
  O2-  O316  1  0.72980658  0.13050027  0.01062662  1
  O2-  O317  1  0.72460608  0.11280159  0.51390461  1
  O2-  O318  1  0.72866470  0.61407946  0.03111389  1
  O2-  O319  1  0.73384989  0.62903239  0.51433604  1
