# generated using pymatgen
data_Sr64Ca21Nb43O192
_symmetry_space_group_name_H-M   'P 1'
_cell_length_a   16.52988287
_cell_length_b   16.53457553
_cell_length_c   16.68632754
_cell_angle_alpha   89.98545640
_cell_angle_beta   89.97962958
_cell_angle_gamma   90.05707032
_symmetry_Int_Tables_number   1
_chemical_formula_structural   Sr64Ca21Nb43O192
_chemical_formula_sum   'Sr64 Ca21 Nb43 O192'
_cell_volume   4560.61418475
_cell_formula_units_Z   1
loop_
 _symmetry_equiv_pos_site_id
 _symmetry_equiv_pos_as_xyz
  1  'x, y, z'
loop_
 _atom_type_symbol
 _atom_type_oxidation_number
  Sr2+  2.0
  Ca2+  2.0
  Nb5+  5.0
  O2-  -2.0
loop_
 _atom_site_type_symbol
 _atom_site_label
 _atom_site_symmetry_multiplicity
 _atom_site_fract_x
 _atom_site_fract_y
 _atom_site_fract_z
 _atom_site_occupancy
  Sr2+  Sr0  1  0.12246924  0.12859934  0.12576632  1
  Sr2+  Sr1  1  0.12627109  0.12866333  0.63504171  1
  Sr2+  Sr2  1  0.12379641  0.63308785  0.12854433  1
  Sr2+  Sr3  1  0.12570899  0.62362636  0.62503866  1
  Sr2+  Sr4  1  0.62390183  0.12544623  0.12767615  1
  Sr2+  Sr5  1  0.62264843  0.11940902  0.62184360  1
  Sr2+  Sr6  1  0.61323195  0.62633817  0.12784648  1
  Sr2+  Sr7  1  0.62179383  0.63037617  0.63041219  1
  Sr2+  Sr8  1  0.37534362  0.39133556  0.12230943  1
  Sr2+  Sr9  1  0.36742580  0.38599586  0.63062992  1
  Sr2+  Sr10  1  0.38585293  0.85669987  0.12791532  1
  Sr2+  Sr11  1  0.38779010  0.87591346  0.62522426  1
  Sr2+  Sr12  1  0.87122197  0.37905464  0.12204480  1
  Sr2+  Sr13  1  0.87426059  0.38114119  0.62769684  1
  Sr2+  Sr14  1  0.86682718  0.87629578  0.12472564  1
  Sr2+  Sr15  1  0.86035863  0.86613514  0.62200969  1
  Sr2+  Sr16  1  0.12154636  0.38148211  0.37655939  1
  Sr2+  Sr17  1  0.13517829  0.37537699  0.87314152  1
  Sr2+  Sr18  1  0.14000746  0.87519271  0.36751198  1
  Sr2+  Sr19  1  0.12845983  0.88029379  0.87825872  1
  Sr2+  Sr20  1  0.61684328  0.36778516  0.37532132  1
  Sr2+  Sr21  1  0.60026824  0.36978432  0.87599505  1
  Sr2+  Sr22  1  0.60326321  0.87829185  0.37729135  1
  Sr2+  Sr23  1  0.60200024  0.86978338  0.86788131  1
  Sr2+  Sr24  1  0.36257432  0.11121201  0.37997573  1
  Sr2+  Sr25  1  0.36939047  0.11958621  0.87390899  1
  Sr2+  Sr26  1  0.38738291  0.62891155  0.37411734  1
  Sr2+  Sr27  1  0.38510574  0.62916680  0.88275888  1
  Sr2+  Sr28  1  0.87549154  0.12655607  0.38009640  1
  Sr2+  Sr29  1  0.88168643  0.12340480  0.87690163  1
  Sr2+  Sr30  1  0.87944609  0.62759187  0.37786856  1
  Sr2+  Sr31  1  0.87394691  0.62269948  0.87037397  1
  Sr2+  Sr32  1  0.12205034  0.14637719  0.37289666  1
  Sr2+  Sr33  1  0.12301354  0.10757259  0.87688989  1
  Sr2+  Sr34  1  0.12395018  0.63934349  0.37873965  1
  Sr2+  Sr35  1  0.12416576  0.65456951  0.86921446  1
  Sr2+  Sr36  1  0.62450301  0.11982334  0.37957281  1
  Sr2+  Sr37  1  0.61978356  0.12641862  0.88024636  1
  Sr2+  Sr38  1  0.62468012  0.60120832  0.37325231  1
  Sr2+  Sr39  1  0.62636379  0.62381283  0.87257841  1
  Sr2+  Sr40  1  0.37047557  0.38994776  0.37457491  1
  Sr2+  Sr41  1  0.37289410  0.37948640  0.87960917  1
  Sr2+  Sr42  1  0.37454536  0.87183996  0.38197909  1
  Sr2+  Sr43  1  0.37315489  0.86619828  0.87171007  1
  Sr2+  Sr44  1  0.87984580  0.38678552  0.37772269  1
  Sr2+  Sr45  1  0.87857095  0.38127185  0.87472735  1
  Sr2+  Sr46  1  0.87447896  0.87312753  0.37216318  1
  Sr2+  Sr47  1  0.88707018  0.88126658  0.87818897  1
  Sr2+  Sr48  1  0.14190861  0.37720575  0.12752325  1
  Sr2+  Sr49  1  0.12918146  0.37965661  0.62589881  1
  Sr2+  Sr50  1  0.13453065  0.87219255  0.12641244  1
  Sr2+  Sr51  1  0.13914058  0.86910269  0.63791539  1
  Sr2+  Sr52  1  0.61189564  0.37518245  0.12265805  1
  Sr2+  Sr53  1  0.62244752  0.37297484  0.62992912  1
  Sr2+  Sr54  1  0.62826181  0.87258652  0.12516836  1
  Sr2+  Sr55  1  0.61979771  0.87199745  0.62634654  1
  Sr2+  Sr56  1  0.35519196  0.12834977  0.12561238  1
  Sr2+  Sr57  1  0.36788274  0.12191839  0.62339162  1
  Sr2+  Sr58  1  0.38169850  0.61296916  0.12504835  1
  Sr2+  Sr59  1  0.34673020  0.63173694  0.62009189  1
  Sr2+  Sr60  1  0.86501277  0.12471243  0.12559007  1
  Sr2+  Sr61  1  0.87211975  0.13061652  0.63134101  1
  Sr2+  Sr62  1  0.87507870  0.62781260  0.11943841  1
  Sr2+  Sr63  1  0.85629759  0.61870951  0.62601476  1
  Ca2+  Ca64  1  -0.00117767  0.00124649  0.49988685  1
  Ca2+  Ca65  1  0.49914139  0.49844034  0.50676747  1
  Ca2+  Ca66  1  0.50345621  0.50125047  -0.00315992  1
  Ca2+  Ca67  1  0.49789607  -0.00167089  0.00431260  1
  Ca2+  Ca68  1  0.00551245  0.50028670  -0.00132385  1
  Ca2+  Ca69  1  0.25006056  0.25127460  0.49855648  1
  Ca2+  Ca70  1  0.74773286  0.74700063  0.49572979  1
  Ca2+  Ca71  1  0.74819543  0.75316967  -0.00322296  1
  Ca2+  Ca72  1  0.24792922  0.75334076  0.49821613  1
  Ca2+  Ca73  1  0.25248055  0.74995212  0.00329034  1
  Ca2+  Ca74  1  0.74825891  0.00058847  0.75328197  1
  Ca2+  Ca75  1  0.49615682  0.74533331  0.74709721  1
  Ca2+  Ca76  1  0.24733527  -0.00000653  0.24889530  1
  Ca2+  Ca77  1  0.74998396  0.49526128  0.24944751  1
  Ca2+  Ca78  1  -0.00236830  0.75304346  0.74555419  1
  Ca2+  Ca79  1  0.50512853  0.74948734  0.25317786  1
  Ca2+  Ca80  1  0.25242757  0.00020968  0.74944536  1
  Ca2+  Ca81  1  0.50093364  0.24550303  0.74755729  1
  Ca2+  Ca82  1  0.49802880  0.24620511  0.25282327  1
  Ca2+  Ca83  1  0.24738200  0.50326268  0.75310393  1
  Ca2+  Ca84  1  0.24524641  0.50394637  0.25145350  1
  Nb5+  Nb85  1  -0.00065757  0.00030414  0.00438077  1
  Nb5+  Nb86  1  0.49760929  0.00401222  0.49978337  1
  Nb5+  Nb87  1  0.00103951  0.50146491  0.50156961  1
  Nb5+  Nb88  1  0.74934693  0.25229146  0.00403877  1
  Nb5+  Nb89  1  0.24302981  0.24980011  -0.00125279  1
  Nb5+  Nb90  1  0.75091703  0.25206417  0.50646477  1
  Nb5+  Nb91  1  -0.00480353  0.75843652  0.24972273  1
  Nb5+  Nb92  1  0.00185313  0.25253361  0.75728582  1
  Nb5+  Nb93  1  0.75027652  -0.00188420  0.25118446  1
  Nb5+  Nb94  1  -0.00458443  0.25794002  0.25041599  1
  Nb5+  Nb95  1  0.74756655  0.49426683  0.75208716  1
  Nb5+  Nb96  1  -0.00179071  0.00680305  0.25144954  1
  Nb5+  Nb97  1  -0.00371660  0.00001926  0.74301769  1
  Nb5+  Nb98  1  0.00019295  0.51065846  0.24802499  1
  Nb5+  Nb99  1  0.00173080  0.50059543  0.75138236  1
  Nb5+  Nb100  1  0.49587702  0.00480687  0.24772663  1
  Nb5+  Nb101  1  0.50225731  0.00263409  0.75468039  1
  Nb5+  Nb102  1  0.49945446  0.49585480  0.25367858  1
  Nb5+  Nb103  1  0.49457355  0.50181749  0.74477872  1
  Nb5+  Nb104  1  0.25178766  0.24948415  0.25216426  1
  Nb5+  Nb105  1  0.25396075  0.24666544  0.74889949  1
  Nb5+  Nb106  1  0.25505536  0.74681424  0.24636203  1
  Nb5+  Nb107  1  0.24948871  0.75025230  0.75027443  1
  Nb5+  Nb108  1  0.75244703  0.25070410  0.25519333  1
  Nb5+  Nb109  1  0.75119976  0.25022888  0.75850240  1
  Nb5+  Nb110  1  0.74753847  0.74633721  0.25002712  1
  Nb5+  Nb111  1  0.75348151  0.75382361  0.75400869  1
  Nb5+  Nb112  1  -0.00065322  0.25233746  0.50682099  1
  Nb5+  Nb113  1  -0.00439911  0.24933587  1.00427821  1
  Nb5+  Nb114  1  -0.00201215  0.75672469  0.50330196  1
  Nb5+  Nb115  1  0.00163304  0.74977952  0.99941136  1
  Nb5+  Nb116  1  0.49375958  0.24861526  0.50033509  1
  Nb5+  Nb117  1  0.48934937  0.24284047  1.00228826  1
  Nb5+  Nb118  1  0.50382557  0.74439158  0.49961210  1
  Nb5+  Nb119  1  0.50265258  0.75098122  1.00034074  1
  Nb5+  Nb120  1  0.25492771  -0.00091309  0.00448438  1
  Nb5+  Nb121  1  0.24081887  -0.00327656  0.50065282  1
  Nb5+  Nb122  1  0.24534953  0.50688592  -0.00233099  1
  Nb5+  Nb123  1  0.25050695  0.50114453  0.49886319  1
  Nb5+  Nb124  1  0.74876777  0.00091895  -0.00362399  1
  Nb5+  Nb125  1  0.75243642  -0.00170887  0.50095139  1
  Nb5+  Nb126  1  0.74925767  0.50221523  0.00277465  1
  Nb5+  Nb127  1  0.74672294  0.49431715  0.50092373  1
  O2-  O128  1  0.00511951  0.01349633  0.12302930  1
  O2-  O129  1  0.00722575  0.02744525  0.63257136  1
  O2-  O130  1  -0.00800588  0.51667824  0.13351192  1
  O2-  O131  1  0.00297529  0.49666814  0.62246122  1
  O2-  O132  1  0.52155451  -0.01063106  0.13658495  1
  O2-  O133  1  0.51045801  -0.00472645  0.61863660  1
  O2-  O134  1  0.50312788  0.50270638  0.13227242  1
  O2-  O135  1  0.53589217  0.49593150  0.63409001  1
  O2-  O136  1  -0.02064828  -0.00475921  0.36400557  1
  O2-  O137  1  -0.00549253  -0.00404582  0.88017431  1
  O2-  O138  1  -0.00130523  0.49208988  0.37894578  1
  O2-  O139  1  -0.01296491  0.48859260  0.86470566  1
  O2-  O140  1  0.49411665  0.01040350  0.37697455  1
  O2-  O141  1  0.49824787  0.01181912  0.86967803  1
  O2-  O142  1  0.49901739  0.49484099  0.37355022  1
  O2-  O143  1  0.48528094  0.50065747  0.86384236  1
  O2-  O144  1  0.24440380  0.23632173  0.12065142  1
  O2-  O145  1  0.24363472  0.23937300  0.63362006  1
  O2-  O146  1  0.22280141  0.74122813  0.13251692  1
  O2-  O147  1  0.22788183  0.74015035  0.63068582  1
  O2-  O148  1  0.76303117  0.25800853  0.12187519  1
  O2-  O149  1  0.76179085  0.26184446  0.62255134  1
  O2-  O150  1  0.75023900  0.77151630  0.13390622  1
  O2-  O151  1  0.74760984  0.75996189  0.63307839  1
  O2-  O152  1  0.23337583  0.26826710  0.36394894  1
  O2-  O153  1  0.24983294  0.25978779  0.87905237  1
  O2-  O154  1  0.25863676  0.76733840  0.36353919  1
  O2-  O155  1  0.25794795  0.76348360  0.87001784  1
  O2-  O156  1  0.75091432  0.23875475  0.37217190  1
  O2-  O157  1  0.75533265  0.23443706  0.87575015  1
  O2-  O158  1  0.77864668  0.74517682  0.36328099  1
  O2-  O159  1  0.75205980  0.71413955  0.86588497  1
  O2-  O160  1  -0.00456810  0.23805054  0.12278206  1
  O2-  O161  1  -0.00380983  0.24219862  0.62429674  1
  O2-  O162  1  0.00889412  0.74136376  0.12866324  1
  O2-  O163  1  0.03031878  0.75109815  0.61290283  1
  O2-  O164  1  0.50894445  0.25172058  0.11770194  1
  O2-  O165  1  0.52086635  0.24363145  0.61367041  1
  O2-  O166  1  0.51684338  0.75734751  0.12067525  1
  O2-  O167  1  0.50559472  0.76864995  0.61545320  1
  O2-  O168  1  0.26646238  -0.01755484  0.38266122  1
  O2-  O169  1  0.24869828  -0.00884156  0.88593263  1
  O2-  O170  1  0.24027047  0.48072199  0.38339585  1
  O2-  O171  1  0.25836222  0.47863697  0.88352839  1
  O2-  O172  1  0.76423409  0.01692305  0.36922616  1
  O2-  O173  1  0.75669991  0.03124933  0.88571147  1
  O2-  O174  1  0.75807336  0.50898942  0.38589897  1
  O2-  O175  1  0.76344117  0.50758821  0.86934459  1
  O2-  O176  1  -0.00168585  0.26037003  0.36879160  1
  O2-  O177  1  0.00086113  0.25875044  0.87570732  1
  O2-  O178  1  -0.02351766  0.75181317  0.36771263  1
  O2-  O179  1  -0.00849315  0.76681139  0.88380669  1
  O2-  O180  1  0.52405026  0.24737174  0.38694624  1
  O2-  O181  1  0.50538084  0.24181375  0.88390681  1
  O2-  O182  1  0.48352806  0.75532003  0.38391536  1
  O2-  O183  1  0.48851796  0.74775179  0.88117257  1
  O2-  O184  1  0.23270139  0.02496116  0.11663715  1
  O2-  O185  1  0.24280798  0.02700509  0.61550569  1
  O2-  O186  1  0.25028329  0.50286071  0.11677029  1
  O2-  O187  1  0.23436802  0.50057261  0.61765019  1
  O2-  O188  1  0.74508391  -0.00505904  0.12625598  1
  O2-  O189  1  0.73995032  -0.01285228  0.61512792  1
  O2-  O190  1  0.75119749  0.47563995  0.11497594  1
  O2-  O191  1  0.74941607  0.47481106  0.62675692  1
  O2-  O192  1  0.11324025  0.26842870  0.24083977  1
  O2-  O193  1  0.11875092  0.27595861  0.74830568  1
  O2-  O194  1  0.11226809  0.77366675  0.26024965  1
  O2-  O195  1  0.12981637  0.78163226  0.76629298  1
  O2-  O196  1  0.64082159  0.27351778  0.24234938  1
  O2-  O197  1  0.64017496  0.28007860  0.75502882  1
  O2-  O198  1  0.63929293  0.78445512  0.26306066  1
  O2-  O199  1  0.63487799  0.76731404  0.75511608  1
  O2-  O200  1  0.36234125  0.21721836  0.25840179  1
  O2-  O201  1  0.36582942  0.21750636  0.75116855  1
  O2-  O202  1  0.36732429  0.72183931  0.23317799  1
  O2-  O203  1  0.36321200  0.71346151  0.74573945  1
  O2-  O204  1  0.88065623  0.21822268  0.24903034  1
  O2-  O205  1  0.87962704  0.23027459  0.75353088  1
  O2-  O206  1  0.87853084  0.72398743  0.23391622  1
  O2-  O207  1  0.86730394  0.71382311  0.74199651  1
  O2-  O208  1  0.26590427  0.36396968  0.22724925  1
  O2-  O209  1  0.27193344  0.36420598  0.74902339  1
  O2-  O210  1  0.26561703  0.86659191  0.22840993  1
  O2-  O211  1  0.27677980  0.86718847  0.73022055  1
  O2-  O212  1  0.78909758  0.36017763  0.25604413  1
  O2-  O213  1  0.78260444  0.37104901  0.75647950  1
  O2-  O214  1  0.77982150  0.88411948  0.25547735  1
  O2-  O215  1  0.78293430  0.86457030  0.76885290  1
  O2-  O216  1  0.21438213  0.13532137  0.25407397  1
  O2-  O217  1  0.21602401  0.13524895  0.76497890  1
  O2-  O218  1  0.21365479  0.63560671  0.25942448  1
  O2-  O219  1  0.21367564  0.63304018  0.75490897  1
  O2-  O220  1  0.73949826  0.12543651  0.23714679  1
  O2-  O221  1  0.73524594  0.13930079  0.72979093  1
  O2-  O222  1  0.72243688  0.63362787  0.24006853  1
  O2-  O223  1  0.73145983  0.60888675  0.73114803  1
  O2-  O224  1  0.10928704  0.46628276  0.24894988  1
  O2-  O225  1  0.11258701  0.46548198  0.75092754  1
  O2-  O226  1  0.10891622  0.97082678  0.25093345  1
  O2-  O227  1  0.11295513  0.98020138  0.75893480  1
  O2-  O228  1  0.61777837  0.46492850  0.25672763  1
  O2-  O229  1  0.63551577  0.46736776  0.76452589  1
  O2-  O230  1  0.63572828  0.97882229  0.26263680  1
  O2-  O231  1  0.61748429  0.96435786  0.75034324  1
  O2-  O232  1  0.38472461  0.03413311  0.24010079  1
  O2-  O233  1  0.38640776  0.03325974  0.74126969  1
  O2-  O234  1  0.38110787  0.52716589  0.25600871  1
  O2-  O235  1  0.38404842  0.52112601  0.71800903  1
  O2-  O236  1  0.87660563  0.01792800  0.23254588  1
  O2-  O237  1  0.88365711  0.03549404  0.75316691  1
  O2-  O238  1  0.88375651  0.51940149  0.26130737  1
  O2-  O239  1  0.87638796  0.51168087  0.73844634  1
  O2-  O240  1  0.46616216  0.37964561  0.25003796  1
  O2-  O241  1  0.47991581  0.38126273  0.74954352  1
  O2-  O242  1  0.47844042  0.88748899  0.26406468  1
  O2-  O243  1  0.47203477  0.88413756  0.75741748  1
  O2-  O244  1  0.97139712  0.37032655  0.24003515  1
  O2-  O245  1  0.97534142  0.36862354  0.74158353  1
  O2-  O246  1  0.97077111  0.87281556  0.23989207  1
  O2-  O247  1  0.96583069  0.88866726  0.73270653  1
  O2-  O248  1  0.01950660  0.12276934  0.25560211  1
  O2-  O249  1  0.02274155  0.13369173  0.75981033  1
  O2-  O250  1  0.02290869  0.62482676  0.26043497  1
  O2-  O251  1  0.02327173  0.61422582  0.75332172  1
  O2-  O252  1  0.53985760  0.11490905  0.25270381  1
  O2-  O253  1  0.54225347  0.11524904  0.74613050  1
  O2-  O254  1  0.53068123  0.61548565  0.25871353  1
  O2-  O255  1  0.53585651  0.61350903  0.75335727  1
  O2-  O256  1  0.13548205  0.45881585  0.00015699  1
  O2-  O257  1  0.11622095  0.46993559  0.50040309  1
  O2-  O258  1  0.11969065  0.98534001  -0.00292702  1
  O2-  O259  1  0.13126223  0.96171415  0.49738726  1
  O2-  O260  1  0.63868256  0.46386342  -0.01548749  1
  O2-  O261  1  0.63601539  0.46457285  0.49136422  1
  O2-  O262  1  0.63690339  0.97819694  -0.00716123  1
  O2-  O263  1  0.62971113  0.99022224  0.48282022  1
  O2-  O264  1  0.36493702  0.03569577  0.00590225  1
  O2-  O265  1  0.38287258  0.02660255  0.50698983  1
  O2-  O266  1  0.36609280  0.52107137  0.00271009  1
  O2-  O267  1  0.36438373  0.53133364  0.49909449  1
  O2-  O268  1  0.88091262  0.02846200  0.00633919  1
  O2-  O269  1  0.86306319  0.03546222  0.50749643  1
  O2-  O270  1  0.86703310  0.52090598  -0.00398335  1
  O2-  O271  1  0.87825855  0.51251981  0.50604191  1
  O2-  O272  1  0.48140227  0.36308578  -0.00335491  1
  O2-  O273  1  0.46747164  0.36256744  0.50300511  1
  O2-  O274  1  0.46280447  0.86719606  -0.00448105  1
  O2-  O275  1  0.48280526  0.88577669  0.49115022  1
  O2-  O276  1  0.97662446  0.36306480  0.00801497  1
  O2-  O277  1  0.97303575  0.37274914  0.50148628  1
  O2-  O278  1  0.97545678  0.88421579  0.01258348  1
  O2-  O279  1  0.96297623  0.86643827  0.50549791  1
  O2-  O280  1  0.02161670  0.12739117  -0.00805723  1
  O2-  O281  1  0.01881251  0.13903136  0.48470632  1
  O2-  O282  1  0.02876084  0.63741829  -0.00814353  1
  O2-  O283  1  0.02070867  0.61698515  0.49471052  1
  O2-  O284  1  0.53362364  0.13269270  0.00492544  1
  O2-  O285  1  0.52980280  0.12180341  0.50075678  1
  O2-  O286  1  0.53613778  0.63388982  -0.00264577  1
  O2-  O287  1  0.53677616  0.63303439  0.49683753  1
  O2-  O288  1  0.12455874  0.26889843  0.00212048  1
  O2-  O289  1  0.11264847  0.27818781  0.50053537  1
  O2-  O290  1  0.11490048  0.78733360  -0.00162872  1
  O2-  O291  1  0.10942397  0.76518577  0.46464619  1
  O2-  O292  1  0.63618050  0.27163807  -0.00128793  1
  O2-  O293  1  0.63773395  0.27832200  0.50160454  1
  O2-  O294  1  0.61745777  0.78903172  -0.00844860  1
  O2-  O295  1  0.61765821  0.78375390  0.49192662  1
  O2-  O296  1  0.37347807  0.22076262  0.00058138  1
  O2-  O297  1  0.38470683  0.21209054  0.49648091  1
  O2-  O298  1  0.38466737  0.71599692  0.01618713  1
  O2-  O299  1  0.38381113  0.72486555  0.50858633  1
  O2-  O300  1  0.88017172  0.22394766  -0.00407500  1
  O2-  O301  1  0.87511951  0.23029598  0.49589566  1
  O2-  O302  1  0.88433580  0.73130597  0.01050585  1
  O2-  O303  1  0.88696169  0.71520717  0.51151177  1
  O2-  O304  1  0.27699174  0.36283181  0.00981987  1
  O2-  O305  1  0.27875137  0.38271609  0.51023429  1
  O2-  O306  1  0.27393576  0.88700474  0.02243478  1
  O2-  O307  1  0.28243309  0.88637744  0.51894952  1
  O2-  O308  1  0.78317184  0.36490905  -0.00992788  1
  O2-  O309  1  0.78013469  0.37082284  0.49075208  1
  O2-  O310  1  0.78539892  0.89113875  -0.01033026  1
  O2-  O311  1  0.77692727  0.88661443  0.48788866  1
  O2-  O312  1  0.22748630  0.13061703  -0.01215984  1
  O2-  O313  1  0.22881663  0.11511732  0.47431562  1
  O2-  O314  1  0.21272685  0.61632129  -0.01241789  1
  O2-  O315  1  0.21731860  0.61623740  0.49644015  1
  O2-  O316  1  0.73738948  0.12983631  0.01778453  1
  O2-  O317  1  0.72920043  0.13357024  0.50579927  1
  O2-  O318  1  0.72317332  0.61333054  0.01692310  1
  O2-  O319  1  0.73038860  0.60873131  0.52051195  1
