# generated using pymatgen
data_Sr64Ca21Nb43O192
_symmetry_space_group_name_H-M   'P 1'
_cell_length_a   16.56137382
_cell_length_b   16.55961060
_cell_length_c   16.72786283
_cell_angle_alpha   90.05152419
_cell_angle_beta   90.01432492
_cell_angle_gamma   90.03345621
_symmetry_Int_Tables_number   1
_chemical_formula_structural   Sr64Ca21Nb43O192
_chemical_formula_sum   'Sr64 Ca21 Nb43 O192'
_cell_volume   4587.61195193
_cell_formula_units_Z   1
loop_
 _symmetry_equiv_pos_site_id
 _symmetry_equiv_pos_as_xyz
  1  'x, y, z'
loop_
 _atom_type_symbol
 _atom_type_oxidation_number
  Sr2+  2.0
  Ca2+  2.0
  Nb5+  5.0
  O2-  -2.0
loop_
 _atom_site_type_symbol
 _atom_site_label
 _atom_site_symmetry_multiplicity
 _atom_site_fract_x
 _atom_site_fract_y
 _atom_site_fract_z
 _atom_site_occupancy
  Sr2+  Sr0  1  0.13051850  0.12654004  0.11872335  1
  Sr2+  Sr1  1  0.13150461  0.12125312  0.62517458  1
  Sr2+  Sr2  1  0.13820632  0.62998693  0.13706877  1
  Sr2+  Sr3  1  0.13758769  0.63245138  0.62210376  1
  Sr2+  Sr4  1  0.63111666  0.10975114  0.12065127  1
  Sr2+  Sr5  1  0.63771609  0.13299845  0.62289708  1
  Sr2+  Sr6  1  0.63385208  0.63985602  0.12656619  1
  Sr2+  Sr7  1  0.63134967  0.62565326  0.62435145  1
  Sr2+  Sr8  1  0.37836288  0.35952480  0.12065417  1
  Sr2+  Sr9  1  0.38003788  0.36914457  0.62511269  1
  Sr2+  Sr10  1  0.38156877  0.86813490  0.13260704  1
  Sr2+  Sr11  1  0.37610215  0.87441370  0.62937159  1
  Sr2+  Sr12  1  0.88503020  0.35918364  0.12825642  1
  Sr2+  Sr13  1  0.87663729  0.36829262  0.62574494  1
  Sr2+  Sr14  1  0.87419749  0.88330453  0.13021338  1
  Sr2+  Sr15  1  0.88373727  0.88386257  0.62665769  1
  Sr2+  Sr16  1  0.11259000  0.38325403  0.37254545  1
  Sr2+  Sr17  1  0.13108242  0.37516277  0.88091228  1
  Sr2+  Sr18  1  0.13136968  0.87802410  0.37013562  1
  Sr2+  Sr19  1  0.12103871  0.87789065  0.87474167  1
  Sr2+  Sr20  1  0.60763456  0.37614555  0.37711633  1
  Sr2+  Sr21  1  0.61218775  0.39071565  0.87291193  1
  Sr2+  Sr22  1  0.61537974  0.89281090  0.37348466  1
  Sr2+  Sr23  1  0.61714858  0.87215596  0.87319941  1
  Sr2+  Sr24  1  0.37824525  0.12378835  0.36802334  1
  Sr2+  Sr25  1  0.36884862  0.12575999  0.87549344  1
  Sr2+  Sr26  1  0.38134182  0.62523153  0.37335710  1
  Sr2+  Sr27  1  0.38417420  0.61998898  0.87687850  1
  Sr2+  Sr28  1  0.86412598  0.12816648  0.36977776  1
  Sr2+  Sr29  1  0.87636467  0.12707945  0.87515873  1
  Sr2+  Sr30  1  0.89342594  0.62597499  0.37601359  1
  Sr2+  Sr31  1  0.87089948  0.62631721  0.87433952  1
  Sr2+  Sr32  1  0.12185758  0.13906560  0.36562495  1
  Sr2+  Sr33  1  0.11809677  0.13053280  0.87926559  1
  Sr2+  Sr34  1  0.12415736  0.61701991  0.37285993  1
  Sr2+  Sr35  1  0.11707638  0.63402971  0.87353982  1
  Sr2+  Sr36  1  0.62154153  0.13591271  0.37544496  1
  Sr2+  Sr37  1  0.61489595  0.13351449  0.87599792  1
  Sr2+  Sr38  1  0.62254482  0.60952748  0.37092735  1
  Sr2+  Sr39  1  0.62765775  0.62672545  0.87916930  1
  Sr2+  Sr40  1  0.36958640  0.38246157  0.37932159  1
  Sr2+  Sr41  1  0.36234626  0.37771633  0.87780029  1
  Sr2+  Sr42  1  0.36267092  0.87068204  0.37376212  1
  Sr2+  Sr43  1  0.36815594  0.87295897  0.86857516  1
  Sr2+  Sr44  1  0.86980014  0.38687940  0.37552319  1
  Sr2+  Sr45  1  0.86883688  0.39413955  0.87413191  1
  Sr2+  Sr46  1  0.86374849  0.88689041  0.37570237  1
  Sr2+  Sr47  1  0.87037639  0.87037228  0.87393472  1
  Sr2+  Sr48  1  0.14497403  0.37303894  0.12943321  1
  Sr2+  Sr49  1  0.14046226  0.36864908  0.62471743  1
  Sr2+  Sr50  1  0.13975057  0.88333887  0.12508202  1
  Sr2+  Sr51  1  0.14054170  0.88264420  0.62735801  1
  Sr2+  Sr52  1  0.62870200  0.37640619  0.12139678  1
  Sr2+  Sr53  1  0.63894463  0.37428640  0.62615760  1
  Sr2+  Sr54  1  0.62697715  0.87839028  0.12298643  1
  Sr2+  Sr55  1  0.61366759  0.87793346  0.62306939  1
  Sr2+  Sr56  1  0.39731114  0.12309793  0.11950166  1
  Sr2+  Sr57  1  0.37918736  0.10750046  0.62581028  1
  Sr2+  Sr58  1  0.37219146  0.61929883  0.13606946  1
  Sr2+  Sr59  1  0.38512800  0.62849940  0.62053585  1
  Sr2+  Sr60  1  0.88677117  0.11349501  0.12442724  1
  Sr2+  Sr61  1  0.87899903  0.12838238  0.62439062  1
  Sr2+  Sr62  1  0.88257180  0.63118718  0.14023721  1
  Sr2+  Sr63  1  0.88360530  0.62477285  0.62204859  1
  Ca2+  Ca64  1  0.00128327  0.50118650  0.00023786  1
  Ca2+  Ca65  1  0.49916951  0.50170527  0.00083985  1
  Ca2+  Ca66  1  0.00458777  0.00380287  0.49774560  1
  Ca2+  Ca67  1  0.49611358  0.00325455  0.49785206  1
  Ca2+  Ca68  1  0.50212722  -0.00389828  -0.00241237  1
  Ca2+  Ca69  1  0.75430999  0.25186763  -0.00240386  1
  Ca2+  Ca70  1  0.24902852  0.75001181  0.00022015  1
  Ca2+  Ca71  1  0.24909131  0.24474044  0.49984480  1
  Ca2+  Ca72  1  0.74954633  0.74879273  0.50349226  1
  Ca2+  Ca73  1  0.25006961  0.75040444  0.50119262  1
  Ca2+  Ca74  1  0.24705894  0.50099573  0.75054460  1
  Ca2+  Ca75  1  0.24989239  0.49720138  0.25347962  1
  Ca2+  Ca76  1  0.50284470  0.25045387  0.24860915  1
  Ca2+  Ca77  1  0.24824067  0.00030414  0.75244593  1
  Ca2+  Ca78  1  0.74909381  0.49952237  0.25114396  1
  Ca2+  Ca79  1  0.50009387  0.25161044  0.74988952  1
  Ca2+  Ca80  1  0.00216076  0.75670420  0.25132958  1
  Ca2+  Ca81  1  0.25056700  0.00263122  0.24598547  1
  Ca2+  Ca82  1  0.74704025  -0.00004413  0.75045122  1
  Ca2+  Ca83  1  0.50656308  0.74902131  0.25242514  1
  Ca2+  Ca84  1  0.00134092  0.24874602  0.24933892  1
  Nb5+  Nb85  1  0.00217731  -0.00195614  -0.00210627  1
  Nb5+  Nb86  1  0.00425746  0.49717646  0.50554936  1
  Nb5+  Nb87  1  0.50356892  0.49827611  0.50390629  1
  Nb5+  Nb88  1  0.75416418  0.75185398  0.00109557  1
  Nb5+  Nb89  1  0.25330712  0.24706726  -0.00022017  1
  Nb5+  Nb90  1  0.75198432  0.25406136  0.49721448  1
  Nb5+  Nb91  1  0.00095181  0.75716261  0.74721807  1
  Nb5+  Nb92  1  0.50460874  0.74894234  0.74910816  1
  Nb5+  Nb93  1  0.74785372  0.50174612  0.74991806  1
  Nb5+  Nb94  1  -0.00045615  0.26101357  0.75212317  1
  Nb5+  Nb95  1  0.74996717  0.00197907  0.24946901  1
  Nb5+  Nb96  1  0.00302753  0.00237737  0.25464761  1
  Nb5+  Nb97  1  0.00083498  0.01026321  0.74834746  1
  Nb5+  Nb98  1  -0.00566751  0.49635423  0.24331355  1
  Nb5+  Nb99  1  0.00056285  0.50551710  0.74754457  1
  Nb5+  Nb100  1  0.49837281  0.00198678  0.24857099  1
  Nb5+  Nb101  1  0.50525035  0.00466148  0.74926278  1
  Nb5+  Nb102  1  0.49873026  0.49338252  0.24327600  1
  Nb5+  Nb103  1  0.49473351  0.50265789  0.74881450  1
  Nb5+  Nb104  1  0.25573971  0.24873650  0.25471790  1
  Nb5+  Nb105  1  0.25307867  0.24463258  0.74781900  1
  Nb5+  Nb106  1  0.25142787  0.75000190  0.25050100  1
  Nb5+  Nb107  1  0.25706765  0.74520696  0.75139963  1
  Nb5+  Nb108  1  0.74751384  0.25083670  0.24052637  1
  Nb5+  Nb109  1  0.75096499  0.25285898  0.75611620  1
  Nb5+  Nb110  1  0.74800746  0.75237866  0.26231751  1
  Nb5+  Nb111  1  0.75511808  0.75077488  0.74725971  1
  Nb5+  Nb112  1  -0.00074801  0.25077408  0.50049443  1
  Nb5+  Nb113  1  0.00151379  0.25412254  0.99965318  1
  Nb5+  Nb114  1  -0.00214162  0.75415177  0.50010349  1
  Nb5+  Nb115  1  -0.00192509  0.75420334  1.00356520  1
  Nb5+  Nb116  1  0.49662303  0.24639389  0.50897769  1
  Nb5+  Nb117  1  0.50872902  0.25337982  0.99406590  1
  Nb5+  Nb118  1  0.50302535  0.74960027  0.49591072  1
  Nb5+  Nb119  1  0.49730892  0.74765904  1.00021541  1
  Nb5+  Nb120  1  0.25761907  -0.00216510  -0.00037990  1
  Nb5+  Nb121  1  0.24810703  0.00118539  0.49545238  1
  Nb5+  Nb122  1  0.24392522  0.50713726  -0.00014375  1
  Nb5+  Nb123  1  0.25595511  0.49962775  0.50253194  1
  Nb5+  Nb124  1  0.75193049  -0.00127542  -0.00717655  1
  Nb5+  Nb125  1  0.75233263  0.00013881  0.50495898  1
  Nb5+  Nb126  1  0.75382391  0.50228520  0.00926204  1
  Nb5+  Nb127  1  0.75192118  0.50117507  0.49908929  1
  O2-  O128  1  -0.00524082  -0.02071543  0.11546746  1
  O2-  O129  1  -0.00248054  -0.01386411  0.63433388  1
  O2-  O130  1  -0.02988876  0.48457521  0.13215641  1
  O2-  O131  1  -0.02429401  0.48571642  0.62529103  1
  O2-  O132  1  0.49946759  -0.03016363  0.13225436  1
  O2-  O133  1  0.48818880  -0.02386747  0.63224281  1
  O2-  O134  1  0.48781680  0.46998488  0.13235779  1
  O2-  O135  1  0.48672452  0.48326529  0.62486771  1
  O2-  O136  1  0.00645029  0.03502370  0.36395650  1
  O2-  O137  1  -0.00127133  0.01801515  0.87517259  1
  O2-  O138  1  0.00758717  0.51056851  0.38753896  1
  O2-  O139  1  0.00519827  0.52149626  0.86145293  1
  O2-  O140  1  0.51492474  0.02868081  0.36425195  1
  O2-  O141  1  0.51736216  0.01720407  0.86605909  1
  O2-  O142  1  0.50660472  0.51552552  0.38703620  1
  O2-  O143  1  0.51384825  0.52408128  0.86224961  1
  O2-  O144  1  0.22798679  0.24054840  0.11433485  1
  O2-  O145  1  0.22374053  0.23709730  0.63596883  1
  O2-  O146  1  0.26487449  0.72345579  0.13176107  1
  O2-  O147  1  0.26417608  0.72306416  0.63504580  1
  O2-  O148  1  0.71680564  0.23639268  0.13159010  1
  O2-  O149  1  0.74134361  0.24427576  0.62961762  1
  O2-  O150  1  0.77086588  0.73362175  0.11381546  1
  O2-  O151  1  0.75816118  0.71590871  0.63767843  1
  O2-  O152  1  0.28577380  0.25262480  0.36652220  1
  O2-  O153  1  0.26110015  0.26248523  0.87603414  1
  O2-  O154  1  0.23899780  0.77444842  0.36780861  1
  O2-  O155  1  0.23338905  0.77234112  0.86542366  1
  O2-  O156  1  0.77658452  0.26252719  0.38380911  1
  O2-  O157  1  0.78595470  0.26883919  0.86500854  1
  O2-  O158  1  0.73098980  0.78308952  0.37006067  1
  O2-  O159  1  0.73611665  0.76420586  0.86845654  1
  O2-  O160  1  0.02210473  0.27450528  0.11194922  1
  O2-  O161  1  0.00983036  0.27670667  0.63392265  1
  O2-  O162  1  -0.03141407  0.76633699  0.11263721  1
  O2-  O163  1  -0.03040824  0.75799902  0.63263794  1
  O2-  O164  1  0.51130040  0.27930927  0.11136781  1
  O2-  O165  1  0.52265159  0.28282050  0.61861252  1
  O2-  O166  1  0.49488412  0.76899766  0.11291434  1
  O2-  O167  1  0.47913536  0.76226467  0.63248494  1
  O2-  O168  1  0.25300956  -0.02070217  0.37872764  1
  O2-  O169  1  0.24590579  -0.02553864  0.88572548  1
  O2-  O170  1  0.23647988  0.47171374  0.38781864  1
  O2-  O171  1  0.24509881  0.47665011  0.88357014  1
  O2-  O172  1  0.74599034  -0.01079290  0.36986753  1
  O2-  O173  1  0.75041420  -0.03178552  0.88288596  1
  O2-  O174  1  0.73431607  0.47325864  0.38862108  1
  O2-  O175  1  0.73781486  0.48354427  0.86676635  1
  O2-  O176  1  -0.01582421  0.22655263  0.38912443  1
  O2-  O177  1  -0.00998338  0.22769232  0.86995592  1
  O2-  O178  1  0.02085409  0.73135597  0.38900792  1
  O2-  O179  1  0.00855156  0.73843322  0.86607275  1
  O2-  O180  1  0.49310110  0.23205948  0.39122240  1
  O2-  O181  1  0.48457277  0.21978024  0.88129921  1
  O2-  O182  1  0.52670222  0.72263690  0.38721835  1
  O2-  O183  1  0.51274356  0.72480948  0.86647350  1
  O2-  O184  1  0.22934105  0.01509387  0.11173639  1
  O2-  O185  1  0.24744225  0.02012960  0.61759452  1
  O2-  O186  1  0.24927783  0.51873338  0.11819499  1
  O2-  O187  1  0.24471259  0.51806398  0.61707291  1
  O2-  O188  1  0.76026423  0.01223760  0.12650687  1
  O2-  O189  1  0.75528029  0.02922751  0.61601912  1
  O2-  O190  1  0.75732777  0.53781800  0.11754633  1
  O2-  O191  1  0.75284119  0.51333009  0.62527103  1
  O2-  O192  1  0.13532352  0.27153803  0.27515665  1
  O2-  O193  1  0.11668727  0.27278299  0.76579630  1
  O2-  O194  1  0.13322013  0.77306206  0.22761332  1
  O2-  O195  1  0.11468836  0.76614442  0.73173562  1
  O2-  O196  1  0.63887110  0.26249078  0.28425122  1
  O2-  O197  1  0.63820653  0.27734209  0.77034835  1
  O2-  O198  1  0.64035212  0.76680357  0.21667873  1
  O2-  O199  1  0.62237978  0.76285132  0.73817747  1
  O2-  O200  1  0.36811001  0.22550624  0.22143615  1
  O2-  O201  1  0.36496640  0.21740331  0.73602453  1
  O2-  O202  1  0.37167701  0.72950914  0.26397324  1
  O2-  O203  1  0.37331971  0.73051895  0.76914068  1
  O2-  O204  1  0.86315825  0.22241499  0.23379400  1
  O2-  O205  1  0.88030513  0.23311014  0.73304223  1
  O2-  O206  1  0.86461176  0.73295699  0.26122643  1
  O2-  O207  1  0.87066924  0.73259116  0.76597255  1
  O2-  O208  1  0.26908827  0.36357577  0.22509067  1
  O2-  O209  1  0.27015553  0.36321257  0.73855360  1
  O2-  O210  1  0.27455510  0.86783922  0.22991914  1
  O2-  O211  1  0.26194746  0.86267323  0.72739406  1
  O2-  O212  1  0.77177141  0.36377619  0.22915637  1
  O2-  O213  1  0.76753760  0.38074710  0.73380588  1
  O2-  O214  1  0.77044587  0.88000258  0.23830658  1
  O2-  O215  1  0.76822096  0.86244217  0.72465346  1
  O2-  O216  1  0.22141816  0.13511226  0.25279720  1
  O2-  O217  1  0.21917407  0.13369460  0.77193428  1
  O2-  O218  1  0.22518992  0.63233270  0.26816543  1
  O2-  O219  1  0.21653885  0.63464187  0.76668155  1
  O2-  O220  1  0.73129623  0.12117721  0.26353303  1
  O2-  O221  1  0.73207625  0.13792505  0.76802041  1
  O2-  O222  1  0.72865008  0.63722026  0.27029551  1
  O2-  O223  1  0.73413424  0.62032992  0.76779094  1
  O2-  O224  1  0.11103903  0.47670919  0.24685706  1
  O2-  O225  1  0.10898529  0.47250268  0.73589626  1
  O2-  O226  1  0.11384336  0.97225384  0.24786746  1
  O2-  O227  1  0.11233197  0.97366773  0.75615033  1
  O2-  O228  1  0.61651121  0.46907100  0.24977230  1
  O2-  O229  1  0.62582815  0.48720631  0.73547578  1
  O2-  O230  1  0.63268204  0.98085231  0.24039846  1
  O2-  O231  1  0.61699397  0.96268580  0.74412641  1
  O2-  O232  1  0.38520157  0.02549859  0.24691309  1
  O2-  O233  1  0.38552998  0.01257005  0.76149304  1
  O2-  O234  1  0.38419751  0.52403285  0.26282499  1
  O2-  O235  1  0.38248690  0.53006139  0.75213566  1
  O2-  O236  1  0.87155856  0.02140307  0.25296729  1
  O2-  O237  1  0.88276160  0.01628770  0.75497419  1
  O2-  O238  1  0.88058127  0.52080193  0.27514002  1
  O2-  O239  1  0.86994728  0.51521490  0.75627535  1
  O2-  O240  1  0.47847709  0.38171683  0.28188590  1
  O2-  O241  1  0.47864560  0.38850713  0.76864162  1
  O2-  O242  1  0.49035412  0.88494082  0.27968630  1
  O2-  O243  1  0.48215912  0.86389982  0.76850631  1
  O2-  O244  1  0.97402655  0.38073293  0.27116515  1
  O2-  O245  1  0.97386284  0.37499301  0.76796744  1
  O2-  O246  1  0.96854544  0.88935399  0.26824257  1
  O2-  O247  1  0.97727326  0.87038667  0.76193451  1
  O2-  O248  1  0.01374177  0.11430788  0.21443445  1
  O2-  O249  1  0.01836169  0.12617737  0.73615522  1
  O2-  O250  1  0.01473309  0.61653665  0.23741871  1
  O2-  O251  1  0.01083503  0.62261576  0.72845937  1
  O2-  O252  1  0.52569406  0.11658702  0.22107659  1
  O2-  O253  1  0.52954878  0.11587575  0.72691573  1
  O2-  O254  1  0.52670310  0.61118941  0.23447694  1
  O2-  O255  1  0.51485391  0.62715745  0.72494343  1
  O2-  O256  1  0.13131418  0.46389998  0.00920371  1
  O2-  O257  1  0.11596551  0.47277426  0.51331022  1
  O2-  O258  1  0.11877605  0.98146646  -0.00664116  1
  O2-  O259  1  0.13271545  0.95910429  0.49813362  1
  O2-  O260  1  0.63736437  0.48037169  0.00138749  1
  O2-  O261  1  0.61991412  0.47866105  0.51393598  1
  O2-  O262  1  0.63879655  0.98018941  0.01200326  1
  O2-  O263  1  0.63525716  0.98315406  0.49823650  1
  O2-  O264  1  0.36868320  0.02846716  -0.00242714  1
  O2-  O265  1  0.36410452  0.04225318  0.49142969  1
  O2-  O266  1  0.36368876  0.52376352  -0.00531317  1
  O2-  O267  1  0.37303797  0.51789357  0.49518783  1
  O2-  O268  1  0.87612078  0.01591608  -0.00251046  1
  O2-  O269  1  0.86667234  0.02372981  0.48154684  1
  O2-  O270  1  0.86497262  0.51568585  -0.02662334  1
  O2-  O271  1  0.86805804  0.51542890  0.49146494  1
  O2-  O272  1  0.47845282  0.36701074  -0.02979775  1
  O2-  O273  1  0.47935421  0.37895500  0.48650594  1
  O2-  O274  1  0.49173473  0.86062612  -0.03557130  1
  O2-  O275  1  0.48883570  0.86333193  0.47879700  1
  O2-  O276  1  0.98144462  0.36330828  -0.02830441  1
  O2-  O277  1  0.97075133  0.37645562  0.49173101  1
  O2-  O278  1  0.98021893  0.87965692  -0.02595022  1
  O2-  O279  1  0.97016263  0.86500783  0.48818802  1
  O2-  O280  1  0.01623441  0.11934720  0.01068370  1
  O2-  O281  1  0.00917329  0.14066980  0.53568345  1
  O2-  O282  1  0.01557176  0.63980685  0.01111604  1
  O2-  O283  1  0.01388805  0.61387244  0.52199303  1
  O2-  O284  1  0.52138631  0.13492681  0.02101397  1
  O2-  O285  1  0.52541590  0.13641503  0.52813641  1
  O2-  O286  1  0.53565963  0.63603926  0.00949279  1
  O2-  O287  1  0.51390647  0.61569559  0.52466241  1
  O2-  O288  1  0.12387651  0.25535877  -0.02213106  1
  O2-  O289  1  0.11115019  0.27788872  0.48937564  1
  O2-  O290  1  0.11048958  0.78252657  0.00930327  1
  O2-  O291  1  0.10962910  0.76080369  0.53598723  1
  O2-  O292  1  0.62084105  0.27168925  -0.02891568  1
  O2-  O293  1  0.63374846  0.27030315  0.49053085  1
  O2-  O294  1  0.63676696  0.77103997  0.00585464  1
  O2-  O295  1  0.61446319  0.75568154  0.53525726  1
  O2-  O296  1  0.36976115  0.22980020  0.01100385  1
  O2-  O297  1  0.38466014  0.23449821  0.53201358  1
  O2-  O298  1  0.38588442  0.72339697  -0.01290379  1
  O2-  O299  1  0.38773483  0.72139935  0.49252497  1
  O2-  O300  1  0.88855670  0.22684155  0.02022090  1
  O2-  O301  1  0.87210479  0.24233751  0.52376008  1
  O2-  O302  1  0.87414446  0.74344139  -0.03012072  1
  O2-  O303  1  0.88425535  0.71543962  0.49610816  1
  O2-  O304  1  0.26818258  0.36611201  0.01178005  1
  O2-  O305  1  0.26843754  0.38095509  0.52422654  1
  O2-  O306  1  0.27804970  0.88422148  0.02241155  1
  O2-  O307  1  0.28460835  0.88521368  0.51614271  1
  O2-  O308  1  0.77332776  0.38798596  0.03008040  1
  O2-  O309  1  0.76348535  0.37543262  0.52121808  1
  O2-  O310  1  0.77528514  0.87187625  0.01427306  1
  O2-  O311  1  0.77450057  0.88671319  0.51921601  1
  O2-  O312  1  0.23336128  0.12621929  -0.01982628  1
  O2-  O313  1  0.20388927  0.11468782  0.48335094  1
  O2-  O314  1  0.21276491  0.61696175  -0.01666809  1
  O2-  O315  1  0.22288035  0.61266352  0.48248472  1
  O2-  O316  1  0.73717469  0.11363816  -0.02427273  1
  O2-  O317  1  0.73456952  0.13457446  0.48773240  1
  O2-  O318  1  0.74000807  0.63163160  -0.02064828  1
  O2-  O319  1  0.72266826  0.61203388  0.48624093  1
