# generated using pymatgen
data_Sr64Ca21Nb43O192
_symmetry_space_group_name_H-M   'P 1'
_cell_length_a   16.56646124
_cell_length_b   16.57078825
_cell_length_c   16.73291526
_cell_angle_alpha   89.94876998
_cell_angle_beta   89.97031123
_cell_angle_gamma   89.97559875
_symmetry_Int_Tables_number   1
_chemical_formula_structural   Sr64Ca21Nb43O192
_chemical_formula_sum   'Sr64 Ca21 Nb43 O192'
_cell_volume   4593.50566865
_cell_formula_units_Z   1
loop_
 _symmetry_equiv_pos_site_id
 _symmetry_equiv_pos_as_xyz
  1  'x, y, z'
loop_
 _atom_type_symbol
 _atom_type_oxidation_number
  Sr2+  2.0
  Ca2+  2.0
  Nb5+  5.0
  O2-  -2.0
loop_
 _atom_site_type_symbol
 _atom_site_label
 _atom_site_symmetry_multiplicity
 _atom_site_fract_x
 _atom_site_fract_y
 _atom_site_fract_z
 _atom_site_occupancy
  Sr2+  Sr0  1  0.11574315  0.14115705  0.13168151  1
  Sr2+  Sr1  1  0.11641875  0.13746524  0.62802077  1
  Sr2+  Sr2  1  0.10888104  0.63664676  0.12523972  1
  Sr2+  Sr3  1  0.12634339  0.63423450  0.62461713  1
  Sr2+  Sr4  1  0.61797658  0.11875597  0.11783183  1
  Sr2+  Sr5  1  0.61953447  0.12887208  0.62498637  1
  Sr2+  Sr6  1  0.62343830  0.63514718  0.12339430  1
  Sr2+  Sr7  1  0.61953554  0.62787890  0.61953520  1
  Sr2+  Sr8  1  0.36679369  0.38060421  0.12138190  1
  Sr2+  Sr9  1  0.36981071  0.38711048  0.62733689  1
  Sr2+  Sr10  1  0.37423637  0.89169553  0.12810775  1
  Sr2+  Sr11  1  0.36621475  0.89063261  0.62785396  1
  Sr2+  Sr12  1  0.86716229  0.39069633  0.12289222  1
  Sr2+  Sr13  1  0.86832508  0.37431453  0.63100482  1
  Sr2+  Sr14  1  0.86986406  0.88662577  0.11598968  1
  Sr2+  Sr15  1  0.86637040  0.88408706  0.62922347  1
  Sr2+  Sr16  1  0.13292252  0.36010018  0.37247334  1
  Sr2+  Sr17  1  0.14038989  0.37104255  0.87976557  1
  Sr2+  Sr18  1  0.13933342  0.86993018  0.37171357  1
  Sr2+  Sr19  1  0.13245320  0.87245037  0.88399044  1
  Sr2+  Sr20  1  0.63567417  0.37422990  0.37421513  1
  Sr2+  Sr21  1  0.63300641  0.36563781  0.87731588  1
  Sr2+  Sr22  1  0.63185437  0.86560985  0.37268194  1
  Sr2+  Sr23  1  0.62854429  0.86816036  0.87259273  1
  Sr2+  Sr24  1  0.37557810  0.11127758  0.37442128  1
  Sr2+  Sr25  1  0.37926234  0.12487886  0.87083246  1
  Sr2+  Sr26  1  0.38772473  0.61939480  0.37438505  1
  Sr2+  Sr27  1  0.37324512  0.61998901  0.87370683  1
  Sr2+  Sr28  1  0.88738025  0.12386865  0.38243452  1
  Sr2+  Sr29  1  0.88815799  0.11624016  0.87135998  1
  Sr2+  Sr30  1  0.88361100  0.61373448  0.37573409  1
  Sr2+  Sr31  1  0.89404576  0.61823769  0.87215386  1
  Sr2+  Sr32  1  0.12857651  0.11210137  0.37460895  1
  Sr2+  Sr33  1  0.13095409  0.12844306  0.88168100  1
  Sr2+  Sr34  1  0.13431433  0.62258885  0.37199740  1
  Sr2+  Sr35  1  0.12848572  0.62174309  0.88692416  1
  Sr2+  Sr36  1  0.63830576  0.11204207  0.37713472  1
  Sr2+  Sr37  1  0.63298784  0.11747442  0.87390703  1
  Sr2+  Sr38  1  0.62919643  0.61518950  0.37461206  1
  Sr2+  Sr39  1  0.62811978  0.61668412  0.86851279  1
  Sr2+  Sr40  1  0.39113832  0.36440113  0.37437830  1
  Sr2+  Sr41  1  0.37936302  0.35837033  0.88039271  1
  Sr2+  Sr42  1  0.37777713  0.86515141  0.37200020  1
  Sr2+  Sr43  1  0.37794722  0.86511912  0.87403606  1
  Sr2+  Sr44  1  0.87802236  0.35936052  0.37925981  1
  Sr2+  Sr45  1  0.88458309  0.36536453  0.87195217  1
  Sr2+  Sr46  1  0.88445412  0.86307959  0.37986632  1
  Sr2+  Sr47  1  0.88381784  0.87327927  0.86967171  1
  Sr2+  Sr48  1  0.11308736  0.38106006  0.12498735  1
  Sr2+  Sr49  1  0.12115577  0.38812163  0.62712433  1
  Sr2+  Sr50  1  0.11237603  0.88742692  0.12522586  1
  Sr2+  Sr51  1  0.11502718  0.88117440  0.62393534  1
  Sr2+  Sr52  1  0.61824004  0.38291562  0.11848527  1
  Sr2+  Sr53  1  0.61944169  0.37943202  0.62887596  1
  Sr2+  Sr54  1  0.61575912  0.88026010  0.12745170  1
  Sr2+  Sr55  1  0.61888211  0.88228849  0.63131974  1
  Sr2+  Sr56  1  0.36498235  0.12945093  0.13526173  1
  Sr2+  Sr57  1  0.36755969  0.13537748  0.62757570  1
  Sr2+  Sr58  1  0.36342023  0.63485506  0.12271146  1
  Sr2+  Sr59  1  0.36359021  0.62632636  0.62124380  1
  Sr2+  Sr60  1  0.86685594  0.13051866  0.11335582  1
  Sr2+  Sr61  1  0.86382474  0.12876961  0.62765904  1
  Sr2+  Sr62  1  0.86717122  0.62710684  0.12364218  1
  Sr2+  Sr63  1  0.86722879  0.63120413  0.62724860  1
  Ca2+  Ca64  1  0.49566336  -0.00163242  -0.00294359  1
  Ca2+  Ca65  1  -0.00125666  0.49987134  0.49873112  1
  Ca2+  Ca66  1  -0.00147127  -0.00130617  0.49980060  1
  Ca2+  Ca67  1  0.49955966  -0.00295388  0.50011689  1
  Ca2+  Ca68  1  0.49970873  0.50119661  -0.00043214  1
  Ca2+  Ca69  1  0.25270230  0.24966101  0.49874253  1
  Ca2+  Ca70  1  0.25170366  0.24776823  0.00330613  1
  Ca2+  Ca71  1  0.75220699  0.25038277  0.00020560  1
  Ca2+  Ca72  1  0.24960222  0.75124666  0.00457898  1
  Ca2+  Ca73  1  0.75128714  0.75107708  -0.00145263  1
  Ca2+  Ca74  1  0.75080020  0.50152379  0.74832023  1
  Ca2+  Ca75  1  -0.00382927  0.25132366  0.24984492  1
  Ca2+  Ca76  1  -0.00264743  0.75301254  0.24907217  1
  Ca2+  Ca77  1  0.25092039  0.50131599  0.24962563  1
  Ca2+  Ca78  1  0.74955905  0.00099303  0.75044769  1
  Ca2+  Ca79  1  0.50465324  0.24944797  0.25286749  1
  Ca2+  Ca80  1  0.24749522  0.00080578  0.75046908  1
  Ca2+  Ca81  1  0.00239522  0.74782074  0.74974426  1
  Ca2+  Ca82  1  0.24966409  0.49970295  0.75174684  1
  Ca2+  Ca83  1  0.75199140  -0.00056585  0.25148899  1
  Ca2+  Ca84  1  0.00208369  0.25000803  0.75151393  1
  Nb5+  Nb85  1  -0.00036724  0.50333398  0.00095794  1
  Nb5+  Nb86  1  0.50012447  0.49759556  0.50139944  1
  Nb5+  Nb87  1  0.00209511  0.00795869  -0.00053839  1
  Nb5+  Nb88  1  0.25827443  0.74985850  0.49894667  1
  Nb5+  Nb89  1  0.74637007  0.24459580  0.50100592  1
  Nb5+  Nb90  1  0.75350185  0.74407444  0.49844457  1
  Nb5+  Nb91  1  0.50155070  0.25637867  0.74885410  1
  Nb5+  Nb92  1  0.24669497  -0.00083281  0.24846774  1
  Nb5+  Nb93  1  0.49637949  0.75137670  0.74096563  1
  Nb5+  Nb94  1  0.74941802  0.50037493  0.25050093  1
  Nb5+  Nb95  1  0.49900452  0.74703928  0.24425717  1
  Nb5+  Nb96  1  -0.00828224  0.00390168  0.24892094  1
  Nb5+  Nb97  1  0.00562904  -0.00054661  0.74611091  1
  Nb5+  Nb98  1  0.00195718  0.49642912  0.25502582  1
  Nb5+  Nb99  1  0.00312631  0.50017587  0.74545905  1
  Nb5+  Nb100  1  0.50300978  0.00079161  0.25620732  1
  Nb5+  Nb101  1  0.50017075  0.00858844  0.75070821  1
  Nb5+  Nb102  1  0.50034050  0.50138047  0.24646394  1
  Nb5+  Nb103  1  0.49751675  0.50327400  0.75361278  1
  Nb5+  Nb104  1  0.25465415  0.25532660  0.25377519  1
  Nb5+  Nb105  1  0.24832750  0.25285961  0.74412768  1
  Nb5+  Nb106  1  0.24912176  0.75311504  0.24540351  1
  Nb5+  Nb107  1  0.24723658  0.74998523  0.75019784  1
  Nb5+  Nb108  1  0.74702968  0.24857776  0.24704288  1
  Nb5+  Nb109  1  0.75020049  0.24683917  0.75354403  1
  Nb5+  Nb110  1  0.75348767  0.75021030  0.25251291  1
  Nb5+  Nb111  1  0.74947441  0.74545636  0.75435472  1
  Nb5+  Nb112  1  0.00473230  0.25460473  0.50391256  1
  Nb5+  Nb113  1  -0.00102922  0.25868044  1.00157575  1
  Nb5+  Nb114  1  0.01046744  0.74972882  0.49916718  1
  Nb5+  Nb115  1  -0.00247984  0.75877799  1.00006009  1
  Nb5+  Nb116  1  0.50518800  0.24507374  0.49767548  1
  Nb5+  Nb117  1  0.50134880  0.24562639  1.00707334  1
  Nb5+  Nb118  1  0.50392659  0.75022849  0.49780760  1
  Nb5+  Nb119  1  0.50127004  0.74873631  0.98975213  1
  Nb5+  Nb120  1  0.25160382  0.00453209  -0.00082882  1
  Nb5+  Nb121  1  0.24412045  0.00191874  0.50349193  1
  Nb5+  Nb122  1  0.25228099  0.50179435  0.00465961  1
  Nb5+  Nb123  1  0.24854550  0.49528779  0.49130657  1
  Nb5+  Nb124  1  0.74582819  -0.00345263  -0.00219608  1
  Nb5+  Nb125  1  0.75063573  -0.00924955  0.49732354  1
  Nb5+  Nb126  1  0.75121836  0.50391984  -0.00754198  1
  Nb5+  Nb127  1  0.75044801  0.49703945  0.49940534  1
  O2-  O128  1  0.01939981  0.01590319  0.11984719  1
  O2-  O129  1  0.02862151  0.01187697  0.63357432  1
  O2-  O130  1  0.01234197  0.51362113  0.12278595  1
  O2-  O131  1  0.02861799  0.51521813  0.63337066  1
  O2-  O132  1  0.51536493  0.00296392  0.13681238  1
  O2-  O133  1  0.52527255  0.00596655  0.63403189  1
  O2-  O134  1  0.52961029  0.51518888  0.13646617  1
  O2-  O135  1  0.52281216  0.50976055  0.61931550  1
  O2-  O136  1  -0.02512370  -0.01374291  0.36212458  1
  O2-  O137  1  -0.01503120  -0.01262586  0.88250684  1
  O2-  O138  1  -0.03220256  0.48346541  0.36393242  1
  O2-  O139  1  -0.02303422  0.48540413  0.88570322  1
  O2-  O140  1  0.47046932  -0.02001186  0.36715206  1
  O2-  O141  1  0.47015200  -0.01601721  0.86315728  1
  O2-  O142  1  0.48686437  0.49092968  0.37882953  1
  O2-  O143  1  0.46815506  0.48938499  0.86369841  1
  O2-  O144  1  0.28219243  0.25648978  0.13704898  1
  O2-  O145  1  0.28329999  0.26680179  0.63001897  1
  O2-  O146  1  0.28533319  0.76902681  0.13741383  1
  O2-  O147  1  0.27484137  0.76442810  0.61495557  1
  O2-  O148  1  0.77659577  0.26595157  0.13767060  1
  O2-  O149  1  0.76362681  0.26391153  0.61977579  1
  O2-  O150  1  0.76998231  0.76358899  0.13997647  1
  O2-  O151  1  0.76332462  0.76158680  0.61598496  1
  O2-  O152  1  0.22380892  0.22857276  0.36623800  1
  O2-  O153  1  0.24197232  0.23073824  0.86198294  1
  O2-  O154  1  0.23708375  0.73980489  0.37556812  1
  O2-  O155  1  0.23424935  0.73367851  0.86341114  1
  O2-  O156  1  0.72282885  0.24497419  0.38335735  1
  O2-  O157  1  0.72252491  0.23885457  0.86487378  1
  O2-  O158  1  0.72054915  0.73868691  0.38333010  1
  O2-  O159  1  0.71766984  0.73807541  0.86429013  1
  O2-  O160  1  -0.01890919  0.22625887  0.11439974  1
  O2-  O161  1  -0.01938391  0.22457988  0.61695525  1
  O2-  O162  1  -0.02624948  0.73096532  0.11377974  1
  O2-  O163  1  -0.00856614  0.71580419  0.61236730  1
  O2-  O164  1  0.49306516  0.21857355  0.11846108  1
  O2-  O165  1  0.49410214  0.23379571  0.62370156  1
  O2-  O166  1  0.48915640  0.72670095  0.13231281  1
  O2-  O167  1  0.48797253  0.72321197  0.62722202  1
  O2-  O168  1  0.25954814  0.01269284  0.37062252  1
  O2-  O169  1  0.25766413  0.03061362  0.88650440  1
  O2-  O170  1  0.26501676  0.53685113  0.38276945  1
  O2-  O171  1  0.25235752  0.52972822  0.88661400  1
  O2-  O172  1  0.76994693  0.02810362  0.38576477  1
  O2-  O173  1  0.76424484  0.02868072  0.88465678  1
  O2-  O174  1  0.75586334  0.52153596  0.37712230  1
  O2-  O175  1  0.76478646  0.53302994  0.88330773  1
  O2-  O176  1  0.00780922  0.27786062  0.38539196  1
  O2-  O177  1  0.02613862  0.26732871  0.88543391  1
  O2-  O178  1  0.01350280  0.78166699  0.38340867  1
  O2-  O179  1  0.03048534  0.76156695  0.88531108  1
  O2-  O180  1  0.51929895  0.27885648  0.38768987  1
  O2-  O181  1  0.51456439  0.27041437  0.86460113  1
  O2-  O182  1  0.51184464  0.76482877  0.38272263  1
  O2-  O183  1  0.51009542  0.76515141  0.87290291  1
  O2-  O184  1  0.23940283  -0.02762048  0.13157924  1
  O2-  O185  1  0.23382247  -0.02848855  0.61371578  1
  O2-  O186  1  0.23555399  0.46802383  0.11842972  1
  O2-  O187  1  0.24173145  0.48395127  0.60934648  1
  O2-  O188  1  0.74033802  -0.02795973  0.11744675  1
  O2-  O189  1  0.72712266  -0.01476925  0.61315576  1
  O2-  O190  1  0.73454497  0.48251891  0.13543605  1
  O2-  O191  1  0.72748823  0.48868217  0.61206473  1
  O2-  O192  1  0.13700924  0.27018871  0.22869871  1
  O2-  O193  1  0.13649481  0.27417302  0.72441629  1
  O2-  O194  1  0.13641433  0.77486531  0.23276813  1
  O2-  O195  1  0.13739476  0.76744176  0.72025052  1
  O2-  O196  1  0.63699535  0.29235260  0.23956908  1
  O2-  O197  1  0.62121165  0.26590507  0.73022037  1
  O2-  O198  1  0.62107165  0.76520266  0.23967599  1
  O2-  O199  1  0.61540192  0.76653170  0.73401905  1
  O2-  O200  1  0.36959047  0.22185767  0.27511204  1
  O2-  O201  1  0.38749794  0.22597289  0.75940021  1
  O2-  O202  1  0.38178785  0.73416210  0.27257320  1
  O2-  O203  1  0.38181390  0.72625847  0.76493849  1
  O2-  O204  1  0.85892961  0.23672291  0.28398607  1
  O2-  O205  1  0.86437391  0.22653516  0.76545464  1
  O2-  O206  1  0.86297011  0.72795783  0.28088362  1
  O2-  O207  1  0.86255245  0.72211465  0.76311915  1
  O2-  O208  1  0.27693219  0.36685378  0.27451010  1
  O2-  O209  1  0.28110152  0.36590235  0.76712640  1
  O2-  O210  1  0.26963719  0.87461763  0.27081078  1
  O2-  O211  1  0.28180486  0.86269956  0.75834513  1
  O2-  O212  1  0.76927099  0.38664981  0.27295908  1
  O2-  O213  1  0.76494549  0.36555657  0.75850779  1
  O2-  O214  1  0.76193925  0.86336118  0.28073566  1
  O2-  O215  1  0.76517183  0.86318528  0.75478124  1
  O2-  O216  1  0.23475227  0.11514784  0.23311380  1
  O2-  O217  1  0.23872160  0.13428849  0.72048392  1
  O2-  O218  1  0.23316698  0.63821285  0.23168636  1
  O2-  O219  1  0.24516653  0.63515220  0.72002698  1
  O2-  O220  1  0.71538889  0.13780490  0.23738706  1
  O2-  O221  1  0.72656584  0.13406164  0.72567316  1
  O2-  O222  1  0.72692781  0.62715761  0.24258218  1
  O2-  O223  1  0.72063374  0.63461838  0.72528680  1
  O2-  O224  1  0.11454470  0.47471361  0.27178437  1
  O2-  O225  1  0.11643113  0.46682323  0.76755809  1
  O2-  O226  1  0.12924165  0.97841289  0.26261576  1
  O2-  O227  1  0.11696327  0.96227794  0.76943478  1
  O2-  O228  1  0.62575399  0.49098862  0.27211309  1
  O2-  O229  1  0.61252117  0.47730093  0.76802560  1
  O2-  O230  1  0.61550805  0.97471718  0.27104202  1
  O2-  O231  1  0.61345038  0.97385687  0.77169459  1
  O2-  O232  1  0.37221241  0.01126837  0.23480264  1
  O2-  O233  1  0.38444322  0.01792468  0.72432162  1
  O2-  O234  1  0.38868526  0.53209360  0.23629119  1
  O2-  O235  1  0.38614113  0.51365284  0.71799807  1
  O2-  O236  1  0.88281384  0.03238490  0.22582462  1
  O2-  O237  1  0.88662480  0.02559929  0.73890435  1
  O2-  O238  1  0.86563386  0.52545990  0.23654737  1
  O2-  O239  1  0.88471851  0.52686225  0.73205218  1
  O2-  O240  1  0.47734380  0.38798520  0.23716774  1
  O2-  O241  1  0.48403701  0.37215518  0.73024995  1
  O2-  O242  1  0.48365336  0.86554615  0.23858039  1
  O2-  O243  1  0.47857311  0.86530118  0.73189120  1
  O2-  O244  1  0.97684134  0.38581479  0.22162171  1
  O2-  O245  1  0.96973544  0.38412735  0.74163282  1
  O2-  O246  1  0.98238335  0.88808423  0.22105208  1
  O2-  O247  1  0.97095391  0.88168206  0.73747912  1
  O2-  O248  1  0.02906241  0.11599779  0.26275612  1
  O2-  O249  1  0.03118133  0.11410948  0.77133043  1
  O2-  O250  1  0.01932347  0.61539320  0.26050983  1
  O2-  O251  1  0.02345889  0.61256148  0.78004615  1
  O2-  O252  1  0.51889646  0.11349446  0.27353193  1
  O2-  O253  1  0.52206956  0.12389655  0.76427730  1
  O2-  O254  1  0.51919337  0.62994208  0.27247253  1
  O2-  O255  1  0.51709054  0.62097138  0.76333187  1
  O2-  O256  1  0.11575290  0.47881846  -0.01107379  1
  O2-  O257  1  0.13468604  0.47991312  0.47589639  1
  O2-  O258  1  0.12030400  0.97859439  -0.00890969  1
  O2-  O259  1  0.13178053  0.97337015  0.47538868  1
  O2-  O260  1  0.63691850  0.47997265  -0.01741722  1
  O2-  O261  1  0.62201156  0.49241764  0.48021748  1
  O2-  O262  1  0.63229821  0.97617851  -0.01685986  1
  O2-  O263  1  0.63382375  0.98248723  0.47134248  1
  O2-  O264  1  0.36278125  0.02159620  0.02580292  1
  O2-  O265  1  0.36238449  0.01936545  0.51195272  1
  O2-  O266  1  0.36542416  0.52201869  0.02187285  1
  O2-  O267  1  0.38238952  0.51938740  0.51180694  1
  O2-  O268  1  0.88310334  0.01504676  0.01739171  1
  O2-  O269  1  0.86416165  0.01601270  0.52551784  1
  O2-  O270  1  0.87686513  0.51647625  0.02141380  1
  O2-  O271  1  0.86141469  0.52648681  0.51376986  1
  O2-  O272  1  0.47762342  0.36537964  0.01936025  1
  O2-  O273  1  0.48610289  0.38111146  0.51757974  1
  O2-  O274  1  0.46915587  0.86140847  0.01350214  1
  O2-  O275  1  0.47738026  0.85935312  0.52444550  1
  O2-  O276  1  0.97919392  0.37485061  0.01868253  1
  O2-  O277  1  0.96870265  0.36768496  0.52255487  1
  O2-  O278  1  0.98371786  0.87547408  0.01297907  1
  O2-  O279  1  0.97425433  0.86073117  0.52447885  1
  O2-  O280  1  0.01686245  0.12220387  -0.01693219  1
  O2-  O281  1  0.01334310  0.13662891  0.47669608  1
  O2-  O282  1  0.01364657  0.61985822  -0.01227132  1
  O2-  O283  1  0.01435351  0.63505574  0.46562482  1
  O2-  O284  1  0.52900108  0.13252049  -0.02310776  1
  O2-  O285  1  0.53235062  0.13461766  0.48547238  1
  O2-  O286  1  0.53409552  0.63366987  -0.01466865  1
  O2-  O287  1  0.51442217  0.62661041  0.48901270  1
  O2-  O288  1  0.11657549  0.26657117  0.02390324  1
  O2-  O289  1  0.11707337  0.27689456  0.52239417  1
  O2-  O290  1  0.11505957  0.76381475  0.02989188  1
  O2-  O291  1  0.12723086  0.76519792  0.51466324  1
  O2-  O292  1  0.61757273  0.27666201  0.00972337  1
  O2-  O293  1  0.62713250  0.27565835  0.52019145  1
  O2-  O294  1  0.61434874  0.77567418  0.02090611  1
  O2-  O295  1  0.61971000  0.76549728  0.51854557  1
  O2-  O296  1  0.38726721  0.23001340  -0.02415185  1
  O2-  O297  1  0.39039694  0.22958538  0.48317673  1
  O2-  O298  1  0.38550304  0.71619295  -0.01250313  1
  O2-  O299  1  0.37511757  0.72885044  0.48298857  1
  O2-  O300  1  0.88577196  0.23227378  -0.02856591  1
  O2-  O301  1  0.86312583  0.23627765  0.48408202  1
  O2-  O302  1  0.88535064  0.73702173  -0.03405305  1
  O2-  O303  1  0.86675081  0.73112021  0.47971382  1
  O2-  O304  1  0.26563410  0.38451251  -0.02407717  1
  O2-  O305  1  0.27698735  0.38564589  0.47002314  1
  O2-  O306  1  0.26188234  0.88594996  -0.02390282  1
  O2-  O307  1  0.26751754  0.86813291  0.48030673  1
  O2-  O308  1  0.77724463  0.38819148  -0.01301662  1
  O2-  O309  1  0.76255049  0.38145847  0.48397199  1
  O2-  O310  1  0.77994996  0.88432178  -0.02191977  1
  O2-  O311  1  0.76643877  0.87291493  0.48243232  1
  O2-  O312  1  0.21805014  0.11374248  0.02691393  1
  O2-  O313  1  0.21991315  0.11441946  0.51526380  1
  O2-  O314  1  0.22079609  0.61547437  0.02824794  1
  O2-  O315  1  0.23337324  0.63162390  0.51507925  1
  O2-  O316  1  0.73661681  0.11462870  0.02740796  1
  O2-  O317  1  0.72783402  0.13089442  0.51436184  1
  O2-  O318  1  0.73982579  0.61608880  0.03190317  1
  O2-  O319  1  0.72801518  0.62943262  0.51104697  1
