# generated using pymatgen
data_Sr64Ca21Nb43O192
_symmetry_space_group_name_H-M   'P 1'
_cell_length_a   16.66057469
_cell_length_b   16.59686829
_cell_length_c   16.77592894
_cell_angle_alpha   90.05251951
_cell_angle_beta   89.92248074
_cell_angle_gamma   89.84493626
_symmetry_Int_Tables_number   1
_chemical_formula_structural   Sr64Ca21Nb43O192
_chemical_formula_sum   'Sr64 Ca21 Nb43 O192'
_cell_volume   4638.74534315
_cell_formula_units_Z   1
loop_
 _symmetry_equiv_pos_site_id
 _symmetry_equiv_pos_as_xyz
  1  'x, y, z'
loop_
 _atom_type_symbol
 _atom_type_oxidation_number
  Sr2+  2.0
  Ca2+  2.0
  Nb5+  5.0
  O2-  -2.0
loop_
 _atom_site_type_symbol
 _atom_site_label
 _atom_site_symmetry_multiplicity
 _atom_site_fract_x
 _atom_site_fract_y
 _atom_site_fract_z
 _atom_site_occupancy
  Sr2+  Sr0  1  0.12642981  0.12731581  0.13107707  1
  Sr2+  Sr1  1  0.11985291  0.11867911  0.64832540  1
  Sr2+  Sr2  1  0.10889215  0.62504040  0.12164508  1
  Sr2+  Sr3  1  0.11844242  0.63147082  0.62737399  1
  Sr2+  Sr4  1  0.62779533  0.09686725  0.12713241  1
  Sr2+  Sr5  1  0.62275534  0.15085800  0.62069325  1
  Sr2+  Sr6  1  0.62538817  0.62764269  0.12583928  1
  Sr2+  Sr7  1  0.62554032  0.65336471  0.62352683  1
  Sr2+  Sr8  1  0.38010236  0.37859347  0.11952379  1
  Sr2+  Sr9  1  0.36981133  0.37062680  0.62087660  1
  Sr2+  Sr10  1  0.37545130  0.86481936  0.13217291  1
  Sr2+  Sr11  1  0.37515935  0.87234432  0.63051240  1
  Sr2+  Sr12  1  0.87160451  0.37204857  0.12517194  1
  Sr2+  Sr13  1  0.86736072  0.35861862  0.63063472  1
  Sr2+  Sr14  1  0.86476655  0.87314414  0.11787687  1
  Sr2+  Sr15  1  0.86917960  0.86955915  0.63026779  1
  Sr2+  Sr16  1  0.12863795  0.37149154  0.37789242  1
  Sr2+  Sr17  1  0.12332889  0.37642063  0.87756286  1
  Sr2+  Sr18  1  0.12649415  0.87489790  0.37669451  1
  Sr2+  Sr19  1  0.12226102  0.88304088  0.86555651  1
  Sr2+  Sr20  1  0.63169482  0.38673632  0.37597304  1
  Sr2+  Sr21  1  0.60375414  0.38021356  0.86734764  1
  Sr2+  Sr22  1  0.61702278  0.88035258  0.37748444  1
  Sr2+  Sr23  1  0.64536665  0.88141342  0.88060326  1
  Sr2+  Sr24  1  0.37381981  0.11764485  0.37833235  1
  Sr2+  Sr25  1  0.37185001  0.12843675  0.86901561  1
  Sr2+  Sr26  1  0.37949850  0.63323991  0.37248521  1
  Sr2+  Sr27  1  0.38399645  0.62570859  0.87819703  1
  Sr2+  Sr28  1  0.88800702  0.13941233  0.37134665  1
  Sr2+  Sr29  1  0.87646073  0.12018586  0.88275179  1
  Sr2+  Sr30  1  0.88201767  0.62681111  0.37522968  1
  Sr2+  Sr31  1  0.89597882  0.62694614  0.87265963  1
  Sr2+  Sr32  1  0.12869984  0.12097549  0.37161748  1
  Sr2+  Sr33  1  0.13521290  0.13906334  0.87976486  1
  Sr2+  Sr34  1  0.12867851  0.61009393  0.38025722  1
  Sr2+  Sr35  1  0.12529485  0.64542986  0.87956543  1
  Sr2+  Sr36  1  0.61947007  0.13184923  0.38072043  1
  Sr2+  Sr37  1  0.63078459  0.12832034  0.89675905  1
  Sr2+  Sr38  1  0.62518826  0.63053487  0.36881838  1
  Sr2+  Sr39  1  0.62416133  0.61722663  0.84743912  1
  Sr2+  Sr40  1  0.36435196  0.40174693  0.37673756  1
  Sr2+  Sr41  1  0.36981906  0.37249236  0.87959535  1
  Sr2+  Sr42  1  0.36912265  0.87507126  0.37556817  1
  Sr2+  Sr43  1  0.36171108  0.86891054  0.86860510  1
  Sr2+  Sr44  1  0.88172864  0.38558596  0.37273475  1
  Sr2+  Sr45  1  0.87879882  0.39144604  0.86756611  1
  Sr2+  Sr46  1  0.88768834  0.88506277  0.38458767  1
  Sr2+  Sr47  1  0.88475648  0.86639479  0.87613525  1
  Sr2+  Sr48  1  0.12150546  0.36307501  0.12000243  1
  Sr2+  Sr49  1  0.11973657  0.36922483  0.63135307  1
  Sr2+  Sr50  1  0.12079301  0.87918088  0.12320318  1
  Sr2+  Sr51  1  0.10195402  0.88295024  0.62673924  1
  Sr2+  Sr52  1  0.61863021  0.37710723  0.12802591  1
  Sr2+  Sr53  1  0.63141574  0.37667417  0.63180959  1
  Sr2+  Sr54  1  0.62841430  0.86899414  0.12300156  1
  Sr2+  Sr55  1  0.62652723  0.87834100  0.62289564  1
  Sr2+  Sr56  1  0.37885016  0.11580287  0.12636008  1
  Sr2+  Sr57  1  0.38624670  0.11435035  0.62623854  1
  Sr2+  Sr58  1  0.38590842  0.62850953  0.12532495  1
  Sr2+  Sr59  1  0.37050729  0.61593922  0.61661047  1
  Sr2+  Sr60  1  0.87176285  0.12215269  0.12970748  1
  Sr2+  Sr61  1  0.86117719  0.12520717  0.62710254  1
  Sr2+  Sr62  1  0.86818814  0.61970095  0.12919188  1
  Sr2+  Sr63  1  0.86497287  0.63517701  0.62646477  1
  Ca2+  Ca64  1  0.49547155  -0.00386020  -0.00229824  1
  Ca2+  Ca65  1  -0.00321742  0.49806378  0.50026630  1
  Ca2+  Ca66  1  0.50313142  0.50258576  0.49742104  1
  Ca2+  Ca67  1  -0.00244252  0.00679914  0.49985428  1
  Ca2+  Ca68  1  0.00426828  0.00337051  -0.00008652  1
  Ca2+  Ca69  1  0.25274783  0.75072038  0.00121608  1
  Ca2+  Ca70  1  0.75054406  0.25424265  0.00485548  1
  Ca2+  Ca71  1  0.24917544  0.24671918  0.50001613  1
  Ca2+  Ca72  1  0.75149154  0.74236675  0.00041191  1
  Ca2+  Ca73  1  0.25017199  0.75073063  0.50459303  1
  Ca2+  Ca74  1  0.25069652  0.49810569  0.75461512  1
  Ca2+  Ca75  1  -0.00217210  0.75085605  0.25055539  1
  Ca2+  Ca76  1  0.00242484  0.75027103  0.74761235  1
  Ca2+  Ca77  1  0.49707337  0.24857378  0.74983262  1
  Ca2+  Ca78  1  0.75089979  -0.00104422  0.25557678  1
  Ca2+  Ca79  1  -0.00291823  0.25021821  0.75648258  1
  Ca2+  Ca80  1  0.49760811  0.75453381  0.75114204  1
  Ca2+  Ca81  1  0.74554163  0.00286140  0.74780034  1
  Ca2+  Ca82  1  0.49639116  0.24938395  0.25327128  1
  Ca2+  Ca83  1  0.75262065  0.49968899  0.74676703  1
  Ca2+  Ca84  1  0.24978856  0.50223174  0.24418774  1
  Nb5+  Nb85  1  0.49666377  0.50168809  -0.00174421  1
  Nb5+  Nb86  1  0.50100697  -0.00196628  0.50254885  1
  Nb5+  Nb87  1  -0.00418009  0.49950549  0.00048405  1
  Nb5+  Nb88  1  0.75179806  0.75844615  0.49419036  1
  Nb5+  Nb89  1  0.25237369  0.24816698  0.00521124  1
  Nb5+  Nb90  1  0.75077781  0.25569633  0.49292702  1
  Nb5+  Nb91  1  0.75008838  0.49978418  0.25117438  1
  Nb5+  Nb92  1  0.24869607  -0.00262980  0.25346142  1
  Nb5+  Nb93  1  0.00146055  0.25409958  0.24972978  1
  Nb5+  Nb94  1  0.25064246  0.00010838  0.75459236  1
  Nb5+  Nb95  1  0.50073873  0.75175685  0.25005168  1
  Nb5+  Nb96  1  -0.00262044  -0.00100098  0.24641692  1
  Nb5+  Nb97  1  -0.00956937  0.00557122  0.75273281  1
  Nb5+  Nb98  1  0.00684460  0.49791472  0.24647399  1
  Nb5+  Nb99  1  0.00107216  0.50331603  0.74119805  1
  Nb5+  Nb100  1  0.50030780  -0.00211807  0.24925016  1
  Nb5+  Nb101  1  0.50348728  0.00047282  0.75539537  1
  Nb5+  Nb102  1  0.49970374  0.50014422  0.25166128  1
  Nb5+  Nb103  1  0.49512987  0.49872030  0.73950687  1
  Nb5+  Nb104  1  0.25444656  0.25064777  0.24943962  1
  Nb5+  Nb105  1  0.24953185  0.24916967  0.74523057  1
  Nb5+  Nb106  1  0.24295224  0.74869788  0.24897297  1
  Nb5+  Nb107  1  0.24891866  0.74561370  0.74918733  1
  Nb5+  Nb108  1  0.74417170  0.25181761  0.24990791  1
  Nb5+  Nb109  1  0.75013093  0.24530617  0.76057556  1
  Nb5+  Nb110  1  0.75440503  0.75305211  0.25429371  1
  Nb5+  Nb111  1  0.74872367  0.74958482  0.75722619  1
  Nb5+  Nb112  1  0.00211060  0.25068957  0.50507913  1
  Nb5+  Nb113  1  -0.00177608  0.25007565  1.00091990  1
  Nb5+  Nb114  1  0.00212458  0.75312378  0.49831137  1
  Nb5+  Nb115  1  0.00032928  0.75422397  1.00724615  1
  Nb5+  Nb116  1  0.49514687  0.25546748  0.49513044  1
  Nb5+  Nb117  1  0.50411110  0.24813127  1.00451477  1
  Nb5+  Nb118  1  0.49888750  0.75122475  0.49875381  1
  Nb5+  Nb119  1  0.50404519  0.74975478  0.99214107  1
  Nb5+  Nb120  1  0.25565294  -0.00216927  0.00629004  1
  Nb5+  Nb121  1  0.24834254  -0.00123130  0.50824270  1
  Nb5+  Nb122  1  0.24499549  0.50172107  0.00187635  1
  Nb5+  Nb123  1  0.24600766  0.49749354  0.50452163  1
  Nb5+  Nb124  1  0.75230194  -0.00022849  0.00141451  1
  Nb5+  Nb125  1  0.74732754  0.00761265  0.49487005  1
  Nb5+  Nb126  1  0.74315913  0.49793415  -0.00223897  1
  Nb5+  Nb127  1  0.74954222  0.50677656  0.50022721  1
  O2-  O128  1  0.00613621  0.03337672  0.13438017  1
  O2-  O129  1  -0.00163420  0.02808770  0.63388837  1
  O2-  O130  1  -0.01870719  0.51814846  0.12572923  1
  O2-  O131  1  -0.01076012  0.53485554  0.63260165  1
  O2-  O132  1  0.47628333  -0.01913141  0.13502470  1
  O2-  O133  1  0.48954695  -0.02515878  0.61584385  1
  O2-  O134  1  0.49267948  0.48806139  0.12525880  1
  O2-  O135  1  0.47824217  0.47735558  0.62938245  1
  O2-  O136  1  0.01939384  -0.01416821  0.36163196  1
  O2-  O137  1  -0.00386222  -0.02783462  0.86700482  1
  O2-  O138  1  0.01626585  0.47526061  0.36079557  1
  O2-  O139  1  0.01117891  0.47721893  0.88762094  1
  O2-  O140  1  0.50529531  0.01024462  0.37249874  1
  O2-  O141  1  0.50645184  0.03282556  0.86440499  1
  O2-  O142  1  0.52320004  0.51750687  0.36309401  1
  O2-  O143  1  0.51853694  0.51650906  0.88507288  1
  O2-  O144  1  0.22995236  0.24100794  0.12954320  1
  O2-  O145  1  0.22037427  0.24257099  0.63521293  1
  O2-  O146  1  0.27367501  0.74400939  0.13673686  1
  O2-  O147  1  0.28730693  0.74197337  0.63719139  1
  O2-  O148  1  0.74249267  0.28303764  0.13913505  1
  O2-  O149  1  0.73748269  0.26806138  0.60932821  1
  O2-  O150  1  0.75376615  0.76824776  0.13903252  1
  O2-  O151  1  0.75784066  0.76310536  0.61307689  1
  O2-  O152  1  0.23872415  0.24750138  0.36287036  1
  O2-  O153  1  0.26735380  0.24792392  0.88729770  1
  O2-  O154  1  0.25428616  0.76563324  0.36537078  1
  O2-  O155  1  0.22419121  0.77329505  0.86557669  1
  O2-  O156  1  0.76232331  0.22669379  0.37274405  1
  O2-  O157  1  0.76049461  0.21869410  0.87021535  1
  O2-  O158  1  0.74076654  0.72712685  0.37672282  1
  O2-  O159  1  0.72822789  0.73180089  0.86733609  1
  O2-  O160  1  0.01804730  0.24085551  0.12541700  1
  O2-  O161  1  0.01013582  0.22870227  0.61657071  1
  O2-  O162  1  -0.01556848  0.71824752  0.11869971  1
  O2-  O163  1  -0.01396750  0.72651775  0.61284733  1
  O2-  O164  1  0.50083706  0.27918602  0.11799721  1
  O2-  O165  1  0.52370426  0.27018391  0.61019903  1
  O2-  O166  1  0.49535763  0.76829645  0.13257285  1
  O2-  O167  1  0.49878319  0.77314600  0.61210410  1
  O2-  O168  1  0.24175678  -0.01431901  0.36918827  1
  O2-  O169  1  0.24898640  -0.00675660  0.87149716  1
  O2-  O170  1  0.22684007  0.49018994  0.38130607  1
  O2-  O171  1  0.24686623  0.46546511  0.89060781  1
  O2-  O172  1  0.71324830  0.00782808  0.38353083  1
  O2-  O173  1  0.73646163  0.02013029  0.88387446  1
  O2-  O174  1  0.72656251  0.51217779  0.37103365  1
  O2-  O175  1  0.73561276  0.51730187  0.88659078  1
  O2-  O176  1  -0.01080715  0.27330420  0.36531500  1
  O2-  O177  1  -0.01635092  0.28227357  0.89092018  1
  O2-  O178  1  -0.00232846  0.78321724  0.38176184  1
  O2-  O179  1  0.01877607  0.76517970  0.88726958  1
  O2-  O180  1  0.49058036  0.21338553  0.38601691  1
  O2-  O181  1  0.47570767  0.23802418  0.89004582  1
  O2-  O182  1  0.51014863  0.73767651  0.37143531  1
  O2-  O183  1  0.51847938  0.71813422  0.88415403  1
  O2-  O184  1  0.25806829  0.00608582  0.12337233  1
  O2-  O185  1  0.25646748  0.01786614  0.62259790  1
  O2-  O186  1  0.28264404  0.50956396  0.11188618  1
  O2-  O187  1  0.27606448  0.49807938  0.61915981  1
  O2-  O188  1  0.75659124  -0.02158308  0.12102004  1
  O2-  O189  1  0.75782990  -0.02412835  0.60839730  1
  O2-  O190  1  0.76111112  0.47917658  0.13527449  1
  O2-  O191  1  0.77441099  0.48162577  0.60976145  1
  O2-  O192  1  0.12012233  0.27487172  0.25256747  1
  O2-  O193  1  0.13563097  0.26305005  0.77951899  1
  O2-  O194  1  0.13316128  0.78182258  0.23911970  1
  O2-  O195  1  0.13594559  0.77068437  0.71732250  1
  O2-  O196  1  0.63273987  0.27016768  0.27031210  1
  O2-  O197  1  0.63280945  0.26978986  0.76060265  1
  O2-  O198  1  0.62544852  0.76530662  0.25036670  1
  O2-  O199  1  0.63424481  0.77255439  0.73243899  1
  O2-  O200  1  0.36239865  0.21409080  0.24396067  1
  O2-  O201  1  0.36325112  0.21840199  0.73729378  1
  O2-  O202  1  0.38284952  0.73494334  0.25768685  1
  O2-  O203  1  0.36449103  0.74158465  0.78467633  1
  O2-  O204  1  0.87931586  0.23868704  0.23770005  1
  O2-  O205  1  0.86570756  0.22963763  0.73053819  1
  O2-  O206  1  0.86366175  0.71741009  0.25600847  1
  O2-  O207  1  0.86716278  0.72730877  0.75507970  1
  O2-  O208  1  0.27895526  0.36351732  0.24337398  1
  O2-  O209  1  0.27669212  0.36116105  0.74549487  1
  O2-  O210  1  0.27042167  0.88033674  0.23902986  1
  O2-  O211  1  0.26906107  0.88428938  0.73975002  1
  O2-  O212  1  0.76278847  0.37847304  0.27666618  1
  O2-  O213  1  0.77253898  0.36307778  0.75819006  1
  O2-  O214  1  0.77568410  0.86297916  0.27799025  1
  O2-  O215  1  0.77530542  0.86616198  0.76674358  1
  O2-  O216  1  0.22571297  0.11710767  0.25113215  1
  O2-  O217  1  0.22851669  0.12183900  0.76049022  1
  O2-  O218  1  0.22045854  0.63607298  0.25816722  1
  O2-  O219  1  0.22414601  0.63361232  0.75832735  1
  O2-  O220  1  0.73603417  0.13741670  0.22871783  1
  O2-  O221  1  0.73046781  0.13557242  0.71793420  1
  O2-  O222  1  0.72992009  0.61869663  0.23903312  1
  O2-  O223  1  0.73223114  0.63376725  0.72408754  1
  O2-  O224  1  0.11628608  0.48175231  0.21811488  1
  O2-  O225  1  0.11607875  0.47300327  0.74253923  1
  O2-  O226  1  0.12996810  0.98125381  0.23858553  1
  O2-  O227  1  0.13161046  0.98393710  0.74050720  1
  O2-  O228  1  0.62528429  0.48359570  0.23494094  1
  O2-  O229  1  0.61495973  0.47659481  0.74741265  1
  O2-  O230  1  0.61308368  0.97357179  0.23642265  1
  O2-  O231  1  0.61320888  0.96672341  0.74839877  1
  O2-  O232  1  0.36950438  0.01630426  0.26126691  1
  O2-  O233  1  0.36836725  0.02394802  0.75020431  1
  O2-  O234  1  0.38622314  0.52806897  0.26272984  1
  O2-  O235  1  0.38527601  0.52982464  0.76690951  1
  O2-  O236  1  0.88621143  0.02805336  0.26166450  1
  O2-  O237  1  0.87923673  0.03146485  0.75670993  1
  O2-  O238  1  0.86932194  0.51344157  0.26291003  1
  O2-  O239  1  0.88670703  0.51497984  0.77599278  1
  O2-  O240  1  0.47936275  0.38720184  0.26411348  1
  O2-  O241  1  0.47755595  0.38498379  0.77555680  1
  O2-  O242  1  0.48216106  0.87183996  0.26878406  1
  O2-  O243  1  0.46398005  0.88971438  0.76061537  1
  O2-  O244  1  0.98069855  0.37582562  0.22855425  1
  O2-  O245  1  0.98032248  0.38422473  0.72732778  1
  O2-  O246  1  0.97844790  0.88832800  0.22091634  1
  O2-  O247  1  0.98483511  0.88680948  0.72710695  1
  O2-  O248  1  0.01914226  0.13632275  0.26507154  1
  O2-  O249  1  0.02771045  0.11570863  0.77725135  1
  O2-  O250  1  0.01797568  0.61277485  0.26620653  1
  O2-  O251  1  0.02393310  0.61557856  0.77726850  1
  O2-  O252  1  0.51575566  0.11190845  0.23316901  1
  O2-  O253  1  0.51054193  0.11057282  0.71274490  1
  O2-  O254  1  0.51826324  0.63095200  0.23414876  1
  O2-  O255  1  0.52326715  0.61640076  0.73048073  1
  O2-  O256  1  0.13077755  0.48727417  0.02317213  1
  O2-  O257  1  0.13088190  0.46938905  0.52159571  1
  O2-  O258  1  0.13996917  0.97484742  -0.00227014  1
  O2-  O259  1  0.13525053  0.97870936  0.50654058  1
  O2-  O260  1  0.62857510  0.47798222  0.01366438  1
  O2-  O261  1  0.63787573  0.46831786  0.50801356  1
  O2-  O262  1  0.63052461  0.97509164  0.00947360  1
  O2-  O263  1  0.61941566  0.97522139  0.50648274  1
  O2-  O264  1  0.36432623  0.03870735  -0.01067197  1
  O2-  O265  1  0.38160104  0.01525552  0.49217376  1
  O2-  O266  1  0.38197376  0.51098651  -0.01522132  1
  O2-  O267  1  0.36548738  0.52683969  0.47656312  1
  O2-  O268  1  0.86863878  0.02559867  0.00012639  1
  O2-  O269  1  0.86013697  0.01761990  0.47115758  1
  O2-  O270  1  0.88241213  0.51695973  -0.01180357  1
  O2-  O271  1  0.86216795  0.51063832  0.46698316  1
  O2-  O272  1  0.48412740  0.38092763  -0.01200447  1
  O2-  O273  1  0.48219827  0.36509490  0.46769908  1
  O2-  O274  1  0.48541777  0.86145937  -0.02996565  1
  O2-  O275  1  0.48915037  0.87376262  0.47287216  1
  O2-  O276  1  0.99527978  0.38043515  0.02778057  1
  O2-  O277  1  0.96286821  0.36183702  0.51129498  1
  O2-  O278  1  0.98512718  0.86698760  0.02777570  1
  O2-  O279  1  0.96960335  0.87008329  0.52039036  1
  O2-  O280  1  0.01999333  0.13930174  -0.02248774  1
  O2-  O281  1  0.00922738  0.13985890  0.46435066  1
  O2-  O282  1  0.02373489  0.61497644  -0.01128200  1
  O2-  O283  1  0.01088260  0.63668304  0.46911161  1
  O2-  O284  1  0.52282167  0.13532414  0.02371216  1
  O2-  O285  1  0.51913031  0.11374946  0.51437068  1
  O2-  O286  1  0.51394276  0.61663880  0.02464806  1
  O2-  O287  1  0.52863085  0.63798378  0.50824099  1
  O2-  O288  1  0.12838975  0.26928703  -0.00834554  1
  O2-  O289  1  0.11245445  0.27785115  0.49310295  1
  O2-  O290  1  0.11875430  0.75335464  0.02803282  1
  O2-  O291  1  0.11471922  0.77713431  0.50916860  1
  O2-  O292  1  0.61478311  0.27302290  -0.01710154  1
  O2-  O293  1  0.62922851  0.25480455  0.47737614  1
  O2-  O294  1  0.61671569  0.75627793  0.02307271  1
  O2-  O295  1  0.63026750  0.77096967  0.50000170  1
  O2-  O296  1  0.36859145  0.23352464  0.02439551  1
  O2-  O297  1  0.38628071  0.22985234  0.52355585  1
  O2-  O298  1  0.38958241  0.72235425  0.00165136  1
  O2-  O299  1  0.38713121  0.72915312  0.48955366  1
  O2-  O300  1  0.88639847  0.23247462  0.02352716  1
  O2-  O301  1  0.86597253  0.22395223  0.50638547  1
  O2-  O302  1  0.88635381  0.73030245  -0.01720042  1
  O2-  O303  1  0.86649180  0.73049272  0.48872821  1
  O2-  O304  1  0.26429358  0.36663374  0.02066139  1
  O2-  O305  1  0.27958471  0.37970427  0.49987429  1
  O2-  O306  1  0.28853130  0.88666702  0.00640150  1
  O2-  O307  1  0.28162878  0.88659753  0.50458935  1
  O2-  O308  1  0.78380260  0.38819318  -0.00838315  1
  O2-  O309  1  0.76561375  0.36756636  0.47283934  1
  O2-  O310  1  0.77280326  0.88077803  -0.02112466  1
  O2-  O311  1  0.76564594  0.87118570  0.47609469  1
  O2-  O312  1  0.22518918  0.12828667  0.00441401  1
  O2-  O313  1  0.24523543  0.11124892  0.47518131  1
  O2-  O314  1  0.23982473  0.61343692  -0.02291960  1
  O2-  O315  1  0.21701901  0.61629391  0.50774066  1
  O2-  O316  1  0.72645899  0.11811986  0.02137649  1
  O2-  O317  1  0.72837411  0.12082812  0.51331321  1
  O2-  O318  1  0.74743877  0.60857464  0.03558204  1
  O2-  O319  1  0.73248444  0.62147859  0.51319473  1
