# generated using pymatgen
data_Sr64Ca21Nb43O192
_symmetry_space_group_name_H-M   'P 1'
_cell_length_a   16.57582843
_cell_length_b   16.55285545
_cell_length_c   16.71285946
_cell_angle_alpha   89.99070410
_cell_angle_beta   89.94215254
_cell_angle_gamma   89.94568138
_symmetry_Int_Tables_number   1
_chemical_formula_structural   Sr64Ca21Nb43O192
_chemical_formula_sum   'Sr64 Ca21 Nb43 O192'
_cell_volume   4585.62466125
_cell_formula_units_Z   1
loop_
 _symmetry_equiv_pos_site_id
 _symmetry_equiv_pos_as_xyz
  1  'x, y, z'
loop_
 _atom_type_symbol
 _atom_type_oxidation_number
  Sr2+  2.0
  Ca2+  2.0
  Nb5+  5.0
  O2-  -2.0
loop_
 _atom_site_type_symbol
 _atom_site_label
 _atom_site_symmetry_multiplicity
 _atom_site_fract_x
 _atom_site_fract_y
 _atom_site_fract_z
 _atom_site_occupancy
  Sr2+  Sr0  1  0.12388624  0.11145645  0.12887096  1
  Sr2+  Sr1  1  0.11429523  0.12356179  0.62573170  1
  Sr2+  Sr2  1  0.11201388  0.63745783  0.12487374  1
  Sr2+  Sr3  1  0.11696354  0.64095383  0.62281907  1
  Sr2+  Sr4  1  0.61442604  0.13315972  0.12722961  1
  Sr2+  Sr5  1  0.61773891  0.10782452  0.62730192  1
  Sr2+  Sr6  1  0.61634026  0.63973321  0.12383699  1
  Sr2+  Sr7  1  0.62627439  0.63321666  0.63304315  1
  Sr2+  Sr8  1  0.36747867  0.38691004  0.12270610  1
  Sr2+  Sr9  1  0.36568775  0.39333007  0.62538768  1
  Sr2+  Sr10  1  0.37028560  0.88070995  0.12883929  1
  Sr2+  Sr11  1  0.37564420  0.87577460  0.62986593  1
  Sr2+  Sr12  1  0.86798648  0.38249617  0.12404074  1
  Sr2+  Sr13  1  0.87144346  0.38901318  0.62310656  1
  Sr2+  Sr14  1  0.87287466  0.86633930  0.12209698  1
  Sr2+  Sr15  1  0.86625197  0.87394920  0.61902987  1
  Sr2+  Sr16  1  0.10826058  0.37659125  0.37964635  1
  Sr2+  Sr17  1  0.13116260  0.36131889  0.87095202  1
  Sr2+  Sr18  1  0.13304589  0.87784301  0.37125927  1
  Sr2+  Sr19  1  0.12719806  0.88125882  0.87216371  1
  Sr2+  Sr20  1  0.64544443  0.36942842  0.37227745  1
  Sr2+  Sr21  1  0.64249668  0.37623946  0.87535119  1
  Sr2+  Sr22  1  0.63838325  0.87278190  0.37867741  1
  Sr2+  Sr23  1  0.63923920  0.88132845  0.87523640  1
  Sr2+  Sr24  1  0.37961172  0.12637150  0.37372511  1
  Sr2+  Sr25  1  0.37451668  0.12811079  0.87856449  1
  Sr2+  Sr26  1  0.37950901  0.62645664  0.37945655  1
  Sr2+  Sr27  1  0.38949081  0.61816561  0.87103151  1
  Sr2+  Sr28  1  0.86264245  0.13116389  0.37641419  1
  Sr2+  Sr29  1  0.89220118  0.13475620  0.87075672  1
  Sr2+  Sr30  1  0.88923442  0.60768414  0.37142912  1
  Sr2+  Sr31  1  0.88348183  0.61439479  0.87769673  1
  Sr2+  Sr32  1  0.13680833  0.13310059  0.37432645  1
  Sr2+  Sr33  1  0.12934026  0.12231581  0.86629432  1
  Sr2+  Sr34  1  0.13060779  0.62972591  0.37794734  1
  Sr2+  Sr35  1  0.12780671  0.62646719  0.87543714  1
  Sr2+  Sr36  1  0.62808498  0.13472849  0.37906513  1
  Sr2+  Sr37  1  0.62772812  0.13936482  0.88472286  1
  Sr2+  Sr38  1  0.62954785  0.62141026  0.37256801  1
  Sr2+  Sr39  1  0.63274245  0.61335598  0.87458717  1
  Sr2+  Sr40  1  0.37784111  0.38215057  0.37744316  1
  Sr2+  Sr41  1  0.37883140  0.38164593  0.87202263  1
  Sr2+  Sr42  1  0.38069687  0.87211759  0.37663502  1
  Sr2+  Sr43  1  0.38036979  0.87403701  0.87067592  1
  Sr2+  Sr44  1  0.87775745  0.37437367  0.36568366  1
  Sr2+  Sr45  1  0.87996489  0.36731734  0.87109137  1
  Sr2+  Sr46  1  0.88226523  0.86922751  0.37279832  1
  Sr2+  Sr47  1  0.88419172  0.86069141  0.88011667  1
  Sr2+  Sr48  1  0.11445732  0.37933845  0.12556754  1
  Sr2+  Sr49  1  0.11464323  0.37855400  0.62113591  1
  Sr2+  Sr50  1  0.09877877  0.87912769  0.12663860  1
  Sr2+  Sr51  1  0.10272415  0.87865087  0.62121202  1
  Sr2+  Sr52  1  0.61897568  0.37923518  0.12878433  1
  Sr2+  Sr53  1  0.62774566  0.38299995  0.62913853  1
  Sr2+  Sr54  1  0.64884387  0.87430250  0.12557894  1
  Sr2+  Sr55  1  0.62850202  0.87828839  0.62286709  1
  Sr2+  Sr56  1  0.36780098  0.12297868  0.12642649  1
  Sr2+  Sr57  1  0.37639680  0.12094705  0.62543881  1
  Sr2+  Sr58  1  0.37032875  0.62982553  0.12005504  1
  Sr2+  Sr59  1  0.36328772  0.63335593  0.63216076  1
  Sr2+  Sr60  1  0.86164653  0.11195192  0.12545196  1
  Sr2+  Sr61  1  0.87545108  0.12384658  0.63146935  1
  Sr2+  Sr62  1  0.86845399  0.63321039  0.12273438  1
  Sr2+  Sr63  1  0.87266708  0.62962417  0.63644471  1
  Ca2+  Ca64  1  0.50351417  0.49970142  0.50023826  1
  Ca2+  Ca65  1  -0.00067960  0.50246463  0.50178962  1
  Ca2+  Ca66  1  -0.00089267  0.00325402  -0.00148815  1
  Ca2+  Ca67  1  0.00248194  0.49797301  -0.00249614  1
  Ca2+  Ca68  1  0.00140758  0.00308331  0.49553414  1
  Ca2+  Ca69  1  0.74647560  0.74593913  -0.00493779  1
  Ca2+  Ca70  1  0.24986196  0.75213101  0.00252902  1
  Ca2+  Ca71  1  0.75212768  0.24842599  0.00149805  1
  Ca2+  Ca72  1  0.74855864  0.25238678  0.50562634  1
  Ca2+  Ca73  1  0.74966082  0.74499706  0.49821867  1
  Ca2+  Ca74  1  0.74833814  0.50162513  0.24632828  1
  Ca2+  Ca75  1  0.24847601  0.50132495  0.75133433  1
  Ca2+  Ca76  1  0.74573027  0.00007462  0.25020992  1
  Ca2+  Ca77  1  0.50065076  0.24803248  0.74950451  1
  Ca2+  Ca78  1  0.24776543  0.49717729  0.25033106  1
  Ca2+  Ca79  1  0.00186019  0.74955140  0.25298437  1
  Ca2+  Ca80  1  0.50278908  0.75171178  0.75118768  1
  Ca2+  Ca81  1  0.00173217  0.24681579  0.24945958  1
  Ca2+  Ca82  1  -0.00062987  0.75060891  0.75066219  1
  Ca2+  Ca83  1  0.25114270  0.00145026  0.74705767  1
  Ca2+  Ca84  1  0.74946751  0.00420050  0.75213886  1
  Nb5+  Nb85  1  0.50307822  0.50551258  0.00058553  1
  Nb5+  Nb86  1  0.49798183  -0.00196101  0.50049936  1
  Nb5+  Nb87  1  0.49971349  0.00340039  0.00828336  1
  Nb5+  Nb88  1  0.25497879  0.25601454  0.49509781  1
  Nb5+  Nb89  1  0.25189766  0.76052735  0.50102478  1
  Nb5+  Nb90  1  0.24973721  0.24865036  -0.00269512  1
  Nb5+  Nb91  1  0.49386807  0.25612421  0.25145321  1
  Nb5+  Nb92  1  0.49727368  0.76010486  0.24921642  1
  Nb5+  Nb93  1  0.75287278  0.49995103  0.75097574  1
  Nb5+  Nb94  1  0.25087811  -0.00067013  0.25065153  1
  Nb5+  Nb95  1  0.00194850  0.25226783  0.74776212  1
  Nb5+  Nb96  1  -0.00836796  0.00443792  0.25395131  1
  Nb5+  Nb97  1  -0.00445319  -0.00384054  0.74842498  1
  Nb5+  Nb98  1  0.00293793  0.49865765  0.24539826  1
  Nb5+  Nb99  1  0.00646047  0.49967979  0.75439535  1
  Nb5+  Nb100  1  0.50062748  0.00195421  0.25465461  1
  Nb5+  Nb101  1  0.50137656  0.00018502  0.76412543  1
  Nb5+  Nb102  1  0.49780374  0.50950085  0.25043919  1
  Nb5+  Nb103  1  0.50291250  0.50143326  0.74510735  1
  Nb5+  Nb104  1  0.25304485  0.25269158  0.24600714  1
  Nb5+  Nb105  1  0.25319977  0.24824128  0.73919481  1
  Nb5+  Nb106  1  0.25082479  0.74893659  0.24880870  1
  Nb5+  Nb107  1  0.24697942  0.75225677  0.75542701  1
  Nb5+  Nb108  1  0.75371154  0.24734083  0.24555866  1
  Nb5+  Nb109  1  0.74837934  0.24991690  0.74620230  1
  Nb5+  Nb110  1  0.75416383  0.74473181  0.25507455  1
  Nb5+  Nb111  1  0.75079618  0.75388176  0.75311691  1
  Nb5+  Nb112  1  -0.00558816  0.24659242  0.50011410  1
  Nb5+  Nb113  1  0.00154258  0.24472458  1.00880763  1
  Nb5+  Nb114  1  -0.00656375  0.74831260  0.49488717  1
  Nb5+  Nb115  1  0.00192439  0.74961368  0.99836836  1
  Nb5+  Nb116  1  0.49717218  0.24941159  0.50344331  1
  Nb5+  Nb117  1  0.49386648  0.25670830  1.00195247  1
  Nb5+  Nb118  1  0.50000046  0.74970206  0.49982184  1
  Nb5+  Nb119  1  0.49679658  0.76194288  0.99889054  1
  Nb5+  Nb120  1  0.25170607  -0.00111627  0.00001362  1
  Nb5+  Nb121  1  0.25219704  0.00570445  0.50116764  1
  Nb5+  Nb122  1  0.24703273  0.49995970  -0.00124939  1
  Nb5+  Nb123  1  0.25067451  0.50990171  0.50230458  1
  Nb5+  Nb124  1  0.75394754  0.00407044  -0.00563882  1
  Nb5+  Nb125  1  0.75357867  0.00394294  0.49762053  1
  Nb5+  Nb126  1  0.75209297  0.49856649  0.00301336  1
  Nb5+  Nb127  1  0.74964685  0.50215392  0.49595600  1
  O2-  O128  1  -0.00570739  0.02576611  0.13420748  1
  O2-  O129  1  -0.00439591  0.02593318  0.63152912  1
  O2-  O130  1  0.02877225  0.51173047  0.12952065  1
  O2-  O131  1  0.01389843  0.51244451  0.63733417  1
  O2-  O132  1  0.48411271  0.01067462  0.12518470  1
  O2-  O133  1  0.48813079  0.01226725  0.61580548  1
  O2-  O134  1  0.52147870  0.50769611  0.12206288  1
  O2-  O135  1  0.52880103  0.51375558  0.63434824  1
  O2-  O136  1  0.00981612  -0.03115019  0.36493448  1
  O2-  O137  1  0.01361072  -0.01278291  0.86486905  1
  O2-  O138  1  -0.01910631  0.48128743  0.36655268  1
  O2-  O139  1  -0.03014805  0.48361372  0.86593904  1
  O2-  O140  1  0.50412666  -0.01607264  0.36958482  1
  O2-  O141  1  0.50225888  -0.01436603  0.88084936  1
  O2-  O142  1  0.47514386  0.49647909  0.36333938  1
  O2-  O143  1  0.48770926  0.48786940  0.88288956  1
  O2-  O144  1  0.24867205  0.26067830  0.12951961  1
  O2-  O145  1  0.25561030  0.26387784  0.62367142  1
  O2-  O146  1  0.28035736  0.75882551  0.13799954  1
  O2-  O147  1  0.27698747  0.76015718  0.61541053  1
  O2-  O148  1  0.73869960  0.27832952  0.13316449  1
  O2-  O149  1  0.75422628  0.29091166  0.63594990  1
  O2-  O150  1  0.76389013  0.76032097  0.13421095  1
  O2-  O151  1  0.78068307  0.75325456  0.63299861  1
  O2-  O152  1  0.26262895  0.23368570  0.37943356  1
  O2-  O153  1  0.25009689  0.22871133  0.88160137  1
  O2-  O154  1  0.23682838  0.74478831  0.37775435  1
  O2-  O155  1  0.22032599  0.74840929  0.86745910  1
  O2-  O156  1  0.74689061  0.23144165  0.36643142  1
  O2-  O157  1  0.76154875  0.22790965  0.86413457  1
  O2-  O158  1  0.71441863  0.73946613  0.36556942  1
  O2-  O159  1  0.71074298  0.73936778  0.86380784  1
  O2-  O160  1  0.02996446  0.23094615  0.11776451  1
  O2-  O161  1  0.00629062  0.23189215  0.62790177  1
  O2-  O162  1  -0.01836960  0.73015225  0.11848779  1
  O2-  O163  1  -0.01182839  0.72824424  0.61420927  1
  O2-  O164  1  0.49801621  0.23642260  0.12856895  1
  O2-  O165  1  0.50698522  0.21984385  0.61350970  1
  O2-  O166  1  0.47456225  0.73992570  0.13236099  1
  O2-  O167  1  0.47934893  0.73655913  0.61219129  1
  O2-  O168  1  0.24368943  0.01525498  0.37108849  1
  O2-  O169  1  0.24292453  0.01745160  0.88616668  1
  O2-  O170  1  0.27883032  0.50963540  0.38652867  1
  O2-  O171  1  0.28344505  0.50847935  0.88646862  1
  O2-  O172  1  0.72912542  0.02288885  0.38268112  1
  O2-  O173  1  0.71400883  0.01922811  0.88381675  1
  O2-  O174  1  0.75853390  0.52218946  0.38219793  1
  O2-  O175  1  0.75588612  0.51870815  0.87358290  1
  O2-  O176  1  -0.00863545  0.26951887  0.38591781  1
  O2-  O177  1  0.00095487  0.26682044  0.86965269  1
  O2-  O178  1  0.02929130  0.77245292  0.38467029  1
  O2-  O179  1  0.02322524  0.77573758  0.88267087  1
  O2-  O180  1  0.48132326  0.25398706  0.37059233  1
  O2-  O181  1  0.47972448  0.25181555  0.88780228  1
  O2-  O182  1  0.50927001  0.77077107  0.36876168  1
  O2-  O183  1  0.51616906  0.77629567  0.88762517  1
  O2-  O184  1  0.26860776  -0.00301759  0.12946924  1
  O2-  O185  1  0.27794179  -0.00472063  0.61204729  1
  O2-  O186  1  0.24131904  0.46877513  0.11242556  1
  O2-  O187  1  0.23431886  0.47520073  0.61603816  1
  O2-  O188  1  0.76681058  -0.02085282  0.11330349  1
  O2-  O189  1  0.74915641  -0.02400811  0.61428719  1
  O2-  O190  1  0.73703855  0.47199702  0.11427241  1
  O2-  O191  1  0.73896601  0.48336413  0.63336461  1
  O2-  O192  1  0.14117506  0.26500421  0.26950506  1
  O2-  O193  1  0.12332281  0.27444478  0.74446498  1
  O2-  O194  1  0.13954844  0.77994580  0.23693055  1
  O2-  O195  1  0.13489407  0.77422071  0.71958781  1
  O2-  O196  1  0.61110218  0.26473018  0.25531959  1
  O2-  O197  1  0.63546473  0.27317196  0.76060598  1
  O2-  O198  1  0.61134634  0.76951529  0.23099529  1
  O2-  O199  1  0.63537919  0.76112061  0.71481776  1
  O2-  O200  1  0.37620043  0.21798953  0.24644364  1
  O2-  O201  1  0.36461137  0.21970610  0.74666526  1
  O2-  O202  1  0.37500895  0.73603268  0.27438432  1
  O2-  O203  1  0.36489791  0.72417133  0.76510558  1
  O2-  O204  1  0.86619509  0.22088402  0.23960725  1
  O2-  O205  1  0.88088169  0.23826690  0.74668802  1
  O2-  O206  1  0.86566597  0.72350313  0.27409211  1
  O2-  O207  1  0.86442003  0.72404741  0.77799445  1
  O2-  O208  1  0.28587506  0.36130853  0.26178040  1
  O2-  O209  1  0.26683067  0.36094564  0.77170640  1
  O2-  O210  1  0.27412929  0.88172874  0.26459644  1
  O2-  O211  1  0.27808783  0.86814142  0.75799957  1
  O2-  O212  1  0.76238529  0.36562875  0.27133225  1
  O2-  O213  1  0.76733853  0.38049258  0.77389550  1
  O2-  O214  1  0.76225573  0.86474069  0.26677068  1
  O2-  O215  1  0.76950679  0.86735759  0.76933401  1
  O2-  O216  1  0.23821798  0.12322945  0.24019379  1
  O2-  O217  1  0.21661764  0.13631570  0.73898686  1
  O2-  O218  1  0.23011545  0.63519922  0.24264666  1
  O2-  O219  1  0.22671696  0.63493687  0.73063287  1
  O2-  O220  1  0.72036575  0.13426390  0.22807760  1
  O2-  O221  1  0.73822775  0.13918876  0.71354165  1
  O2-  O222  1  0.71610146  0.63338433  0.23442418  1
  O2-  O223  1  0.73264907  0.61800167  0.73916653  1
  O2-  O224  1  0.11804668  0.46218669  0.26221632  1
  O2-  O225  1  0.11656020  0.47427247  0.77348331  1
  O2-  O226  1  0.13566760  0.98145943  0.23821916  1
  O2-  O227  1  0.11630578  0.98028699  0.73736474  1
  O2-  O228  1  0.60906155  0.47144315  0.26035839  1
  O2-  O229  1  0.62754130  0.48001354  0.76609634  1
  O2-  O230  1  0.61001064  0.97398118  0.23465424  1
  O2-  O231  1  0.61324587  0.97165324  0.73653888  1
  O2-  O232  1  0.37669881  0.01729940  0.25697626  1
  O2-  O233  1  0.38731199  0.03457007  0.75684051  1
  O2-  O234  1  0.38455379  0.51380651  0.21883082  1
  O2-  O235  1  0.38637029  0.51975142  0.73408823  1
  O2-  O236  1  0.88008770  0.02972536  0.26546816  1
  O2-  O237  1  0.88282945  0.03454316  0.76009075  1
  O2-  O238  1  0.88411542  0.52643249  0.22949906  1
  O2-  O239  1  0.87078472  0.51314023  0.73687468  1
  O2-  O240  1  0.47352486  0.36891533  0.23871909  1
  O2-  O241  1  0.48123123  0.38375980  0.74052004  1
  O2-  O242  1  0.47179695  0.87557218  0.24011664  1
  O2-  O243  1  0.47004253  0.88602041  0.74318198  1
  O2-  O244  1  0.97300733  0.37962289  0.22746271  1
  O2-  O245  1  0.98278691  0.37282898  0.73222731  1
  O2-  O246  1  0.97958206  0.88563322  0.22642704  1
  O2-  O247  1  0.96820020  0.88463092  0.73054865  1
  O2-  O248  1  0.03302001  0.11370923  0.27254909  1
  O2-  O249  1  0.01969597  0.13415899  0.76438515  1
  O2-  O250  1  0.03007554  0.61499359  0.26806533  1
  O2-  O251  1  0.01801234  0.61532504  0.77122931  1
  O2-  O252  1  0.51652675  0.11903862  0.26005954  1
  O2-  O253  1  0.53674714  0.11446384  0.76420398  1
  O2-  O254  1  0.51416801  0.62629602  0.25832268  1
  O2-  O255  1  0.51968436  0.61578084  0.77599727  1
  O2-  O256  1  0.13882806  0.47299406  -0.02756950  1
  O2-  O257  1  0.13798091  0.48307224  0.47987152  1
  O2-  O258  1  0.13826858  0.98221444  0.01781490  1
  O2-  O259  1  0.14001027  0.97747007  0.50556110  1
  O2-  O260  1  0.61786810  0.47177899  -0.01069335  1
  O2-  O261  1  0.63555518  0.45933566  0.49396159  1
  O2-  O262  1  0.61173293  0.97290958  0.01358078  1
  O2-  O263  1  0.61332932  0.97811226  0.50331582  1
  O2-  O264  1  0.37754294  0.02333207  -0.00537954  1
  O2-  O265  1  0.37509743  0.01264328  0.47715816  1
  O2-  O266  1  0.38376459  0.51155769  0.02015560  1
  O2-  O267  1  0.36896226  0.51621828  0.52949278  1
  O2-  O268  1  0.86403886  0.03083260  -0.02080739  1
  O2-  O269  1  0.86596656  0.02919765  0.49163097  1
  O2-  O270  1  0.86465716  0.52292917  0.01612213  1
  O2-  O271  1  0.86309088  0.53143679  0.52183918  1
  O2-  O272  1  0.47827552  0.37076086  0.01611255  1
  O2-  O273  1  0.46898055  0.36050701  0.51466776  1
  O2-  O274  1  0.46971112  0.87595603  0.01332776  1
  O2-  O275  1  0.47296984  0.87833532  0.50470615  1
  O2-  O276  1  0.98293115  0.36215566  0.01486393  1
  O2-  O277  1  0.99449165  0.36320233  0.52525766  1
  O2-  O278  1  0.97608921  0.86936351  0.01552210  1
  O2-  O279  1  0.98157721  0.86657780  0.52090888  1
  O2-  O280  1  0.03083787  0.13621841  -0.02632238  1
  O2-  O281  1  0.03840838  0.13757036  0.48840390  1
  O2-  O282  1  0.02528250  0.63232312  -0.01985348  1
  O2-  O283  1  0.02831863  0.63454597  0.48317792  1
  O2-  O284  1  0.51678309  0.11946185  -0.00408008  1
  O2-  O285  1  0.50966259  0.11713154  0.47815256  1
  O2-  O286  1  0.51939607  0.62030753  -0.01005754  1
  O2-  O287  1  0.51290877  0.63739922  0.47337711  1
  O2-  O288  1  0.13529511  0.27372024  -0.00208447  1
  O2-  O289  1  0.13843592  0.26987802  0.49859262  1
  O2-  O290  1  0.11788643  0.76810555  0.02902699  1
  O2-  O291  1  0.13612106  0.76772106  0.51831171  1
  O2-  O292  1  0.61033244  0.26183591  -0.00421604  1
  O2-  O293  1  0.60954935  0.26408499  0.48210318  1
  O2-  O294  1  0.60848575  0.76243757  0.03236107  1
  O2-  O295  1  0.61163965  0.77788429  0.50972017  1
  O2-  O296  1  0.37368565  0.22440797  0.01190826  1
  O2-  O297  1  0.37258820  0.21864508  0.50470139  1
  O2-  O298  1  0.38660993  0.72028143  -0.01337530  1
  O2-  O299  1  0.37351690  0.74004678  0.47732286  1
  O2-  O300  1  0.88829863  0.21977625  0.01434579  1
  O2-  O301  1  0.88397241  0.21752625  0.50693844  1
  O2-  O302  1  0.88202504  0.72976418  -0.02211149  1
  O2-  O303  1  0.88369261  0.73177022  0.46560592  1
  O2-  O304  1  0.28002992  0.36344269  -0.01274190  1
  O2-  O305  1  0.27859270  0.36839777  0.49000735  1
  O2-  O306  1  0.28034643  0.88683326  -0.00864916  1
  O2-  O307  1  0.26947724  0.87604084  0.48427571  1
  O2-  O308  1  0.76688273  0.38314741  -0.02773822  1
  O2-  O309  1  0.78493307  0.38534787  0.48358777  1
  O2-  O310  1  0.75985079  0.88428939  -0.02481279  1
  O2-  O311  1  0.76683914  0.88456016  0.47467885  1
  O2-  O312  1  0.23787746  0.12758367  0.02100067  1
  O2-  O313  1  0.23469832  0.12258529  0.50963226  1
  O2-  O314  1  0.23057920  0.61282464  0.01764121  1
  O2-  O315  1  0.23632045  0.62731719  0.51138158  1
  O2-  O316  1  0.71910532  0.11485487  0.02407542  1
  O2-  O317  1  0.71907221  0.11687831  0.51991044  1
  O2-  O318  1  0.71583811  0.61126738  0.01064569  1
  O2-  O319  1  0.70798000  0.61362222  0.51346819  1
