# generated using pymatgen
data_Sr64Ca21Nb43O192
_symmetry_space_group_name_H-M   'P 1'
_cell_length_a   16.56903864
_cell_length_b   16.56995541
_cell_length_c   16.73355453
_cell_angle_alpha   90.04802947
_cell_angle_beta   89.97501192
_cell_angle_gamma   90.10387479
_symmetry_Int_Tables_number   1
_chemical_formula_structural   Sr64Ca21Nb43O192
_chemical_formula_sum   'Sr64 Ca21 Nb43 O192'
_cell_volume   4594.15820536
_cell_formula_units_Z   1
loop_
 _symmetry_equiv_pos_site_id
 _symmetry_equiv_pos_as_xyz
  1  'x, y, z'
loop_
 _atom_type_symbol
 _atom_type_oxidation_number
  Sr2+  2.0
  Ca2+  2.0
  Nb5+  5.0
  O2-  -2.0
loop_
 _atom_site_type_symbol
 _atom_site_label
 _atom_site_symmetry_multiplicity
 _atom_site_fract_x
 _atom_site_fract_y
 _atom_site_fract_z
 _atom_site_occupancy
  Sr2+  Sr0  1  0.12593414  0.12642431  0.12602397  1
  Sr2+  Sr1  1  0.13523492  0.11663108  0.62664642  1
  Sr2+  Sr2  1  0.13948332  0.63498726  0.12438301  1
  Sr2+  Sr3  1  0.13201532  0.63750181  0.61563591  1
  Sr2+  Sr4  1  0.62480426  0.11513353  0.12329829  1
  Sr2+  Sr5  1  0.63754323  0.12056652  0.62619384  1
  Sr2+  Sr6  1  0.63506103  0.62923499  0.12573053  1
  Sr2+  Sr7  1  0.62899998  0.62285784  0.63249767  1
  Sr2+  Sr8  1  0.38430615  0.37371069  0.13512122  1
  Sr2+  Sr9  1  0.37798724  0.38642390  0.62393465  1
  Sr2+  Sr10  1  0.37394451  0.88371946  0.12197775  1
  Sr2+  Sr11  1  0.38307135  0.86403821  0.62143646  1
  Sr2+  Sr12  1  0.88175387  0.37709300  0.12271978  1
  Sr2+  Sr13  1  0.88220099  0.38795019  0.62214054  1
  Sr2+  Sr14  1  0.87536933  0.87332351  0.12544625  1
  Sr2+  Sr15  1  0.87736858  0.86865965  0.63704177  1
  Sr2+  Sr16  1  0.11432555  0.37255853  0.37448772  1
  Sr2+  Sr17  1  0.11984540  0.37397826  0.86759122  1
  Sr2+  Sr18  1  0.12017814  0.87684462  0.39465307  1
  Sr2+  Sr19  1  0.11360281  0.86952717  0.87538354  1
  Sr2+  Sr20  1  0.61710103  0.36614591  0.38149478  1
  Sr2+  Sr21  1  0.63506903  0.37138256  0.87738994  1
  Sr2+  Sr22  1  0.62335972  0.86857920  0.36463126  1
  Sr2+  Sr23  1  0.61829117  0.87546126  0.87336312  1
  Sr2+  Sr24  1  0.35298318  0.12942616  0.37522965  1
  Sr2+  Sr25  1  0.37080682  0.13266306  0.87600888  1
  Sr2+  Sr26  1  0.36411433  0.62221814  0.37182426  1
  Sr2+  Sr27  1  0.36544486  0.62547844  0.87373535  1
  Sr2+  Sr28  1  0.85511120  0.12794803  0.37631580  1
  Sr2+  Sr29  1  0.85899601  0.12439407  0.87273454  1
  Sr2+  Sr30  1  0.85517302  0.61882086  0.37099955  1
  Sr2+  Sr31  1  0.85402402  0.61478919  0.88146382  1
  Sr2+  Sr32  1  0.12012591  0.12958461  0.37988682  1
  Sr2+  Sr33  1  0.11438541  0.12109323  0.87287732  1
  Sr2+  Sr34  1  0.11757668  0.62271770  0.37274999  1
  Sr2+  Sr35  1  0.12609438  0.62334910  0.87615407  1
  Sr2+  Sr36  1  0.62580171  0.12011035  0.38738859  1
  Sr2+  Sr37  1  0.61800129  0.13102190  0.87261715  1
  Sr2+  Sr38  1  0.61582156  0.62196754  0.36604303  1
  Sr2+  Sr39  1  0.61138874  0.61698928  0.87921490  1
  Sr2+  Sr40  1  0.36623138  0.37132165  0.37482309  1
  Sr2+  Sr41  1  0.36626618  0.37733406  0.86768544  1
  Sr2+  Sr42  1  0.37054532  0.89891387  0.37202067  1
  Sr2+  Sr43  1  0.36683529  0.87158020  0.87657724  1
  Sr2+  Sr44  1  0.87051073  0.36788668  0.37625929  1
  Sr2+  Sr45  1  0.87039918  0.37460585  0.87820470  1
  Sr2+  Sr46  1  0.86468135  0.85892120  0.36752519  1
  Sr2+  Sr47  1  0.86651576  0.88218871  0.87698038  1
  Sr2+  Sr48  1  0.13020762  0.37482911  0.12790254  1
  Sr2+  Sr49  1  0.12321392  0.38268983  0.62426989  1
  Sr2+  Sr50  1  0.11088882  0.87438486  0.11939120  1
  Sr2+  Sr51  1  0.11099605  0.87293018  0.62560733  1
  Sr2+  Sr52  1  0.62193577  0.37324427  0.11222031  1
  Sr2+  Sr53  1  0.61685490  0.37432205  0.62685896  1
  Sr2+  Sr54  1  0.60516271  0.87413086  0.12494684  1
  Sr2+  Sr55  1  0.63027620  0.86812480  0.63095356  1
  Sr2+  Sr56  1  0.38833206  0.12459557  0.13048722  1
  Sr2+  Sr57  1  0.37867402  0.13135706  0.61768891  1
  Sr2+  Sr58  1  0.38804212  0.62884388  0.12850658  1
  Sr2+  Sr59  1  0.39297752  0.62919323  0.62679514  1
  Sr2+  Sr60  1  0.88465577  0.12614973  0.12981749  1
  Sr2+  Sr61  1  0.87768979  0.11860666  0.63205782  1
  Sr2+  Sr62  1  0.86721326  0.62423737  0.12773994  1
  Sr2+  Sr63  1  0.88667961  0.62737068  0.61808282  1
  Ca2+  Ca64  1  0.50116661  -0.00230566  0.50558561  1
  Ca2+  Ca65  1  0.49908232  0.50496755  0.49682185  1
  Ca2+  Ca66  1  0.00133034  0.50172023  0.00401089  1
  Ca2+  Ca67  1  0.49508906  0.49879292  0.00142746  1
  Ca2+  Ca68  1  -0.00451023  0.00387757  0.50059497  1
  Ca2+  Ca69  1  0.75163985  0.24505216  0.00195226  1
  Ca2+  Ca70  1  0.74355666  0.74827573  0.49935928  1
  Ca2+  Ca71  1  0.74741670  0.75230115  -0.00256279  1
  Ca2+  Ca72  1  0.25161282  0.24810540  0.00130803  1
  Ca2+  Ca73  1  0.25516855  0.74848099  0.50085447  1
  Ca2+  Ca74  1  0.50249383  0.25054903  0.25369579  1
  Ca2+  Ca75  1  0.75178104  0.50059979  0.74805901  1
  Ca2+  Ca76  1  0.00229798  0.74669170  0.24791563  1
  Ca2+  Ca77  1  0.24528902  0.00308837  0.24628430  1
  Ca2+  Ca78  1  0.74866031  0.49231122  0.25156975  1
  Ca2+  Ca79  1  -0.00023604  0.25108587  0.74615448  1
  Ca2+  Ca80  1  0.75145810  0.00086258  0.24824949  1
  Ca2+  Ca81  1  -0.00102586  0.74420033  0.75295242  1
  Ca2+  Ca82  1  0.49399092  0.74939628  0.24577135  1
  Ca2+  Ca83  1  0.25260305  -0.00246774  0.75082648  1
  Ca2+  Ca84  1  0.49866660  0.24935484  0.74644175  1
  Nb5+  Nb85  1  -0.00752795  0.00082574  -0.00196542  1
  Nb5+  Nb86  1  0.49392651  0.00115690  -0.00616232  1
  Nb5+  Nb87  1  0.00083372  0.50111334  0.49786856  1
  Nb5+  Nb88  1  0.24165124  0.25435207  0.50209575  1
  Nb5+  Nb89  1  0.74568614  0.25306321  0.50396940  1
  Nb5+  Nb90  1  0.25137613  0.75035995  0.00127599  1
  Nb5+  Nb91  1  0.24784187  0.50258324  0.74233511  1
  Nb5+  Nb92  1  -0.00170942  0.25063451  0.25246224  1
  Nb5+  Nb93  1  0.50036144  0.75023227  0.75292251  1
  Nb5+  Nb94  1  0.74744468  -0.00237141  0.75183313  1
  Nb5+  Nb95  1  0.24745206  0.50085964  0.24393389  1
  Nb5+  Nb96  1  0.00207261  -0.00075233  0.25482210  1
  Nb5+  Nb97  1  0.00073317  -0.00441025  0.74980689  1
  Nb5+  Nb98  1  0.00237955  0.49980519  0.24824145  1
  Nb5+  Nb99  1  -0.00176981  0.50789196  0.75529974  1
  Nb5+  Nb100  1  0.50260729  0.00352795  0.25633022  1
  Nb5+  Nb101  1  0.49804566  0.00059869  0.75116977  1
  Nb5+  Nb102  1  0.50314107  0.49687857  0.25230448  1
  Nb5+  Nb103  1  0.49940619  0.49700446  0.75377125  1
  Nb5+  Nb104  1  0.24757905  0.24995267  0.25014762  1
  Nb5+  Nb105  1  0.24631443  0.24878964  0.75164284  1
  Nb5+  Nb106  1  0.25074535  0.75771500  0.25265979  1
  Nb5+  Nb107  1  0.25105066  0.75219772  0.74755387  1
  Nb5+  Nb108  1  0.74560607  0.25147338  0.24792472  1
  Nb5+  Nb109  1  0.75583701  0.25423550  0.74727716  1
  Nb5+  Nb110  1  0.74830599  0.74970432  0.24778534  1
  Nb5+  Nb111  1  0.74846497  0.74446749  0.75386597  1
  Nb5+  Nb112  1  -0.00519616  0.25165095  0.50185167  1
  Nb5+  Nb113  1  0.00096594  0.25066150  0.99681183  1
  Nb5+  Nb114  1  -0.00261486  0.75418234  0.49542614  1
  Nb5+  Nb115  1  -0.00182086  0.74328619  0.99970204  1
  Nb5+  Nb116  1  0.49253509  0.25142763  0.49961753  1
  Nb5+  Nb117  1  0.49458146  0.25369396  0.99649074  1
  Nb5+  Nb118  1  0.50244656  0.75032585  0.49039566  1
  Nb5+  Nb119  1  0.49921515  0.74985570  0.99858315  1
  Nb5+  Nb120  1  0.24215560  0.00028192  -0.00508939  1
  Nb5+  Nb121  1  0.25218615  -0.00348920  0.50523792  1
  Nb5+  Nb122  1  0.25287743  0.49528740  -0.00392283  1
  Nb5+  Nb123  1  0.24793521  0.50101597  0.49399545  1
  Nb5+  Nb124  1  0.74357705  -0.00044077  0.00193344  1
  Nb5+  Nb125  1  0.75506644  -0.00720381  0.50298817  1
  Nb5+  Nb126  1  0.74790135  0.49748316  0.00166394  1
  Nb5+  Nb127  1  0.74469009  0.49926661  0.49846712  1
  O2-  O128  1  -0.02143177  -0.01029112  0.11535062  1
  O2-  O129  1  -0.01931709  -0.01992375  0.63568085  1
  O2-  O130  1  0.00849458  0.46648744  0.13787644  1
  O2-  O131  1  0.00408698  0.48310383  0.61778655  1
  O2-  O132  1  0.48460954  -0.01270246  0.11165309  1
  O2-  O133  1  0.48274293  -0.02519205  0.64042808  1
  O2-  O134  1  0.50290120  0.46839634  0.13480569  1
  O2-  O135  1  0.49931231  0.49047665  0.63498887  1
  O2-  O136  1  0.02965215  0.01024463  0.36533192  1
  O2-  O137  1  0.01350116  0.01144802  0.87705011  1
  O2-  O138  1  0.00687710  0.51176487  0.37632362  1
  O2-  O139  1  0.00012226  0.52782075  0.86802615  1
  O2-  O140  1  0.52709778  0.00625457  0.36844300  1
  O2-  O141  1  0.52864750  0.00738930  0.87617466  1
  O2-  O142  1  0.48195995  0.53438053  0.36465227  1
  O2-  O143  1  0.48232061  0.52713381  0.86634680  1
  O2-  O144  1  0.25141956  0.23337440  0.13731833  1
  O2-  O145  1  0.25295168  0.23651774  0.61889650  1
  O2-  O146  1  0.26956065  0.73046754  0.11529564  1
  O2-  O147  1  0.26612046  0.71903005  0.63704148  1
  O2-  O148  1  0.75232446  0.22102275  0.13753535  1
  O2-  O149  1  0.76145109  0.22798612  0.62171664  1
  O2-  O150  1  0.76017244  0.72806684  0.13002287  1
  O2-  O151  1  0.73111964  0.73767751  0.63538043  1
  O2-  O152  1  0.24307695  0.27164726  0.38097800  1
  O2-  O153  1  0.24704911  0.27617417  0.86487153  1
  O2-  O154  1  0.23255118  0.76828328  0.36489263  1
  O2-  O155  1  0.24440777  0.75867856  0.87235358  1
  O2-  O156  1  0.74665191  0.26966563  0.38484521  1
  O2-  O157  1  0.75546215  0.26852789  0.86371127  1
  O2-  O158  1  0.73965753  0.77285768  0.36676418  1
  O2-  O159  1  0.74908574  0.78160831  0.86430425  1
  O2-  O160  1  -0.01221567  0.26252217  0.13524788  1
  O2-  O161  1  -0.00933752  0.28098672  0.61264810  1
  O2-  O162  1  -0.00899446  0.77735588  0.11288108  1
  O2-  O163  1  -0.01510239  0.76184355  0.61539827  1
  O2-  O164  1  0.49829430  0.26637390  0.11601200  1
  O2-  O165  1  0.49164207  0.28549742  0.61371745  1
  O2-  O166  1  0.47682296  0.77271171  0.11063692  1
  O2-  O167  1  0.49507072  0.76365488  0.63508493  1
  O2-  O168  1  0.23276912  -0.01388203  0.38585604  1
  O2-  O169  1  0.24051625  -0.03585916  0.88369314  1
  O2-  O170  1  0.26011050  0.48471001  0.37863500  1
  O2-  O171  1  0.26127183  0.48921931  0.87792929  1
  O2-  O172  1  0.74045207  -0.01818059  0.38819427  1
  O2-  O173  1  0.74203918  -0.02221119  0.87067923  1
  O2-  O174  1  0.76647733  0.47386089  0.38628671  1
  O2-  O175  1  0.76479643  0.47723614  0.88109010  1
  O2-  O176  1  0.01468951  0.24129889  0.37806933  1
  O2-  O177  1  0.01997776  0.24012731  0.88402387  1
  O2-  O178  1  0.02771911  0.74072199  0.38116060  1
  O2-  O179  1  0.02790083  0.73923641  0.88604887  1
  O2-  O180  1  0.52543415  0.22933750  0.38798065  1
  O2-  O181  1  0.49570628  0.22448900  0.88004898  1
  O2-  O182  1  0.51348848  0.73517684  0.37828630  1
  O2-  O183  1  0.50517430  0.73126530  0.87571148  1
  O2-  O184  1  0.27443314  0.01738067  0.10775498  1
  O2-  O185  1  0.26546899  0.03263471  0.61816670  1
  O2-  O186  1  0.23134564  0.50894133  0.12857127  1
  O2-  O187  1  0.23059084  0.51191386  0.62776560  1
  O2-  O188  1  0.76331325  0.02931157  0.11134877  1
  O2-  O189  1  0.76382111  0.01822734  0.63354931  1
  O2-  O190  1  0.73602924  0.51616213  0.11889576  1
  O2-  O191  1  0.75959047  0.52441514  0.61352630  1
  O2-  O192  1  0.12382850  0.27512679  0.24803194  1
  O2-  O193  1  0.13409823  0.28120186  0.73421502  1
  O2-  O194  1  0.13976316  0.75768376  0.21572999  1
  O2-  O195  1  0.13712322  0.76946836  0.73735550  1
  O2-  O196  1  0.63681022  0.28681418  0.24668263  1
  O2-  O197  1  0.63721775  0.26399232  0.73819350  1
  O2-  O198  1  0.63021623  0.77286869  0.23469397  1
  O2-  O199  1  0.61866722  0.76977587  0.75507210  1
  O2-  O200  1  0.36347620  0.23716388  0.26441578  1
  O2-  O201  1  0.36263422  0.22644657  0.74334701  1
  O2-  O202  1  0.36029054  0.71515231  0.25531897  1
  O2-  O203  1  0.37939293  0.72946071  0.76166372  1
  O2-  O204  1  0.88286982  0.22786197  0.26551435  1
  O2-  O205  1  0.86791206  0.21539658  0.75100345  1
  O2-  O206  1  0.86892534  0.72489118  0.26392284  1
  O2-  O207  1  0.86255588  0.72599530  0.74556183  1
  O2-  O208  1  0.26515227  0.37648824  0.23942999  1
  O2-  O209  1  0.27292012  0.38295698  0.73599375  1
  O2-  O210  1  0.27604216  0.86800882  0.23507446  1
  O2-  O211  1  0.28000059  0.86272352  0.73316240  1
  O2-  O212  1  0.79069216  0.36003271  0.24031324  1
  O2-  O213  1  0.77829740  0.36575661  0.72768195  1
  O2-  O214  1  0.77854369  0.86810109  0.23553704  1
  O2-  O215  1  0.76235428  0.87803333  0.73048853  1
  O2-  O216  1  0.22493764  0.13763047  0.27430582  1
  O2-  O217  1  0.21963611  0.13625664  0.76515098  1
  O2-  O218  1  0.22664794  0.61548779  0.26624606  1
  O2-  O219  1  0.23422906  0.61912356  0.77002043  1
  O2-  O220  1  0.73322822  0.13763909  0.28308927  1
  O2-  O221  1  0.72921712  0.11782662  0.76486865  1
  O2-  O222  1  0.72716315  0.63061834  0.26779952  1
  O2-  O223  1  0.72203649  0.63371945  0.77697204  1
  O2-  O224  1  0.12900659  0.47290993  0.26241830  1
  O2-  O225  1  0.13056861  0.47761204  0.76093304  1
  O2-  O226  1  0.11264819  0.99470754  0.21149319  1
  O2-  O227  1  0.11581380  0.97381478  0.74161961  1
  O2-  O228  1  0.61432218  0.47774421  0.27434667  1
  O2-  O229  1  0.61493724  0.48041989  0.76012058  1
  O2-  O230  1  0.61700215  0.98434760  0.22405535  1
  O2-  O231  1  0.62752142  0.97800344  0.74130426  1
  O2-  O232  1  0.38287809  0.02528464  0.26707982  1
  O2-  O233  1  0.38753438  0.01554718  0.78004598  1
  O2-  O234  1  0.36411146  0.51689383  0.23889301  1
  O2-  O235  1  0.36772491  0.52054991  0.73967061  1
  O2-  O236  1  0.88970489  0.03403649  0.25578210  1
  O2-  O237  1  0.87090945  0.01363727  0.76655318  1
  O2-  O238  1  0.88831091  0.52137711  0.24737980  1
  O2-  O239  1  0.88655138  0.53345736  0.74247499  1
  O2-  O240  1  0.46873399  0.38435738  0.27276152  1
  O2-  O241  1  0.47471796  0.38489137  0.76813083  1
  O2-  O242  1  0.47572018  0.88680066  0.25466046  1
  O2-  O243  1  0.48507691  0.86979677  0.77344220  1
  O2-  O244  1  0.98579628  0.37137516  0.27378108  1
  O2-  O245  1  0.98125217  0.38938717  0.76634316  1
  O2-  O246  1  0.98086441  0.88614196  0.26053816  1
  O2-  O247  1  0.97742896  0.87963083  0.77190123  1
  O2-  O248  1  0.02541974  0.13446147  0.24034503  1
  O2-  O249  1  0.01947157  0.11356514  0.73597743  1
  O2-  O250  1  0.03330815  0.61003449  0.23418603  1
  O2-  O251  1  0.03615480  0.61442644  0.72379504  1
  O2-  O252  1  0.51527945  0.11746539  0.22264307  1
  O2-  O253  1  0.52280942  0.11195485  0.73318066  1
  O2-  O254  1  0.51601521  0.61345941  0.21867258  1
  O2-  O255  1  0.51710241  0.62850634  0.73652142  1
  O2-  O256  1  0.13573666  0.47670825  -0.00828621  1
  O2-  O257  1  0.12655566  0.47488531  0.49675538  1
  O2-  O258  1  0.12768426  0.98339663  0.01252014  1
  O2-  O259  1  0.13247160  0.98759181  0.52311296  1
  O2-  O260  1  0.62959071  0.47066061  -0.01197190  1
  O2-  O261  1  0.63437919  0.46788952  0.50332932  1
  O2-  O262  1  0.62902727  0.97860237  0.01255491  1
  O2-  O263  1  0.63943619  0.99510136  0.52861404  1
  O2-  O264  1  0.38031761  0.01393382  -0.02529668  1
  O2-  O265  1  0.36632368  0.02641429  0.48110525  1
  O2-  O266  1  0.36186795  0.53527803  0.01415049  1
  O2-  O267  1  0.36062723  0.51471628  0.51844989  1
  O2-  O268  1  0.87938414  0.01709113  -0.01987424  1
  O2-  O269  1  0.86452093  0.03825302  0.49813313  1
  O2-  O270  1  0.86712694  0.52646017  0.00911075  1
  O2-  O271  1  0.88376843  0.51425804  0.50094406  1
  O2-  O272  1  0.46670173  0.36412727  -0.02128791  1
  O2-  O273  1  0.48644410  0.36849161  0.47041346  1
  O2-  O274  1  0.48438342  0.87949513  -0.02245660  1
  O2-  O275  1  0.45967767  0.86382372  0.48825442  1
  O2-  O276  1  0.97590366  0.36362378  -0.01140835  1
  O2-  O277  1  0.98835964  0.37760342  0.47861980  1
  O2-  O278  1  0.99215302  0.88058977  -0.01799812  1
  O2-  O279  1  0.97917961  0.86776766  0.47780172  1
  O2-  O280  1  0.02430928  0.11711601  0.01214241  1
  O2-  O281  1  0.02434546  0.14089536  0.51917239  1
  O2-  O282  1  0.02690083  0.63512194  0.02581448  1
  O2-  O283  1  0.02314649  0.61759384  0.51042753  1
  O2-  O284  1  0.52486150  0.11517355  0.00976477  1
  O2-  O285  1  0.51467133  0.13786769  0.53153015  1
  O2-  O286  1  0.51884977  0.63698392  0.01865714  1
  O2-  O287  1  0.53811346  0.63909869  0.51997763  1
  O2-  O288  1  0.11539431  0.26016122  0.02618924  1
  O2-  O289  1  0.12662042  0.27512927  0.50564555  1
  O2-  O290  1  0.13432043  0.77052544  0.00966071  1
  O2-  O291  1  0.11799152  0.76727565  0.51902972  1
  O2-  O292  1  0.61512554  0.26810426  -0.00628214  1
  O2-  O293  1  0.63130178  0.27221612  0.51431604  1
  O2-  O294  1  0.61249193  0.77848213  0.00272161  1
  O2-  O295  1  0.61274666  0.79655408  0.50143803  1
  O2-  O296  1  0.38293890  0.21040493  0.00555388  1
  O2-  O297  1  0.37438801  0.23629110  0.49067542  1
  O2-  O298  1  0.37331927  0.73979336  -0.02163747  1
  O2-  O299  1  0.38721757  0.71164967  0.49876507  1
  O2-  O300  1  0.88863663  0.21524775  0.00239909  1
  O2-  O301  1  0.87943686  0.23744106  0.48779744  1
  O2-  O302  1  0.88576112  0.72636441  -0.01573465  1
  O2-  O303  1  0.88416738  0.71821808  0.48443920  1
  O2-  O304  1  0.27973683  0.38500011  0.01693465  1
  O2-  O305  1  0.26637808  0.37467582  0.51654481  1
  O2-  O306  1  0.26926427  0.87057502  0.01379429  1
  O2-  O307  1  0.27132969  0.88405827  0.52038969  1
  O2-  O308  1  0.77292795  0.37926640  0.01999980  1
  O2-  O309  1  0.77429304  0.37059198  0.52200698  1
  O2-  O310  1  0.78027786  0.88796391  0.00996758  1
  O2-  O311  1  0.78346817  0.88356086  0.52074905  1
  O2-  O312  1  0.23289157  0.11244220  -0.03281502  1
  O2-  O313  1  0.23118551  0.13658815  0.48397771  1
  O2-  O314  1  0.22868272  0.62938640  -0.01397738  1
  O2-  O315  1  0.22415014  0.61330491  0.48181908  1
  O2-  O316  1  0.73482160  0.11207905  -0.03416624  1
  O2-  O317  1  0.73324668  0.13472795  0.48823495  1
  O2-  O318  1  0.72453992  0.61567319  -0.02254080  1
  O2-  O319  1  0.72824125  0.61129230  0.47120869  1
