# generated using pymatgen
data_Sr64Ca21Nb43O192
_symmetry_space_group_name_H-M   'P 1'
_cell_length_a   16.57067104
_cell_length_b   16.58979324
_cell_length_c   16.71607803
_cell_angle_alpha   90.14655029
_cell_angle_beta   90.07046114
_cell_angle_gamma   89.98611187
_symmetry_Int_Tables_number   1
_chemical_formula_structural   Sr64Ca21Nb43O192
_chemical_formula_sum   'Sr64 Ca21 Nb43 O192'
_cell_volume   4595.29818458
_cell_formula_units_Z   1
loop_
 _symmetry_equiv_pos_site_id
 _symmetry_equiv_pos_as_xyz
  1  'x, y, z'
loop_
 _atom_type_symbol
 _atom_type_oxidation_number
  Sr2+  2.0
  Ca2+  2.0
  Nb5+  5.0
  O2-  -2.0
loop_
 _atom_site_type_symbol
 _atom_site_label
 _atom_site_symmetry_multiplicity
 _atom_site_fract_x
 _atom_site_fract_y
 _atom_site_fract_z
 _atom_site_occupancy
  Sr2+  Sr0  1  0.12843397  0.13648593  0.12270754  1
  Sr2+  Sr1  1  0.13094554  0.13455189  0.63194110  1
  Sr2+  Sr2  1  0.12874229  0.61131002  0.12412286  1
  Sr2+  Sr3  1  0.12592110  0.63236523  0.62119461  1
  Sr2+  Sr4  1  0.63088448  0.13036463  0.12911193  1
  Sr2+  Sr5  1  0.63638301  0.14056284  0.61844477  1
  Sr2+  Sr6  1  0.62826098  0.63636440  0.13194930  1
  Sr2+  Sr7  1  0.62383976  0.62078231  0.62833167  1
  Sr2+  Sr8  1  0.37907204  0.37893988  0.12211098  1
  Sr2+  Sr9  1  0.38103059  0.38905475  0.62519694  1
  Sr2+  Sr10  1  0.38554811  0.89145570  0.12760419  1
  Sr2+  Sr11  1  0.38399066  0.87878114  0.62345907  1
  Sr2+  Sr12  1  0.88657845  0.37505421  0.12532596  1
  Sr2+  Sr13  1  0.87696133  0.37516907  0.63546295  1
  Sr2+  Sr14  1  0.87833678  0.88570323  0.11992322  1
  Sr2+  Sr15  1  0.88300796  0.87372462  0.63009962  1
  Sr2+  Sr16  1  0.11462994  0.37384974  0.37833251  1
  Sr2+  Sr17  1  0.12634198  0.36880747  0.87129608  1
  Sr2+  Sr18  1  0.13361759  0.87284991  0.37563206  1
  Sr2+  Sr19  1  0.10309571  0.87575343  0.87765677  1
  Sr2+  Sr20  1  0.61583209  0.36605280  0.37901922  1
  Sr2+  Sr21  1  0.62138891  0.37634765  0.86181451  1
  Sr2+  Sr22  1  0.64094385  0.87801461  0.37453767  1
  Sr2+  Sr23  1  0.61175194  0.86297100  0.87289510  1
  Sr2+  Sr24  1  0.36879967  0.11983123  0.36801132  1
  Sr2+  Sr25  1  0.35764970  0.11750441  0.87893581  1
  Sr2+  Sr26  1  0.36646147  0.62351843  0.37418191  1
  Sr2+  Sr27  1  0.36875199  0.63334667  0.87208842  1
  Sr2+  Sr28  1  0.85620535  0.11953147  0.37924608  1
  Sr2+  Sr29  1  0.86521037  0.11455768  0.87128478  1
  Sr2+  Sr30  1  0.87229888  0.62216813  0.37180852  1
  Sr2+  Sr31  1  0.86428720  0.62908695  0.87824473  1
  Sr2+  Sr32  1  0.11212266  0.11788385  0.36879159  1
  Sr2+  Sr33  1  0.12151670  0.10818742  0.87514384  1
  Sr2+  Sr34  1  0.11949529  0.63000000  0.37512208  1
  Sr2+  Sr35  1  0.11929529  0.64117323  0.87274782  1
  Sr2+  Sr36  1  0.61786462  0.11105674  0.37486041  1
  Sr2+  Sr37  1  0.61192697  0.11008822  0.87348178  1
  Sr2+  Sr38  1  0.61802079  0.61738126  0.37529838  1
  Sr2+  Sr39  1  0.61853529  0.62270161  0.87945940  1
  Sr2+  Sr40  1  0.37156677  0.36967697  0.37442444  1
  Sr2+  Sr41  1  0.37062828  0.35696127  0.87389283  1
  Sr2+  Sr42  1  0.36950737  0.87189141  0.37966833  1
  Sr2+  Sr43  1  0.37543671  0.88837555  0.86617309  1
  Sr2+  Sr44  1  0.87802622  0.36352818  0.37612277  1
  Sr2+  Sr45  1  0.86247933  0.36755901  0.87253295  1
  Sr2+  Sr46  1  0.87017526  0.88263749  0.38046104  1
  Sr2+  Sr47  1  0.87201055  0.86391455  0.88226163  1
  Sr2+  Sr48  1  0.13817217  0.37851609  0.12387671  1
  Sr2+  Sr49  1  0.12933159  0.38330564  0.62642494  1
  Sr2+  Sr50  1  0.12378153  0.88743568  0.12277995  1
  Sr2+  Sr51  1  0.13819471  0.87805765  0.61576935  1
  Sr2+  Sr52  1  0.63605806  0.38242923  0.12939223  1
  Sr2+  Sr53  1  0.63772193  0.38387671  0.62482156  1
  Sr2+  Sr54  1  0.63722895  0.87650795  0.12961822  1
  Sr2+  Sr55  1  0.63236391  0.87777102  0.62140658  1
  Sr2+  Sr56  1  0.38786160  0.13549958  0.12320429  1
  Sr2+  Sr57  1  0.38213403  0.11733610  0.62591631  1
  Sr2+  Sr58  1  0.36843967  0.61926479  0.13415811  1
  Sr2+  Sr59  1  0.37615342  0.63098242  0.62419687  1
  Sr2+  Sr60  1  0.88966725  0.13240842  0.12205828  1
  Sr2+  Sr61  1  0.87778440  0.12999183  0.63071014  1
  Sr2+  Sr62  1  0.86260109  0.62935241  0.11777738  1
  Sr2+  Sr63  1  0.87600152  0.62125040  0.62681185  1
  Ca2+  Ca64  1  0.00058775  0.00258372  0.49933455  1
  Ca2+  Ca65  1  0.49978864  0.50037321  0.00030307  1
  Ca2+  Ca66  1  -0.00101575  0.50125122  -0.00114580  1
  Ca2+  Ca67  1  0.50076076  -0.00356743  0.49926293  1
  Ca2+  Ca68  1  0.49990287  -0.00141081  -0.00002202  1
  Ca2+  Ca69  1  0.75058314  0.24878609  -0.00050377  1
  Ca2+  Ca70  1  0.25128647  0.75022258  0.00221767  1
  Ca2+  Ca71  1  0.25183083  0.25307474  0.49626349  1
  Ca2+  Ca72  1  0.75151657  0.25456971  0.49803680  1
  Ca2+  Ca73  1  0.75336958  0.75009658  0.50331781  1
  Ca2+  Ca74  1  0.49906700  0.24980762  0.74816286  1
  Ca2+  Ca75  1  0.00138615  0.25070129  0.75341675  1
  Ca2+  Ca76  1  -0.00115290  0.75031142  0.74761306  1
  Ca2+  Ca77  1  0.24508372  -0.00224935  0.74832404  1
  Ca2+  Ca78  1  -0.00101988  0.74855853  0.24911262  1
  Ca2+  Ca79  1  0.74821220  -0.00359897  0.75209819  1
  Ca2+  Ca80  1  0.25216261  0.49976699  0.75034412  1
  Ca2+  Ca81  1  0.74959494  0.49872790  0.25085602  1
  Ca2+  Ca82  1  0.24832258  0.00165060  0.24793632  1
  Ca2+  Ca83  1  0.49855024  0.75007311  0.25255266  1
  Ca2+  Ca84  1  0.75018018  0.00336243  0.24632463  1
  Nb5+  Nb85  1  0.49566070  0.50092029  0.49999456  1
  Nb5+  Nb86  1  -0.00356874  0.00357443  -0.00001773  1
  Nb5+  Nb87  1  -0.00450329  0.49902024  0.50168680  1
  Nb5+  Nb88  1  0.25040355  0.24915879  -0.00021368  1
  Nb5+  Nb89  1  0.25390912  0.74841530  0.50020789  1
  Nb5+  Nb90  1  0.74518182  0.75227917  -0.00015376  1
  Nb5+  Nb91  1  0.00802410  0.25163455  0.24888924  1
  Nb5+  Nb92  1  0.49888488  0.74783223  0.74930770  1
  Nb5+  Nb93  1  0.24839825  0.49646831  0.25398714  1
  Nb5+  Nb94  1  0.75198534  0.50462325  0.75030117  1
  Nb5+  Nb95  1  0.50774949  0.25077654  0.24954256  1
  Nb5+  Nb96  1  -0.00678288  -0.00312479  0.25240858  1
  Nb5+  Nb97  1  -0.00108636  -0.00219042  0.74336916  1
  Nb5+  Nb98  1  0.00016498  0.50097119  0.24907589  1
  Nb5+  Nb99  1  0.00265163  0.50379645  0.75643278  1
  Nb5+  Nb100  1  0.49733951  -0.00506032  0.25185004  1
  Nb5+  Nb101  1  0.50191411  0.00324925  0.74500057  1
  Nb5+  Nb102  1  0.50180462  0.49661259  0.24953075  1
  Nb5+  Nb103  1  0.49715329  0.50310539  0.75302302  1
  Nb5+  Nb104  1  0.25481385  0.25085243  0.25197749  1
  Nb5+  Nb105  1  0.25476157  0.24721482  0.74244885  1
  Nb5+  Nb106  1  0.25002560  0.74955891  0.24544928  1
  Nb5+  Nb107  1  0.24996976  0.75346875  0.75568231  1
  Nb5+  Nb108  1  0.75935325  0.25102618  0.24849641  1
  Nb5+  Nb109  1  0.74568815  0.24537029  0.75437010  1
  Nb5+  Nb110  1  0.75300998  0.75164075  0.25514685  1
  Nb5+  Nb111  1  0.74893875  0.74700200  0.74610403  1
  Nb5+  Nb112  1  0.00357532  0.24946642  0.50422762  1
  Nb5+  Nb113  1  0.00292647  0.25039016  0.99381815  1
  Nb5+  Nb114  1  -0.00047868  0.75200580  0.49806828  1
  Nb5+  Nb115  1  0.00003354  0.74798181  1.00618592  1
  Nb5+  Nb116  1  0.49700899  0.24764229  0.50313323  1
  Nb5+  Nb117  1  0.50886501  0.25286549  1.00030811  1
  Nb5+  Nb118  1  0.50274092  0.74863402  0.49747544  1
  Nb5+  Nb119  1  0.49427309  0.74708383  1.00528849  1
  Nb5+  Nb120  1  0.24939687  -0.00312548  0.00753188  1
  Nb5+  Nb121  1  0.24595567  0.00891066  0.49612687  1
  Nb5+  Nb122  1  0.25174777  0.49877858  -0.00647219  1
  Nb5+  Nb123  1  0.24490620  0.49979337  0.50049128  1
  Nb5+  Nb124  1  0.74255842  0.00102282  -0.00688468  1
  Nb5+  Nb125  1  0.75017530  0.00306323  0.50601636  1
  Nb5+  Nb126  1  0.74945797  0.49762663  0.00042486  1
  Nb5+  Nb127  1  0.74870663  0.49879116  0.49354216  1
  O2-  O128  1  0.01274989  -0.01114682  0.12363617  1
  O2-  O129  1  0.01136716  -0.03076599  0.63279635  1
  O2-  O130  1  0.00977653  0.47486110  0.13668713  1
  O2-  O131  1  0.00368984  0.47440861  0.61787036  1
  O2-  O132  1  0.51979537  -0.02055799  0.13420672  1
  O2-  O133  1  0.51199903  -0.03409652  0.63336929  1
  O2-  O134  1  0.50864292  0.47221614  0.13741757  1
  O2-  O135  1  0.51568898  0.48171134  0.61791711  1
  O2-  O136  1  -0.02105726  0.02850926  0.36366738  1
  O2-  O137  1  -0.01372438  0.02390578  0.88418750  1
  O2-  O138  1  -0.00162978  0.51015411  0.37732300  1
  O2-  O139  1  0.00039957  0.53830349  0.86560859  1
  O2-  O140  1  0.48261062  0.02638198  0.36645559  1
  O2-  O141  1  0.47619665  0.02005511  0.86391102  1
  O2-  O142  1  0.49137022  0.51968035  0.38080280  1
  O2-  O143  1  0.48576250  0.52932807  0.86399196  1
  O2-  O144  1  0.26142207  0.23524879  0.12826472  1
  O2-  O145  1  0.26842209  0.22037830  0.63130775  1
  O2-  O146  1  0.23745258  0.71484302  0.13578938  1
  O2-  O147  1  0.24435540  0.72484798  0.61919970  1
  O2-  O148  1  0.76254442  0.21779391  0.13323943  1
  O2-  O149  1  0.76941209  0.23587630  0.63612592  1
  O2-  O150  1  0.74359877  0.73237333  0.11721706  1
  O2-  O151  1  0.73690015  0.71925000  0.63524830  1
  O2-  O152  1  0.23667645  0.28306040  0.36147483  1
  O2-  O153  1  0.23728597  0.27071789  0.88563956  1
  O2-  O154  1  0.26434860  0.76146420  0.37984153  1
  O2-  O155  1  0.27471108  0.77387280  0.86621110  1
  O2-  O156  1  0.74448007  0.28543802  0.36187942  1
  O2-  O157  1  0.73416207  0.28363928  0.86677678  1
  O2-  O158  1  0.76265104  0.77521222  0.36806456  1
  O2-  O159  1  0.75019139  0.76500919  0.87546460  1
  O2-  O160  1  -0.01210836  0.26318674  0.12749292  1
  O2-  O161  1  -0.02130286  0.26168888  0.61569004  1
  O2-  O162  1  0.00180631  0.78868666  0.11660194  1
  O2-  O163  1  0.02601881  0.76942911  0.61312101  1
  O2-  O164  1  0.47894956  0.26474715  0.13290393  1
  O2-  O165  1  0.46615717  0.26604149  0.61253652  1
  O2-  O166  1  0.49725285  0.77408884  0.11595577  1
  O2-  O167  1  0.50211128  0.75881879  0.62621099  1
  O2-  O168  1  0.26457078  -0.02625538  0.38187194  1
  O2-  O169  1  0.26325961  -0.00861461  0.88890194  1
  O2-  O170  1  0.26263107  0.48144203  0.37527512  1
  O2-  O171  1  0.26617469  0.47004161  0.88437030  1
  O2-  O172  1  0.76567158  -0.01524070  0.38332198  1
  O2-  O173  1  0.78513276  -0.01778024  0.88466632  1
  O2-  O174  1  0.77001896  0.47444699  0.38474076  1
  O2-  O175  1  0.76117835  0.48847513  0.86940030  1
  O2-  O176  1  0.02382963  0.24432762  0.36699810  1
  O2-  O177  1  0.03646771  0.23709641  0.88568249  1
  O2-  O178  1  -0.00725389  0.71581861  0.38560742  1
  O2-  O179  1  -0.01259663  0.73350968  0.88696998  1
  O2-  O180  1  0.52382734  0.23820440  0.36858019  1
  O2-  O181  1  0.52964929  0.24062852  0.88719791  1
  O2-  O182  1  0.49660430  0.71841644  0.38644324  1
  O2-  O183  1  0.49863332  0.72582973  0.86790222  1
  O2-  O184  1  0.21467443  0.01810270  0.11750011  1
  O2-  O185  1  0.22422041  0.01847159  0.61357518  1
  O2-  O186  1  0.24218534  0.51302891  0.13542407  1
  O2-  O187  1  0.23538596  0.52048810  0.61374593  1
  O2-  O188  1  0.72453269  0.00820861  0.10994183  1
  O2-  O189  1  0.72812431  0.02276662  0.62057202  1
  O2-  O190  1  0.73014325  0.52258503  0.11269581  1
  O2-  O191  1  0.74325660  0.52477984  0.62930937  1
  O2-  O192  1  0.12446198  0.26922056  0.23122844  1
  O2-  O193  1  0.13771995  0.27751171  0.73514363  1
  O2-  O194  1  0.13577916  0.75869264  0.27343895  1
  O2-  O195  1  0.13439252  0.76267888  0.76963057  1
  O2-  O196  1  0.62171314  0.27064214  0.23205764  1
  O2-  O197  1  0.63248879  0.27390115  0.72579092  1
  O2-  O198  1  0.63334315  0.77318656  0.24600447  1
  O2-  O199  1  0.62121326  0.75896162  0.75396043  1
  O2-  O200  1  0.37248847  0.23630882  0.26440787  1
  O2-  O201  1  0.36740578  0.22983496  0.78163636  1
  O2-  O202  1  0.36397066  0.71767132  0.25295125  1
  O2-  O203  1  0.37890154  0.72985133  0.74187024  1
  O2-  O204  1  0.87825288  0.23928044  0.26217578  1
  O2-  O205  1  0.86526161  0.23945076  0.77399627  1
  O2-  O206  1  0.86564167  0.71557291  0.24095469  1
  O2-  O207  1  0.86354229  0.72657188  0.74642046  1
  O2-  O208  1  0.26758056  0.37567712  0.22951769  1
  O2-  O209  1  0.27972845  0.36490863  0.73411714  1
  O2-  O210  1  0.26771786  0.86161559  0.22559606  1
  O2-  O211  1  0.26432335  0.86266509  0.71563857  1
  O2-  O212  1  0.76454968  0.36639486  0.21282267  1
  O2-  O213  1  0.76169655  0.38714877  0.73402180  1
  O2-  O214  1  0.77153378  0.86571987  0.22465961  1
  O2-  O215  1  0.75981569  0.86097604  0.72580072  1
  O2-  O216  1  0.23022304  0.13871359  0.27067550  1
  O2-  O217  1  0.22748927  0.13467086  0.77229969  1
  O2-  O218  1  0.23470993  0.61285154  0.27202251  1
  O2-  O219  1  0.24032899  0.63414962  0.77135941  1
  O2-  O220  1  0.72883558  0.13950385  0.27541986  1
  O2-  O221  1  0.72450976  0.13449842  0.77465356  1
  O2-  O222  1  0.72231119  0.63347520  0.26710782  1
  O2-  O223  1  0.73058949  0.62363873  0.77470530  1
  O2-  O224  1  0.13083625  0.47342611  0.26182774  1
  O2-  O225  1  0.11557664  0.47666559  0.75536553  1
  O2-  O226  1  0.11153853  0.98438962  0.26577266  1
  O2-  O227  1  0.11245177  0.98182754  0.77663510  1
  O2-  O228  1  0.61435131  0.47668544  0.27312304  1
  O2-  O229  1  0.62449535  0.49246008  0.75332513  1
  O2-  O230  1  0.61494671  0.98681685  0.27231737  1
  O2-  O231  1  0.61346715  0.97703282  0.77491073  1
  O2-  O232  1  0.38235717  0.02510634  0.22560251  1
  O2-  O233  1  0.38125034  0.00409244  0.72977583  1
  O2-  O234  1  0.37495992  0.50842600  0.24905832  1
  O2-  O235  1  0.38646704  0.51606481  0.72176959  1
  O2-  O236  1  0.88229547  0.02636260  0.22304426  1
  O2-  O237  1  0.88232504  0.02538408  0.73773292  1
  O2-  O238  1  0.88649679  0.52137112  0.24479256  1
  O2-  O239  1  0.87037399  0.52267773  0.74296340  1
  O2-  O240  1  0.48169280  0.37067021  0.27132255  1
  O2-  O241  1  0.48830283  0.38757183  0.76969265  1
  O2-  O242  1  0.46837889  0.88379099  0.26760495  1
  O2-  O243  1  0.48443289  0.86401179  0.76596432  1
  O2-  O244  1  0.98568262  0.37322991  0.26644463  1
  O2-  O245  1  0.97055745  0.38990398  0.76717452  1
  O2-  O246  1  0.97096065  0.88510965  0.26680790  1
  O2-  O247  1  0.97253794  0.88364555  0.77417641  1
  O2-  O248  1  0.01785302  0.13453727  0.23417305  1
  O2-  O249  1  0.02081989  0.11648830  0.73086140  1
  O2-  O250  1  0.03413917  0.61077124  0.23992245  1
  O2-  O251  1  0.01112998  0.61392866  0.71439863  1
  O2-  O252  1  0.51536547  0.13319298  0.23306147  1
  O2-  O253  1  0.52023403  0.11503951  0.72101533  1
  O2-  O254  1  0.51429227  0.61111743  0.23260884  1
  O2-  O255  1  0.51520681  0.62501990  0.72939682  1
  O2-  O256  1  0.13530728  0.47799140  0.00561070  1
  O2-  O257  1  0.12849264  0.48298306  0.49008808  1
  O2-  O258  1  0.11917225  0.98531216  -0.01504638  1
  O2-  O259  1  0.13334791  0.96954875  0.48602583  1
  O2-  O260  1  0.63475556  0.47895438  -0.02500515  1
  O2-  O261  1  0.62897188  0.48877833  0.48733410  1
  O2-  O262  1  0.63233789  0.97996630  -0.03363777  1
  O2-  O263  1  0.63336861  0.97034145  0.48855971  1
  O2-  O264  1  0.36292114  0.01767288  0.02577913  1
  O2-  O265  1  0.36330326  0.01121999  0.51891710  1
  O2-  O266  1  0.36428329  0.51386143  0.02520022  1
  O2-  O267  1  0.37976384  0.51817243  0.51213167  1
  O2-  O268  1  0.87857802  0.01694850  0.02108677  1
  O2-  O269  1  0.86784591  0.03295290  0.51500781  1
  O2-  O270  1  0.86436061  0.53033845  -0.00040112  1
  O2-  O271  1  0.87959739  0.51827921  0.50683422  1
  O2-  O272  1  0.47082505  0.36406465  -0.01073237  1
  O2-  O273  1  0.48488621  0.38343232  0.48075291  1
  O2-  O274  1  0.47977451  0.86057607  -0.02941594  1
  O2-  O275  1  0.47177792  0.85922903  0.48690671  1
  O2-  O276  1  0.98264711  0.36474811  -0.01691134  1
  O2-  O277  1  0.98655015  0.37959579  0.48072883  1
  O2-  O278  1  0.98328475  0.88366411  -0.01610170  1
  O2-  O279  1  0.99024599  0.86345509  0.47070769  1
  O2-  O280  1  0.01866108  0.12480512  0.01925410  1
  O2-  O281  1  0.03451700  0.13782622  0.50946234  1
  O2-  O282  1  0.00763554  0.63693264  0.03664670  1
  O2-  O283  1  0.02085166  0.61492817  0.51574442  1
  O2-  O284  1  0.51188218  0.13577936  0.02273940  1
  O2-  O285  1  0.51624101  0.13498319  0.51937984  1
  O2-  O286  1  0.53605365  0.63582070  0.01296924  1
  O2-  O287  1  0.51748069  0.62059292  0.51987410  1
  O2-  O288  1  0.12768513  0.26353405  0.02396988  1
  O2-  O289  1  0.11761047  0.28494550  0.51210046  1
  O2-  O290  1  0.11484913  0.76351026  -0.01392492  1
  O2-  O291  1  0.13278440  0.75176162  0.48681949  1
  O2-  O292  1  0.61724518  0.27251930  0.03184637  1
  O2-  O293  1  0.61246150  0.27832893  0.51291839  1
  O2-  O294  1  0.62741423  0.77322665  -0.00207991  1
  O2-  O295  1  0.61654519  0.76889217  0.49715673  1
  O2-  O296  1  0.36868393  0.23051747  -0.01075627  1
  O2-  O297  1  0.38638967  0.23981113  0.46178783  1
  O2-  O298  1  0.38430936  0.71163197  0.00365831  1
  O2-  O299  1  0.37351755  0.72419952  0.50627856  1
  O2-  O300  1  0.88944560  0.22541977  -0.01652021  1
  O2-  O301  1  0.88957869  0.23843543  0.47108404  1
  O2-  O302  1  0.87047383  0.74117803  0.00428430  1
  O2-  O303  1  0.88865442  0.73221395  0.52278834  1
  O2-  O304  1  0.26462971  0.36921623  0.02192745  1
  O2-  O305  1  0.27552193  0.38825319  0.51681485  1
  O2-  O306  1  0.26026138  0.88340701  0.02976172  1
  O2-  O307  1  0.26644526  0.86266834  0.51809199  1
  O2-  O308  1  0.77828730  0.38656514  0.01639738  1
  O2-  O309  1  0.76687906  0.38935206  0.53319585  1
  O2-  O310  1  0.76507450  0.87243622  0.01402786  1
  O2-  O311  1  0.77817861  0.88508259  0.52575103  1
  O2-  O312  1  0.23041357  0.13024762  -0.01153700  1
  O2-  O313  1  0.23110843  0.11871532  0.46756277  1
  O2-  O314  1  0.23052324  0.61227862  -0.02551559  1
  O2-  O315  1  0.24286709  0.61930746  0.47571231  1
  O2-  O316  1  0.73150649  0.11534836  -0.02711418  1
  O2-  O317  1  0.72338381  0.12084213  0.48171465  1
  O2-  O318  1  0.73411922  0.63268459  -0.01996526  1
  O2-  O319  1  0.74367537  0.61542906  0.47542025  1
