# generated using pymatgen
data_Sr64Ca21Nb43O192
_symmetry_space_group_name_H-M   'P 1'
_cell_length_a   16.56921129
_cell_length_b   16.56901837
_cell_length_c   16.69365189
_cell_angle_alpha   89.96746444
_cell_angle_beta   90.07483751
_cell_angle_gamma   90.00452144
_symmetry_Int_Tables_number   1
_chemical_formula_structural   Sr64Ca21Nb43O192
_chemical_formula_sum   'Sr64 Ca21 Nb43 O192'
_cell_volume   4582.99651101
_cell_formula_units_Z   1
loop_
 _symmetry_equiv_pos_site_id
 _symmetry_equiv_pos_as_xyz
  1  'x, y, z'
loop_
 _atom_type_symbol
 _atom_type_oxidation_number
  Sr2+  2.0
  Ca2+  2.0
  Nb5+  5.0
  O2-  -2.0
loop_
 _atom_site_type_symbol
 _atom_site_label
 _atom_site_symmetry_multiplicity
 _atom_site_fract_x
 _atom_site_fract_y
 _atom_site_fract_z
 _atom_site_occupancy
  Sr2+  Sr0  1  0.11568792  0.12372774  0.12561890  1
  Sr2+  Sr1  1  0.11795681  0.11565027  0.63071803  1
  Sr2+  Sr2  1  0.11730051  0.61442675  0.12977491  1
  Sr2+  Sr3  1  0.12174430  0.62155462  0.61016618  1
  Sr2+  Sr4  1  0.62325628  0.11200757  0.12703368  1
  Sr2+  Sr5  1  0.61552455  0.11881116  0.62585873  1
  Sr2+  Sr6  1  0.61876082  0.61505329  0.11796871  1
  Sr2+  Sr7  1  0.62024404  0.61207108  0.62681138  1
  Sr2+  Sr8  1  0.35935573  0.36404861  0.12874751  1
  Sr2+  Sr9  1  0.37383007  0.36277339  0.62715519  1
  Sr2+  Sr10  1  0.37690355  0.86581259  0.11645761  1
  Sr2+  Sr11  1  0.36023160  0.86425685  0.62869513  1
  Sr2+  Sr12  1  0.87418163  0.36100605  0.12063748  1
  Sr2+  Sr13  1  0.86528278  0.36542575  0.62541232  1
  Sr2+  Sr14  1  0.86138455  0.87391519  0.12755825  1
  Sr2+  Sr15  1  0.87330196  0.86269834  0.62681550  1
  Sr2+  Sr16  1  0.13856797  0.38042890  0.37311308  1
  Sr2+  Sr17  1  0.12802017  0.38893209  0.87541967  1
  Sr2+  Sr18  1  0.11893215  0.87770705  0.38552470  1
  Sr2+  Sr19  1  0.13983852  0.88060778  0.87410048  1
  Sr2+  Sr20  1  0.63034812  0.38276839  0.37146617  1
  Sr2+  Sr21  1  0.63478430  0.37811887  0.87459657  1
  Sr2+  Sr22  1  0.63670926  0.87833637  0.37921189  1
  Sr2+  Sr23  1  0.62712856  0.88457993  0.87090267  1
  Sr2+  Sr24  1  0.38150929  0.12773465  0.37496437  1
  Sr2+  Sr25  1  0.38688585  0.12704698  0.87292156  1
  Sr2+  Sr26  1  0.38120461  0.62741908  0.36972311  1
  Sr2+  Sr27  1  0.38865126  0.63283688  0.87229176  1
  Sr2+  Sr28  1  0.89347042  0.12305980  0.37303680  1
  Sr2+  Sr29  1  0.88254512  0.14327026  0.87853449  1
  Sr2+  Sr30  1  0.88789286  0.63955216  0.37290791  1
  Sr2+  Sr31  1  0.88786186  0.62446202  0.88079577  1
  Sr2+  Sr32  1  0.12667474  0.14192856  0.37790692  1
  Sr2+  Sr33  1  0.13870173  0.13224729  0.87351436  1
  Sr2+  Sr34  1  0.13478750  0.63646716  0.36827804  1
  Sr2+  Sr35  1  0.12382219  0.63878679  0.88328207  1
  Sr2+  Sr36  1  0.63399863  0.13425382  0.37194747  1
  Sr2+  Sr37  1  0.62843939  0.13538858  0.87571354  1
  Sr2+  Sr38  1  0.62382738  0.63831832  0.38041329  1
  Sr2+  Sr39  1  0.63910975  0.63368805  0.87281528  1
  Sr2+  Sr40  1  0.38000616  0.38072420  0.36532211  1
  Sr2+  Sr41  1  0.38315015  0.37028333  0.87779470  1
  Sr2+  Sr42  1  0.38187180  0.87453250  0.38721558  1
  Sr2+  Sr43  1  0.38299844  0.88871172  0.87277478  1
  Sr2+  Sr44  1  0.88206306  0.38683876  0.38348812  1
  Sr2+  Sr45  1  0.87548243  0.38803697  0.87240922  1
  Sr2+  Sr46  1  0.87827200  0.88337663  0.36921690  1
  Sr2+  Sr47  1  0.88802629  0.88430262  0.87444778  1
  Sr2+  Sr48  1  0.11296011  0.37343154  0.12927677  1
  Sr2+  Sr49  1  0.11507850  0.36299790  0.61446861  1
  Sr2+  Sr50  1  0.11014951  0.86556053  0.12339348  1
  Sr2+  Sr51  1  0.11010817  0.86755437  0.63368332  1
  Sr2+  Sr52  1  0.61438705  0.36328167  0.12666264  1
  Sr2+  Sr53  1  0.61499615  0.37416567  0.62362283  1
  Sr2+  Sr54  1  0.61486351  0.87541750  0.11947498  1
  Sr2+  Sr55  1  0.61667893  0.85949618  0.62514541  1
  Sr2+  Sr56  1  0.36715313  0.11564471  0.12509720  1
  Sr2+  Sr57  1  0.36057502  0.12241258  0.63030759  1
  Sr2+  Sr58  1  0.35745578  0.62102110  0.12418044  1
  Sr2+  Sr59  1  0.37108372  0.61449212  0.62191651  1
  Sr2+  Sr60  1  0.86331495  0.11952862  0.12410691  1
  Sr2+  Sr61  1  0.87739520  0.12351400  0.63288864  1
  Sr2+  Sr62  1  0.87583457  0.61648142  0.13081459  1
  Sr2+  Sr63  1  0.86044785  0.61916337  0.62584060  1
  Ca2+  Ca64  1  0.50033826  -0.00239205  0.50188838  1
  Ca2+  Ca65  1  -0.00121630  -0.00091546  0.50217388  1
  Ca2+  Ca66  1  0.49717833  0.49710935  -0.00119516  1
  Ca2+  Ca67  1  0.00002992  0.50247149  0.50031659  1
  Ca2+  Ca68  1  0.00074670  0.00375164  -0.00041381  1
  Ca2+  Ca69  1  0.25181765  0.25113380  0.49966663  1
  Ca2+  Ca70  1  0.25070482  0.75052500  -0.00071706  1
  Ca2+  Ca71  1  0.25069842  0.24966470  -0.00022824  1
  Ca2+  Ca72  1  0.75176231  0.75010595  -0.00022661  1
  Ca2+  Ca73  1  0.75039671  0.24926415  0.50143587  1
  Ca2+  Ca74  1  0.75028815  0.00084902  0.75022717  1
  Ca2+  Ca75  1  -0.00325080  0.25173241  0.25216618  1
  Ca2+  Ca76  1  -0.00095434  0.74749569  0.75227097  1
  Ca2+  Ca77  1  0.49938634  0.74837472  0.74994173  1
  Ca2+  Ca78  1  0.00040113  0.25484049  0.75203882  1
  Ca2+  Ca79  1  0.00226390  0.75383210  0.24979405  1
  Ca2+  Ca80  1  0.74908679  0.50040181  0.25165534  1
  Ca2+  Ca81  1  0.49858006  0.24635510  0.24759690  1
  Ca2+  Ca82  1  0.24872219  0.49869259  0.74760670  1
  Ca2+  Ca83  1  0.50265243  0.74881810  0.24738653  1
  Ca2+  Ca84  1  0.25105292  -0.00388317  0.25223192  1
  Nb5+  Nb85  1  0.49928904  0.49695438  0.49808997  1
  Nb5+  Nb86  1  0.49984822  0.00275633  -0.00059378  1
  Nb5+  Nb87  1  0.00095608  0.49888345  0.00103546  1
  Nb5+  Nb88  1  0.74606728  0.75010102  0.50001181  1
  Nb5+  Nb89  1  0.74762230  0.25035461  0.00152662  1
  Nb5+  Nb90  1  0.24666903  0.75028062  0.49988767  1
  Nb5+  Nb91  1  0.74688284  0.00114713  0.25177758  1
  Nb5+  Nb92  1  0.50233538  0.24914865  0.74873552  1
  Nb5+  Nb93  1  0.74914768  0.50106561  0.75058554  1
  Nb5+  Nb94  1  0.24972460  0.50045119  0.24883232  1
  Nb5+  Nb95  1  0.25064075  -0.00100212  0.74951760  1
  Nb5+  Nb96  1  0.00621061  -0.00067075  0.24557037  1
  Nb5+  Nb97  1  -0.00425702  0.00441186  0.75598896  1
  Nb5+  Nb98  1  -0.00166423  0.49900750  0.25642355  1
  Nb5+  Nb99  1  0.00201935  0.50137807  0.74469711  1
  Nb5+  Nb100  1  0.50023751  -0.00285781  0.25466779  1
  Nb5+  Nb101  1  0.49888387  -0.00154621  0.74349671  1
  Nb5+  Nb102  1  0.49938399  0.50146978  0.24210159  1
  Nb5+  Nb103  1  0.49966709  0.49941234  0.75372695  1
  Nb5+  Nb104  1  0.24623607  0.24327684  0.24734099  1
  Nb5+  Nb105  1  0.24840133  0.25524862  0.75449983  1
  Nb5+  Nb106  1  0.25586945  0.75819350  0.24918372  1
  Nb5+  Nb107  1  0.24711279  0.73944435  0.74942604  1
  Nb5+  Nb108  1  0.75428357  0.25147827  0.25839095  1
  Nb5+  Nb109  1  0.74603002  0.24879813  0.74759426  1
  Nb5+  Nb110  1  0.74527973  0.74720690  0.24417833  1
  Nb5+  Nb111  1  0.75515280  0.75223958  0.75528325  1
  Nb5+  Nb112  1  -0.00380234  0.25096193  0.50169817  1
  Nb5+  Nb113  1  0.00764073  0.25257786  0.99371901  1
  Nb5+  Nb114  1  -0.00709955  0.74799953  0.50238857  1
  Nb5+  Nb115  1  -0.00535354  0.75552426  1.00356269  1
  Nb5+  Nb116  1  0.50071390  0.24756052  0.49576453  1
  Nb5+  Nb117  1  0.49956362  0.24681488  1.00339242  1
  Nb5+  Nb118  1  0.49259580  0.74738687  0.50563905  1
  Nb5+  Nb119  1  0.50513451  0.74478365  0.99576997  1
  Nb5+  Nb120  1  0.24815366  -0.00427814  0.00417828  1
  Nb5+  Nb121  1  0.24524854  0.00267377  0.49849788  1
  Nb5+  Nb122  1  0.25069702  0.50488336  -0.00645442  1
  Nb5+  Nb123  1  0.25391700  0.49688570  0.49937315  1
  Nb5+  Nb124  1  0.75087753  0.00071715  -0.00525697  1
  Nb5+  Nb125  1  0.75089238  0.00097619  0.50637805  1
  Nb5+  Nb126  1  0.74907914  0.49639395  0.00637012  1
  Nb5+  Nb127  1  0.74930658  0.50345275  0.49639649  1
  O2-  O128  1  -0.01247758  0.03688765  0.13234178  1
  O2-  O129  1  -0.00807807  0.02766516  0.63751581  1
  O2-  O130  1  -0.00781855  0.51898016  0.12172363  1
  O2-  O131  1  -0.01090567  0.53357501  0.63515155  1
  O2-  O132  1  0.49023172  0.02363416  0.11479589  1
  O2-  O133  1  0.48398408  0.03290292  0.63374483  1
  O2-  O134  1  0.48415117  0.53167488  0.13259905  1
  O2-  O135  1  0.49099155  0.51194190  0.62591000  1
  O2-  O136  1  0.00340049  -0.02770070  0.36248527  1
  O2-  O137  1  0.01972004  -0.02949222  0.86777332  1
  O2-  O138  1  0.01440040  0.47125410  0.36682722  1
  O2-  O139  1  0.00553054  0.47834676  0.88193482  1
  O2-  O140  1  0.51208917  -0.03210465  0.36482661  1
  O2-  O141  1  0.51185689  -0.01120198  0.87007461  1
  O2-  O142  1  0.51013476  0.47563029  0.38231063  1
  O2-  O143  1  0.50831150  0.46672332  0.86503686  1
  O2-  O144  1  0.22764227  0.27538632  0.13301059  1
  O2-  O145  1  0.24128181  0.27150025  0.63681604  1
  O2-  O146  1  0.23776259  0.77778424  0.13705201  1
  O2-  O147  1  0.23464139  0.76634242  0.61979829  1
  O2-  O148  1  0.73179550  0.27093460  0.11735330  1
  O2-  O149  1  0.72922875  0.27476261  0.63648270  1
  O2-  O150  1  0.73403073  0.77960781  0.13484343  1
  O2-  O151  1  0.73990232  0.76723438  0.61979308  1
  O2-  O152  1  0.27287943  0.23007992  0.36446072  1
  O2-  O153  1  0.27557620  0.22490974  0.86563759  1
  O2-  O154  1  0.27146480  0.73346435  0.38384644  1
  O2-  O155  1  0.26387562  0.71915260  0.86249976  1
  O2-  O156  1  0.76879871  0.21742579  0.36654450  1
  O2-  O157  1  0.75645338  0.23699391  0.87603003  1
  O2-  O158  1  0.76356745  0.72655470  0.38400114  1
  O2-  O159  1  0.76858231  0.72141985  0.86483274  1
  O2-  O160  1  0.01797109  0.24092837  0.11132633  1
  O2-  O161  1  0.02970889  0.23686388  0.62005879  1
  O2-  O162  1  0.03000162  0.73448703  0.11660406  1
  O2-  O163  1  0.02295894  0.72942861  0.61565460  1
  O2-  O164  1  0.52922495  0.23052611  0.11323134  1
  O2-  O165  1  0.52794293  0.24158794  0.63120496  1
  O2-  O166  1  0.53781592  0.74154959  0.11208782  1
  O2-  O167  1  0.52628533  0.72787237  0.61699935  1
  O2-  O168  1  0.21589979  0.00826792  0.38650875  1
  O2-  O169  1  0.23822534  0.01492501  0.86938804  1
  O2-  O170  1  0.23822716  0.51833358  0.37400673  1
  O2-  O171  1  0.22039782  0.51765642  0.88354191  1
  O2-  O172  1  0.72219376  0.01004598  0.36650744  1
  O2-  O173  1  0.71993289  0.01358249  0.88373970  1
  O2-  O174  1  0.71731923  0.51627475  0.38623625  1
  O2-  O175  1  0.73494383  0.50804948  0.87192935  1
  O2-  O176  1  -0.03733496  0.26571354  0.38646145  1
  O2-  O177  1  -0.03364900  0.27291021  0.88505545  1
  O2-  O178  1  -0.01369470  0.77502684  0.38565943  1
  O2-  O179  1  -0.03349642  0.75668189  0.88675419  1
  O2-  O180  1  0.47125649  0.25864404  0.38478319  1
  O2-  O181  1  0.48659171  0.25969591  0.87213783  1
  O2-  O182  1  0.48533939  0.75842347  0.38870620  1
  O2-  O183  1  0.46877967  0.76470675  0.88235989  1
  O2-  O184  1  0.28052326  -0.01597399  0.11384453  1
  O2-  O185  1  0.27521414  -0.01000617  0.63003160  1
  O2-  O186  1  0.26459773  0.48710941  0.13096418  1
  O2-  O187  1  0.28007248  0.48720300  0.61244071  1
  O2-  O188  1  0.75846823  -0.00680770  0.12106611  1
  O2-  O189  1  0.78321613  -0.01094518  0.61570141  1
  O2-  O190  1  0.77587721  0.48259480  0.11697261  1
  O2-  O191  1  0.76093988  0.49104290  0.62715982  1
  O2-  O192  1  0.13221061  0.26897365  0.27505757  1
  O2-  O193  1  0.13660724  0.26925772  0.77683676  1
  O2-  O194  1  0.14105244  0.76658236  0.27996037  1
  O2-  O195  1  0.13549208  0.77706527  0.76405018  1
  O2-  O196  1  0.63575315  0.26792471  0.26447155  1
  O2-  O197  1  0.62303386  0.26923158  0.77209561  1
  O2-  O198  1  0.63590842  0.76449803  0.28337077  1
  O2-  O199  1  0.63667878  0.77011308  0.76001094  1
  O2-  O200  1  0.36454465  0.23593051  0.22035610  1
  O2-  O201  1  0.38507428  0.23477535  0.73321154  1
  O2-  O202  1  0.36748563  0.71857794  0.23868350  1
  O2-  O203  1  0.36339081  0.73273868  0.72314286  1
  O2-  O204  1  0.86279146  0.23544141  0.21655057  1
  O2-  O205  1  0.86156838  0.23314094  0.73886861  1
  O2-  O206  1  0.86372172  0.73298072  0.24636482  1
  O2-  O207  1  0.86566469  0.73028852  0.72027313  1
  O2-  O208  1  0.26508945  0.38142221  0.26717596  1
  O2-  O209  1  0.27873918  0.36669064  0.77186274  1
  O2-  O210  1  0.28780333  0.86587482  0.27278493  1
  O2-  O211  1  0.27131499  0.88050506  0.76318630  1
  O2-  O212  1  0.77088694  0.36540109  0.27903079  1
  O2-  O213  1  0.76204540  0.37939080  0.76450849  1
  O2-  O214  1  0.76383824  0.88027921  0.26479886  1
  O2-  O215  1  0.77575206  0.86594555  0.76977766  1
  O2-  O216  1  0.22600674  0.13061813  0.22961163  1
  O2-  O217  1  0.23927346  0.12447726  0.73210369  1
  O2-  O218  1  0.23259825  0.62139969  0.23672460  1
  O2-  O219  1  0.22046405  0.63111828  0.72295557  1
  O2-  O220  1  0.73135987  0.12216577  0.23300255  1
  O2-  O221  1  0.72283886  0.13578728  0.73417801  1
  O2-  O222  1  0.72762335  0.63408195  0.22273227  1
  O2-  O223  1  0.72772072  0.62041801  0.73528056  1
  O2-  O224  1  0.12924624  0.48334948  0.23889470  1
  O2-  O225  1  0.11275423  0.46790025  0.73490259  1
  O2-  O226  1  0.11780718  0.97800940  0.22610670  1
  O2-  O227  1  0.13443089  0.98544234  0.73458150  1
  O2-  O228  1  0.61353185  0.47717642  0.23028781  1
  O2-  O229  1  0.62632112  0.48117461  0.73573675  1
  O2-  O230  1  0.62669393  0.98260874  0.22673940  1
  O2-  O231  1  0.61442248  0.98150573  0.72791215  1
  O2-  O232  1  0.38729478  0.02767053  0.26049450  1
  O2-  O233  1  0.37633729  0.01976811  0.76650048  1
  O2-  O234  1  0.37143913  0.51516579  0.26517402  1
  O2-  O235  1  0.38535909  0.52245721  0.76144223  1
  O2-  O236  1  0.86474842  0.01699642  0.25801314  1
  O2-  O237  1  0.88365152  0.02652660  0.77698626  1
  O2-  O238  1  0.88451998  0.52305241  0.27011125  1
  O2-  O239  1  0.86587750  0.52266695  0.76212092  1
  O2-  O240  1  0.47443320  0.38443012  0.23507172  1
  O2-  O241  1  0.48758318  0.37148167  0.73154815  1
  O2-  O242  1  0.48707208  0.88549107  0.21586934  1
  O2-  O243  1  0.47697073  0.88575809  0.72949643  1
  O2-  O244  1  0.98490767  0.38673350  0.22174966  1
  O2-  O245  1  0.96280249  0.38984127  0.73890195  1
  O2-  O246  1  0.97642172  0.88592478  0.21798376  1
  O2-  O247  1  0.98120349  0.88589369  0.72944564  1
  O2-  O248  1  0.01580529  0.11622353  0.27710542  1
  O2-  O249  1  0.02727789  0.11872401  0.77449611  1
  O2-  O250  1  0.02421624  0.61580884  0.26285757  1
  O2-  O251  1  0.01310427  0.61196097  0.78488463  1
  O2-  O252  1  0.52985528  0.11268671  0.26491438  1
  O2-  O253  1  0.51926783  0.13012889  0.76513794  1
  O2-  O254  1  0.51512342  0.61148679  0.28098248  1
  O2-  O255  1  0.52555238  0.61196257  0.77135496  1
  O2-  O256  1  0.12079935  0.47917436  0.01402817  1
  O2-  O257  1  0.13903418  0.48761740  0.51771368  1
  O2-  O258  1  0.13598661  0.96997321  0.01663986  1
  O2-  O259  1  0.13592774  0.96964153  0.52699920  1
  O2-  O260  1  0.63426509  0.47466699  0.01970776  1
  O2-  O261  1  0.62034985  0.48888107  0.51890486  1
  O2-  O262  1  0.62220538  0.98930476  0.01362118  1
  O2-  O263  1  0.63772480  0.96434115  0.51385896  1
  O2-  O264  1  0.38134149  0.01874789  -0.01869703  1
  O2-  O265  1  0.36394683  0.00873464  0.47421978  1
  O2-  O266  1  0.36351628  0.53141383  -0.01782836  1
  O2-  O267  1  0.38082589  0.52047447  0.48407945  1
  O2-  O268  1  0.86232712  0.03117395  -0.01642115  1
  O2-  O269  1  0.86081438  0.00750961  0.46535393  1
  O2-  O270  1  0.87544587  0.50986910  -0.01326886  1
  O2-  O271  1  0.86213250  0.52757437  0.48153783  1
  O2-  O272  1  0.47940499  0.36158193  0.01826202  1
  O2-  O273  1  0.48194941  0.37977508  0.51884429  1
  O2-  O274  1  0.48792946  0.88436833  0.00921184  1
  O2-  O275  1  0.48301238  0.86200434  0.52575861  1
  O2-  O276  1  0.98432652  0.37786341  0.01935252  1
  O2-  O277  1  0.97914888  0.37104093  0.52533993  1
  O2-  O278  1  0.97297371  0.86820452  0.02127639  1
  O2-  O279  1  0.98997344  0.86422747  0.52688831  1
  O2-  O280  1  0.01675504  0.13810105  -0.02683265  1
  O2-  O281  1  0.01376035  0.13326706  0.47893874  1
  O2-  O282  1  0.01429045  0.61667366  -0.01449532  1
  O2-  O283  1  0.01999491  0.63521939  0.47149355  1
  O2-  O284  1  0.51898078  0.12351950  -0.02317287  1
  O2-  O285  1  0.52562700  0.13420818  0.48523199  1
  O2-  O286  1  0.52377355  0.63173636  -0.02414003  1
  O2-  O287  1  0.51362684  0.62003720  0.48790545  1
  O2-  O288  1  0.11779206  0.27387869  -0.02955636  1
  O2-  O289  1  0.11550967  0.27440098  0.47740422  1
  O2-  O290  1  0.11274051  0.76621753  -0.02643404  1
  O2-  O291  1  0.13192051  0.75989579  0.48353814  1
  O2-  O292  1  0.62471369  0.26617177  -0.02086529  1
  O2-  O293  1  0.61437020  0.28092362  0.48272367  1
  O2-  O294  1  0.61857571  0.77437504  -0.03251757  1
  O2-  O295  1  0.62883692  0.76230657  0.48639750  1
  O2-  O296  1  0.38649821  0.22191860  0.01421091  1
  O2-  O297  1  0.38864520  0.23586437  0.53263548  1
  O2-  O298  1  0.38880487  0.73735959  0.02957561  1
  O2-  O299  1  0.37721341  0.73099615  0.52156027  1
  O2-  O300  1  0.86534475  0.23564857  0.01518732  1
  O2-  O301  1  0.88071226  0.23364330  0.53683494  1
  O2-  O302  1  0.88267249  0.72140721  0.02964452  1
  O2-  O303  1  0.87584904  0.72977655  0.51577187  1
  O2-  O304  1  0.27356806  0.38794475  -0.01181564  1
  O2-  O305  1  0.27223859  0.38594999  0.47375875  1
  O2-  O306  1  0.27325664  0.88362024  -0.02934384  1
  O2-  O307  1  0.27125454  0.86753446  0.49046545  1
  O2-  O308  1  0.76339615  0.37273763  -0.01999681  1
  O2-  O309  1  0.76689206  0.38835042  0.48829689  1
  O2-  O310  1  0.77226780  0.88737472  -0.01568205  1
  O2-  O311  1  0.76939745  0.86589035  0.48286295  1
  O2-  O312  1  0.22683627  0.11291476  0.01263601  1
  O2-  O313  1  0.23229819  0.11520854  0.52097047  1
  O2-  O314  1  0.22697187  0.61645948  0.02865971  1
  O2-  O315  1  0.24336602  0.62698330  0.51419659  1
  O2-  O316  1  0.72773405  0.13173673  0.01278190  1
  O2-  O317  1  0.72255978  0.11272047  0.51366341  1
  O2-  O318  1  0.72935407  0.61166092  0.01037178  1
  O2-  O319  1  0.73182395  0.62710628  0.52237722  1
