# generated using pymatgen
data_Sr64Ca21Nb43O192
_symmetry_space_group_name_H-M   'P 1'
_cell_length_a   16.56152248
_cell_length_b   16.54463960
_cell_length_c   16.70131596
_cell_angle_alpha   89.98386077
_cell_angle_beta   89.99620220
_cell_angle_gamma   89.96087649
_symmetry_Int_Tables_number   1
_chemical_formula_structural   Sr64Ca21Nb43O192
_chemical_formula_sum   'Sr64 Ca21 Nb43 O192'
_cell_volume   4576.23314398
_cell_formula_units_Z   1
loop_
 _symmetry_equiv_pos_site_id
 _symmetry_equiv_pos_as_xyz
  1  'x, y, z'
loop_
 _atom_type_symbol
 _atom_type_oxidation_number
  Sr2+  2.0
  Ca2+  2.0
  Nb5+  5.0
  O2-  -2.0
loop_
 _atom_site_type_symbol
 _atom_site_label
 _atom_site_symmetry_multiplicity
 _atom_site_fract_x
 _atom_site_fract_y
 _atom_site_fract_z
 _atom_site_occupancy
  Sr2+  Sr0  1  0.11427814  0.11902881  0.13050383  1
  Sr2+  Sr1  1  0.12505725  0.11846629  0.62575703  1
  Sr2+  Sr2  1  0.11986300  0.63277032  0.12455981  1
  Sr2+  Sr3  1  0.11558530  0.63453435  0.62985260  1
  Sr2+  Sr4  1  0.62676808  0.11706385  0.12038169  1
  Sr2+  Sr5  1  0.61819533  0.12916790  0.62143539  1
  Sr2+  Sr6  1  0.61869617  0.63266349  0.13744794  1
  Sr2+  Sr7  1  0.62100926  0.64239312  0.62282421  1
  Sr2+  Sr8  1  0.36775070  0.37275893  0.12630621  1
  Sr2+  Sr9  1  0.36837436  0.36318102  0.63017464  1
  Sr2+  Sr10  1  0.36579675  0.88375268  0.12586154  1
  Sr2+  Sr11  1  0.36906854  0.88625313  0.63266870  1
  Sr2+  Sr12  1  0.86845041  0.36212158  0.12612752  1
  Sr2+  Sr13  1  0.86529901  0.36778334  0.62540882  1
  Sr2+  Sr14  1  0.87088776  0.87611722  0.12063105  1
  Sr2+  Sr15  1  0.86903175  0.86711449  0.61637599  1
  Sr2+  Sr16  1  0.12541902  0.37900509  0.37571215  1
  Sr2+  Sr17  1  0.13292225  0.38569640  0.87746404  1
  Sr2+  Sr18  1  0.13246124  0.87393354  0.37964546  1
  Sr2+  Sr19  1  0.14182967  0.87626331  0.87655243  1
  Sr2+  Sr20  1  0.61801032  0.37811926  0.37376809  1
  Sr2+  Sr21  1  0.62401073  0.37400656  0.87501519  1
  Sr2+  Sr22  1  0.62850916  0.87179904  0.37122450  1
  Sr2+  Sr23  1  0.63263467  0.86277496  0.87612789  1
  Sr2+  Sr24  1  0.38016387  0.12720314  0.37292150  1
  Sr2+  Sr25  1  0.38449660  0.12080124  0.87617813  1
  Sr2+  Sr26  1  0.37356888  0.61959883  0.37356128  1
  Sr2+  Sr27  1  0.37914022  0.62387795  0.87852626  1
  Sr2+  Sr28  1  0.88101364  0.11883277  0.37886379  1
  Sr2+  Sr29  1  0.87743369  0.12635600  0.88377010  1
  Sr2+  Sr30  1  0.86297005  0.62078424  0.38265643  1
  Sr2+  Sr31  1  0.88376047  0.61149227  0.87249224  1
  Sr2+  Sr32  1  0.13377258  0.13619694  0.37788605  1
  Sr2+  Sr33  1  0.12798443  0.12283456  0.88441020  1
  Sr2+  Sr34  1  0.12597053  0.61540451  0.37744895  1
  Sr2+  Sr35  1  0.13244935  0.63413479  0.86785306  1
  Sr2+  Sr36  1  0.62562816  0.10938111  0.37843956  1
  Sr2+  Sr37  1  0.63666311  0.12422459  0.87165668  1
  Sr2+  Sr38  1  0.62775710  0.61664753  0.37962148  1
  Sr2+  Sr39  1  0.62678806  0.60898075  0.87653812  1
  Sr2+  Sr40  1  0.37237952  0.37718573  0.37670737  1
  Sr2+  Sr41  1  0.38659006  0.37664267  0.87893884  1
  Sr2+  Sr42  1  0.38736648  0.87428315  0.37118056  1
  Sr2+  Sr43  1  0.37859934  0.86209818  0.88012337  1
  Sr2+  Sr44  1  0.88211792  0.37636533  0.37092355  1
  Sr2+  Sr45  1  0.87433689  0.36904205  0.87485317  1
  Sr2+  Sr46  1  0.88721017  0.85861774  0.37522582  1
  Sr2+  Sr47  1  0.88855186  0.86751399  0.87577520  1
  Sr2+  Sr48  1  0.11189651  0.37480364  0.13218541  1
  Sr2+  Sr49  1  0.11997557  0.37188950  0.62476547  1
  Sr2+  Sr50  1  0.11380260  0.87596739  0.12308358  1
  Sr2+  Sr51  1  0.11340616  0.88324708  0.62936293  1
  Sr2+  Sr52  1  0.61388786  0.37289494  0.12452903  1
  Sr2+  Sr53  1  0.61086539  0.37555899  0.62928741  1
  Sr2+  Sr54  1  0.60807837  0.88359168  0.12962984  1
  Sr2+  Sr55  1  0.62277846  0.88016823  0.62984187  1
  Sr2+  Sr56  1  0.38591142  0.12378932  0.13510741  1
  Sr2+  Sr57  1  0.36571729  0.13272811  0.62279336  1
  Sr2+  Sr58  1  0.36260080  0.62562049  0.12428598  1
  Sr2+  Sr59  1  0.37009087  0.63588646  0.62370693  1
  Sr2+  Sr60  1  0.86826898  0.12053339  0.12000192  1
  Sr2+  Sr61  1  0.85826821  0.11448871  0.62554899  1
  Sr2+  Sr62  1  0.86833295  0.62758562  0.13528191  1
  Sr2+  Sr63  1  0.86731247  0.62533595  0.62748882  1
  Ca2+  Ca64  1  0.50095165  0.50219152  0.00223437  1
  Ca2+  Ca65  1  -0.00144032  0.50016032  0.00135716  1
  Ca2+  Ca66  1  0.49958327  0.50236102  0.50298065  1
  Ca2+  Ca67  1  0.49840637  -0.00270464  0.50539742  1
  Ca2+  Ca68  1  0.49824183  -0.00150181  -0.00379772  1
  Ca2+  Ca69  1  0.24908285  0.24939220  0.00220826  1
  Ca2+  Ca70  1  0.74666987  0.75215183  0.49787168  1
  Ca2+  Ca71  1  0.74935143  0.74386767  -0.00019501  1
  Ca2+  Ca72  1  0.75060260  0.25051340  0.50025121  1
  Ca2+  Ca73  1  0.25068936  0.75094827  0.50042209  1
  Ca2+  Ca74  1  0.25157786  0.49941684  0.74798568  1
  Ca2+  Ca75  1  0.75506634  0.00147088  0.25203245  1
  Ca2+  Ca76  1  -0.00047512  0.24488147  0.25147660  1
  Ca2+  Ca77  1  0.00144568  0.74941816  0.25002737  1
  Ca2+  Ca78  1  0.75182977  -0.00114138  0.75376409  1
  Ca2+  Ca79  1  0.00131324  0.24673838  0.74808101  1
  Ca2+  Ca80  1  0.50519507  0.25145821  0.25061904  1
  Ca2+  Ca81  1  0.24511518  -0.00022308  0.25068349  1
  Ca2+  Ca82  1  0.49825807  0.74708626  0.24860979  1
  Ca2+  Ca83  1  0.25011770  0.00350758  0.74977421  1
  Ca2+  Ca84  1  -0.00139371  0.75384737  0.75022738  1
  Nb5+  Nb85  1  -0.00099029  -0.00329371  0.50478596  1
  Nb5+  Nb86  1  -0.00056648  -0.00153070  0.00401259  1
  Nb5+  Nb87  1  -0.00107067  0.49554531  0.50355012  1
  Nb5+  Nb88  1  0.24782082  0.25320434  0.49830472  1
  Nb5+  Nb89  1  0.25071952  0.75146895  0.00169008  1
  Nb5+  Nb90  1  0.74764033  0.25175522  0.00174642  1
  Nb5+  Nb91  1  0.74545942  0.49559645  0.25402895  1
  Nb5+  Nb92  1  0.50076894  0.24382064  0.75169831  1
  Nb5+  Nb93  1  0.75027195  0.49952772  0.75476558  1
  Nb5+  Nb94  1  0.24404642  0.49873577  0.24775480  1
  Nb5+  Nb95  1  0.50138949  0.74506347  0.75269150  1
  Nb5+  Nb96  1  -0.00150998  -0.00310070  0.25987149  1
  Nb5+  Nb97  1  -0.00088337  0.00184538  0.75914807  1
  Nb5+  Nb98  1  -0.00709694  0.50398870  0.24942089  1
  Nb5+  Nb99  1  0.00230729  0.49446009  0.75011070  1
  Nb5+  Nb100  1  0.50029088  -0.00027258  0.25258063  1
  Nb5+  Nb101  1  0.49918571  -0.00872188  0.75207824  1
  Nb5+  Nb102  1  0.49221205  0.50126057  0.24852158  1
  Nb5+  Nb103  1  0.49782958  0.49890457  0.74725722  1
  Nb5+  Nb104  1  0.24855194  0.25023346  0.24509258  1
  Nb5+  Nb105  1  0.24839425  0.25138395  0.75801643  1
  Nb5+  Nb106  1  0.24935887  0.74985661  0.25375621  1
  Nb5+  Nb107  1  0.25129926  0.75435464  0.74595105  1
  Nb5+  Nb108  1  0.75041134  0.24710050  0.25317368  1
  Nb5+  Nb109  1  0.74858279  0.24980094  0.74571015  1
  Nb5+  Nb110  1  0.75343242  0.75387837  0.25011386  1
  Nb5+  Nb111  1  0.75312349  0.74818271  0.75649351  1
  Nb5+  Nb112  1  -0.00110648  0.24260104  0.50394474  1
  Nb5+  Nb113  1  0.00146196  0.25285560  0.99687232  1
  Nb5+  Nb114  1  0.00314566  0.74194186  0.49926296  1
  Nb5+  Nb115  1  -0.00030776  0.74459067  0.99321838  1
  Nb5+  Nb116  1  0.50104000  0.25637723  0.49671850  1
  Nb5+  Nb117  1  0.49948541  0.24411926  1.00213299  1
  Nb5+  Nb118  1  0.49849001  0.75308123  0.49695628  1
  Nb5+  Nb119  1  0.50109535  0.74889870  1.00383769  1
  Nb5+  Nb120  1  0.24974496  0.00688980  0.00523979  1
  Nb5+  Nb121  1  0.25212486  0.00076975  0.49501011  1
  Nb5+  Nb122  1  0.24872250  0.49923987  -0.00215832  1
  Nb5+  Nb123  1  0.24877811  0.50034949  0.50430767  1
  Nb5+  Nb124  1  0.75004146  -0.00774583  -0.00476468  1
  Nb5+  Nb125  1  0.74791164  -0.00297556  0.49825730  1
  Nb5+  Nb126  1  0.74916349  0.49928904  0.01040577  1
  Nb5+  Nb127  1  0.74754713  0.49308374  0.50824152  1
  O2-  O128  1  0.00711957  0.00872630  0.12130205  1
  O2-  O129  1  0.01040098  0.01327025  0.61988288  1
  O2-  O130  1  -0.00496846  0.51904756  0.13572455  1
  O2-  O131  1  0.00770961  0.52001929  0.61960031  1
  O2-  O132  1  0.51220496  0.02130439  0.13226062  1
  O2-  O133  1  0.53461969  0.00757208  0.63769577  1
  O2-  O134  1  0.50932971  0.52709243  0.13441478  1
  O2-  O135  1  0.52512270  0.52146307  0.63657319  1
  O2-  O136  1  -0.01464482  -0.01383034  0.37643704  1
  O2-  O137  1  -0.01094754  -0.01020874  0.87584654  1
  O2-  O138  1  -0.00197708  0.48917364  0.38054177  1
  O2-  O139  1  -0.00843032  0.47642526  0.86444359  1
  O2-  O140  1  0.49403966  -0.02224973  0.37055503  1
  O2-  O141  1  0.46159368  -0.00968833  0.86430951  1
  O2-  O142  1  0.50011975  0.47360690  0.36595956  1
  O2-  O143  1  0.50261727  0.48325989  0.86476476  1
  O2-  O144  1  0.23573444  0.28493028  0.13426603  1
  O2-  O145  1  0.24207411  0.27673105  0.61599236  1
  O2-  O146  1  0.27327097  0.75977006  0.11818768  1
  O2-  O147  1  0.28029792  0.76438115  0.63406311  1
  O2-  O148  1  0.73385296  0.27048799  0.11663162  1
  O2-  O149  1  0.72980305  0.27947411  0.63499196  1
  O2-  O150  1  0.78201701  0.75181859  0.13255853  1
  O2-  O151  1  0.76319715  0.75439435  0.63716244  1
  O2-  O152  1  0.26715194  0.23636295  0.37619097  1
  O2-  O153  1  0.26180674  0.21923008  0.86648430  1
  O2-  O154  1  0.22484336  0.72958585  0.36476164  1
  O2-  O155  1  0.23804159  0.73981462  0.87670928  1
  O2-  O156  1  0.77443535  0.23748826  0.36483532  1
  O2-  O157  1  0.75709489  0.24302248  0.87216771  1
  O2-  O158  1  0.72201933  0.73097262  0.36361629  1
  O2-  O159  1  0.71680804  0.72553835  0.86626659  1
  O2-  O160  1  0.02051437  0.23708663  0.11369991  1
  O2-  O161  1  0.03862137  0.24394868  0.61389475  1
  O2-  O162  1  -0.01293544  0.73498874  0.11060038  1
  O2-  O163  1  -0.02378049  0.73579280  0.61610860  1
  O2-  O164  1  0.52114004  0.22643803  0.11398904  1
  O2-  O165  1  0.51075477  0.23811592  0.63160661  1
  O2-  O166  1  0.48630716  0.71877029  0.11319749  1
  O2-  O167  1  0.48657393  0.73194660  0.63480337  1
  O2-  O168  1  0.24769821  0.03705224  0.38283438  1
  O2-  O169  1  0.25119747  0.01932717  0.88671088  1
  O2-  O170  1  0.24548598  0.51782664  0.36957512  1
  O2-  O171  1  0.23342924  0.51941866  0.88437797  1
  O2-  O172  1  0.75892042  0.03219554  0.38510436  1
  O2-  O173  1  0.75980677  0.03088127  0.88583931  1
  O2-  O174  1  0.74833020  0.50845940  0.37195852  1
  O2-  O175  1  0.75598168  0.51215744  0.87194298  1
  O2-  O176  1  -0.02005437  0.26170407  0.38817250  1
  O2-  O177  1  -0.03029723  0.25038443  0.88193059  1
  O2-  O178  1  0.02327259  0.77184202  0.38534436  1
  O2-  O179  1  0.02370935  0.78143036  0.88230170  1
  O2-  O180  1  0.48390337  0.27484414  0.38465895  1
  O2-  O181  1  0.48932489  0.26844389  0.86911562  1
  O2-  O182  1  0.50929220  0.77543426  0.38373201  1
  O2-  O183  1  0.50877105  0.77564288  0.86933161  1
  O2-  O184  1  0.23115387  -0.02951240  0.11628918  1
  O2-  O185  1  0.22882660  -0.01496479  0.61033885  1
  O2-  O186  1  0.26034044  0.48503473  0.12996683  1
  O2-  O187  1  0.25070419  0.46955611  0.61387945  1
  O2-  O188  1  0.75479586  -0.00476081  0.11384112  1
  O2-  O189  1  0.75577669  -0.02535619  0.61804017  1
  O2-  O190  1  0.75694628  0.47864936  0.12595307  1
  O2-  O191  1  0.75154896  0.48145209  0.62483439  1
  O2-  O192  1  0.13529995  0.27190561  0.27344080  1
  O2-  O193  1  0.13717276  0.28127579  0.76497557  1
  O2-  O194  1  0.13740095  0.75968520  0.21680401  1
  O2-  O195  1  0.13609597  0.77048512  0.73207680  1
  O2-  O196  1  0.63988587  0.28850705  0.25682267  1
  O2-  O197  1  0.61936775  0.27283116  0.76077605  1
  O2-  O198  1  0.63645045  0.76334204  0.22046214  1
  O2-  O199  1  0.62021647  0.76628268  0.73442451  1
  O2-  O200  1  0.36785179  0.23980921  0.23676446  1
  O2-  O201  1  0.38195121  0.23648026  0.73807506  1
  O2-  O202  1  0.36347761  0.71631309  0.25766798  1
  O2-  O203  1  0.38055679  0.73093291  0.76804860  1
  O2-  O204  1  0.86393963  0.23913873  0.21745747  1
  O2-  O205  1  0.86212734  0.23550932  0.72967096  1
  O2-  O206  1  0.86737261  0.71911514  0.27240368  1
  O2-  O207  1  0.86465989  0.72390469  0.77409821  1
  O2-  O208  1  0.27139966  0.38256087  0.26681798  1
  O2-  O209  1  0.28449494  0.36511957  0.76714012  1
  O2-  O210  1  0.27315222  0.86226679  0.26841058  1
  O2-  O211  1  0.27576984  0.86822341  0.76970770  1
  O2-  O212  1  0.78129490  0.38107197  0.25799954  1
  O2-  O213  1  0.76832952  0.37906117  0.76436221  1
  O2-  O214  1  0.77411485  0.86560037  0.26754704  1
  O2-  O215  1  0.76391625  0.86225604  0.77671029  1
  O2-  O216  1  0.23171288  0.13747615  0.22594649  1
  O2-  O217  1  0.24118423  0.14067244  0.71709965  1
  O2-  O218  1  0.23250353  0.61734046  0.22953357  1
  O2-  O219  1  0.23430970  0.63503203  0.73597210  1
  O2-  O220  1  0.72033333  0.13777485  0.23470132  1
  O2-  O221  1  0.72159043  0.13740327  0.73389818  1
  O2-  O222  1  0.73767600  0.61222376  0.23173637  1
  O2-  O223  1  0.73162642  0.61678932  0.73265574  1
  O2-  O224  1  0.12838010  0.47842587  0.24803738  1
  O2-  O225  1  0.11640164  0.47217636  0.74672682  1
  O2-  O226  1  0.11238217  0.95996920  0.25647131  1
  O2-  O227  1  0.11486402  0.96643851  0.75685273  1
  O2-  O228  1  0.63158644  0.47683729  0.24948637  1
  O2-  O229  1  0.63210086  0.48111352  0.75754044  1
  O2-  O230  1  0.62018994  0.97468362  0.25812357  1
  O2-  O231  1  0.61415383  0.98455901  0.78432672  1
  O2-  O232  1  0.38078679  0.02217583  0.24625685  1
  O2-  O233  1  0.38653161  0.01965208  0.71856815  1
  O2-  O234  1  0.37567401  0.51888787  0.25208358  1
  O2-  O235  1  0.38655221  0.52684577  0.74274530  1
  O2-  O236  1  0.88740431  0.04012450  0.24557731  1
  O2-  O237  1  0.88621271  0.04085007  0.75026460  1
  O2-  O238  1  0.87730407  0.52117087  0.25910122  1
  O2-  O239  1  0.87164326  0.51983756  0.74254036  1
  O2-  O240  1  0.48684329  0.38544999  0.21938708  1
  O2-  O241  1  0.48574888  0.38057900  0.73196402  1
  O2-  O242  1  0.47776075  0.88133198  0.22696224  1
  O2-  O243  1  0.48454557  0.87463753  0.73470751  1
  O2-  O244  1  0.98858634  0.38497456  0.24195921  1
  O2-  O245  1  0.97451547  0.38313852  0.72196264  1
  O2-  O246  1  0.96397359  0.88424637  0.23570735  1
  O2-  O247  1  0.96503621  0.88907759  0.73155262  1
  O2-  O248  1  0.03749442  0.11154836  0.26321085  1
  O2-  O249  1  0.04052884  0.11456407  0.75921038  1
  O2-  O250  1  0.02993054  0.61447959  0.26625370  1
  O2-  O251  1  0.01785196  0.61428653  0.76229631  1
  O2-  O252  1  0.51863376  0.11815624  0.27629431  1
  O2-  O253  1  0.51672142  0.12973478  0.76719577  1
  O2-  O254  1  0.52514574  0.61365736  0.27496106  1
  O2-  O255  1  0.52101436  0.62864474  0.76935114  1
  O2-  O256  1  0.13334577  0.47729118  0.01916412  1
  O2-  O257  1  0.12127529  0.48278235  0.49383628  1
  O2-  O258  1  0.11702313  0.98256321  -0.01243953  1
  O2-  O259  1  0.11760936  0.99045871  0.48441249  1
  O2-  O260  1  0.63633157  0.46714410  -0.00663594  1
  O2-  O261  1  0.63657197  0.47009243  0.49609695  1
  O2-  O262  1  0.63488326  0.97490624  -0.00719554  1
  O2-  O263  1  0.63475092  0.97681198  0.48615561  1
  O2-  O264  1  0.36252498  0.02250951  0.02079886  1
  O2-  O265  1  0.36328226  0.02663057  0.51070189  1
  O2-  O266  1  0.36476967  0.52481068  0.00219138  1
  O2-  O267  1  0.36301840  0.51751236  0.49252885  1
  O2-  O268  1  0.87938520  0.01767234  0.00359602  1
  O2-  O269  1  0.88348113  0.02572162  0.50428708  1
  O2-  O270  1  0.86349114  0.52797906  -0.00056452  1
  O2-  O271  1  0.88229611  0.52209171  0.50471308  1
  O2-  O272  1  0.48047214  0.36243704  0.01270633  1
  O2-  O273  1  0.48050438  0.36845966  0.53190437  1
  O2-  O274  1  0.46763688  0.86389686  0.01427668  1
  O2-  O275  1  0.46228645  0.86432101  0.52189395  1
  O2-  O276  1  0.97624086  0.36480927  0.01384754  1
  O2-  O277  1  0.98699832  0.37925850  0.51597730  1
  O2-  O278  1  0.98137809  0.87887216  0.01351272  1
  O2-  O279  1  0.98377161  0.88111680  0.51417101  1
  O2-  O280  1  0.01229113  0.12072645  -0.01125397  1
  O2-  O281  1  0.01745994  0.12730666  0.48536627  1
  O2-  O282  1  0.02589587  0.63343674  -0.02567599  1
  O2-  O283  1  0.02115963  0.62578327  0.48773037  1
  O2-  O284  1  0.52354567  0.13283080  -0.03228662  1
  O2-  O285  1  0.51324060  0.13732138  0.49092642  1
  O2-  O286  1  0.51038593  0.63728445  -0.03521081  1
  O2-  O287  1  0.53258426  0.63577143  0.49230298  1
  O2-  O288  1  0.11368293  0.26585743  -0.03072456  1
  O2-  O289  1  0.12821655  0.26635553  0.47759374  1
  O2-  O290  1  0.12982119  0.76646093  0.01454512  1
  O2-  O291  1  0.11599504  0.76956629  0.52809386  1
  O2-  O292  1  0.62851472  0.26911048  -0.01561917  1
  O2-  O293  1  0.61605307  0.27471533  0.49009741  1
  O2-  O294  1  0.61356398  0.77657635  0.01415217  1
  O2-  O295  1  0.61378727  0.77885823  0.52325660  1
  O2-  O296  1  0.38495480  0.22070666  0.00827433  1
  O2-  O297  1  0.36995237  0.24203002  0.51090476  1
  O2-  O298  1  0.36908682  0.73245014  -0.01847066  1
  O2-  O299  1  0.38362474  0.71465660  0.48945116  1
  O2-  O300  1  0.86844646  0.23116753  0.01336402  1
  O2-  O301  1  0.88776719  0.23479781  0.53337191  1
  O2-  O302  1  0.88638049  0.73377814  -0.03098140  1
  O2-  O303  1  0.88511208  0.73901023  0.47700580  1
  O2-  O304  1  0.27140311  0.38492622  -0.02183414  1
  O2-  O305  1  0.25629694  0.37650947  0.47364257  1
  O2-  O306  1  0.26284585  0.87204392  -0.01619965  1
  O2-  O307  1  0.26413973  0.88804967  0.46778251  1
  O2-  O308  1  0.77555106  0.37277467  -0.01200355  1
  O2-  O309  1  0.78843566  0.38515274  0.48596890  1
  O2-  O310  1  0.77676614  0.88124334  -0.02141751  1
  O2-  O311  1  0.78127734  0.88500682  0.47731523  1
  O2-  O312  1  0.21735072  0.11669867  0.02257992  1
  O2-  O313  1  0.23065337  0.13595680  0.51608707  1
  O2-  O314  1  0.23053502  0.62909145  0.01565256  1
  O2-  O315  1  0.22341873  0.61318707  0.52120681  1
  O2-  O316  1  0.73268773  0.13268100  0.01136575  1
  O2-  O317  1  0.73501716  0.11626818  0.52792125  1
  O2-  O318  1  0.71523979  0.61036685  0.01902668  1
  O2-  O319  1  0.74105441  0.61185911  0.50859744  1
