# generated using pymatgen
data_Sr64Ca21Nb43O192
_symmetry_space_group_name_H-M   'P 1'
_cell_length_a   16.58196657
_cell_length_b   16.59000303
_cell_length_c   16.74159293
_cell_angle_alpha   89.96878238
_cell_angle_beta   90.00193547
_cell_angle_gamma   90.07573807
_symmetry_Int_Tables_number   1
_chemical_formula_structural   Sr64Ca21Nb43O192
_chemical_formula_sum   'Sr64 Ca21 Nb43 O192'
_cell_volume   4605.52171691
_cell_formula_units_Z   1
loop_
 _symmetry_equiv_pos_site_id
 _symmetry_equiv_pos_as_xyz
  1  'x, y, z'
loop_
 _atom_type_symbol
 _atom_type_oxidation_number
  Sr2+  2.0
  Ca2+  2.0
  Nb5+  5.0
  O2-  -2.0
loop_
 _atom_site_type_symbol
 _atom_site_label
 _atom_site_symmetry_multiplicity
 _atom_site_fract_x
 _atom_site_fract_y
 _atom_site_fract_z
 _atom_site_occupancy
  Sr2+  Sr0  1  0.11999113  0.12433385  0.12839047  1
  Sr2+  Sr1  1  0.12574141  0.13347319  0.61660137  1
  Sr2+  Sr2  1  0.11973381  0.63022902  0.12917117  1
  Sr2+  Sr3  1  0.11880483  0.63776720  0.62396424  1
  Sr2+  Sr4  1  0.61831319  0.12868722  0.12111789  1
  Sr2+  Sr5  1  0.61685743  0.13782412  0.63131968  1
  Sr2+  Sr6  1  0.62118171  0.64042400  0.12407797  1
  Sr2+  Sr7  1  0.61981498  0.62349592  0.62518367  1
  Sr2+  Sr8  1  0.36334885  0.39283656  0.12423334  1
  Sr2+  Sr9  1  0.37177661  0.38906865  0.62355363  1
  Sr2+  Sr10  1  0.37545614  0.88250188  0.12439169  1
  Sr2+  Sr11  1  0.36411965  0.88958701  0.62607318  1
  Sr2+  Sr12  1  0.86231448  0.38908264  0.13093889  1
  Sr2+  Sr13  1  0.86563373  0.37795435  0.62767112  1
  Sr2+  Sr14  1  0.87395655  0.88214974  0.11388468  1
  Sr2+  Sr15  1  0.86894410  0.88084039  0.62865958  1
  Sr2+  Sr16  1  0.10832832  0.37262872  0.37923670  1
  Sr2+  Sr17  1  0.11559845  0.36662826  0.86925621  1
  Sr2+  Sr18  1  0.13249330  0.87345572  0.37147360  1
  Sr2+  Sr19  1  0.12551325  0.87050382  0.88275014  1
  Sr2+  Sr20  1  0.63574807  0.36788954  0.37260972  1
  Sr2+  Sr21  1  0.64196835  0.36198526  0.87546416  1
  Sr2+  Sr22  1  0.63578226  0.86799632  0.37326607  1
  Sr2+  Sr23  1  0.63819609  0.87444506  0.88165265  1
  Sr2+  Sr24  1  0.37924368  0.13204663  0.37107287  1
  Sr2+  Sr25  1  0.38879370  0.12447687  0.87227252  1
  Sr2+  Sr26  1  0.38621666  0.62225779  0.37142844  1
  Sr2+  Sr27  1  0.37869686  0.61704407  0.88373392  1
  Sr2+  Sr28  1  0.86276396  0.12402805  0.37120819  1
  Sr2+  Sr29  1  0.88153765  0.13350649  0.87235541  1
  Sr2+  Sr30  1  0.88607551  0.61320037  0.37553449  1
  Sr2+  Sr31  1  0.88861131  0.61777536  0.87632421  1
  Sr2+  Sr32  1  0.13190172  0.14267872  0.36833171  1
  Sr2+  Sr33  1  0.13548368  0.13167061  0.88356446  1
  Sr2+  Sr34  1  0.13151298  0.61699281  0.37488743  1
  Sr2+  Sr35  1  0.12939698  0.60867520  0.87475746  1
  Sr2+  Sr36  1  0.63420976  0.11895170  0.36534138  1
  Sr2+  Sr37  1  0.63263824  0.13404455  0.87733940  1
  Sr2+  Sr38  1  0.62902019  0.61654823  0.37417696  1
  Sr2+  Sr39  1  0.63304016  0.60735947  0.87840377  1
  Sr2+  Sr40  1  0.38315300  0.38019861  0.38207069  1
  Sr2+  Sr41  1  0.37509588  0.37416676  0.87185147  1
  Sr2+  Sr42  1  0.38068928  0.86274505  0.37389897  1
  Sr2+  Sr43  1  0.38090666  0.86946819  0.87569642  1
  Sr2+  Sr44  1  0.88416222  0.36601227  0.36753790  1
  Sr2+  Sr45  1  0.87772493  0.38439218  0.87679998  1
  Sr2+  Sr46  1  0.87334142  0.87031839  0.38222864  1
  Sr2+  Sr47  1  0.88620120  0.86253251  0.87329336  1
  Sr2+  Sr48  1  0.10693474  0.37740608  0.13551251  1
  Sr2+  Sr49  1  0.11357341  0.37482377  0.62148674  1
  Sr2+  Sr50  1  0.11362430  0.88349737  0.12265011  1
  Sr2+  Sr51  1  0.11388898  0.88016326  0.62647128  1
  Sr2+  Sr52  1  0.62984900  0.37158204  0.11619763  1
  Sr2+  Sr53  1  0.61702211  0.37303460  0.63313968  1
  Sr2+  Sr54  1  0.61227135  0.88471477  0.12728772  1
  Sr2+  Sr55  1  0.62307467  0.88419885  0.61611237  1
  Sr2+  Sr56  1  0.37797596  0.12647440  0.12059843  1
  Sr2+  Sr57  1  0.37278502  0.13471803  0.62437012  1
  Sr2+  Sr58  1  0.37444337  0.63618504  0.12557178  1
  Sr2+  Sr59  1  0.37052613  0.62744292  0.62894613  1
  Sr2+  Sr60  1  0.86349354  0.13413721  0.12825135  1
  Sr2+  Sr61  1  0.85409570  0.12028014  0.62551484  1
  Sr2+  Sr62  1  0.86073309  0.62447995  0.12003281  1
  Sr2+  Sr63  1  0.86102047  0.63898658  0.62672663  1
  Ca2+  Ca64  1  0.50103679  0.50029495  0.00298824  1
  Ca2+  Ca65  1  0.00002525  0.49937558  0.50392453  1
  Ca2+  Ca66  1  0.49817566  0.00037284  0.49908353  1
  Ca2+  Ca67  1  0.00306339  0.00043102  0.50021289  1
  Ca2+  Ca68  1  0.00328122  0.49930454  0.00183936  1
  Ca2+  Ca69  1  0.74772977  0.25143159  0.50004612  1
  Ca2+  Ca70  1  0.74970969  0.75117371  -0.00211572  1
  Ca2+  Ca71  1  0.25058607  0.25383828  0.00184360  1
  Ca2+  Ca72  1  0.24762342  0.74911216  -0.00031287  1
  Ca2+  Ca73  1  0.75573443  0.24752706  -0.00035470  1
  Ca2+  Ca74  1  0.49700397  0.25167146  0.75201414  1
  Ca2+  Ca75  1  0.49700073  0.25387502  0.24615269  1
  Ca2+  Ca76  1  -0.00107451  0.24781748  0.74798687  1
  Ca2+  Ca77  1  0.00036949  0.75213394  0.25122697  1
  Ca2+  Ca78  1  0.49789453  0.75109369  0.74921173  1
  Ca2+  Ca79  1  0.75019881  -0.00110907  0.75267508  1
  Ca2+  Ca80  1  0.24950881  0.50224392  0.25442145  1
  Ca2+  Ca81  1  0.74663042  0.50291918  0.25269240  1
  Ca2+  Ca82  1  0.74627368  -0.00278287  0.24500030  1
  Ca2+  Ca83  1  -0.00207717  0.24497152  0.24861031  1
  Ca2+  Ca84  1  0.74990542  0.50069000  0.74797595  1
  Nb5+  Nb85  1  0.00458853  0.00048800  -0.00427944  1
  Nb5+  Nb86  1  0.50292086  0.49939755  0.49978022  1
  Nb5+  Nb87  1  0.50430566  -0.00056706  -0.00295047  1
  Nb5+  Nb88  1  0.25484845  0.25954527  0.49827532  1
  Nb5+  Nb89  1  0.24896825  0.75571282  0.50204454  1
  Nb5+  Nb90  1  0.74178313  0.74957637  0.50093774  1
  Nb5+  Nb91  1  0.24471702  0.00891385  0.74630021  1
  Nb5+  Nb92  1  0.00006919  0.74728764  0.74906094  1
  Nb5+  Nb93  1  0.50268080  0.75273429  0.25116064  1
  Nb5+  Nb94  1  0.24802031  -0.00204186  0.24163365  1
  Nb5+  Nb95  1  0.24943628  0.50558188  0.74822767  1
  Nb5+  Nb96  1  -0.00426228  -0.00315410  0.25303040  1
  Nb5+  Nb97  1  0.00536166  0.00383188  0.75339952  1
  Nb5+  Nb98  1  0.00095389  0.50265266  0.25024708  1
  Nb5+  Nb99  1  -0.00190264  0.50036899  0.74172736  1
  Nb5+  Nb100  1  0.49433716  0.00082817  0.25551646  1
  Nb5+  Nb101  1  0.50392595  -0.00406747  0.75072264  1
  Nb5+  Nb102  1  0.50016231  0.50023817  0.24614691  1
  Nb5+  Nb103  1  0.49979534  0.49808495  0.75638159  1
  Nb5+  Nb104  1  0.25537178  0.26079953  0.24909753  1
  Nb5+  Nb105  1  0.25177469  0.25838401  0.75037955  1
  Nb5+  Nb106  1  0.25150697  0.75368667  0.24763900  1
  Nb5+  Nb107  1  0.24853026  0.75444188  0.75269464  1
  Nb5+  Nb108  1  0.74697587  0.25206170  0.24824893  1
  Nb5+  Nb109  1  0.75374974  0.24885332  0.74695971  1
  Nb5+  Nb110  1  0.75859747  0.74972055  0.25162081  1
  Nb5+  Nb111  1  0.73872787  0.75254055  0.74935943  1
  Nb5+  Nb112  1  -0.00712533  0.24096779  0.50152027  1
  Nb5+  Nb113  1  -0.00422871  0.25512333  1.00168460  1
  Nb5+  Nb114  1  -0.00666801  0.75068381  0.49886390  1
  Nb5+  Nb115  1  0.00045943  0.74504491  1.00303543  1
  Nb5+  Nb116  1  0.50397451  0.24797920  0.49636267  1
  Nb5+  Nb117  1  0.49572313  0.25675312  1.00358507  1
  Nb5+  Nb118  1  0.49379533  0.74749176  0.50314666  1
  Nb5+  Nb119  1  0.50429770  0.75284918  0.99374974  1
  Nb5+  Nb120  1  0.25499118  0.00252208  -0.00632737  1
  Nb5+  Nb121  1  0.25028014  0.00767790  0.49108818  1
  Nb5+  Nb122  1  0.24559972  0.49725221  0.00695860  1
  Nb5+  Nb123  1  0.25122481  0.50821175  0.50280994  1
  Nb5+  Nb124  1  0.75855451  0.00090036  -0.00168231  1
  Nb5+  Nb125  1  0.74492058  0.00293701  0.50053175  1
  Nb5+  Nb126  1  0.74925339  0.50066093  -0.00164643  1
  Nb5+  Nb127  1  0.75552201  0.49888593  0.50119182  1
  O2-  O128  1  0.01223872  0.01434254  0.11265489  1
  O2-  O129  1  0.03203536  0.01222026  0.64075463  1
  O2-  O130  1  0.03108436  0.51306563  0.13412270  1
  O2-  O131  1  0.03947151  0.51356308  0.63364217  1
  O2-  O132  1  0.50480807  0.01088048  0.12079664  1
  O2-  O133  1  0.51218299  0.01773725  0.63734992  1
  O2-  O134  1  0.52804844  0.52066834  0.13719275  1
  O2-  O135  1  0.51390955  0.51520816  0.61788363  1
  O2-  O136  1  -0.00564993  -0.03166645  0.36333982  1
  O2-  O137  1  -0.00454378  -0.03013911  0.87423458  1
  O2-  O138  1  -0.02250489  0.48541754  0.36992032  1
  O2-  O139  1  -0.01005837  0.49198123  0.86093008  1
  O2-  O140  1  0.46544375  -0.01187192  0.36582944  1
  O2-  O141  1  0.48039742  -0.01878338  0.88123173  1
  O2-  O142  1  0.47383927  0.49735965  0.38162367  1
  O2-  O143  1  0.46910348  0.49110838  0.86696955  1
  O2-  O144  1  0.24457580  0.27596191  0.13635424  1
  O2-  O145  1  0.25705896  0.25255718  0.61932222  1
  O2-  O146  1  0.27593375  0.76572547  0.13648318  1
  O2-  O147  1  0.27352678  0.75899582  0.62104575  1
  O2-  O148  1  0.76073859  0.27268067  0.13220757  1
  O2-  O149  1  0.75086617  0.27893190  0.63008898  1
  O2-  O150  1  0.77960318  0.76259346  0.13869670  1
  O2-  O151  1  0.76916195  0.76687027  0.61832697  1
  O2-  O152  1  0.25928651  0.23502532  0.38121421  1
  O2-  O153  1  0.24578204  0.24247822  0.86346895  1
  O2-  O154  1  0.23723110  0.73944053  0.38383824  1
  O2-  O155  1  0.22104236  0.73718709  0.86187855  1
  O2-  O156  1  0.73649554  0.22863140  0.36808422  1
  O2-  O157  1  0.75169182  0.22770444  0.86521223  1
  O2-  O158  1  0.72898855  0.73523770  0.38375185  1
  O2-  O159  1  0.71711483  0.73641920  0.86129173  1
  O2-  O160  1  0.01274302  0.22405163  0.11527319  1
  O2-  O161  1  0.01558566  0.22901814  0.61547867  1
  O2-  O162  1  -0.01933474  0.72489609  0.11438837  1
  O2-  O163  1  -0.00935082  0.72629868  0.62636732  1
  O2-  O164  1  0.49947863  0.21688331  0.11576584  1
  O2-  O165  1  0.49480739  0.23146904  0.61426195  1
  O2-  O166  1  0.48583626  0.73897455  0.13396085  1
  O2-  O167  1  0.49031540  0.72141216  0.61435774  1
  O2-  O168  1  0.26286619  0.01574399  0.37652609  1
  O2-  O169  1  0.25728004  0.02532645  0.87862489  1
  O2-  O170  1  0.26983293  0.52144728  0.38979886  1
  O2-  O171  1  0.26826127  0.51537572  0.86433120  1
  O2-  O172  1  0.75174613  0.01975370  0.38155445  1
  O2-  O173  1  0.74716973  0.03162991  0.88498212  1
  O2-  O174  1  0.75858632  0.53366888  0.38919228  1
  O2-  O175  1  0.76750500  0.52774940  0.88004785  1
  O2-  O176  1  0.00087314  0.26485309  0.38435357  1
  O2-  O177  1  -0.01470969  0.27663451  0.88189058  1
  O2-  O178  1  0.01270079  0.77924288  0.38862368  1
  O2-  O179  1  0.01850620  0.76510809  0.86482142  1
  O2-  O180  1  0.49096983  0.27623860  0.38246268  1
  O2-  O181  1  0.49537753  0.27723330  0.88541676  1
  O2-  O182  1  0.51022822  0.76857303  0.37636512  1
  O2-  O183  1  0.51763189  0.77921873  0.88368087  1
  O2-  O184  1  0.24247438  -0.02379894  0.12659865  1
  O2-  O185  1  0.23417195  -0.01170133  0.63305467  1
  O2-  O186  1  0.22740912  0.47830002  0.11875260  1
  O2-  O187  1  0.24161487  0.48081509  0.62588456  1
  O2-  O188  1  0.74287310  -0.03704172  0.11194915  1
  O2-  O189  1  0.74520184  -0.02703021  0.61649578  1
  O2-  O190  1  0.73609833  0.47869747  0.11698182  1
  O2-  O191  1  0.71838749  0.48521022  0.61250980  1
  O2-  O192  1  0.13870113  0.26277328  0.26755880  1
  O2-  O193  1  0.13566300  0.27239646  0.73926843  1
  O2-  O194  1  0.13827293  0.78067638  0.24059880  1
  O2-  O195  1  0.12965675  0.75984677  0.72132804  1
  O2-  O196  1  0.62975164  0.28163244  0.24176415  1
  O2-  O197  1  0.63189989  0.26594195  0.74910994  1
  O2-  O198  1  0.61796673  0.77495036  0.23910523  1
  O2-  O199  1  0.63133359  0.77652840  0.72059496  1
  O2-  O200  1  0.36242115  0.21269092  0.24799661  1
  O2-  O201  1  0.36275056  0.21803518  0.74771717  1
  O2-  O202  1  0.37494367  0.73967036  0.27226640  1
  O2-  O203  1  0.36038721  0.72244289  0.76620279  1
  O2-  O204  1  0.86561925  0.22042823  0.25712482  1
  O2-  O205  1  0.86913418  0.21657016  0.73903847  1
  O2-  O206  1  0.86699602  0.73057731  0.28293271  1
  O2-  O207  1  0.88478281  0.72891289  0.76245444  1
  O2-  O208  1  0.28524434  0.36877806  0.26916267  1
  O2-  O209  1  0.27627224  0.37311644  0.75379095  1
  O2-  O210  1  0.27118511  0.87910799  0.27425267  1
  O2-  O211  1  0.26675152  0.87005869  0.76063643  1
  O2-  O212  1  0.77269131  0.36884290  0.27275230  1
  O2-  O213  1  0.77852787  0.36700148  0.76798676  1
  O2-  O214  1  0.75906775  0.86423931  0.28073718  1
  O2-  O215  1  0.78127615  0.86193144  0.76247444  1
  O2-  O216  1  0.22890637  0.11317678  0.23955621  1
  O2-  O217  1  0.22034357  0.12107653  0.73943954  1
  O2-  O218  1  0.23030158  0.63956057  0.24126302  1
  O2-  O219  1  0.23147414  0.61975907  0.72939338  1
  O2-  O220  1  0.72074579  0.13247888  0.22954106  1
  O2-  O221  1  0.72996065  0.13014885  0.72080821  1
  O2-  O222  1  0.71904526  0.63965287  0.23974999  1
  O2-  O223  1  0.73851958  0.63763119  0.72286045  1
  O2-  O224  1  0.11854606  0.47544371  0.27487076  1
  O2-  O225  1  0.13534330  0.47884668  0.76585328  1
  O2-  O226  1  0.13219205  0.97252422  0.25352242  1
  O2-  O227  1  0.13252241  0.97219002  0.77166589  1
  O2-  O228  1  0.61050244  0.48847974  0.28462487  1
  O2-  O229  1  0.61358033  0.47603446  0.77046430  1
  O2-  O230  1  0.60752902  0.97472364  0.26066998  1
  O2-  O231  1  0.61348241  0.96508863  0.76310931  1
  O2-  O232  1  0.37037476  0.01215523  0.22793935  1
  O2-  O233  1  0.36233398  0.01958174  0.74396726  1
  O2-  O234  1  0.38482730  0.53433194  0.23656943  1
  O2-  O235  1  0.37146873  0.51621322  0.73014095  1
  O2-  O236  1  0.88398268  0.02240466  0.24050435  1
  O2-  O237  1  0.89089862  0.01213398  0.73828607  1
  O2-  O238  1  0.88395786  0.52964863  0.23208397  1
  O2-  O239  1  0.88729701  0.52434711  0.72306673  1
  O2-  O240  1  0.47122608  0.38972948  0.23475936  1
  O2-  O241  1  0.47878842  0.38551936  0.72480727  1
  O2-  O242  1  0.47523993  0.87346032  0.23833810  1
  O2-  O243  1  0.46054811  0.88558566  0.74049478  1
  O2-  O244  1  0.97952551  0.38253784  0.23187611  1
  O2-  O245  1  0.98532621  0.38552497  0.72664905  1
  O2-  O246  1  0.98776133  0.88493268  0.21232277  1
  O2-  O247  1  0.99195539  0.86679709  0.73171249  1
  O2-  O248  1  0.03289523  0.10756981  0.25880766  1
  O2-  O249  1  0.02493271  0.11221287  0.78204056  1
  O2-  O250  1  0.02829816  0.61984277  0.27017047  1
  O2-  O251  1  0.02571347  0.62761469  0.76200081  1
  O2-  O252  1  0.51311742  0.11425363  0.26664541  1
  O2-  O253  1  0.51275780  0.11105476  0.77900737  1
  O2-  O254  1  0.51532990  0.63609202  0.26799805  1
  O2-  O255  1  0.51964567  0.61529043  0.76002734  1
  O2-  O256  1  0.13632732  0.47151019  -0.02955538  1
  O2-  O257  1  0.13983756  0.47879178  0.48692277  1
  O2-  O258  1  0.12447953  0.98294765  -0.00967959  1
  O2-  O259  1  0.14124706  0.96808820  0.49400271  1
  O2-  O260  1  0.63230663  0.47846066  -0.02693549  1
  O2-  O261  1  0.61760767  0.48790736  0.47922885  1
  O2-  O262  1  0.61876133  0.97940815  -0.00782085  1
  O2-  O263  1  0.63019234  0.96811146  0.48717736  1
  O2-  O264  1  0.37141792  0.01467534  0.01037712  1
  O2-  O265  1  0.36149280  0.00920720  0.52792655  1
  O2-  O266  1  0.36446228  0.52995249  0.02010391  1
  O2-  O267  1  0.37381450  0.51547782  0.52196393  1
  O2-  O268  1  0.87667058  0.01184676  0.00619721  1
  O2-  O269  1  0.86568185  0.01040181  0.50468964  1
  O2-  O270  1  0.86921274  0.52190278  0.01392955  1
  O2-  O271  1  0.86536947  0.52128919  0.52875497  1
  O2-  O272  1  0.48206071  0.36658309  0.03580370  1
  O2-  O273  1  0.47850819  0.38345719  0.51339329  1
  O2-  O274  1  0.47920379  0.87845235  0.01698821  1
  O2-  O275  1  0.48014594  0.86182921  0.52008106  1
  O2-  O276  1  0.97704479  0.36527062  0.02846091  1
  O2-  O277  1  0.98300932  0.36115680  0.52004074  1
  O2-  O278  1  0.98298763  0.87602676  0.00927210  1
  O2-  O279  1  0.98828306  0.86376073  0.53225037  1
  O2-  O280  1  0.01373646  0.11237235  -0.03145789  1
  O2-  O281  1  0.03753914  0.13107268  0.48250262  1
  O2-  O282  1  0.02286439  0.63473102  -0.02296313  1
  O2-  O283  1  0.02530438  0.63709142  0.48435484  1
  O2-  O284  1  0.51526064  0.11460257  -0.02137904  1
  O2-  O285  1  0.52183621  0.13563720  0.47377103  1
  O2-  O286  1  0.52333002  0.63805606  -0.01479835  1
  O2-  O287  1  0.51389304  0.62524201  0.48073934  1
  O2-  O288  1  0.11403723  0.25557240  -0.01687093  1
  O2-  O289  1  0.13814470  0.27052544  0.49686293  1
  O2-  O290  1  0.11404133  0.77626155  0.01676730  1
  O2-  O291  1  0.13423873  0.76617866  0.51839998  1
  O2-  O292  1  0.61654985  0.25725489  -0.00127798  1
  O2-  O293  1  0.61365965  0.28259744  0.50537405  1
  O2-  O294  1  0.61562089  0.77527349  0.02880611  1
  O2-  O295  1  0.62429116  0.76397439  0.51466510  1
  O2-  O296  1  0.38305513  0.21838780  -0.00525343  1
  O2-  O297  1  0.37446763  0.22895920  0.49890387  1
  O2-  O298  1  0.38547576  0.73598662  -0.01270497  1
  O2-  O299  1  0.37666592  0.72947213  0.48469177  1
  O2-  O300  1  0.88668171  0.21047946  0.00134169  1
  O2-  O301  1  0.88166073  0.21108456  0.50099521  1
  O2-  O302  1  0.88564788  0.73962491  -0.03032892  1
  O2-  O303  1  0.87724424  0.73264727  0.48651195  1
  O2-  O304  1  0.28656163  0.38648006  -0.01356304  1
  O2-  O305  1  0.27678997  0.37401274  0.49260001  1
  O2-  O306  1  0.26268700  0.88579130  -0.02139462  1
  O2-  O307  1  0.27409764  0.86941017  0.48897307  1
  O2-  O308  1  0.77071673  0.38275824  -0.02097599  1
  O2-  O309  1  0.77302566  0.38749686  0.47632201  1
  O2-  O310  1  0.76584181  0.88451743  -0.03424440  1
  O2-  O311  1  0.76462228  0.86656739  0.48231386  1
  O2-  O312  1  0.22952345  0.11317169  0.02458258  1
  O2-  O313  1  0.23373031  0.12173338  0.50784304  1
  O2-  O314  1  0.21948137  0.61516565  0.00912110  1
  O2-  O315  1  0.23688307  0.62467505  0.52077261  1
  O2-  O316  1  0.73409535  0.11146017  0.03113975  1
  O2-  O317  1  0.72143578  0.11449125  0.52274263  1
  O2-  O318  1  0.72573656  0.61887942  0.02028199  1
  O2-  O319  1  0.73439896  0.63197142  0.52201975  1
