# generated using pymatgen
data_Sr64Ca21Nb43O192
_symmetry_space_group_name_H-M   'P 1'
_cell_length_a   16.58585992
_cell_length_b   16.59536002
_cell_length_c   16.75999429
_cell_angle_alpha   90.04068234
_cell_angle_beta   89.92262781
_cell_angle_gamma   89.96964724
_symmetry_Int_Tables_number   1
_chemical_formula_structural   Sr64Ca21Nb43O192
_chemical_formula_sum   'Sr64 Ca21 Nb43 O192'
_cell_volume   4613.15419597
_cell_formula_units_Z   1
loop_
 _symmetry_equiv_pos_site_id
 _symmetry_equiv_pos_as_xyz
  1  'x, y, z'
loop_
 _atom_type_symbol
 _atom_type_oxidation_number
  Sr2+  2.0
  Ca2+  2.0
  Nb5+  5.0
  O2-  -2.0
loop_
 _atom_site_type_symbol
 _atom_site_label
 _atom_site_symmetry_multiplicity
 _atom_site_fract_x
 _atom_site_fract_y
 _atom_site_fract_z
 _atom_site_occupancy
  Sr2+  Sr0  1  0.12317752  0.13547846  0.12713986  1
  Sr2+  Sr1  1  0.11767811  0.14285948  0.61371749  1
  Sr2+  Sr2  1  0.12460144  0.63415293  0.13269601  1
  Sr2+  Sr3  1  0.13109374  0.62968168  0.61749107  1
  Sr2+  Sr4  1  0.62030108  0.13979751  0.12671110  1
  Sr2+  Sr5  1  0.62846448  0.15210210  0.62219168  1
  Sr2+  Sr6  1  0.62763494  0.60519495  0.12662427  1
  Sr2+  Sr7  1  0.62485381  0.61529767  0.62504600  1
  Sr2+  Sr8  1  0.38517083  0.39707906  0.12606232  1
  Sr2+  Sr9  1  0.38280766  0.38476605  0.62124449  1
  Sr2+  Sr10  1  0.37640061  0.88128719  0.12396717  1
  Sr2+  Sr11  1  0.38334028  0.88044101  0.62371155  1
  Sr2+  Sr12  1  0.86252633  0.39196755  0.11969577  1
  Sr2+  Sr13  1  0.87480219  0.36688770  0.62712431  1
  Sr2+  Sr14  1  0.87043395  0.88252303  0.12581170  1
  Sr2+  Sr15  1  0.86486898  0.88449309  0.62049912  1
  Sr2+  Sr16  1  0.12983088  0.37560498  0.38242852  1
  Sr2+  Sr17  1  0.12607024  0.38070966  0.87445934  1
  Sr2+  Sr18  1  0.11962271  0.87718549  0.37188421  1
  Sr2+  Sr19  1  0.12542751  0.87515233  0.87905641  1
  Sr2+  Sr20  1  0.62406694  0.36727606  0.38022478  1
  Sr2+  Sr21  1  0.62116176  0.36176683  0.86543729  1
  Sr2+  Sr22  1  0.63472485  0.86540275  0.37596098  1
  Sr2+  Sr23  1  0.61042406  0.87051423  0.87216745  1
  Sr2+  Sr24  1  0.35444687  0.11467891  0.37723793  1
  Sr2+  Sr25  1  0.36567349  0.12205578  0.87441783  1
  Sr2+  Sr26  1  0.36245336  0.61045550  0.37509176  1
  Sr2+  Sr27  1  0.36688622  0.62485961  0.86947789  1
  Sr2+  Sr28  1  0.87617954  0.11855297  0.37438931  1
  Sr2+  Sr29  1  0.88073781  0.11669989  0.87250407  1
  Sr2+  Sr30  1  0.88162629  0.62230466  0.37818907  1
  Sr2+  Sr31  1  0.89195603  0.61584103  0.87205522  1
  Sr2+  Sr32  1  0.12135232  0.14806834  0.36928623  1
  Sr2+  Sr33  1  0.12442389  0.15079676  0.87540657  1
  Sr2+  Sr34  1  0.12348516  0.60311126  0.37405535  1
  Sr2+  Sr35  1  0.12677323  0.63969180  0.87700319  1
  Sr2+  Sr36  1  0.62272143  0.13304817  0.37199501  1
  Sr2+  Sr37  1  0.61952865  0.12066059  0.86888193  1
  Sr2+  Sr38  1  0.63242969  0.61149095  0.37556639  1
  Sr2+  Sr39  1  0.61796713  0.61673440  0.86991457  1
  Sr2+  Sr40  1  0.37873170  0.37528436  0.37815967  1
  Sr2+  Sr41  1  0.36279337  0.35743769  0.87105134  1
  Sr2+  Sr42  1  0.36895592  0.87237124  0.39031284  1
  Sr2+  Sr43  1  0.37386650  0.86317508  0.87262114  1
  Sr2+  Sr44  1  0.88513322  0.35888283  0.37992330  1
  Sr2+  Sr45  1  0.88095739  0.37973850  0.87277968  1
  Sr2+  Sr46  1  0.87654774  0.86035230  0.38106239  1
  Sr2+  Sr47  1  0.87260331  0.87522385  0.86458944  1
  Sr2+  Sr48  1  0.12581337  0.38786106  0.12455256  1
  Sr2+  Sr49  1  0.13493132  0.38631112  0.62228336  1
  Sr2+  Sr50  1  0.12075654  0.87735293  0.12651747  1
  Sr2+  Sr51  1  0.11804715  0.88571297  0.61952743  1
  Sr2+  Sr52  1  0.62542970  0.37979346  0.13549308  1
  Sr2+  Sr53  1  0.62374374  0.38481157  0.62332705  1
  Sr2+  Sr54  1  0.60930734  0.88518679  0.12708021  1
  Sr2+  Sr55  1  0.62612143  0.87777890  0.61975042  1
  Sr2+  Sr56  1  0.37396357  0.12885117  0.12335807  1
  Sr2+  Sr57  1  0.39022434  0.12851591  0.61435637  1
  Sr2+  Sr58  1  0.38129053  0.63398720  0.12535034  1
  Sr2+  Sr59  1  0.38968890  0.62728514  0.62267210  1
  Sr2+  Sr60  1  0.86162934  0.13107704  0.12564914  1
  Sr2+  Sr61  1  0.87148523  0.12717761  0.62826574  1
  Sr2+  Sr62  1  0.87153761  0.63338801  0.11996175  1
  Sr2+  Sr63  1  0.85554577  0.62877633  0.62949525  1
  Ca2+  Ca64  1  0.50131737  0.50219943  0.49933487  1
  Ca2+  Ca65  1  -0.00058618  0.00115722  0.49640439  1
  Ca2+  Ca66  1  0.50254040  0.00152653  0.49829398  1
  Ca2+  Ca67  1  0.49884165  0.49926353  -0.00395473  1
  Ca2+  Ca68  1  -0.00455989  0.50110749  0.49999915  1
  Ca2+  Ca69  1  0.75022493  0.25125738  -0.00282714  1
  Ca2+  Ca70  1  0.75046286  0.24982668  0.49858217  1
  Ca2+  Ca71  1  0.25337524  0.24937905  0.49897348  1
  Ca2+  Ca72  1  0.74873749  0.75075448  -0.00001457  1
  Ca2+  Ca73  1  0.24945506  0.75027483  0.49898209  1
  Ca2+  Ca74  1  0.50373594  0.74861990  0.24832222  1
  Ca2+  Ca75  1  0.24925856  0.00138073  0.75293798  1
  Ca2+  Ca76  1  -0.00177221  0.74957130  0.75002045  1
  Ca2+  Ca77  1  0.75390434  0.50091996  0.25313917  1
  Ca2+  Ca78  1  -0.00217111  0.25139540  0.75231046  1
  Ca2+  Ca79  1  0.25098861  0.50074982  0.75165682  1
  Ca2+  Ca80  1  0.75217061  0.50228185  0.75257761  1
  Ca2+  Ca81  1  -0.00239248  0.24904044  0.24443441  1
  Ca2+  Ca82  1  0.49781378  0.24908261  0.74888098  1
  Ca2+  Ca83  1  0.49549539  0.24777231  0.25026354  1
  Ca2+  Ca84  1  0.25112720  0.50037549  0.24848318  1
  Nb5+  Nb85  1  -0.00278260  0.00444723  0.00074089  1
  Nb5+  Nb86  1  0.00449307  0.50755017  0.00345493  1
  Nb5+  Nb87  1  0.49258151  0.00428790  -0.00207209  1
  Nb5+  Nb88  1  0.24970125  0.25739344  0.00604759  1
  Nb5+  Nb89  1  0.25192472  0.75533479  0.00272499  1
  Nb5+  Nb90  1  0.74850180  0.75057576  0.50170376  1
  Nb5+  Nb91  1  0.74185892  -0.00490229  0.24638155  1
  Nb5+  Nb92  1  0.50066349  0.75189757  0.74681144  1
  Nb5+  Nb93  1  0.00178170  0.74940963  0.25304956  1
  Nb5+  Nb94  1  0.74500955  0.00206383  0.74348908  1
  Nb5+  Nb95  1  0.24169289  -0.00450385  0.24838397  1
  Nb5+  Nb96  1  -0.00663166  -0.00281663  0.24650780  1
  Nb5+  Nb97  1  0.00414442  -0.00242259  0.74836418  1
  Nb5+  Nb98  1  -0.00475722  0.49332270  0.24761297  1
  Nb5+  Nb99  1  0.00426763  0.50366479  0.74220029  1
  Nb5+  Nb100  1  0.48745508  0.00097648  0.25265355  1
  Nb5+  Nb101  1  0.50013728  0.00177044  0.74702292  1
  Nb5+  Nb102  1  0.50108505  0.50077563  0.25250519  1
  Nb5+  Nb103  1  0.49715040  0.49750329  0.75666381  1
  Nb5+  Nb104  1  0.25247972  0.25435979  0.24509940  1
  Nb5+  Nb105  1  0.25316032  0.24188248  0.74016177  1
  Nb5+  Nb106  1  0.25080478  0.75237516  0.25445630  1
  Nb5+  Nb107  1  0.25067606  0.75129441  0.74245865  1
  Nb5+  Nb108  1  0.75455993  0.25565524  0.25000042  1
  Nb5+  Nb109  1  0.75159102  0.25388592  0.75303941  1
  Nb5+  Nb110  1  0.75015165  0.75214380  0.24678024  1
  Nb5+  Nb111  1  0.74481202  0.75251889  0.75646799  1
  Nb5+  Nb112  1  -0.00135762  0.25110589  0.50027974  1
  Nb5+  Nb113  1  -0.00344470  0.25748773  1.00347879  1
  Nb5+  Nb114  1  -0.00199614  0.74597892  0.51022161  1
  Nb5+  Nb115  1  -0.00053833  0.75497026  1.00282151  1
  Nb5+  Nb116  1  0.49895177  0.25165533  0.49793510  1
  Nb5+  Nb117  1  0.50043978  0.25505337  1.00001145  1
  Nb5+  Nb118  1  0.50089300  0.74939877  0.48962381  1
  Nb5+  Nb119  1  0.50528227  0.75022920  1.00135008  1
  Nb5+  Nb120  1  0.24266626  0.00352398  -0.00020628  1
  Nb5+  Nb121  1  0.24423227  0.00122737  0.51011745  1
  Nb5+  Nb122  1  0.24943105  0.50933155  0.00269996  1
  Nb5+  Nb123  1  0.25087608  0.50109912  0.50283201  1
  Nb5+  Nb124  1  0.74297218  -0.00386127  -0.00582465  1
  Nb5+  Nb125  1  0.74769092  0.00174382  0.49085074  1
  Nb5+  Nb126  1  0.74419410  0.49719322  -0.00679249  1
  Nb5+  Nb127  1  0.75544317  0.49656413  0.49823250  1
  O2-  O128  1  0.01864702  0.00383410  0.11982132  1
  O2-  O129  1  0.01405598  0.01801380  0.63653387  1
  O2-  O130  1  0.02850898  0.51289000  0.12328948  1
  O2-  O131  1  0.02635821  0.51794270  0.63226801  1
  O2-  O132  1  0.50887892  0.00068757  0.11596867  1
  O2-  O133  1  0.51289865  -0.02089608  0.63563822  1
  O2-  O134  1  0.52277095  0.49007661  0.12943631  1
  O2-  O135  1  0.51801505  0.49559062  0.63831461  1
  O2-  O136  1  -0.01753665  -0.02436072  0.35902624  1
  O2-  O137  1  -0.01239639  -0.02713018  0.88693321  1
  O2-  O138  1  -0.02876688  0.48786052  0.36084884  1
  O2-  O139  1  -0.01185871  0.48524068  0.88924274  1
  O2-  O140  1  0.47067634  -0.00185262  0.36443906  1
  O2-  O141  1  0.49256891  0.00786883  0.87695189  1
  O2-  O142  1  0.47524125  0.50910449  0.36700719  1
  O2-  O143  1  0.48534572  0.53512950  0.86797740  1
  O2-  O144  1  0.25845758  0.22009418  0.12148741  1
  O2-  O145  1  0.26580460  0.21018020  0.63209429  1
  O2-  O146  1  0.26146347  0.73063081  0.12031215  1
  O2-  O147  1  0.27285816  0.72646205  0.63390431  1
  O2-  O148  1  0.77316263  0.25396484  0.13164743  1
  O2-  O149  1  0.77229664  0.24296108  0.63465785  1
  O2-  O150  1  0.77918339  0.76099346  0.13571858  1
  O2-  O151  1  0.76322786  0.76373368  0.62222873  1
  O2-  O152  1  0.23515839  0.26394028  0.36036495  1
  O2-  O153  1  0.23209903  0.26899049  0.89071174  1
  O2-  O154  1  0.23650599  0.78253575  0.36354544  1
  O2-  O155  1  0.23559958  0.76862776  0.88465392  1
  O2-  O156  1  0.72621142  0.24236060  0.36468063  1
  O2-  O157  1  0.71681805  0.23745332  0.86549514  1
  O2-  O158  1  0.74071714  0.75000080  0.37678268  1
  O2-  O159  1  0.71598151  0.75421056  0.86674556  1
  O2-  O160  1  -0.01038323  0.21431009  0.11130662  1
  O2-  O161  1  -0.02076820  0.23009606  0.61770524  1
  O2-  O162  1  -0.00707371  0.73171792  0.12326374  1
  O2-  O163  1  -0.02108724  0.71729678  0.61823966  1
  O2-  O164  1  0.48135864  0.23329100  0.11351308  1
  O2-  O165  1  0.47231783  0.25538618  0.61776400  1
  O2-  O166  1  0.47243737  0.76067276  0.11231400  1
  O2-  O167  1  0.48252641  0.76205705  0.63249466  1
  O2-  O168  1  0.26456056  -0.02263559  0.35945961  1
  O2-  O169  1  0.26774689  -0.02321538  0.89099036  1
  O2-  O170  1  0.27038568  0.48209849  0.38217659  1
  O2-  O171  1  0.26468950  0.47540163  0.89114814  1
  O2-  O172  1  0.76541683  0.00583789  0.37409387  1
  O2-  O173  1  0.76059489  0.00945448  0.87991453  1
  O2-  O174  1  0.76574558  0.52794150  0.38432570  1
  O2-  O175  1  0.78349917  0.51517349  0.88488100  1
  O2-  O176  1  0.01947864  0.27149400  0.37948336  1
  O2-  O177  1  0.02585238  0.26652865  0.88935978  1
  O2-  O178  1  0.00953887  0.77440924  0.36622386  1
  O2-  O179  1  0.02283273  0.76384109  0.88836423  1
  O2-  O180  1  0.52672538  0.25081694  0.38153749  1
  O2-  O181  1  0.51651976  0.23799935  0.88523468  1
  O2-  O182  1  0.53236781  0.74984288  0.38110662  1
  O2-  O183  1  0.51173516  0.74944249  0.87835222  1
  O2-  O184  1  0.24346737  0.00652742  0.12048764  1
  O2-  O185  1  0.22042692  0.01888081  0.61923924  1
  O2-  O186  1  0.22095669  0.51080658  0.11628332  1
  O2-  O187  1  0.22606284  0.51743321  0.61885559  1
  O2-  O188  1  0.73709795  -0.02193788  0.13013441  1
  O2-  O189  1  0.73596007  -0.00968869  0.62882268  1
  O2-  O190  1  0.73364140  0.48508847  0.11514132  1
  O2-  O191  1  0.73015138  0.49783775  0.61611773  1
  O2-  O192  1  0.13478133  0.25451030  0.22591517  1
  O2-  O193  1  0.13419856  0.25489040  0.73511625  1
  O2-  O194  1  0.12172668  0.76820927  0.23241150  1
  O2-  O195  1  0.13667336  0.77080875  0.72946277  1
  O2-  O196  1  0.63625615  0.26002411  0.22586225  1
  O2-  O197  1  0.63330974  0.27431547  0.72629347  1
  O2-  O198  1  0.64108538  0.78596979  0.23676460  1
  O2-  O199  1  0.61976309  0.78081297  0.73626001  1
  O2-  O200  1  0.36139632  0.21048534  0.25751155  1
  O2-  O201  1  0.36608450  0.23371534  0.77986685  1
  O2-  O202  1  0.36501455  0.73678685  0.26365722  1
  O2-  O203  1  0.38331265  0.73635283  0.76937402  1
  O2-  O204  1  0.86630959  0.21505516  0.26657224  1
  O2-  O205  1  0.86417984  0.22230875  0.77379426  1
  O2-  O206  1  0.88124367  0.73816513  0.26533946  1
  O2-  O207  1  0.85913268  0.73677915  0.77495693  1
  O2-  O208  1  0.27325084  0.36393351  0.22366774  1
  O2-  O209  1  0.26923494  0.36058927  0.73344153  1
  O2-  O210  1  0.25991959  0.87350072  0.21975241  1
  O2-  O211  1  0.28209112  0.86492137  0.74428160  1
  O2-  O212  1  0.78225452  0.36680256  0.26046962  1
  O2-  O213  1  0.77522016  0.36671654  0.76057741  1
  O2-  O214  1  0.77949899  0.87985899  0.26437364  1
  O2-  O215  1  0.76514252  0.87821596  0.75309731  1
  O2-  O216  1  0.22684087  0.11048421  0.25738737  1
  O2-  O217  1  0.23882673  0.13150558  0.78733081  1
  O2-  O218  1  0.22611542  0.63889344  0.26383536  1
  O2-  O219  1  0.24111892  0.63933518  0.78043469  1
  O2-  O220  1  0.73439331  0.11159164  0.24067789  1
  O2-  O221  1  0.72543878  0.11749041  0.74376615  1
  O2-  O222  1  0.72958487  0.63902340  0.24326053  1
  O2-  O223  1  0.72361038  0.64051854  0.73702697  1
  O2-  O224  1  0.11355699  0.48409653  0.26960987  1
  O2-  O225  1  0.11715990  0.47515642  0.76615456  1
  O2-  O226  1  0.12627865  0.97235038  0.25144173  1
  O2-  O227  1  0.11406740  0.96735144  0.76343678  1
  O2-  O228  1  0.61834740  0.47192021  0.27081778  1
  O2-  O229  1  0.61681171  0.48724299  0.77551398  1
  O2-  O230  1  0.63018385  0.97589331  0.26614953  1
  O2-  O231  1  0.62945774  0.97928349  0.77065432  1
  O2-  O232  1  0.37294104  0.01376754  0.22851960  1
  O2-  O233  1  0.38707879  0.02307358  0.73773428  1
  O2-  O234  1  0.38391815  0.52863697  0.22560123  1
  O2-  O235  1  0.38466815  0.53060667  0.73468375  1
  O2-  O236  1  0.87876732  0.01332861  0.22739883  1
  O2-  O237  1  0.86509718  0.01742283  0.74536219  1
  O2-  O238  1  0.88638085  0.52947344  0.22076522  1
  O2-  O239  1  0.88594475  0.53175975  0.73970153  1
  O2-  O240  1  0.47061021  0.38188261  0.25122061  1
  O2-  O241  1  0.47624268  0.38562260  0.77134223  1
  O2-  O242  1  0.49202348  0.88625561  0.23369678  1
  O2-  O243  1  0.48578762  0.87682555  0.76769941  1
  O2-  O244  1  0.97921283  0.38295105  0.22131948  1
  O2-  O245  1  0.97176023  0.38703584  0.74310164  1
  O2-  O246  1  0.98944213  0.87226161  0.22378380  1
  O2-  O247  1  0.96643369  0.88453956  0.73871388  1
  O2-  O248  1  0.02207228  0.10771700  0.25917550  1
  O2-  O249  1  0.00670766  0.10904354  0.78375546  1
  O2-  O250  1  0.01945396  0.63299387  0.26041716  1
  O2-  O251  1  0.02062158  0.61700261  0.77965463  1
  O2-  O252  1  0.53061826  0.10870300  0.24564685  1
  O2-  O253  1  0.53180827  0.11330791  0.74198743  1
  O2-  O254  1  0.53393776  0.61729541  0.24422403  1
  O2-  O255  1  0.52632726  0.63833934  0.74277926  1
  O2-  O256  1  0.12480249  0.47793655  -0.01105477  1
  O2-  O257  1  0.13026886  0.48142421  0.48259445  1
  O2-  O258  1  0.12808679  0.97650345  -0.00648123  1
  O2-  O259  1  0.13255343  0.96348314  0.48736995  1
  O2-  O260  1  0.63434412  0.47548011  -0.03138466  1
  O2-  O261  1  0.63587747  0.48605011  0.47806068  1
  O2-  O262  1  0.62802924  0.97732298  -0.01098183  1
  O2-  O263  1  0.63563970  0.96721124  0.48700604  1
  O2-  O264  1  0.37617955  0.01942080  0.01047674  1
  O2-  O265  1  0.36358032  0.02310803  0.51123874  1
  O2-  O266  1  0.36327095  0.51911641  0.02565192  1
  O2-  O267  1  0.36695815  0.52594442  0.51840478  1
  O2-  O268  1  0.88241657  0.01779622  0.01608776  1
  O2-  O269  1  0.86269107  0.01630872  0.52006799  1
  O2-  O270  1  0.88893935  0.51731846  0.02384502  1
  O2-  O271  1  0.86515344  0.53566007  0.51898849  1
  O2-  O272  1  0.46396957  0.36431719  -0.00822067  1
  O2-  O273  1  0.47205587  0.36944122  0.49475564  1
  O2-  O274  1  0.47990621  0.88285821  -0.00883258  1
  O2-  O275  1  0.47822119  0.86488071  0.50179930  1
  O2-  O276  1  0.98949197  0.37177704  0.02496855  1
  O2-  O277  1  0.97170610  0.36752259  0.51355043  1
  O2-  O278  1  0.99047175  0.86995227  0.02087851  1
  O2-  O279  1  0.97544104  0.86280791  0.51452561  1
  O2-  O280  1  0.02059763  0.11441646  -0.01834203  1
  O2-  O281  1  0.02580268  0.13235978  0.48248045  1
  O2-  O282  1  0.02307014  0.62276153  -0.00876283  1
  O2-  O283  1  0.01082525  0.63845076  0.46521229  1
  O2-  O284  1  0.52372566  0.11861264  -0.00160348  1
  O2-  O285  1  0.52849608  0.13334317  0.51072538  1
  O2-  O286  1  0.52529984  0.63755543  0.00950301  1
  O2-  O287  1  0.52408132  0.63875648  0.51962173  1
  O2-  O288  1  0.12808505  0.25577459  0.02284166  1
  O2-  O289  1  0.11781229  0.27047711  0.52155185  1
  O2-  O290  1  0.12922516  0.75788968  0.01778141  1
  O2-  O291  1  0.11274204  0.76442150  0.52629319  1
  O2-  O292  1  0.61251410  0.27750172  0.01964583  1
  O2-  O293  1  0.61752409  0.27903263  0.52203306  1
  O2-  O294  1  0.61399593  0.78437964  0.01554302  1
  O2-  O295  1  0.63061455  0.77630232  0.51079685  1
  O2-  O296  1  0.36521027  0.22535775  -0.01305561  1
  O2-  O297  1  0.38446165  0.22079840  0.47515698  1
  O2-  O298  1  0.37005913  0.73605539  -0.01743273  1
  O2-  O299  1  0.38756617  0.72779824  0.47249438  1
  O2-  O300  1  0.88777268  0.23105291  -0.02331831  1
  O2-  O301  1  0.88310422  0.22632239  0.47351975  1
  O2-  O302  1  0.88879147  0.72784041  -0.01454858  1
  O2-  O303  1  0.86953825  0.73468191  0.48532232  1
  O2-  O304  1  0.26355599  0.36938541  0.02748092  1
  O2-  O305  1  0.26861307  0.38236635  0.52357139  1
  O2-  O306  1  0.26335205  0.87065330  0.01985097  1
  O2-  O307  1  0.27811912  0.88428554  0.51473046  1
  O2-  O308  1  0.78377360  0.38410995  -0.01017167  1
  O2-  O309  1  0.78164842  0.38484043  0.49089823  1
  O2-  O310  1  0.78453488  0.88669299  -0.00464663  1
  O2-  O311  1  0.77189161  0.87476408  0.49332705  1
  O2-  O312  1  0.23061584  0.11729685  -0.01278419  1
  O2-  O313  1  0.22620872  0.11031999  0.46799094  1
  O2-  O314  1  0.23568504  0.62437789  -0.01609942  1
  O2-  O315  1  0.22881696  0.61876559  0.47788488  1
  O2-  O316  1  0.73936911  0.10977035  0.02195016  1
  O2-  O317  1  0.72185629  0.11344130  0.50162139  1
  O2-  O318  1  0.73204841  0.61564716  0.01296796  1
  O2-  O319  1  0.72702803  0.63655246  0.51087981  1
