# generated using pymatgen
data_Sr64Ca21Nb43O192
_symmetry_space_group_name_H-M   'P 1'
_cell_length_a   16.62296859
_cell_length_b   16.61329912
_cell_length_c   16.74817292
_cell_angle_alpha   89.98077530
_cell_angle_beta   90.00757093
_cell_angle_gamma   90.03042500
_symmetry_Int_Tables_number   1
_chemical_formula_structural   Sr64Ca21Nb43O192
_chemical_formula_sum   'Sr64 Ca21 Nb43 O192'
_cell_volume   4625.21382964
_cell_formula_units_Z   1
loop_
 _symmetry_equiv_pos_site_id
 _symmetry_equiv_pos_as_xyz
  1  'x, y, z'
loop_
 _atom_type_symbol
 _atom_type_oxidation_number
  Sr2+  2.0
  Ca2+  2.0
  Nb5+  5.0
  O2-  -2.0
loop_
 _atom_site_type_symbol
 _atom_site_label
 _atom_site_symmetry_multiplicity
 _atom_site_fract_x
 _atom_site_fract_y
 _atom_site_fract_z
 _atom_site_occupancy
  Sr2+  Sr0  1  0.11608717  0.12524775  0.12939132  1
  Sr2+  Sr1  1  0.11106539  0.12337056  0.61874800  1
  Sr2+  Sr2  1  0.12293292  0.62492251  0.12952611  1
  Sr2+  Sr3  1  0.13127319  0.62652451  0.62141989  1
  Sr2+  Sr4  1  0.61687388  0.10806650  0.13104469  1
  Sr2+  Sr5  1  0.61828933  0.11861997  0.62356587  1
  Sr2+  Sr6  1  0.62842752  0.62939662  0.11814335  1
  Sr2+  Sr7  1  0.61818057  0.62226475  0.62500823  1
  Sr2+  Sr8  1  0.37202826  0.38289522  0.12339457  1
  Sr2+  Sr9  1  0.38060156  0.38482491  0.62426016  1
  Sr2+  Sr10  1  0.37944426  0.87810403  0.13292347  1
  Sr2+  Sr11  1  0.37126791  0.86357106  0.62286929  1
  Sr2+  Sr12  1  0.87152887  0.39796959  0.12955620  1
  Sr2+  Sr13  1  0.86943165  0.37761138  0.62269175  1
  Sr2+  Sr14  1  0.86887511  0.86186400  0.12494456  1
  Sr2+  Sr15  1  0.87000354  0.86559365  0.62288738  1
  Sr2+  Sr16  1  0.13724733  0.36058690  0.36996352  1
  Sr2+  Sr17  1  0.13937192  0.36327324  0.87618572  1
  Sr2+  Sr18  1  0.14058689  0.87546502  0.38904370  1
  Sr2+  Sr19  1  0.13625394  0.89383551  0.87658031  1
  Sr2+  Sr20  1  0.64211694  0.37013233  0.37261501  1
  Sr2+  Sr21  1  0.63277471  0.36941863  0.87474448  1
  Sr2+  Sr22  1  0.63264943  0.88492531  0.36441441  1
  Sr2+  Sr23  1  0.63601872  0.87525253  0.87697300  1
  Sr2+  Sr24  1  0.34707616  0.12352688  0.37501647  1
  Sr2+  Sr25  1  0.35235191  0.13148672  0.86905821  1
  Sr2+  Sr26  1  0.38046832  0.62692236  0.35265945  1
  Sr2+  Sr27  1  0.38216099  0.62659132  0.88008145  1
  Sr2+  Sr28  1  0.89196751  0.12853818  0.38010420  1
  Sr2+  Sr29  1  0.88772357  0.12130105  0.87419204  1
  Sr2+  Sr30  1  0.89101116  0.62378875  0.36638429  1
  Sr2+  Sr31  1  0.88407709  0.62307700  0.87858178  1
  Sr2+  Sr32  1  0.12526055  0.12878755  0.36648700  1
  Sr2+  Sr33  1  0.12195464  0.13307462  0.88910430  1
  Sr2+  Sr34  1  0.13175074  0.63299025  0.36798886  1
  Sr2+  Sr35  1  0.14057066  0.62392299  0.87588482  1
  Sr2+  Sr36  1  0.62346805  0.12578711  0.36579696  1
  Sr2+  Sr37  1  0.62710290  0.11984655  0.87073309  1
  Sr2+  Sr38  1  0.63022469  0.61695749  0.37143038  1
  Sr2+  Sr39  1  0.62971044  0.62966063  0.87527923  1
  Sr2+  Sr40  1  0.38551386  0.36097626  0.36826164  1
  Sr2+  Sr41  1  0.38215602  0.36509521  0.87365180  1
  Sr2+  Sr42  1  0.38101095  0.88880410  0.37534276  1
  Sr2+  Sr43  1  0.38203929  0.88274955  0.87820050  1
  Sr2+  Sr44  1  0.88122551  0.35865255  0.37803465  1
  Sr2+  Sr45  1  0.88010593  0.35930951  0.86826835  1
  Sr2+  Sr46  1  0.87934073  0.88114641  0.36782782  1
  Sr2+  Sr47  1  0.87738879  0.88481420  0.87299153  1
  Sr2+  Sr48  1  0.10992101  0.37953138  0.12886383  1
  Sr2+  Sr49  1  0.11619720  0.38842589  0.62435022  1
  Sr2+  Sr50  1  0.10486135  0.87523904  0.11958765  1
  Sr2+  Sr51  1  0.11638142  0.85673115  0.62235425  1
  Sr2+  Sr52  1  0.61313371  0.37829379  0.12413226  1
  Sr2+  Sr53  1  0.62195385  0.37507077  0.62159689  1
  Sr2+  Sr54  1  0.62056435  0.86936606  0.13317178  1
  Sr2+  Sr55  1  0.61202360  0.87724591  0.62832539  1
  Sr2+  Sr56  1  0.36532014  0.12088273  0.14400801  1
  Sr2+  Sr57  1  0.36979620  0.13070045  0.62302578  1
  Sr2+  Sr58  1  0.35748135  0.62551941  0.12125233  1
  Sr2+  Sr59  1  0.37189175  0.62580707  0.62842680  1
  Sr2+  Sr60  1  0.87266733  0.12053960  0.14422446  1
  Sr2+  Sr61  1  0.86778958  0.11876013  0.62156247  1
  Sr2+  Sr62  1  0.90320013  0.62671230  0.12377029  1
  Sr2+  Sr63  1  0.90103677  0.61982277  0.63202720  1
  Ca2+  Ca64  1  0.00334309  -0.00268447  0.50294135  1
  Ca2+  Ca65  1  0.49934446  0.00218273  0.49999737  1
  Ca2+  Ca66  1  0.00217172  0.49752083  0.49602997  1
  Ca2+  Ca67  1  0.50182212  0.00191265  -0.00128049  1
  Ca2+  Ca68  1  0.00191175  0.49815105  -0.00438506  1
  Ca2+  Ca69  1  0.24989047  0.75428935  -0.00296399  1
  Ca2+  Ca70  1  0.25380690  0.25526064  0.50352437  1
  Ca2+  Ca71  1  0.74961939  0.25233422  -0.00198596  1
  Ca2+  Ca72  1  0.74727899  0.74660477  0.50254308  1
  Ca2+  Ca73  1  0.25292917  0.25109499  0.00504186  1
  Ca2+  Ca74  1  0.75161543  0.00143690  0.24959206  1
  Ca2+  Ca75  1  0.24323604  -0.00401159  0.24917187  1
  Ca2+  Ca76  1  0.24831266  0.49880104  0.25318669  1
  Ca2+  Ca77  1  0.50085804  0.25086658  0.24901097  1
  Ca2+  Ca78  1  0.00168794  0.75367928  0.25243858  1
  Ca2+  Ca79  1  0.75023834  0.50215017  0.24956959  1
  Ca2+  Ca80  1  -0.00145747  0.25060866  0.24695399  1
  Ca2+  Ca81  1  0.50033661  0.75026643  0.25139475  1
  Ca2+  Ca82  1  0.24917312  0.00003924  0.74653775  1
  Ca2+  Ca83  1  -0.00083579  0.75134105  0.75505808  1
  Ca2+  Ca84  1  0.00110137  0.24736983  0.74791514  1
  Nb5+  Nb85  1  0.49809699  0.50114350  -0.00824601  1
  Nb5+  Nb86  1  0.49785076  0.49838342  0.49384308  1
  Nb5+  Nb87  1  -0.00364993  -0.00074594  0.00013722  1
  Nb5+  Nb88  1  0.74825888  0.24624575  0.50081238  1
  Nb5+  Nb89  1  0.25610599  0.74559308  0.49828223  1
  Nb5+  Nb90  1  0.75012542  0.74863199  -0.00155320  1
  Nb5+  Nb91  1  0.75122677  -0.00716824  0.74887250  1
  Nb5+  Nb92  1  0.49862911  0.75303585  0.75039421  1
  Nb5+  Nb93  1  0.25726779  0.49971023  0.75162858  1
  Nb5+  Nb94  1  0.75282074  0.49779966  0.75001250  1
  Nb5+  Nb95  1  0.50214267  0.25027022  0.75016073  1
  Nb5+  Nb96  1  0.00199688  -0.00460000  0.25561270  1
  Nb5+  Nb97  1  0.00356593  -0.00362773  0.74801493  1
  Nb5+  Nb98  1  -0.00044512  0.49788363  0.25470803  1
  Nb5+  Nb99  1  0.01017576  0.49665126  0.75536500  1
  Nb5+  Nb100  1  0.49820165  0.00199335  0.25184013  1
  Nb5+  Nb101  1  0.49756930  0.00462104  0.75351665  1
  Nb5+  Nb102  1  0.50126869  0.50367667  0.23795688  1
  Nb5+  Nb103  1  0.50451645  0.50053911  0.75019193  1
  Nb5+  Nb104  1  0.25290143  0.25230674  0.24759140  1
  Nb5+  Nb105  1  0.24666553  0.25166293  0.74163873  1
  Nb5+  Nb106  1  0.24579296  0.75594906  0.24276685  1
  Nb5+  Nb107  1  0.25048970  0.75361073  0.75430861  1
  Nb5+  Nb108  1  0.75252314  0.25660492  0.23910472  1
  Nb5+  Nb109  1  0.74733620  0.24176935  0.74680119  1
  Nb5+  Nb110  1  0.75118479  0.74533936  0.25860222  1
  Nb5+  Nb111  1  0.74814034  0.74202906  0.74639412  1
  Nb5+  Nb112  1  0.00770215  0.25170063  0.50499698  1
  Nb5+  Nb113  1  -0.00543167  0.25555180  1.00335990  1
  Nb5+  Nb114  1  -0.00675280  0.74531656  0.50215079  1
  Nb5+  Nb115  1  0.00518269  0.75134121  0.98981748  1
  Nb5+  Nb116  1  0.50532165  0.24805026  0.49759735  1
  Nb5+  Nb117  1  0.50353249  0.24516978  1.00126371  1
  Nb5+  Nb118  1  0.49857843  0.75081310  0.49596067  1
  Nb5+  Nb119  1  0.49930371  0.75071137  1.00126260  1
  Nb5+  Nb120  1  0.25714120  0.00405217  -0.00145643  1
  Nb5+  Nb121  1  0.25092637  0.00452517  0.50840105  1
  Nb5+  Nb122  1  0.24632735  0.49667504  0.00013931  1
  Nb5+  Nb123  1  0.25638707  0.49950901  0.49629224  1
  Nb5+  Nb124  1  0.75107670  0.00103586  0.00310003  1
  Nb5+  Nb125  1  0.75038275  -0.00308462  0.49799805  1
  Nb5+  Nb126  1  0.74936788  0.50207698  -0.00395427  1
  Nb5+  Nb127  1  0.75180051  0.50391652  0.50115484  1
  O2-  O128  1  -0.02498548  0.01339904  0.11339869  1
  O2-  O129  1  -0.01184844  0.02559137  0.63755031  1
  O2-  O130  1  0.02587307  0.51466339  0.13139324  1
  O2-  O131  1  0.02070430  0.52023189  0.63624426  1
  O2-  O132  1  0.47920039  0.01017243  0.13082280  1
  O2-  O133  1  0.48920480  0.01669814  0.63785163  1
  O2-  O134  1  0.52050484  0.51331510  0.12191449  1
  O2-  O135  1  0.51688245  0.50541456  0.63475554  1
  O2-  O136  1  0.02033774  -0.02914743  0.36634904  1
  O2-  O137  1  0.00534387  -0.02487580  0.87626783  1
  O2-  O138  1  -0.03908969  0.48716025  0.36638606  1
  O2-  O139  1  -0.02890871  0.47812923  0.86394976  1
  O2-  O140  1  0.52420587  -0.01137126  0.36809968  1
  O2-  O141  1  0.53343550  -0.01295185  0.86369849  1
  O2-  O142  1  0.47323304  0.49156140  0.38408146  1
  O2-  O143  1  0.47805902  0.49260003  0.87448808  1
  O2-  O144  1  0.28533686  0.26369816  0.13463576  1
  O2-  O145  1  0.28780201  0.27245673  0.63539415  1
  O2-  O146  1  0.22226716  0.77544414  0.13272120  1
  O2-  O147  1  0.24031914  0.75811336  0.63235414  1
  O2-  O148  1  0.77481717  0.28035022  0.13043939  1
  O2-  O149  1  0.76084060  0.26991806  0.62882038  1
  O2-  O150  1  0.72624874  0.76145790  0.11056562  1
  O2-  O151  1  0.72178021  0.77391272  0.63773303  1
  O2-  O152  1  0.22943847  0.23487051  0.37143925  1
  O2-  O153  1  0.23633202  0.23826366  0.86135606  1
  O2-  O154  1  0.26848920  0.72509093  0.38695794  1
  O2-  O155  1  0.26667334  0.71924902  0.86361766  1
  O2-  O156  1  0.72853078  0.23603271  0.38788228  1
  O2-  O157  1  0.72248880  0.23980479  0.86001176  1
  O2-  O158  1  0.77142723  0.72591364  0.36845885  1
  O2-  O159  1  0.75500869  0.73474119  0.86793539  1
  O2-  O160  1  -0.01780931  0.21602863  0.11258836  1
  O2-  O161  1  -0.01614292  0.21671164  0.61565326  1
  O2-  O162  1  0.01684987  0.73733195  0.10971253  1
  O2-  O163  1  0.02257070  0.72812936  0.62055467  1
  O2-  O164  1  0.48060301  0.24217133  0.11203876  1
  O2-  O165  1  0.49099142  0.24187603  0.62906354  1
  O2-  O166  1  0.52340609  0.74218576  0.11312176  1
  O2-  O167  1  0.51656662  0.73862956  0.63159104  1
  O2-  O168  1  0.22056566  0.01090759  0.38936801  1
  O2-  O169  1  0.22409191  0.02451123  0.88083038  1
  O2-  O170  1  0.26918483  0.53011500  0.38879411  1
  O2-  O171  1  0.26552589  0.52226676  0.86964298  1
  O2-  O172  1  0.72649387  0.01625263  0.38725646  1
  O2-  O173  1  0.73294339  0.00895428  0.86975620  1
  O2-  O174  1  0.76003421  0.52270911  0.38926932  1
  O2-  O175  1  0.75450580  0.52850378  0.86565728  1
  O2-  O176  1  0.01016289  0.26805165  0.38577094  1
  O2-  O177  1  0.02242442  0.26616485  0.88365885  1
  O2-  O178  1  -0.02662722  0.76565259  0.38687712  1
  O2-  O179  1  -0.04209229  0.76146955  0.88423632  1
  O2-  O180  1  0.52240060  0.27423277  0.38748251  1
  O2-  O181  1  0.52369077  0.26324640  0.86531575  1
  O2-  O182  1  0.46392727  0.75427201  0.38832891  1
  O2-  O183  1  0.47984181  0.75647928  0.86822333  1
  O2-  O184  1  0.27384318  -0.01829099  0.11295006  1
  O2-  O185  1  0.29146268  -0.01249304  0.61839642  1
  O2-  O186  1  0.23651629  0.47790023  0.11393059  1
  O2-  O187  1  0.24042757  0.48269363  0.63403590  1
  O2-  O188  1  0.77879668  -0.01493312  0.11267101  1
  O2-  O189  1  0.77168607  -0.01510326  0.63204770  1
  O2-  O190  1  0.72439634  0.48357835  0.10726906  1
  O2-  O191  1  0.72386482  0.48620846  0.63496608  1
  O2-  O192  1  0.13500079  0.27396686  0.23216381  1
  O2-  O193  1  0.13611543  0.26856317  0.72053154  1
  O2-  O194  1  0.13445094  0.76622954  0.28543489  1
  O2-  O195  1  0.13600462  0.76513967  0.76783281  1
  O2-  O196  1  0.63561618  0.27912329  0.23834842  1
  O2-  O197  1  0.62363309  0.26324450  0.72827320  1
  O2-  O198  1  0.63441553  0.77769706  0.26227771  1
  O2-  O199  1  0.61731708  0.75772708  0.76922598  1
  O2-  O200  1  0.36958876  0.22904152  0.27632657  1
  O2-  O201  1  0.38519679  0.24308284  0.76712518  1
  O2-  O202  1  0.36298216  0.73289507  0.22783122  1
  O2-  O203  1  0.37985074  0.73740348  0.73334787  1
  O2-  O204  1  0.86404411  0.22834399  0.27324166  1
  O2-  O205  1  0.86223761  0.24209795  0.76446027  1
  O2-  O206  1  0.86259385  0.73038783  0.22101679  1
  O2-  O207  1  0.85997578  0.73443127  0.72718797  1
  O2-  O208  1  0.27156396  0.36840717  0.27480423  1
  O2-  O209  1  0.26249178  0.37975907  0.77072143  1
  O2-  O210  1  0.27061445  0.86512963  0.27950333  1
  O2-  O211  1  0.27538601  0.86461305  0.76943075  1
  O2-  O212  1  0.76985709  0.36839044  0.28040546  1
  O2-  O213  1  0.75538074  0.38168485  0.76663930  1
  O2-  O214  1  0.77251860  0.86583295  0.26269418  1
  O2-  O215  1  0.75748503  0.87638794  0.76645432  1
  O2-  O216  1  0.23262755  0.13254936  0.23399347  1
  O2-  O217  1  0.25031387  0.13664216  0.72542582  1
  O2-  O218  1  0.22819979  0.63533076  0.23736220  1
  O2-  O219  1  0.23888654  0.61808881  0.73377517  1
  O2-  O220  1  0.72993667  0.13842440  0.22716427  1
  O2-  O221  1  0.73587752  0.12692207  0.73025602  1
  O2-  O222  1  0.71514953  0.63422783  0.23661404  1
  O2-  O223  1  0.72688540  0.62689061  0.73401628  1
  O2-  O224  1  0.11453638  0.47935413  0.28091791  1
  O2-  O225  1  0.12653950  0.48575737  0.77147780  1
  O2-  O226  1  0.11234626  0.98695280  0.21365580  1
  O2-  O227  1  0.11489964  0.96729858  0.73644718  1
  O2-  O228  1  0.61211451  0.48018926  0.27204814  1
  O2-  O229  1  0.61859986  0.49301951  0.77174186  1
  O2-  O230  1  0.61903072  0.98003006  0.22819949  1
  O2-  O231  1  0.63136684  0.99365928  0.73012634  1
  O2-  O232  1  0.38139476  0.02354279  0.26912617  1
  O2-  O233  1  0.38712798  0.01048784  0.78052860  1
  O2-  O234  1  0.38342655  0.52691274  0.23197150  1
  O2-  O235  1  0.37568637  0.50628264  0.73751818  1
  O2-  O236  1  0.88482309  0.02043618  0.27106035  1
  O2-  O237  1  0.86617582  0.01859347  0.76493576  1
  O2-  O238  1  0.88091367  0.52089967  0.22204122  1
  O2-  O239  1  0.86491212  0.51062729  0.73181722  1
  O2-  O240  1  0.47515296  0.38793448  0.23521009  1
  O2-  O241  1  0.49209983  0.37732326  0.74313993  1
  O2-  O242  1  0.47685414  0.88273430  0.24387747  1
  O2-  O243  1  0.49053830  0.87421249  0.73839684  1
  O2-  O244  1  0.98127423  0.38288343  0.22678618  1
  O2-  O245  1  0.98589721  0.38417612  0.72448323  1
  O2-  O246  1  0.97665970  0.88365952  0.22396540  1
  O2-  O247  1  0.96464626  0.88438722  0.73638643  1
  O2-  O248  1  0.01851301  0.11487246  0.26062582  1
  O2-  O249  1  0.01621347  0.11141516  0.77886597  1
  O2-  O250  1  0.01561063  0.61883069  0.26620255  1
  O2-  O251  1  0.00167251  0.61408180  0.77343138  1
  O2-  O252  1  0.52864508  0.11897760  0.25194816  1
  O2-  O253  1  0.51584876  0.12715563  0.76065957  1
  O2-  O254  1  0.51679221  0.61624585  0.27332817  1
  O2-  O255  1  0.50460572  0.62159018  0.76048484  1
  O2-  O256  1  0.13560204  0.48032164  -0.02870580  1
  O2-  O257  1  0.14267381  0.47708687  0.49302794  1
  O2-  O258  1  0.11310295  0.98225486  0.01119097  1
  O2-  O259  1  0.13916432  0.97433238  0.53378328  1
  O2-  O260  1  0.61661005  0.48929551  -0.02312865  1
  O2-  O261  1  0.61706459  0.48388158  0.48769386  1
  O2-  O262  1  0.63896178  0.97115810  0.01528274  1
  O2-  O263  1  0.63786990  0.98836190  0.53123896  1
  O2-  O264  1  0.36782279  0.02164061  -0.02784847  1
  O2-  O265  1  0.36579516  0.00752846  0.47095895  1
  O2-  O266  1  0.37888616  0.52135935  0.01214529  1
  O2-  O267  1  0.38303675  0.51236869  0.53136984  1
  O2-  O268  1  0.87082231  0.00289264  -0.02837539  1
  O2-  O269  1  0.86568126  0.02730329  0.49454414  1
  O2-  O270  1  0.86093627  0.52485660  0.01270708  1
  O2-  O271  1  0.86185244  0.51185414  0.53145227  1
  O2-  O272  1  0.48015186  0.38553174  0.00979738  1
  O2-  O273  1  0.48968423  0.37886557  0.51905738  1
  O2-  O274  1  0.47752788  0.86468765  0.00338019  1
  O2-  O275  1  0.48554452  0.86331368  0.52178053  1
  O2-  O276  1  0.97622363  0.36700893  0.02623694  1
  O2-  O277  1  0.97756185  0.36533870  0.52253300  1
  O2-  O278  1  0.97884166  0.87268351  0.01431998  1
  O2-  O279  1  0.99392594  0.86278912  0.52552562  1
  O2-  O280  1  0.00518025  0.11501796  -0.02083787  1
  O2-  O281  1  0.02345930  0.13236957  0.47885024  1
  O2-  O282  1  0.01164487  0.63395932  -0.02261920  1
  O2-  O283  1  0.01922121  0.63146414  0.47696360  1
  O2-  O284  1  0.53690104  0.13589537  -0.00946016  1
  O2-  O285  1  0.53415348  0.13692441  0.49401690  1
  O2-  O286  1  0.51479960  0.62278235  -0.01720404  1
  O2-  O287  1  0.51275243  0.62038735  0.49953442  1
  O2-  O288  1  0.11541095  0.26462624  0.01930297  1
  O2-  O289  1  0.11948855  0.27338055  0.52483109  1
  O2-  O290  1  0.11426851  0.77112182  -0.03455510  1
  O2-  O291  1  0.13635141  0.75624828  0.49200657  1
  O2-  O292  1  0.61424664  0.28852958  0.00651932  1
  O2-  O293  1  0.62898726  0.26956730  0.52117689  1
  O2-  O294  1  0.61971759  0.75876804  -0.02683355  1
  O2-  O295  1  0.61146600  0.76102081  0.47371300  1
  O2-  O296  1  0.39197465  0.24052794  -0.03553047  1
  O2-  O297  1  0.39139838  0.22910200  0.48799901  1
  O2-  O298  1  0.38510668  0.72481201  0.00877957  1
  O2-  O299  1  0.37464086  0.73485692  0.52915346  1
  O2-  O300  1  0.88195761  0.23842999  -0.03312739  1
  O2-  O301  1  0.86649253  0.23820514  0.48959075  1
  O2-  O302  1  0.86261142  0.72874553  0.01460823  1
  O2-  O303  1  0.88202892  0.72924814  0.52893974  1
  O2-  O304  1  0.27708314  0.38565452  -0.02361028  1
  O2-  O305  1  0.28741371  0.38836921  0.48563514  1
  O2-  O306  1  0.25996454  0.88667574  -0.03033806  1
  O2-  O307  1  0.26912855  0.86341412  0.49225513  1
  O2-  O308  1  0.76272371  0.39211846  -0.03627160  1
  O2-  O309  1  0.75839862  0.37741661  0.49238826  1
  O2-  O310  1  0.76240636  0.86498127  -0.02269959  1
  O2-  O311  1  0.77207658  0.88401442  0.48381321  1
  O2-  O312  1  0.22786447  0.11694030  0.02111368  1
  O2-  O313  1  0.23849353  0.11822713  0.52630328  1
  O2-  O314  1  0.23165596  0.61589486  0.01508580  1
  O2-  O315  1  0.24788282  0.62216553  0.52785937  1
  O2-  O316  1  0.73344601  0.11409335  0.01108106  1
  O2-  O317  1  0.73625860  0.13168890  0.52730642  1
  O2-  O318  1  0.72172087  0.62668428  -0.00185312  1
  O2-  O319  1  0.72050501  0.61337648  0.52214984  1
