# generated using pymatgen
data_Sr64Ca21Nb43O192
_symmetry_space_group_name_H-M   'P 1'
_cell_length_a   16.56738075
_cell_length_b   16.57059498
_cell_length_c   16.71379708
_cell_angle_alpha   89.90160077
_cell_angle_beta   89.97320068
_cell_angle_gamma   90.03708295
_symmetry_Int_Tables_number   1
_chemical_formula_structural   Sr64Ca21Nb43O192
_chemical_formula_sum   'Sr64 Ca21 Nb43 O192'
_cell_volume   4588.45315044
_cell_formula_units_Z   1
loop_
 _symmetry_equiv_pos_site_id
 _symmetry_equiv_pos_as_xyz
  1  'x, y, z'
loop_
 _atom_type_symbol
 _atom_type_oxidation_number
  Sr2+  2.0
  Ca2+  2.0
  Nb5+  5.0
  O2-  -2.0
loop_
 _atom_site_type_symbol
 _atom_site_label
 _atom_site_symmetry_multiplicity
 _atom_site_fract_x
 _atom_site_fract_y
 _atom_site_fract_z
 _atom_site_occupancy
  Sr2+  Sr0  1  0.12015074  0.13850700  0.12215695  1
  Sr2+  Sr1  1  0.11555093  0.13436218  0.62684051  1
  Sr2+  Sr2  1  0.11637366  0.62716061  0.12785975  1
  Sr2+  Sr3  1  0.12322378  0.63104597  0.62441395  1
  Sr2+  Sr4  1  0.62351174  0.13818028  0.12744975  1
  Sr2+  Sr5  1  0.61845220  0.13643490  0.62425234  1
  Sr2+  Sr6  1  0.62372023  0.62646767  0.11735539  1
  Sr2+  Sr7  1  0.61848444  0.62589693  0.62408685  1
  Sr2+  Sr8  1  0.36613433  0.38855595  0.12546048  1
  Sr2+  Sr9  1  0.36483667  0.38980833  0.62721497  1
  Sr2+  Sr10  1  0.37209216  0.89326344  0.12812600  1
  Sr2+  Sr11  1  0.36543567  0.87435255  0.62319795  1
  Sr2+  Sr12  1  0.87150651  0.38531524  0.12679715  1
  Sr2+  Sr13  1  0.86268446  0.38549481  0.61863317  1
  Sr2+  Sr14  1  0.86137055  0.88522551  0.12529624  1
  Sr2+  Sr15  1  0.87138869  0.88498756  0.62450586  1
  Sr2+  Sr16  1  0.13226662  0.36479038  0.37306228  1
  Sr2+  Sr17  1  0.13685604  0.37263296  0.87455606  1
  Sr2+  Sr18  1  0.14001729  0.86855618  0.37381388  1
  Sr2+  Sr19  1  0.12215170  0.86797907  0.87683242  1
  Sr2+  Sr20  1  0.64186479  0.36981251  0.37786943  1
  Sr2+  Sr21  1  0.63427716  0.36112874  0.87170159  1
  Sr2+  Sr22  1  0.61669130  0.87142870  0.37184162  1
  Sr2+  Sr23  1  0.63958328  0.87061113  0.87684394  1
  Sr2+  Sr24  1  0.39081469  0.11482165  0.37259201  1
  Sr2+  Sr25  1  0.38386256  0.12585846  0.87570972  1
  Sr2+  Sr26  1  0.38604368  0.62374070  0.36673400  1
  Sr2+  Sr27  1  0.37612942  0.61484567  0.87071769  1
  Sr2+  Sr28  1  0.87779269  0.11965688  0.36734873  1
  Sr2+  Sr29  1  0.88369024  0.11326028  0.88380654  1
  Sr2+  Sr30  1  0.87501194  0.62224065  0.38102079  1
  Sr2+  Sr31  1  0.88415618  0.62329076  0.87738502  1
  Sr2+  Sr32  1  0.12087143  0.11250073  0.37568029  1
  Sr2+  Sr33  1  0.14089511  0.11780682  0.88011969  1
  Sr2+  Sr34  1  0.13829147  0.62559108  0.36891932  1
  Sr2+  Sr35  1  0.12670141  0.61286063  0.87416080  1
  Sr2+  Sr36  1  0.63167895  0.11250090  0.37979274  1
  Sr2+  Sr37  1  0.62848657  0.11008374  0.86765384  1
  Sr2+  Sr38  1  0.62948743  0.60696924  0.37677262  1
  Sr2+  Sr39  1  0.63949480  0.61932923  0.87376941  1
  Sr2+  Sr40  1  0.38127601  0.36664908  0.36289803  1
  Sr2+  Sr41  1  0.37499626  0.36362266  0.87680370  1
  Sr2+  Sr42  1  0.37685455  0.87928979  0.37437190  1
  Sr2+  Sr43  1  0.38392225  0.86209037  0.87676847  1
  Sr2+  Sr44  1  0.87829577  0.35852088  0.37621558  1
  Sr2+  Sr45  1  0.88712281  0.37290826  0.87334082  1
  Sr2+  Sr46  1  0.88327189  0.88219594  0.37094407  1
  Sr2+  Sr47  1  0.87713804  0.87034304  0.88010656  1
  Sr2+  Sr48  1  0.11231463  0.37702735  0.12805320  1
  Sr2+  Sr49  1  0.11685378  0.38318390  0.61884641  1
  Sr2+  Sr50  1  0.12391602  0.87644403  0.12686401  1
  Sr2+  Sr51  1  0.11398276  0.87659290  0.62852997  1
  Sr2+  Sr52  1  0.61077258  0.39025298  0.12803636  1
  Sr2+  Sr53  1  0.62839740  0.37321984  0.62207836  1
  Sr2+  Sr54  1  0.61940943  0.87483895  0.11849191  1
  Sr2+  Sr55  1  0.61586227  0.87919873  0.62640644  1
  Sr2+  Sr56  1  0.35810450  0.12955685  0.12465602  1
  Sr2+  Sr57  1  0.36849510  0.13376059  0.62330169  1
  Sr2+  Sr58  1  0.38211036  0.62597846  0.12861083  1
  Sr2+  Sr59  1  0.36885637  0.63007175  0.62703266  1
  Sr2+  Sr60  1  0.86534539  0.13718223  0.12989542  1
  Sr2+  Sr61  1  0.85711083  0.12693169  0.62591017  1
  Sr2+  Sr62  1  0.85858444  0.62930938  0.12662939  1
  Sr2+  Sr63  1  0.85505756  0.63214741  0.62323085  1
  Ca2+  Ca64  1  0.49961561  0.00257218  -0.00333870  1
  Ca2+  Ca65  1  -0.00004964  0.50306223  0.49919950  1
  Ca2+  Ca66  1  0.00149306  -0.00074912  0.00331182  1
  Ca2+  Ca67  1  0.49494875  0.49927588  0.50030009  1
  Ca2+  Ca68  1  0.49803994  0.50023756  -0.00567114  1
  Ca2+  Ca69  1  0.25020004  0.74560010  -0.00291541  1
  Ca2+  Ca70  1  0.74996773  0.25272412  -0.00115168  1
  Ca2+  Ca71  1  0.25209582  0.24777652  0.49928288  1
  Ca2+  Ca72  1  0.75093438  0.24568532  0.49943194  1
  Ca2+  Ca73  1  0.74886737  0.75358470  0.49962960  1
  Ca2+  Ca74  1  0.49938137  0.24927639  0.24971195  1
  Ca2+  Ca75  1  0.75034364  0.50071704  0.24917483  1
  Ca2+  Ca76  1  0.00027709  0.25046466  0.75210862  1
  Ca2+  Ca77  1  0.50261367  0.75067515  0.24914491  1
  Ca2+  Ca78  1  0.75153879  0.49903740  0.75186532  1
  Ca2+  Ca79  1  -0.00297745  0.75040702  0.25174200  1
  Ca2+  Ca80  1  0.24599228  0.50068690  0.24729493  1
  Ca2+  Ca81  1  0.75148132  -0.00116954  0.75021908  1
  Ca2+  Ca82  1  0.75024708  -0.00130879  0.25050406  1
  Ca2+  Ca83  1  0.25229779  -0.00268947  0.75037423  1
  Ca2+  Ca84  1  0.24977981  0.00247594  0.25115112  1
  Nb5+  Nb85  1  -0.00002958  0.50065005  0.00099269  1
  Nb5+  Nb86  1  0.49488977  0.00077343  0.50659465  1
  Nb5+  Nb87  1  -0.00283102  0.00208684  0.50472834  1
  Nb5+  Nb88  1  0.25097858  0.74871081  0.49995791  1
  Nb5+  Nb89  1  0.75171757  0.74994101  -0.00018672  1
  Nb5+  Nb90  1  0.24953413  0.25226198  0.00177370  1
  Nb5+  Nb91  1  0.50014104  0.74324484  0.75310444  1
  Nb5+  Nb92  1  0.00077626  0.25026486  0.25124981  1
  Nb5+  Nb93  1  0.24708490  0.49954642  0.74822146  1
  Nb5+  Nb94  1  -0.00615566  0.74848083  0.74952960  1
  Nb5+  Nb95  1  0.49965956  0.24658408  0.75030219  1
  Nb5+  Nb96  1  0.00478998  0.00019954  0.24411915  1
  Nb5+  Nb97  1  0.00431731  0.00217961  0.75367643  1
  Nb5+  Nb98  1  -0.00321648  0.50074981  0.25765051  1
  Nb5+  Nb99  1  -0.00238849  0.50128956  0.74588967  1
  Nb5+  Nb100  1  0.50623858  0.00417649  0.24330330  1
  Nb5+  Nb101  1  0.49505064  -0.00949500  0.74891016  1
  Nb5+  Nb102  1  0.49770087  0.49969944  0.25162258  1
  Nb5+  Nb103  1  0.49989595  0.49044718  0.75110937  1
  Nb5+  Nb104  1  0.24832661  0.24542541  0.25607111  1
  Nb5+  Nb105  1  0.24800151  0.25151007  0.74626828  1
  Nb5+  Nb106  1  0.25246118  0.75338677  0.23996683  1
  Nb5+  Nb107  1  0.24524229  0.74956785  0.75216283  1
  Nb5+  Nb108  1  0.74442971  0.25336701  0.24532549  1
  Nb5+  Nb109  1  0.75659630  0.24595784  0.75593419  1
  Nb5+  Nb110  1  0.74932289  0.74772234  0.25650418  1
  Nb5+  Nb111  1  0.74524199  0.75251789  0.74841085  1
  Nb5+  Nb112  1  -0.00310526  0.24942618  0.50727488  1
  Nb5+  Nb113  1  0.00122988  0.24935721  0.99612264  1
  Nb5+  Nb114  1  0.00228408  0.75063175  0.49790655  1
  Nb5+  Nb115  1  -0.00225286  0.74891282  1.00515367  1
  Nb5+  Nb116  1  0.49718121  0.25613097  0.50006914  1
  Nb5+  Nb117  1  0.50011482  0.25103312  1.00386901  1
  Nb5+  Nb118  1  0.50084375  0.75319573  0.49993551  1
  Nb5+  Nb119  1  0.49934807  0.74545632  0.99931473  1
  Nb5+  Nb120  1  0.25252908  -0.00821836  -0.00502698  1
  Nb5+  Nb121  1  0.24334538  -0.00020168  0.50539542  1
  Nb5+  Nb122  1  0.24535680  0.50185952  0.00168858  1
  Nb5+  Nb123  1  0.25252841  0.49840170  0.49112570  1
  Nb5+  Nb124  1  0.74735479  0.00655322  0.00372338  1
  Nb5+  Nb125  1  0.74303630  -0.00601471  0.50153093  1
  Nb5+  Nb126  1  0.74955924  0.49514829  -0.00672462  1
  Nb5+  Nb127  1  0.74954700  0.50105733  0.50046021  1
  O2-  O128  1  0.03618045  0.01209383  0.13496009  1
  O2-  O129  1  0.02934789  0.00905993  0.62304754  1
  O2-  O130  1  0.02345008  0.50971576  0.11538072  1
  O2-  O131  1  0.02925231  0.51239250  0.63480080  1
  O2-  O132  1  0.53151051  0.01722483  0.13281309  1
  O2-  O133  1  0.52952582  0.01018135  0.62442170  1
  O2-  O134  1  0.51866059  0.51939712  0.13063544  1
  O2-  O135  1  0.50646082  0.52594349  0.63993102  1
  O2-  O136  1  -0.01670264  -0.00299604  0.38600702  1
  O2-  O137  1  -0.02227161  -0.01477510  0.86555823  1
  O2-  O138  1  -0.03432669  0.48668430  0.36610726  1
  O2-  O139  1  -0.01489059  0.49341267  0.87197139  1
  O2-  O140  1  0.48596376  -0.01670735  0.39074188  1
  O2-  O141  1  0.46658328  -0.01130124  0.86059850  1
  O2-  O142  1  0.46497013  0.48682206  0.36737313  1
  O2-  O143  1  0.46227781  0.48928513  0.86163330  1
  O2-  O144  1  0.26671421  0.26901351  0.11755606  1
  O2-  O145  1  0.27487436  0.26856876  0.63474410  1
  O2-  O146  1  0.26235029  0.77741895  0.12873868  1
  O2-  O147  1  0.25978545  0.75584279  0.63041338  1
  O2-  O148  1  0.77982990  0.26770613  0.13175381  1
  O2-  O149  1  0.76593214  0.26957790  0.63789255  1
  O2-  O150  1  0.76642677  0.76448995  0.11518750  1
  O2-  O151  1  0.76491232  0.77118297  0.63662273  1
  O2-  O152  1  0.22038061  0.22739180  0.36590621  1
  O2-  O153  1  0.23289136  0.24426908  0.87455395  1
  O2-  O154  1  0.24605641  0.73302422  0.38488136  1
  O2-  O155  1  0.24404279  0.71804809  0.86294250  1
  O2-  O156  1  0.72960088  0.23084373  0.36316480  1
  O2-  O157  1  0.71555777  0.23129399  0.86687940  1
  O2-  O158  1  0.73181105  0.72696193  0.36758652  1
  O2-  O159  1  0.74420199  0.73160571  0.87485870  1
  O2-  O160  1  -0.00673068  0.23815336  0.12274917  1
  O2-  O161  1  -0.01935560  0.22423997  0.61800128  1
  O2-  O162  1  -0.00873268  0.71943686  0.11532109  1
  O2-  O163  1  0.00399722  0.73723657  0.62803746  1
  O2-  O164  1  0.48427779  0.21781018  0.11292611  1
  O2-  O165  1  0.48385470  0.23066159  0.63209876  1
  O2-  O166  1  0.50112168  0.72204400  0.11218843  1
  O2-  O167  1  0.49936039  0.73392325  0.63323454  1
  O2-  O168  1  0.27341876  0.01471770  0.39200007  1
  O2-  O169  1  0.26796723  0.03197415  0.88309657  1
  O2-  O170  1  0.26330873  0.53198516  0.38275811  1
  O2-  O171  1  0.25562282  0.51606646  0.87164745  1
  O2-  O172  1  0.76544844  0.02317096  0.38753921  1
  O2-  O173  1  0.77160846  0.01714019  0.88623320  1
  O2-  O174  1  0.76123857  0.52855382  0.38356135  1
  O2-  O175  1  0.76938432  0.53188664  0.88281497  1
  O2-  O176  1  0.01687984  0.26353826  0.36909889  1
  O2-  O177  1  0.01601240  0.27979112  0.88491649  1
  O2-  O178  1  0.00811727  0.78347182  0.38795286  1
  O2-  O179  1  0.00241311  0.76401586  0.86958227  1
  O2-  O180  1  0.51294715  0.27618911  0.38739531  1
  O2-  O181  1  0.50516952  0.27722136  0.86688938  1
  O2-  O182  1  0.49232938  0.77806726  0.38816685  1
  O2-  O183  1  0.51192919  0.77853466  0.86671882  1
  O2-  O184  1  0.23423513  -0.02382572  0.11379792  1
  O2-  O185  1  0.24083925  -0.03835362  0.61641154  1
  O2-  O186  1  0.22727788  0.47534333  0.11213315  1
  O2-  O187  1  0.23025861  0.48022332  0.63160181  1
  O2-  O188  1  0.73303151  -0.03068012  0.11591535  1
  O2-  O189  1  0.74234006  -0.03353577  0.61754432  1
  O2-  O190  1  0.73920406  0.48197987  0.11063742  1
  O2-  O191  1  0.73788347  0.47504376  0.61973039  1
  O2-  O192  1  0.12267318  0.26702645  0.23121799  1
  O2-  O193  1  0.13481483  0.27828855  0.73143564  1
  O2-  O194  1  0.13274065  0.77686372  0.24591594  1
  O2-  O195  1  0.12902668  0.76687594  0.74543579  1
  O2-  O196  1  0.63261425  0.27169411  0.22121484  1
  O2-  O197  1  0.61431483  0.27003111  0.73436063  1
  O2-  O198  1  0.63594968  0.78387459  0.23759704  1
  O2-  O199  1  0.62585448  0.77005570  0.74308916  1
  O2-  O200  1  0.36313355  0.22867414  0.26953441  1
  O2-  O201  1  0.37362779  0.24122222  0.76866925  1
  O2-  O202  1  0.36617474  0.72226429  0.25407994  1
  O2-  O203  1  0.38162611  0.73091188  0.75870901  1
  O2-  O204  1  0.88386392  0.23165032  0.26328036  1
  O2-  O205  1  0.86732267  0.22165337  0.77810910  1
  O2-  O206  1  0.86668409  0.71471850  0.26124150  1
  O2-  O207  1  0.87841241  0.72900139  0.75476882  1
  O2-  O208  1  0.26218866  0.36361230  0.26589911  1
  O2-  O209  1  0.26581280  0.38082218  0.76736611  1
  O2-  O210  1  0.26981525  0.86674208  0.27499029  1
  O2-  O211  1  0.27496391  0.85964620  0.76997685  1
  O2-  O212  1  0.77239316  0.36616070  0.27237484  1
  O2-  O213  1  0.76487733  0.36473730  0.77726167  1
  O2-  O214  1  0.78599636  0.86272923  0.26002683  1
  O2-  O215  1  0.76673092  0.86446369  0.77935081  1
  O2-  O216  1  0.23154077  0.13483852  0.21731310  1
  O2-  O217  1  0.23180044  0.13695887  0.73507051  1
  O2-  O218  1  0.22021270  0.63682895  0.23503874  1
  O2-  O219  1  0.23492145  0.62148016  0.73017923  1
  O2-  O220  1  0.74006647  0.13415882  0.22411973  1
  O2-  O221  1  0.72685453  0.13274639  0.72860063  1
  O2-  O222  1  0.72664551  0.63528897  0.21992299  1
  O2-  O223  1  0.72798391  0.63559180  0.73295452  1
  O2-  O224  1  0.11105875  0.46909007  0.26368633  1
  O2-  O225  1  0.12545544  0.48826108  0.76972185  1
  O2-  O226  1  0.11596082  0.98791494  0.28539634  1
  O2-  O227  1  0.11730091  0.96477557  0.76282665  1
  O2-  O228  1  0.61425561  0.47460545  0.27136371  1
  O2-  O229  1  0.61215456  0.48133827  0.77314743  1
  O2-  O230  1  0.61788157  0.98375805  0.27987566  1
  O2-  O231  1  0.61246668  0.98612292  0.77043553  1
  O2-  O232  1  0.38630307  0.02404828  0.23610602  1
  O2-  O233  1  0.38561755  0.01708937  0.71475533  1
  O2-  O234  1  0.37823237  0.51949947  0.22562818  1
  O2-  O235  1  0.36553261  0.51683220  0.73341873  1
  O2-  O236  1  0.89000799  0.02856534  0.24120628  1
  O2-  O237  1  0.89023486  0.01300225  0.72206100  1
  O2-  O238  1  0.88728553  0.51150132  0.21571940  1
  O2-  O239  1  0.88746025  0.53342917  0.73400742  1
  O2-  O240  1  0.47603560  0.38173406  0.22676436  1
  O2-  O241  1  0.48007349  0.37781475  0.72760968  1
  O2-  O242  1  0.47919386  0.88729340  0.23873182  1
  O2-  O243  1  0.48346517  0.87475006  0.72961224  1
  O2-  O244  1  0.98258946  0.36927398  0.23392166  1
  O2-  O245  1  0.97427354  0.38757521  0.73446070  1
  O2-  O246  1  0.98043131  0.88725271  0.23270907  1
  O2-  O247  1  0.98435670  0.86664625  0.73398078  1
  O2-  O248  1  0.02276806  0.13063361  0.25986993  1
  O2-  O249  1  0.03184086  0.11427352  0.76572449  1
  O2-  O250  1  0.02446190  0.61319506  0.26649969  1
  O2-  O251  1  0.02410659  0.63138705  0.76205057  1
  O2-  O252  1  0.51891158  0.11728471  0.28203056  1
  O2-  O253  1  0.51058128  0.13050085  0.76571996  1
  O2-  O254  1  0.51622292  0.61731579  0.27608040  1
  O2-  O255  1  0.51754732  0.63042154  0.77237643  1
  O2-  O256  1  0.11866948  0.48213056  -0.02413724  1
  O2-  O257  1  0.13523848  0.47770097  0.48728798  1
  O2-  O258  1  0.13438055  0.98547917  -0.02569818  1
  O2-  O259  1  0.12970967  0.98154779  0.48345551  1
  O2-  O260  1  0.63504460  0.48275271  -0.02448706  1
  O2-  O261  1  0.62967724  0.47968401  0.48455162  1
  O2-  O262  1  0.63332708  0.98219510  -0.02500200  1
  O2-  O263  1  0.62760537  0.97649766  0.48671027  1
  O2-  O264  1  0.36624328  0.01854299  0.02493379  1
  O2-  O265  1  0.38023263  0.01364392  0.52393641  1
  O2-  O266  1  0.35931011  0.52194878  0.01341071  1
  O2-  O267  1  0.36075270  0.51770732  0.53177623  1
  O2-  O268  1  0.86735757  0.01651051  0.02545776  1
  O2-  O269  1  0.88467462  0.01671992  0.52391475  1
  O2-  O270  1  0.88194259  0.51902130  0.01176906  1
  O2-  O271  1  0.86759281  0.52315511  0.52173723  1
  O2-  O272  1  0.46755610  0.36534346  0.01305291  1
  O2-  O273  1  0.47386839  0.36444224  0.52711235  1
  O2-  O274  1  0.48393651  0.86376769  0.01681695  1
  O2-  O275  1  0.48310754  0.87841337  0.52800715  1
  O2-  O276  1  0.98225789  0.38030050  0.01386607  1
  O2-  O277  1  0.97804574  0.36398399  0.51638641  1
  O2-  O278  1  0.97503971  0.86237352  0.01659505  1
  O2-  O279  1  0.99175581  0.87983252  0.52276031  1
  O2-  O280  1  0.02585850  0.13679218  -0.01824114  1
  O2-  O281  1  0.02627265  0.11973007  0.49309573  1
  O2-  O282  1  0.01458940  0.62268193  -0.02075780  1
  O2-  O283  1  0.03169409  0.63970262  0.48069462  1
  O2-  O284  1  0.51218287  0.13968368  -0.03620662  1
  O2-  O285  1  0.52090438  0.11676132  0.49161420  1
  O2-  O286  1  0.52582281  0.63460820  -0.03264772  1
  O2-  O287  1  0.51409246  0.63888231  0.48540534  1
  O2-  O288  1  0.12723834  0.27184424  0.01494807  1
  O2-  O289  1  0.11551864  0.26539349  0.51565288  1
  O2-  O290  1  0.11294180  0.77006511  0.00412630  1
  O2-  O291  1  0.13265498  0.77131415  0.51391864  1
  O2-  O292  1  0.61239952  0.27759946  0.01707785  1
  O2-  O293  1  0.61411858  0.25859330  0.52376403  1
  O2-  O294  1  0.63077020  0.76585188  0.00376496  1
  O2-  O295  1  0.61368222  0.77805841  0.51152479  1
  O2-  O296  1  0.36690123  0.23573546  -0.01823023  1
  O2-  O297  1  0.38603967  0.21572488  0.48693297  1
  O2-  O298  1  0.38621776  0.72637322  -0.01994254  1
  O2-  O299  1  0.37372283  0.73943791  0.51002835  1
  O2-  O300  1  0.88715508  0.23055156  -0.01580452  1
  O2-  O301  1  0.88670346  0.22511522  0.47281469  1
  O2-  O302  1  0.87464194  0.73076009  -0.01572944  1
  O2-  O303  1  0.88895353  0.72850887  0.49936193  1
  O2-  O304  1  0.26000917  0.37636739  -0.02110381  1
  O2-  O305  1  0.27404608  0.38440652  0.47355015  1
  O2-  O306  1  0.26943757  0.88073359  -0.03048605  1
  O2-  O307  1  0.26878221  0.86888251  0.48486079  1
  O2-  O308  1  0.77693010  0.38517662  -0.02748910  1
  O2-  O309  1  0.77121225  0.38217831  0.47987911  1
  O2-  O310  1  0.76655425  0.86793472  -0.01894817  1
  O2-  O311  1  0.78375068  0.88435607  0.47978122  1
  O2-  O312  1  0.23041591  0.13536774  0.01446814  1
  O2-  O313  1  0.23376317  0.11158967  0.53339583  1
  O2-  O314  1  0.21510928  0.61357623  0.01253776  1
  O2-  O315  1  0.23279383  0.62934249  0.51833861  1
  O2-  O316  1  0.72908343  0.11879394  0.02421006  1
  O2-  O317  1  0.73730458  0.11081759  0.52915313  1
  O2-  O318  1  0.73764490  0.62845158  0.01524166  1
  O2-  O319  1  0.72718495  0.61907175  0.52550730  1
