# generated using pymatgen
data_Sr64Ca21Nb43O192
_symmetry_space_group_name_H-M   'P 1'
_cell_length_a   16.59999157
_cell_length_b   16.60858954
_cell_length_c   16.76076918
_cell_angle_alpha   90.04088835
_cell_angle_beta   90.06428873
_cell_angle_gamma   89.93387062
_symmetry_Int_Tables_number   1
_chemical_formula_structural   Sr64Ca21Nb43O192
_chemical_formula_sum   'Sr64 Ca21 Nb43 O192'
_cell_volume   4620.97790683
_cell_formula_units_Z   1
loop_
 _symmetry_equiv_pos_site_id
 _symmetry_equiv_pos_as_xyz
  1  'x, y, z'
loop_
 _atom_type_symbol
 _atom_type_oxidation_number
  Sr2+  2.0
  Ca2+  2.0
  Nb5+  5.0
  O2-  -2.0
loop_
 _atom_site_type_symbol
 _atom_site_label
 _atom_site_symmetry_multiplicity
 _atom_site_fract_x
 _atom_site_fract_y
 _atom_site_fract_z
 _atom_site_occupancy
  Sr2+  Sr0  1  0.12274270  0.11425378  0.11791605  1
  Sr2+  Sr1  1  0.12068111  0.11016342  0.63072307  1
  Sr2+  Sr2  1  0.12617506  0.64392197  0.11977982  1
  Sr2+  Sr3  1  0.11814226  0.62954650  0.62777580  1
  Sr2+  Sr4  1  0.61788449  0.11679587  0.12880927  1
  Sr2+  Sr5  1  0.62254421  0.11418668  0.62096395  1
  Sr2+  Sr6  1  0.61806198  0.61297316  0.12726445  1
  Sr2+  Sr7  1  0.62104327  0.63623025  0.61546179  1
  Sr2+  Sr8  1  0.37051758  0.36689781  0.13086465  1
  Sr2+  Sr9  1  0.36638993  0.36409683  0.62064696  1
  Sr2+  Sr10  1  0.37013171  0.86534363  0.12604254  1
  Sr2+  Sr11  1  0.37093795  0.87495278  0.62632552  1
  Sr2+  Sr12  1  0.86943451  0.37696667  0.12870326  1
  Sr2+  Sr13  1  0.86784867  0.37006592  0.62081761  1
  Sr2+  Sr14  1  0.86871839  0.88261317  0.12322658  1
  Sr2+  Sr15  1  0.86812014  0.86865248  0.63216210  1
  Sr2+  Sr16  1  0.09610865  0.37647438  0.37553329  1
  Sr2+  Sr17  1  0.10654748  0.37382551  0.87552674  1
  Sr2+  Sr18  1  0.12384358  0.87115949  0.38588034  1
  Sr2+  Sr19  1  0.12770539  0.87009043  0.87463401  1
  Sr2+  Sr20  1  0.61614336  0.37329896  0.36608022  1
  Sr2+  Sr21  1  0.65004505  0.37904011  0.87633501  1
  Sr2+  Sr22  1  0.63636572  0.87600309  0.37684207  1
  Sr2+  Sr23  1  0.62591495  0.87528506  0.87611518  1
  Sr2+  Sr24  1  0.39423768  0.13065348  0.37894617  1
  Sr2+  Sr25  1  0.38047463  0.12342077  0.87050715  1
  Sr2+  Sr26  1  0.38833135  0.61619916  0.37623285  1
  Sr2+  Sr27  1  0.38021979  0.61874904  0.87416945  1
  Sr2+  Sr28  1  0.88702569  0.12766094  0.37001175  1
  Sr2+  Sr29  1  0.89098101  0.14087057  0.87199105  1
  Sr2+  Sr30  1  0.88924132  0.62856908  0.37841740  1
  Sr2+  Sr31  1  0.88869111  0.61470891  0.87601920  1
  Sr2+  Sr32  1  0.13019985  0.13655613  0.37643734  1
  Sr2+  Sr33  1  0.13406499  0.13019244  0.87691263  1
  Sr2+  Sr34  1  0.12274334  0.60760391  0.38079087  1
  Sr2+  Sr35  1  0.13791511  0.61162298  0.87336195  1
  Sr2+  Sr36  1  0.63290132  0.13671387  0.37243836  1
  Sr2+  Sr37  1  0.63422704  0.14352465  0.87335086  1
  Sr2+  Sr38  1  0.63855686  0.62088120  0.37625908  1
  Sr2+  Sr39  1  0.62759573  0.61109555  0.87740728  1
  Sr2+  Sr40  1  0.37226897  0.36787122  0.38525992  1
  Sr2+  Sr41  1  0.37792039  0.37031323  0.87038602  1
  Sr2+  Sr42  1  0.37860825  0.88240991  0.37269396  1
  Sr2+  Sr43  1  0.38358775  0.86787711  0.87174774  1
  Sr2+  Sr44  1  0.87876512  0.38137062  0.36895285  1
  Sr2+  Sr45  1  0.87485934  0.37157219  0.87068019  1
  Sr2+  Sr46  1  0.87937524  0.87460623  0.37184732  1
  Sr2+  Sr47  1  0.88572965  0.87790840  0.87484735  1
  Sr2+  Sr48  1  0.11906688  0.36706502  0.12629297  1
  Sr2+  Sr49  1  0.11615211  0.37668773  0.60867396  1
  Sr2+  Sr50  1  0.10578636  0.87115730  0.11967510  1
  Sr2+  Sr51  1  0.10577874  0.87894763  0.63269016  1
  Sr2+  Sr52  1  0.61729327  0.37348016  0.12658703  1
  Sr2+  Sr53  1  0.62513939  0.36930412  0.63601976  1
  Sr2+  Sr54  1  0.63297322  0.87945005  0.12909752  1
  Sr2+  Sr55  1  0.62016188  0.86797979  0.62117767  1
  Sr2+  Sr56  1  0.36850854  0.11967465  0.12544379  1
  Sr2+  Sr57  1  0.36152653  0.11555043  0.61732365  1
  Sr2+  Sr58  1  0.36239414  0.62406183  0.13076622  1
  Sr2+  Sr59  1  0.37257324  0.62670019  0.62957931  1
  Sr2+  Sr60  1  0.85827429  0.11696355  0.12707864  1
  Sr2+  Sr61  1  0.86927783  0.12323966  0.63119469  1
  Sr2+  Sr62  1  0.86833141  0.63760459  0.13120045  1
  Sr2+  Sr63  1  0.85901467  0.63237869  0.62153025  1
  Ca2+  Ca64  1  0.50034744  -0.00242704  0.50002591  1
  Ca2+  Ca65  1  0.00569850  0.50291269  0.00180488  1
  Ca2+  Ca66  1  -0.00118245  0.00337429  -0.00015770  1
  Ca2+  Ca67  1  0.50256641  0.49945467  0.50386864  1
  Ca2+  Ca68  1  -0.00346756  -0.00324663  0.49811491  1
  Ca2+  Ca69  1  0.74385571  0.75052696  -0.00061019  1
  Ca2+  Ca70  1  0.24653320  0.24630936  0.50018832  1
  Ca2+  Ca71  1  0.75265425  0.25106667  0.49669649  1
  Ca2+  Ca72  1  0.74925565  0.25207547  0.00357698  1
  Ca2+  Ca73  1  0.25013261  0.74799147  0.50229024  1
  Ca2+  Ca74  1  0.25197488  -0.00208864  0.24616991  1
  Ca2+  Ca75  1  -0.00090835  0.74636141  0.75324034  1
  Ca2+  Ca76  1  0.00107048  0.75239834  0.25193718  1
  Ca2+  Ca77  1  0.00810153  0.25008123  0.74688288  1
  Ca2+  Ca78  1  0.49745429  0.74963356  0.24927171  1
  Ca2+  Ca79  1  0.00042408  0.24641821  0.24765625  1
  Ca2+  Ca80  1  0.50146525  0.24806722  0.75136536  1
  Ca2+  Ca81  1  0.74657550  0.00069733  0.75180327  1
  Ca2+  Ca82  1  0.24813906  0.49562719  0.24930249  1
  Ca2+  Ca83  1  0.74920842  0.50509525  0.74646136  1
  Ca2+  Ca84  1  0.75193464  0.50130540  0.24899407  1
  Nb5+  Nb85  1  0.49697176  -0.00769215  0.00072446  1
  Nb5+  Nb86  1  0.49719241  0.49190861  -0.00145442  1
  Nb5+  Nb87  1  -0.00449611  0.50113423  0.50408451  1
  Nb5+  Nb88  1  0.25095268  0.74493460  -0.00325963  1
  Nb5+  Nb89  1  0.25353940  0.24755454  0.00046705  1
  Nb5+  Nb90  1  0.74913106  0.75186569  0.49896017  1
  Nb5+  Nb91  1  0.49982207  0.74888828  0.75216140  1
  Nb5+  Nb92  1  0.25214693  0.49074767  0.75052586  1
  Nb5+  Nb93  1  0.25150136  -0.00709484  0.75250284  1
  Nb5+  Nb94  1  0.50028487  0.24765793  0.24778748  1
  Nb5+  Nb95  1  0.74883650  0.00335618  0.25218926  1
  Nb5+  Nb96  1  0.00655167  -0.00203445  0.24795035  1
  Nb5+  Nb97  1  -0.00620932  0.00222275  0.75613453  1
  Nb5+  Nb98  1  0.00541690  0.50564935  0.23943076  1
  Nb5+  Nb99  1  -0.00316765  0.50167087  0.74616806  1
  Nb5+  Nb100  1  0.49934922  -0.00337866  0.25133654  1
  Nb5+  Nb101  1  0.50034433  -0.00093894  0.75045725  1
  Nb5+  Nb102  1  0.49784383  0.49786078  0.25301941  1
  Nb5+  Nb103  1  0.49876901  0.49912267  0.74903864  1
  Nb5+  Nb104  1  0.25086000  0.24762888  0.25268620  1
  Nb5+  Nb105  1  0.24998804  0.24412273  0.74696006  1
  Nb5+  Nb106  1  0.24662308  0.74513932  0.25949335  1
  Nb5+  Nb107  1  0.25042369  0.74419316  0.75000388  1
  Nb5+  Nb108  1  0.75279987  0.25278243  0.24944356  1
  Nb5+  Nb109  1  0.75233322  0.25056973  0.74738996  1
  Nb5+  Nb110  1  0.74594961  0.75140710  0.24837026  1
  Nb5+  Nb111  1  0.74792482  0.74719661  0.75831128  1
  Nb5+  Nb112  1  0.00140890  0.24194460  0.50104805  1
  Nb5+  Nb113  1  -0.00310362  0.24963902  1.00796896  1
  Nb5+  Nb114  1  0.00014407  0.75325510  0.50764632  1
  Nb5+  Nb115  1  -0.00811788  0.74745884  0.99673849  1
  Nb5+  Nb116  1  0.50597078  0.24853946  0.50719727  1
  Nb5+  Nb117  1  0.49970576  0.24229017  0.99839328  1
  Nb5+  Nb118  1  0.49677124  0.75085309  0.49280485  1
  Nb5+  Nb119  1  0.49826144  0.74395761  0.99910837  1
  Nb5+  Nb120  1  0.25490407  -0.00811909  -0.00225536  1
  Nb5+  Nb121  1  0.24587925  -0.00211145  0.49116627  1
  Nb5+  Nb122  1  0.25551906  0.49004588  -0.00249762  1
  Nb5+  Nb123  1  0.25364420  0.50324536  0.49913740  1
  Nb5+  Nb124  1  0.74800221  0.00562180  -0.00754343  1
  Nb5+  Nb125  1  0.75179528  0.00180435  0.50236417  1
  Nb5+  Nb126  1  0.75917276  0.50659520  0.00331882  1
  Nb5+  Nb127  1  0.74888362  0.49639917  0.49501789  1
  O2-  O128  1  -0.01802396  0.03113946  0.13430304  1
  O2-  O129  1  -0.00652501  0.02450784  0.63675558  1
  O2-  O130  1  0.04039986  0.51981574  0.13290812  1
  O2-  O131  1  0.02387381  0.51562514  0.62402369  1
  O2-  O132  1  0.48643938  0.01995935  0.11694092  1
  O2-  O133  1  0.48163687  0.01939080  0.63811253  1
  O2-  O134  1  0.50970707  0.51140228  0.11468756  1
  O2-  O135  1  0.51406184  0.52921094  0.63933633  1
  O2-  O136  1  0.00740433  -0.03600695  0.36264681  1
  O2-  O137  1  0.01447404  -0.02905011  0.86840776  1
  O2-  O138  1  -0.02054322  0.49010493  0.38723579  1
  O2-  O139  1  -0.01742948  0.48137560  0.86307815  1
  O2-  O140  1  0.51267805  -0.02478289  0.36317558  1
  O2-  O141  1  0.50588502  -0.02248120  0.87962737  1
  O2-  O142  1  0.47893221  0.47711903  0.36468318  1
  O2-  O143  1  0.47636886  0.49288761  0.87709309  1
  O2-  O144  1  0.24469142  0.27515110  0.11734827  1
  O2-  O145  1  0.22579347  0.26365516  0.63837481  1
  O2-  O146  1  0.27098576  0.75580960  0.11017547  1
  O2-  O147  1  0.27701351  0.75566244  0.63842960  1
  O2-  O148  1  0.72893591  0.27247866  0.13562165  1
  O2-  O149  1  0.73862513  0.27651925  0.63159207  1
  O2-  O150  1  0.76325986  0.77141848  0.13536652  1
  O2-  O151  1  0.75447262  0.76786110  0.62060570  1
  O2-  O152  1  0.27117536  0.21966045  0.36298782  1
  O2-  O153  1  0.28164134  0.23929620  0.88333032  1
  O2-  O154  1  0.21621918  0.73622886  0.36833549  1
  O2-  O155  1  0.23679759  0.74049160  0.87325000  1
  O2-  O156  1  0.76388812  0.21880239  0.36277419  1
  O2-  O157  1  0.76723163  0.23000272  0.86838200  1
  O2-  O158  1  0.73157082  0.74189095  0.37997504  1
  O2-  O159  1  0.71584709  0.73652839  0.86656866  1
  O2-  O160  1  0.04062860  0.23711533  0.11709900  1
  O2-  O161  1  0.03654304  0.23610327  0.61454190  1
  O2-  O162  1  -0.00527665  0.72337467  0.11467115  1
  O2-  O163  1  -0.02005243  0.72169601  0.62028881  1
  O2-  O164  1  0.52034541  0.23899355  0.12360066  1
  O2-  O165  1  0.53206068  0.23515422  0.61761543  1
  O2-  O166  1  0.47381241  0.73228900  0.11170825  1
  O2-  O167  1  0.49072427  0.72774057  0.63652140  1
  O2-  O168  1  0.22204241  0.00833608  0.38031400  1
  O2-  O169  1  0.24076805  0.01562838  0.87557378  1
  O2-  O170  1  0.26887515  0.51477410  0.38618332  1
  O2-  O171  1  0.27182739  0.51101996  0.87066882  1
  O2-  O172  1  0.72137968  0.01116377  0.36661158  1
  O2-  O173  1  0.71418847  0.01625660  0.88385838  1
  O2-  O174  1  0.77472695  0.53139767  0.38354151  1
  O2-  O175  1  0.76022015  0.52842313  0.88395401  1
  O2-  O176  1  -0.02597665  0.26953518  0.38546340  1
  O2-  O177  1  -0.01398382  0.27238290  0.88899814  1
  O2-  O178  1  0.00413024  0.76874752  0.39040188  1
  O2-  O179  1  0.00649241  0.78060817  0.88388020  1
  O2-  O180  1  0.48212365  0.26370346  0.36420786  1
  O2-  O181  1  0.47250470  0.25529562  0.88674555  1
  O2-  O182  1  0.50079553  0.78342491  0.38448866  1
  O2-  O183  1  0.50775673  0.77174712  0.87659547  1
  O2-  O184  1  0.28020116  -0.01181678  0.10964220  1
  O2-  O185  1  0.26720289  -0.00982155  0.63663138  1
  O2-  O186  1  0.24201772  0.47999200  0.10984329  1
  O2-  O187  1  0.24094533  0.48938111  0.63464575  1
  O2-  O188  1  0.75617314  -0.01419888  0.12690699  1
  O2-  O189  1  0.77949542  -0.01030512  0.61371541  1
  O2-  O190  1  0.73237360  0.47641447  0.11357821  1
  O2-  O191  1  0.73043145  0.48599143  0.61110853  1
  O2-  O192  1  0.13868028  0.26912861  0.26788724  1
  O2-  O193  1  0.14245857  0.25849135  0.79028671  1
  O2-  O194  1  0.13615401  0.77094003  0.22214165  1
  O2-  O195  1  0.13746583  0.76925627  0.73702200  1
  O2-  O196  1  0.62245374  0.25843265  0.26591768  1
  O2-  O197  1  0.63387998  0.27327360  0.77116075  1
  O2-  O198  1  0.63103261  0.78145211  0.24940413  1
  O2-  O199  1  0.61507949  0.77298893  0.74084439  1
  O2-  O200  1  0.38409603  0.22961108  0.22885608  1
  O2-  O201  1  0.36710791  0.23477814  0.72912383  1
  O2-  O202  1  0.36472259  0.71707518  0.26774791  1
  O2-  O203  1  0.37515711  0.73780983  0.77109105  1
  O2-  O204  1  0.86560271  0.23518201  0.22387290  1
  O2-  O205  1  0.87175633  0.22980518  0.73629397  1
  O2-  O206  1  0.86173460  0.73981929  0.27143528  1
  O2-  O207  1  0.86108421  0.72296985  0.76955163  1
  O2-  O208  1  0.28561859  0.36040419  0.25962467  1
  O2-  O209  1  0.27345421  0.37522265  0.75904031  1
  O2-  O210  1  0.28122218  0.86096988  0.25841507  1
  O2-  O211  1  0.26562333  0.87653280  0.76834027  1
  O2-  O212  1  0.76159851  0.36573877  0.27574987  1
  O2-  O213  1  0.77208203  0.37119009  0.76570046  1
  O2-  O214  1  0.76053345  0.88317426  0.26544878  1
  O2-  O215  1  0.76908934  0.86463028  0.76209914  1
  O2-  O216  1  0.23861130  0.13581682  0.21414865  1
  O2-  O217  1  0.23977673  0.12446208  0.74301423  1
  O2-  O218  1  0.23199743  0.63165930  0.22284718  1
  O2-  O219  1  0.23781612  0.62688648  0.74382979  1
  O2-  O220  1  0.73171806  0.12174127  0.22948299  1
  O2-  O221  1  0.72567664  0.13403567  0.72625639  1
  O2-  O222  1  0.72492568  0.63768112  0.23361981  1
  O2-  O223  1  0.72236443  0.63811227  0.72239470  1
  O2-  O224  1  0.11627225  0.48659945  0.28125801  1
  O2-  O225  1  0.13711114  0.48466124  0.76956642  1
  O2-  O226  1  0.11780731  0.98351423  0.22332583  1
  O2-  O227  1  0.13348463  0.98509439  0.74220548  1
  O2-  O228  1  0.61508009  0.47653634  0.24810098  1
  O2-  O229  1  0.61183964  0.48746069  0.77448367  1
  O2-  O230  1  0.62089331  0.99242782  0.22895640  1
  O2-  O231  1  0.61150898  0.97120298  0.73515349  1
  O2-  O232  1  0.38650545  0.02482511  0.26462092  1
  O2-  O233  1  0.37298855  0.00974942  0.76855708  1
  O2-  O234  1  0.38504406  0.51050591  0.22540299  1
  O2-  O235  1  0.37404740  0.52197921  0.74174120  1
  O2-  O236  1  0.86431670  0.01958111  0.26095330  1
  O2-  O237  1  0.88127581  0.02124655  0.77397467  1
  O2-  O238  1  0.88566228  0.51509394  0.21963390  1
  O2-  O239  1  0.88612432  0.52621292  0.73077039  1
  O2-  O240  1  0.49145124  0.36836508  0.22847985  1
  O2-  O241  1  0.47938135  0.38700903  0.73012122  1
  O2-  O242  1  0.48163705  0.88663329  0.22226418  1
  O2-  O243  1  0.47360286  0.87114448  0.74172890  1
  O2-  O244  1  0.98643514  0.38582754  0.23943715  1
  O2-  O245  1  1.00059547  0.38563279  0.72421765  1
  O2-  O246  1  0.97529154  0.88503994  0.22173398  1
  O2-  O247  1  0.98385529  0.88377817  0.72900385  1
  O2-  O248  1  0.01412419  0.11345664  0.28248224  1
  O2-  O249  1  0.02422992  0.11587442  0.77586840  1
  O2-  O250  1  0.00869814  0.61749480  0.27818817  1
  O2-  O251  1  0.03264780  0.61319789  0.76618690  1
  O2-  O252  1  0.51902088  0.12654101  0.25993926  1
  O2-  O253  1  0.51680464  0.11076452  0.77724176  1
  O2-  O254  1  0.52031147  0.61220367  0.26785381  1
  O2-  O255  1  0.50875470  0.63201667  0.77763065  1
  O2-  O256  1  0.14263253  0.48749581  -0.02853155  1
  O2-  O257  1  0.12067574  0.48220400  0.48793065  1
  O2-  O258  1  0.14000613  0.98910180  0.01516704  1
  O2-  O259  1  0.13339139  0.96567864  0.51721026  1
  O2-  O260  1  0.61281353  0.48737460  -0.01918346  1
  O2-  O261  1  0.63651799  0.48803753  0.46808871  1
  O2-  O262  1  0.61359474  0.98064751  0.01411878  1
  O2-  O263  1  0.63531545  0.97547973  0.51480665  1
  O2-  O264  1  0.37705957  0.02238706  -0.01889774  1
  O2-  O265  1  0.36445603  0.02477967  0.48605723  1
  O2-  O266  1  0.37571528  0.52578871  0.00674072  1
  O2-  O267  1  0.36640126  0.52473267  0.51968200  1
  O2-  O268  1  0.86122991  0.02668525  -0.01838503  1
  O2-  O269  1  0.86199383  0.01046744  0.46295830  1
  O2-  O270  1  0.87037958  0.53078537  0.02004661  1
  O2-  O271  1  0.87887303  0.51848808  0.52512194  1
  O2-  O272  1  0.47853161  0.37893784  0.01165931  1
  O2-  O273  1  0.47736269  0.36564006  0.51465689  1
  O2-  O274  1  0.47080269  0.87995222  0.01210710  1
  O2-  O275  1  0.48572916  0.86180629  0.53375898  1
  O2-  O276  1  0.99568857  0.36922892  0.02792492  1
  O2-  O277  1  0.98579266  0.38228222  0.52025463  1
  O2-  O278  1  0.98364943  0.86597992  0.02437489  1
  O2-  O279  1  0.97411683  0.86447884  0.52834265  1
  O2-  O280  1  0.02648916  0.13738225  -0.01990472  1
  O2-  O281  1  0.01570825  0.13023510  0.47563251  1
  O2-  O282  1  0.02782433  0.63654284  -0.02787272  1
  O2-  O283  1  0.01221309  0.62325088  0.48691678  1
  O2-  O284  1  0.51542544  0.12686148  -0.01368979  1
  O2-  O285  1  0.52139044  0.13322741  0.47612471  1
  O2-  O286  1  0.51349652  0.63000862  -0.01855306  1
  O2-  O287  1  0.52755314  0.63552471  0.47926386  1
  O2-  O288  1  0.14181994  0.27200413  -0.01696122  1
  O2-  O289  1  0.11629934  0.27102502  0.47397675  1
  O2-  O290  1  0.13532922  0.76984582  0.00726917  1
  O2-  O291  1  0.11373289  0.76828404  0.52459802  1
  O2-  O292  1  0.61092502  0.27358167  -0.01751812  1
  O2-  O293  1  0.61697094  0.27366482  0.47392807  1
  O2-  O294  1  0.60687051  0.77814192  0.01406492  1
  O2-  O295  1  0.62531778  0.76490110  0.51154699  1
  O2-  O296  1  0.38010408  0.23949389  0.02748536  1
  O2-  O297  1  0.38521071  0.22807788  0.51436174  1
  O2-  O298  1  0.37304938  0.74316500  -0.02612301  1
  O2-  O299  1  0.38521218  0.71911475  0.49295189  1
  O2-  O300  1  0.88600425  0.23229127  0.02871457  1
  O2-  O301  1  0.88700284  0.23643609  0.53264316  1
  O2-  O302  1  0.87921387  0.72511716  -0.01456601  1
  O2-  O303  1  0.86721792  0.73350667  0.49199812  1
  O2-  O304  1  0.28129377  0.37723152  -0.01620961  1
  O2-  O305  1  0.26798399  0.38419313  0.50352713  1
  O2-  O306  1  0.26779418  0.87752009  -0.02197430  1
  O2-  O307  1  0.28063858  0.88240014  0.48892265  1
  O2-  O308  1  0.76948350  0.38876801  -0.02316863  1
  O2-  O309  1  0.77932617  0.38672693  0.48019388  1
  O2-  O310  1  0.76254330  0.88710383  -0.01569469  1
  O2-  O311  1  0.76322374  0.87165182  0.48193001  1
  O2-  O312  1  0.24125350  0.13080024  0.01154348  1
  O2-  O313  1  0.22373209  0.11172075  0.52282319  1
  O2-  O314  1  0.24041616  0.62780542  0.00373022  1
  O2-  O315  1  0.21847284  0.61413741  0.51869719  1
  O2-  O316  1  0.72224968  0.11726460  0.02261283  1
  O2-  O317  1  0.72950952  0.11506189  0.51313571  1
  O2-  O318  1  0.71834567  0.61761674  0.02159421  1
  O2-  O319  1  0.73507936  0.63114294  0.51475814  1
