# generated using pymatgen
data_Sr64Ca21Nb43O192
_symmetry_space_group_name_H-M   'P 1'
_cell_length_a   16.57661925
_cell_length_b   16.58176179
_cell_length_c   16.70077472
_cell_angle_alpha   90.00514529
_cell_angle_beta   90.00988720
_cell_angle_gamma   90.02618665
_symmetry_Int_Tables_number   1
_chemical_formula_structural   Sr64Ca21Nb43O192
_chemical_formula_sum   'Sr64 Ca21 Nb43 O192'
_cell_volume   4590.53389358
_cell_formula_units_Z   1
loop_
 _symmetry_equiv_pos_site_id
 _symmetry_equiv_pos_as_xyz
  1  'x, y, z'
loop_
 _atom_type_symbol
 _atom_type_oxidation_number
  Sr2+  2.0
  Ca2+  2.0
  Nb5+  5.0
  O2-  -2.0
loop_
 _atom_site_type_symbol
 _atom_site_label
 _atom_site_symmetry_multiplicity
 _atom_site_fract_x
 _atom_site_fract_y
 _atom_site_fract_z
 _atom_site_occupancy
  Sr2+  Sr0  1  0.13334397  0.13718520  0.12519306  1
  Sr2+  Sr1  1  0.12398247  0.12948015  0.62274486  1
  Sr2+  Sr2  1  0.13185904  0.64559570  0.12509911  1
  Sr2+  Sr3  1  0.13942337  0.62924849  0.63312142  1
  Sr2+  Sr4  1  0.63109783  0.12949082  0.11740817  1
  Sr2+  Sr5  1  0.63700681  0.13757854  0.63073756  1
  Sr2+  Sr6  1  0.63305532  0.63695936  0.12547488  1
  Sr2+  Sr7  1  0.62655172  0.63779888  0.62860280  1
  Sr2+  Sr8  1  0.37990018  0.38125914  0.12421909  1
  Sr2+  Sr9  1  0.37608767  0.38342843  0.62821033  1
  Sr2+  Sr10  1  0.38265702  0.89098299  0.13097112  1
  Sr2+  Sr11  1  0.38798608  0.88398404  0.62537121  1
  Sr2+  Sr12  1  0.87819966  0.37907831  0.13038928  1
  Sr2+  Sr13  1  0.88002553  0.37412478  0.61885330  1
  Sr2+  Sr14  1  0.88243009  0.88482495  0.11245839  1
  Sr2+  Sr15  1  0.88152136  0.89144309  0.63145224  1
  Sr2+  Sr16  1  0.10891125  0.36959313  0.37434121  1
  Sr2+  Sr17  1  0.11161733  0.37144406  0.87452278  1
  Sr2+  Sr18  1  0.11472851  0.87109177  0.38047944  1
  Sr2+  Sr19  1  0.11007856  0.86570081  0.87939898  1
  Sr2+  Sr20  1  0.62034665  0.36810218  0.37382692  1
  Sr2+  Sr21  1  0.61711386  0.37238635  0.88151309  1
  Sr2+  Sr22  1  0.62111044  0.86170962  0.37343446  1
  Sr2+  Sr23  1  0.61802589  0.86631481  0.87548179  1
  Sr2+  Sr24  1  0.36322417  0.12069928  0.37518330  1
  Sr2+  Sr25  1  0.37426966  0.12303341  0.87871544  1
  Sr2+  Sr26  1  0.36314635  0.61995656  0.37900870  1
  Sr2+  Sr27  1  0.36638184  0.61679103  0.87185090  1
  Sr2+  Sr28  1  0.86417926  0.11692191  0.37533929  1
  Sr2+  Sr29  1  0.85379285  0.11708609  0.87122869  1
  Sr2+  Sr30  1  0.86174514  0.62345892  0.37533818  1
  Sr2+  Sr31  1  0.89203031  0.62350933  0.87887264  1
  Sr2+  Sr32  1  0.11978159  0.11379802  0.37432789  1
  Sr2+  Sr33  1  0.12300078  0.11244844  0.88243280  1
  Sr2+  Sr34  1  0.11906096  0.63019743  0.36429765  1
  Sr2+  Sr35  1  0.12342905  0.62705554  0.87242451  1
  Sr2+  Sr36  1  0.61434546  0.11440577  0.37759486  1
  Sr2+  Sr37  1  0.61959446  0.10399955  0.87580697  1
  Sr2+  Sr38  1  0.61806961  0.61749802  0.37488700  1
  Sr2+  Sr39  1  0.61573042  0.62329688  0.88086307  1
  Sr2+  Sr40  1  0.37385456  0.37123960  0.37826267  1
  Sr2+  Sr41  1  0.37250576  0.36327238  0.88026672  1
  Sr2+  Sr42  1  0.36950412  0.88769979  0.37116567  1
  Sr2+  Sr43  1  0.37081191  0.87392074  0.86668301  1
  Sr2+  Sr44  1  0.86377933  0.36662329  0.37103520  1
  Sr2+  Sr45  1  0.87088437  0.36804316  0.86975944  1
  Sr2+  Sr46  1  0.87348071  0.86035184  0.38072352  1
  Sr2+  Sr47  1  0.86624594  0.86036172  0.87691794  1
  Sr2+  Sr48  1  0.11164745  0.37670155  0.12641200  1
  Sr2+  Sr49  1  0.12021128  0.37909488  0.62666589  1
  Sr2+  Sr50  1  0.13179198  0.87920751  0.12459668  1
  Sr2+  Sr51  1  0.11827225  0.88334336  0.63054077  1
  Sr2+  Sr52  1  0.63461877  0.38510416  0.12684269  1
  Sr2+  Sr53  1  0.63028774  0.38005438  0.62222879  1
  Sr2+  Sr54  1  0.63739911  0.87950128  0.11813909  1
  Sr2+  Sr55  1  0.63744516  0.87580716  0.63263245  1
  Sr2+  Sr56  1  0.38627845  0.13306123  0.13474374  1
  Sr2+  Sr57  1  0.38426652  0.13520894  0.62773708  1
  Sr2+  Sr58  1  0.37836540  0.63136724  0.12454189  1
  Sr2+  Sr59  1  0.38586082  0.62748359  0.62602326  1
  Sr2+  Sr60  1  0.88992434  0.13518928  0.12146241  1
  Sr2+  Sr61  1  0.88529173  0.12975377  0.62959321  1
  Sr2+  Sr62  1  0.89013697  0.63746892  0.12650364  1
  Sr2+  Sr63  1  0.89009817  0.63610722  0.62790964  1
  Ca2+  Ca64  1  -0.00094094  0.00301361  0.00136314  1
  Ca2+  Ca65  1  0.49803312  -0.00204318  0.00001921  1
  Ca2+  Ca66  1  0.49988557  0.00103779  0.50110029  1
  Ca2+  Ca67  1  0.00072121  0.50121461  0.50007764  1
  Ca2+  Ca68  1  0.00239077  0.50093171  0.00195727  1
  Ca2+  Ca69  1  0.25055915  0.74940735  0.50136412  1
  Ca2+  Ca70  1  0.75090010  0.74769093  0.50299117  1
  Ca2+  Ca71  1  0.25291670  0.74934848  -0.00128124  1
  Ca2+  Ca72  1  0.74902250  0.74466929  -0.00020911  1
  Ca2+  Ca73  1  0.74945162  0.25119959  0.00090297  1
  Ca2+  Ca74  1  0.74645982  0.50102243  0.74793979  1
  Ca2+  Ca75  1  0.00159354  0.24801530  0.25237435  1
  Ca2+  Ca76  1  0.50136118  0.25395807  0.74800737  1
  Ca2+  Ca77  1  0.00212995  0.75218534  0.74816865  1
  Ca2+  Ca78  1  0.75251447  0.00038450  0.24853330  1
  Ca2+  Ca79  1  0.24933630  0.00120178  0.74831872  1
  Ca2+  Ca80  1  0.00283578  0.24840089  0.75262978  1
  Ca2+  Ca81  1  0.74932793  -0.00269804  0.74944066  1
  Ca2+  Ca82  1  0.49911748  0.75037017  0.24985066  1
  Ca2+  Ca83  1  0.50344035  0.25022016  0.24896112  1
  Ca2+  Ca84  1  0.00042149  0.75535058  0.25128660  1
  Nb5+  Nb85  1  0.49931921  0.49950195  0.00847630  1
  Nb5+  Nb86  1  -0.00330303  0.00282974  0.49854793  1
  Nb5+  Nb87  1  0.50123101  0.49860447  0.50369795  1
  Nb5+  Nb88  1  0.25282743  0.25055821  0.00732027  1
  Nb5+  Nb89  1  0.74435827  0.24840347  0.49878287  1
  Nb5+  Nb90  1  0.24658921  0.25197046  0.50452636  1
  Nb5+  Nb91  1  0.49748345  0.75002161  0.75030612  1
  Nb5+  Nb92  1  0.24536249  0.49974408  0.25282330  1
  Nb5+  Nb93  1  0.24624428  0.00805004  0.24825723  1
  Nb5+  Nb94  1  0.74222834  0.50023994  0.25276833  1
  Nb5+  Nb95  1  0.25129779  0.49461962  0.75787356  1
  Nb5+  Nb96  1  -0.00215355  0.00206353  0.24846280  1
  Nb5+  Nb97  1  -0.00205858  0.00552395  0.75937633  1
  Nb5+  Nb98  1  -0.01063060  0.50416269  0.25234670  1
  Nb5+  Nb99  1  -0.00497025  0.50186922  0.74906486  1
  Nb5+  Nb100  1  0.50750284  -0.00281860  0.25168673  1
  Nb5+  Nb101  1  0.50135729  0.00422753  0.74492462  1
  Nb5+  Nb102  1  0.49308894  0.50261845  0.25538483  1
  Nb5+  Nb103  1  0.49716080  0.49802255  0.75733024  1
  Nb5+  Nb104  1  0.25273118  0.25824515  0.25568922  1
  Nb5+  Nb105  1  0.24697694  0.24833912  0.76007540  1
  Nb5+  Nb106  1  0.25387258  0.75947501  0.24957992  1
  Nb5+  Nb107  1  0.25320836  0.75410765  0.74573674  1
  Nb5+  Nb108  1  0.74864395  0.24465594  0.25092534  1
  Nb5+  Nb109  1  0.74893688  0.25458321  0.75435944  1
  Nb5+  Nb110  1  0.75576059  0.75664430  0.24636916  1
  Nb5+  Nb111  1  0.75358369  0.74109271  0.75147532  1
  Nb5+  Nb112  1  -0.00794983  0.24963182  0.49516566  1
  Nb5+  Nb113  1  -0.00359755  0.24877826  0.99457480  1
  Nb5+  Nb114  1  0.00566257  0.74587586  0.50440145  1
  Nb5+  Nb115  1  0.00086223  0.75201689  1.00117206  1
  Nb5+  Nb116  1  0.49505938  0.24794939  0.49890054  1
  Nb5+  Nb117  1  0.50254114  0.25096910  1.00183889  1
  Nb5+  Nb118  1  0.49715839  0.75248318  0.49786039  1
  Nb5+  Nb119  1  0.49100150  0.75323066  1.00227248  1
  Nb5+  Nb120  1  0.25635285  -0.00300612  -0.00146278  1
  Nb5+  Nb121  1  0.24918008  -0.00012257  0.50239151  1
  Nb5+  Nb122  1  0.24791023  0.49485158  0.00617969  1
  Nb5+  Nb123  1  0.24762081  0.49591353  0.50191601  1
  Nb5+  Nb124  1  0.74917199  -0.00122338  0.00045312  1
  Nb5+  Nb125  1  0.74763100  -0.00469471  0.49753288  1
  Nb5+  Nb126  1  0.75343357  0.50112807  -0.00212174  1
  Nb5+  Nb127  1  0.74949942  0.50223513  0.50083370  1
  O2-  O128  1  0.01411362  -0.02693637  0.13787904  1
  O2-  O129  1  0.01575855  -0.01145556  0.61530092  1
  O2-  O130  1  -0.00207755  0.47465108  0.13660242  1
  O2-  O131  1  0.00493336  0.47183025  0.63413360  1
  O2-  O132  1  0.51244435  -0.02828051  0.13473344  1
  O2-  O133  1  0.51750095  -0.03236054  0.63182187  1
  O2-  O134  1  0.50556589  0.48253924  0.12491419  1
  O2-  O135  1  0.50421759  0.48362218  0.61992161  1
  O2-  O136  1  -0.00873098  0.02984319  0.37978343  1
  O2-  O137  1  -0.01600849  0.03566045  0.86850445  1
  O2-  O138  1  -0.00225015  0.53148018  0.36789597  1
  O2-  O139  1  0.00977921  0.52565634  0.86634485  1
  O2-  O140  1  0.47626332  0.02369416  0.36579562  1
  O2-  O141  1  0.47484565  0.01017735  0.86164704  1
  O2-  O142  1  0.48544554  0.51961542  0.37195894  1
  O2-  O143  1  0.48743189  0.51546023  0.87361586  1
  O2-  O144  1  0.27034335  0.23993553  0.12298903  1
  O2-  O145  1  0.26734895  0.23871346  0.61727420  1
  O2-  O146  1  0.26673337  0.72919134  0.13432791  1
  O2-  O147  1  0.26711701  0.71557959  0.63416148  1
  O2-  O148  1  0.76576680  0.22642111  0.13722418  1
  O2-  O149  1  0.76786290  0.22981690  0.61296298  1
  O2-  O150  1  0.76302474  0.71638603  0.13509563  1
  O2-  O151  1  0.75952819  0.71319164  0.63389493  1
  O2-  O152  1  0.23826711  0.26836578  0.37117892  1
  O2-  O153  1  0.23966345  0.26828024  0.87446392  1
  O2-  O154  1  0.22830018  0.75617628  0.36484376  1
  O2-  O155  1  0.23579701  0.76054073  0.86285653  1
  O2-  O156  1  0.73978778  0.27311674  0.37945949  1
  O2-  O157  1  0.73703853  0.28203608  0.86563087  1
  O2-  O158  1  0.73892844  0.77097688  0.36568524  1
  O2-  O159  1  0.73172163  0.76941572  0.86537282  1
  O2-  O160  1  -0.01418832  0.27114219  0.11515240  1
  O2-  O161  1  -0.00823468  0.26605828  0.61230079  1
  O2-  O162  1  -0.02276773  0.76923483  0.11751997  1
  O2-  O163  1  -0.02505940  0.77531236  0.61582421  1
  O2-  O164  1  0.46982303  0.26354027  0.11471836  1
  O2-  O165  1  0.47931795  0.27405480  0.61227784  1
  O2-  O166  1  0.46773902  0.76026755  0.11476344  1
  O2-  O167  1  0.47615309  0.75261944  0.62938651  1
  O2-  O168  1  0.26382617  0.00041251  0.37180798  1
  O2-  O169  1  0.28159023  -0.00106961  0.88542323  1
  O2-  O170  1  0.26835130  0.48563182  0.36883144  1
  O2-  O171  1  0.26545737  0.48369284  0.87437397  1
  O2-  O172  1  0.78533651  -0.01305069  0.38520464  1
  O2-  O173  1  0.77924108  -0.01518759  0.88371487  1
  O2-  O174  1  0.75911257  0.47925255  0.37677177  1
  O2-  O175  1  0.75647278  0.47644083  0.88628417  1
  O2-  O176  1  0.03301600  0.23637281  0.38595052  1
  O2-  O177  1  0.03937739  0.23578284  0.88569512  1
  O2-  O178  1  0.02670886  0.74401011  0.38650582  1
  O2-  O179  1  0.02171664  0.73363420  0.88128687  1
  O2-  O180  1  0.52558878  0.24052077  0.38504826  1
  O2-  O181  1  0.51193265  0.25575753  0.88311098  1
  O2-  O182  1  0.52544030  0.73670091  0.38658747  1
  O2-  O183  1  0.51500094  0.73515852  0.86889757  1
  O2-  O184  1  0.22518025  0.00853776  0.13043941  1
  O2-  O185  1  0.21979826  0.01020184  0.61302349  1
  O2-  O186  1  0.24551070  0.49950877  0.12578219  1
  O2-  O187  1  0.24315038  0.50080161  0.61918627  1
  O2-  O188  1  0.71550171  0.01200510  0.11783403  1
  O2-  O189  1  0.73458213  0.02549335  0.61070381  1
  O2-  O190  1  0.72919516  0.51268291  0.13649645  1
  O2-  O191  1  0.71443120  0.50740599  0.61081429  1
  O2-  O192  1  0.13938861  0.26769837  0.22790093  1
  O2-  O193  1  0.13843622  0.27815920  0.72914353  1
  O2-  O194  1  0.13587252  0.76409248  0.22621841  1
  O2-  O195  1  0.13797683  0.76507850  0.72660603  1
  O2-  O196  1  0.63717259  0.28274674  0.23797411  1
  O2-  O197  1  0.63518493  0.26977621  0.71933793  1
  O2-  O198  1  0.63565702  0.76869430  0.23065763  1
  O2-  O199  1  0.61310496  0.76338120  0.73130533  1
  O2-  O200  1  0.36582430  0.22661380  0.26546383  1
  O2-  O201  1  0.36396191  0.22424489  0.75843835  1
  O2-  O202  1  0.36475208  0.72350019  0.27102817  1
  O2-  O203  1  0.37600669  0.72408741  0.76643230  1
  O2-  O204  1  0.86620141  0.23826316  0.27419630  1
  O2-  O205  1  0.86604338  0.22763022  0.76126394  1
  O2-  O206  1  0.86871366  0.72214370  0.26784367  1
  O2-  O207  1  0.86626635  0.72105273  0.76810110  1
  O2-  O208  1  0.27714440  0.37331668  0.24007044  1
  O2-  O209  1  0.27599372  0.37589536  0.74152013  1
  O2-  O210  1  0.27166240  0.87573456  0.24013306  1
  O2-  O211  1  0.28083791  0.86472708  0.73111678  1
  O2-  O212  1  0.77286491  0.38193372  0.23981239  1
  O2-  O213  1  0.77547495  0.36732355  0.72254926  1
  O2-  O214  1  0.78080204  0.86675662  0.22479105  1
  O2-  O215  1  0.76145834  0.85902267  0.72344807  1
  O2-  O216  1  0.23249606  0.12560666  0.25785663  1
  O2-  O217  1  0.21970605  0.13581273  0.76241939  1
  O2-  O218  1  0.23093836  0.61376301  0.25832005  1
  O2-  O219  1  0.23439463  0.61363444  0.76612889  1
  O2-  O220  1  0.72273592  0.13555443  0.27620507  1
  O2-  O221  1  0.72494775  0.13567751  0.76743998  1
  O2-  O222  1  0.73263310  0.61541296  0.27578442  1
  O2-  O223  1  0.71047671  0.63082170  0.76809328  1
  O2-  O224  1  0.13340182  0.47400045  0.25786097  1
  O2-  O225  1  0.13586358  0.47641246  0.75249764  1
  O2-  O226  1  0.13275391  0.97748130  0.26937844  1
  O2-  O227  1  0.11532583  0.97590448  0.77004875  1
  O2-  O228  1  0.62418231  0.48066478  0.26676717  1
  O2-  O229  1  0.60904151  0.47155619  0.76074712  1
  O2-  O230  1  0.61778434  0.97894532  0.27875302  1
  O2-  O231  1  0.61451443  0.97414414  0.77071199  1
  O2-  O232  1  0.36529393  0.01500454  0.23385609  1
  O2-  O233  1  0.38333635  0.01462103  0.71828673  1
  O2-  O234  1  0.37626296  0.51913224  0.23689016  1
  O2-  O235  1  0.37041821  0.51924852  0.73419696  1
  O2-  O236  1  0.88728126  0.03439390  0.23558007  1
  O2-  O237  1  0.88317724  0.01799720  0.72603762  1
  O2-  O238  1  0.87284716  0.52119999  0.24517491  1
  O2-  O239  1  0.88231746  0.52709093  0.74522583  1
  O2-  O240  1  0.48060196  0.38597579  0.26395345  1
  O2-  O241  1  0.46434094  0.38703154  0.75839193  1
  O2-  O242  1  0.47284872  0.88328943  0.26895168  1
  O2-  O243  1  0.47573471  0.86449132  0.76128897  1
  O2-  O244  1  0.98760680  0.38645073  0.27734992  1
  O2-  O245  1  0.98603054  0.38466395  0.77645481  1
  O2-  O246  1  0.98584956  0.89035635  0.28446885  1
  O2-  O247  1  0.97628701  0.88630897  0.76555971  1
  O2-  O248  1  0.03752369  0.11450812  0.23820049  1
  O2-  O249  1  0.02154979  0.11670563  0.72369783  1
  O2-  O250  1  0.02726970  0.61434274  0.22873537  1
  O2-  O251  1  0.02635018  0.61584049  0.72562190  1
  O2-  O252  1  0.51786881  0.11440167  0.22415645  1
  O2-  O253  1  0.52282106  0.11691777  0.73044062  1
  O2-  O254  1  0.52362467  0.61340105  0.23163585  1
  O2-  O255  1  0.50986031  0.61886909  0.73452186  1
  O2-  O256  1  0.13821571  0.46297696  -0.00385660  1
  O2-  O257  1  0.13808028  0.46370876  0.48909076  1
  O2-  O258  1  0.13858073  0.98842162  -0.01906399  1
  O2-  O259  1  0.12621033  0.99504771  0.47734994  1
  O2-  O260  1  0.61428253  0.47584850  -0.00957901  1
  O2-  O261  1  0.61666207  0.47992065  0.47847404  1
  O2-  O262  1  0.63016071  0.97855194  -0.02644172  1
  O2-  O263  1  0.63519466  0.98597546  0.46986779  1
  O2-  O264  1  0.36498550  0.02988284  0.03156531  1
  O2-  O265  1  0.36132312  0.03200246  0.51439391  1
  O2-  O266  1  0.37545515  0.51566593  0.01163745  1
  O2-  O267  1  0.37722137  0.50933826  0.50474559  1
  O2-  O268  1  0.86450058  0.02222299  0.03059915  1
  O2-  O269  1  0.88073580  0.02284273  0.51584223  1
  O2-  O270  1  0.86373354  0.53025832  0.01053244  1
  O2-  O271  1  0.86223203  0.51746628  0.52031424  1
  O2-  O272  1  0.47549484  0.38171344  -0.01066368  1
  O2-  O273  1  0.48787005  0.37750548  0.47958973  1
  O2-  O274  1  0.47082279  0.86356668  -0.02271529  1
  O2-  O275  1  0.47045930  0.86446326  0.48628072  1
  O2-  O276  1  0.98289285  0.36685258  -0.02405593  1
  O2-  O277  1  0.98062242  0.36578472  0.47704190  1
  O2-  O278  1  0.98056934  0.87013174  -0.02401904  1
  O2-  O279  1  0.98602944  0.88763723  0.48088091  1
  O2-  O280  1  0.02399565  0.13640965  0.02615812  1
  O2-  O281  1  0.01712105  0.12889360  0.51557201  1
  O2-  O282  1  0.02163195  0.63427340  0.02228139  1
  O2-  O283  1  0.02648581  0.63479467  0.52811005  1
  O2-  O284  1  0.51953048  0.13595835  0.00717827  1
  O2-  O285  1  0.51810756  0.13685733  0.52380858  1
  O2-  O286  1  0.51617639  0.61678135  0.01468755  1
  O2-  O287  1  0.51950995  0.61534211  0.51281044  1
  O2-  O288  1  0.13772182  0.27242208  0.01871734  1
  O2-  O289  1  0.13398681  0.27165566  0.51487832  1
  O2-  O290  1  0.11959529  0.77522086  0.01752491  1
  O2-  O291  1  0.11862919  0.78272282  0.52167356  1
  O2-  O292  1  0.61391236  0.27840618  0.02097445  1
  O2-  O293  1  0.62940836  0.26552346  0.51646797  1
  O2-  O294  1  0.60880955  0.76195553  0.01534670  1
  O2-  O295  1  0.61199392  0.76500353  0.52843114  1
  O2-  O296  1  0.37214724  0.23595585  -0.02108307  1
  O2-  O297  1  0.37863523  0.23566563  0.47738183  1
  O2-  O298  1  0.38313803  0.71225330  -0.02144077  1
  O2-  O299  1  0.38550297  0.71404434  0.49076218  1
  O2-  O300  1  0.88473585  0.22692153  -0.02652552  1
  O2-  O301  1  0.87697271  0.23188970  0.48076991  1
  O2-  O302  1  0.88270949  0.72920795  -0.01985855  1
  O2-  O303  1  0.88735745  0.73341357  0.47904661  1
  O2-  O304  1  0.28010440  0.37230318  0.00745801  1
  O2-  O305  1  0.27970907  0.37003512  0.50251701  1
  O2-  O306  1  0.27581735  0.88527665  0.01647011  1
  O2-  O307  1  0.27454007  0.88783944  0.50349202  1
  O2-  O308  1  0.76198550  0.38742345  0.03310265  1
  O2-  O309  1  0.76529805  0.37168504  0.51211860  1
  O2-  O310  1  0.76417312  0.88040288  0.02081444  1
  O2-  O311  1  0.76619290  0.88481463  0.52414597  1
  O2-  O312  1  0.23451143  0.13389548  -0.01066817  1
  O2-  O313  1  0.23478583  0.13622180  0.48081882  1
  O2-  O314  1  0.22835784  0.60755032  -0.01172243  1
  O2-  O315  1  0.23049948  0.60747410  0.48053418  1
  O2-  O316  1  0.72634521  0.11857521  -0.02085233  1
  O2-  O317  1  0.73541957  0.13163248  0.47389588  1
  O2-  O318  1  0.71128039  0.60982200  -0.00553454  1
  O2-  O319  1  0.72949247  0.61272890  0.47415091  1
