# generated using pymatgen
data_Sr64Ca21Nb43O192
_symmetry_space_group_name_H-M   'P 1'
_cell_length_a   16.55003080
_cell_length_b   16.58121011
_cell_length_c   16.72334316
_cell_angle_alpha   90.05425427
_cell_angle_beta   89.99054884
_cell_angle_gamma   89.98125122
_symmetry_Int_Tables_number   1
_chemical_formula_structural   Sr64Ca21Nb43O192
_chemical_formula_sum   'Sr64 Ca21 Nb43 O192'
_cell_volume   4589.20973692
_cell_formula_units_Z   1
loop_
 _symmetry_equiv_pos_site_id
 _symmetry_equiv_pos_as_xyz
  1  'x, y, z'
loop_
 _atom_type_symbol
 _atom_type_oxidation_number
  Sr2+  2.0
  Ca2+  2.0
  Nb5+  5.0
  O2-  -2.0
loop_
 _atom_site_type_symbol
 _atom_site_label
 _atom_site_symmetry_multiplicity
 _atom_site_fract_x
 _atom_site_fract_y
 _atom_site_fract_z
 _atom_site_occupancy
  Sr2+  Sr0  1  0.13433445  0.11750283  0.12156932  1
  Sr2+  Sr1  1  0.12927446  0.11601435  0.62068179  1
  Sr2+  Sr2  1  0.12335318  0.61875740  0.13474754  1
  Sr2+  Sr3  1  0.13220309  0.61440931  0.61664087  1
  Sr2+  Sr4  1  0.63664562  0.10415566  0.13209233  1
  Sr2+  Sr5  1  0.63129554  0.12246114  0.62173468  1
  Sr2+  Sr6  1  0.62644821  0.61738492  0.12599685  1
  Sr2+  Sr7  1  0.62705231  0.62309379  0.63318455  1
  Sr2+  Sr8  1  0.38171948  0.36466039  0.12098306  1
  Sr2+  Sr9  1  0.38226059  0.36291554  0.62951314  1
  Sr2+  Sr10  1  0.37698281  0.86574678  0.12656042  1
  Sr2+  Sr11  1  0.38258892  0.86719103  0.62965295  1
  Sr2+  Sr12  1  0.88297769  0.35827519  0.12598121  1
  Sr2+  Sr13  1  0.88546552  0.36982135  0.62641508  1
  Sr2+  Sr14  1  0.87727074  0.87209371  0.11779084  1
  Sr2+  Sr15  1  0.88187472  0.87896445  0.62771502  1
  Sr2+  Sr16  1  0.14014902  0.37619562  0.37325066  1
  Sr2+  Sr17  1  0.12676378  0.37837229  0.87486594  1
  Sr2+  Sr18  1  0.11570259  0.88118361  0.37453966  1
  Sr2+  Sr19  1  0.11647462  0.88803527  0.87719184  1
  Sr2+  Sr20  1  0.62504974  0.37915368  0.38010427  1
  Sr2+  Sr21  1  0.61906190  0.38603321  0.87446906  1
  Sr2+  Sr22  1  0.61351039  0.88079990  0.37301194  1
  Sr2+  Sr23  1  0.61746044  0.87438311  0.87957368  1
  Sr2+  Sr24  1  0.36112197  0.13285322  0.36974548  1
  Sr2+  Sr25  1  0.35603022  0.13224160  0.87723650  1
  Sr2+  Sr26  1  0.36050552  0.62853077  0.37293470  1
  Sr2+  Sr27  1  0.36815802  0.62665712  0.87462037  1
  Sr2+  Sr28  1  0.86130947  0.13172338  0.37013811  1
  Sr2+  Sr29  1  0.87086827  0.12906394  0.88420742  1
  Sr2+  Sr30  1  0.87702891  0.62614919  0.37046970  1
  Sr2+  Sr31  1  0.87419909  0.62350934  0.87471662  1
  Sr2+  Sr32  1  0.11762209  0.13544498  0.37242877  1
  Sr2+  Sr33  1  0.11353869  0.13956006  0.88239650  1
  Sr2+  Sr34  1  0.11441891  0.61740520  0.37118895  1
  Sr2+  Sr35  1  0.12282305  0.62449835  0.86439489  1
  Sr2+  Sr36  1  0.61540058  0.13911871  0.37355995  1
  Sr2+  Sr37  1  0.61671170  0.14231980  0.87269286  1
  Sr2+  Sr38  1  0.61862256  0.63530640  0.37375993  1
  Sr2+  Sr39  1  0.61959111  0.62502050  0.87654703  1
  Sr2+  Sr40  1  0.37083713  0.36932406  0.36934341  1
  Sr2+  Sr41  1  0.36946911  0.37732633  0.88046159  1
  Sr2+  Sr42  1  0.37511826  0.88413060  0.37516779  1
  Sr2+  Sr43  1  0.36898602  0.89070303  0.87531270  1
  Sr2+  Sr44  1  0.86380234  0.37632930  0.37066465  1
  Sr2+  Sr45  1  0.87193984  0.37005492  0.87618071  1
  Sr2+  Sr46  1  0.87331255  0.88417804  0.37915774  1
  Sr2+  Sr47  1  0.86540086  0.88552775  0.88127910  1
  Sr2+  Sr48  1  0.12883351  0.36556372  0.12944982  1
  Sr2+  Sr49  1  0.13706034  0.37007365  0.62553255  1
  Sr2+  Sr50  1  0.14051613  0.87088880  0.12324530  1
  Sr2+  Sr51  1  0.13703254  0.86989402  0.62142937  1
  Sr2+  Sr52  1  0.62876693  0.38058667  0.11699220  1
  Sr2+  Sr53  1  0.63631185  0.37263262  0.62819052  1
  Sr2+  Sr54  1  0.63802069  0.86786027  0.12986540  1
  Sr2+  Sr55  1  0.63683239  0.87052883  0.62491246  1
  Sr2+  Sr56  1  0.37274627  0.12029065  0.11783945  1
  Sr2+  Sr57  1  0.38611703  0.11891694  0.62910282  1
  Sr2+  Sr58  1  0.36982962  0.62190352  0.12612259  1
  Sr2+  Sr59  1  0.37012146  0.62211509  0.62813881  1
  Sr2+  Sr60  1  0.88872123  0.11812051  0.12383807  1
  Sr2+  Sr61  1  0.89017163  0.12156965  0.62890015  1
  Sr2+  Sr62  1  0.88245260  0.62416837  0.12473711  1
  Sr2+  Sr63  1  0.89333945  0.62314723  0.62419779  1
  Ca2+  Ca64  1  0.50083732  -0.00004416  0.00022262  1
  Ca2+  Ca65  1  -0.00147276  0.50077226  0.00109865  1
  Ca2+  Ca66  1  0.00035354  0.49397247  0.49936187  1
  Ca2+  Ca67  1  -0.00000196  -0.00109516  0.00354227  1
  Ca2+  Ca68  1  0.49943421  0.50245087  0.50093931  1
  Ca2+  Ca69  1  0.25119974  0.74996365  0.49901268  1
  Ca2+  Ca70  1  0.25258862  0.74926990  -0.00393841  1
  Ca2+  Ca71  1  0.25098022  0.24759371  0.50198595  1
  Ca2+  Ca72  1  0.74598230  0.24901625  0.00092058  1
  Ca2+  Ca73  1  0.24808894  0.25343350  -0.00144859  1
  Ca2+  Ca74  1  0.50102429  0.24998928  0.24568493  1
  Ca2+  Ca75  1  0.25279088  0.49910743  0.24789148  1
  Ca2+  Ca76  1  0.24932255  -0.00256044  0.25336880  1
  Ca2+  Ca77  1  0.75263706  -0.00405298  0.25364143  1
  Ca2+  Ca78  1  0.75142610  0.49925167  0.24699516  1
  Ca2+  Ca79  1  0.49936552  0.25242408  0.75139469  1
  Ca2+  Ca80  1  -0.00142844  0.24758257  0.25198252  1
  Ca2+  Ca81  1  -0.00006462  0.25166564  0.74956635  1
  Ca2+  Ca82  1  -0.00072971  0.75301259  0.75020442  1
  Ca2+  Ca83  1  0.24623274  -0.00014555  0.74850542  1
  Ca2+  Ca84  1  0.74907476  -0.00079851  0.75113483  1
  Nb5+  Nb85  1  0.49705520  0.50324701  -0.00218495  1
  Nb5+  Nb86  1  0.00577675  0.00064080  0.50174424  1
  Nb5+  Nb87  1  0.50748537  0.00125973  0.50253682  1
  Nb5+  Nb88  1  0.75176822  0.25530693  0.50068224  1
  Nb5+  Nb89  1  0.74990760  0.74555016  0.00575475  1
  Nb5+  Nb90  1  0.75146480  0.75253946  0.50522499  1
  Nb5+  Nb91  1  0.25646796  0.49986236  0.74923051  1
  Nb5+  Nb92  1  0.75558022  0.50269643  0.74721929  1
  Nb5+  Nb93  1  0.50018537  0.74965848  0.75668362  1
  Nb5+  Nb94  1  -0.00462378  0.75314348  0.24980260  1
  Nb5+  Nb95  1  0.49652993  0.74857642  0.25417120  1
  Nb5+  Nb96  1  0.00129659  -0.00131650  0.25006982  1
  Nb5+  Nb97  1  -0.00004138  0.00292080  0.75539554  1
  Nb5+  Nb98  1  -0.00388494  0.49387298  0.25346546  1
  Nb5+  Nb99  1  0.00839928  0.50026608  0.74944482  1
  Nb5+  Nb100  1  0.49879343  0.00146397  0.24684044  1
  Nb5+  Nb101  1  0.50614869  0.00453591  0.75238092  1
  Nb5+  Nb102  1  0.49989044  0.50017955  0.25329286  1
  Nb5+  Nb103  1  0.50112199  0.49960526  0.75092339  1
  Nb5+  Nb104  1  0.24891659  0.24811825  0.24647549  1
  Nb5+  Nb105  1  0.24479440  0.24582555  0.74944408  1
  Nb5+  Nb106  1  0.24208800  0.75052453  0.25279625  1
  Nb5+  Nb107  1  0.24878870  0.75296205  0.75218965  1
  Nb5+  Nb108  1  0.74248042  0.24730104  0.24349318  1
  Nb5+  Nb109  1  0.74811211  0.24626274  0.74976687  1
  Nb5+  Nb110  1  0.74851563  0.75066514  0.25899917  1
  Nb5+  Nb111  1  0.75221105  0.74736074  0.75636899  1
  Nb5+  Nb112  1  -0.00099653  0.25327785  0.49492562  1
  Nb5+  Nb113  1  -0.00292824  0.25262911  1.00261118  1
  Nb5+  Nb114  1  0.00321043  0.75130009  0.49952972  1
  Nb5+  Nb115  1  0.00373414  0.74904587  0.99512107  1
  Nb5+  Nb116  1  0.49717146  0.25396351  0.49916035  1
  Nb5+  Nb117  1  0.50365898  0.24287153  1.00374883  1
  Nb5+  Nb118  1  0.50451011  0.75001267  0.50719422  1
  Nb5+  Nb119  1  0.50167523  0.74978327  1.00755677  1
  Nb5+  Nb120  1  0.24984070  -0.00136615  -0.00110587  1
  Nb5+  Nb121  1  0.26074126  -0.00028713  0.50019099  1
  Nb5+  Nb122  1  0.24504150  0.50319018  0.00001832  1
  Nb5+  Nb123  1  0.25487332  0.49831524  0.49668709  1
  Nb5+  Nb124  1  0.74531403  0.00288583  -0.00251263  1
  Nb5+  Nb125  1  0.75462820  0.00670079  0.49805574  1
  Nb5+  Nb126  1  0.75235296  0.50306237  -0.00100925  1
  Nb5+  Nb127  1  0.74763923  0.50812846  0.49925717  1
  O2-  O128  1  -0.02490351  -0.01833523  0.13921471  1
  O2-  O129  1  -0.02244420  -0.00987696  0.61788164  1
  O2-  O130  1  0.01403805  0.48976859  0.13707121  1
  O2-  O131  1  -0.00216371  0.47586307  0.63454474  1
  O2-  O132  1  0.47095424  -0.01395104  0.13669361  1
  O2-  O133  1  0.47877250  -0.01618801  0.61805038  1
  O2-  O134  1  0.49624495  0.49584754  0.11565632  1
  O2-  O135  1  0.49025911  0.48429096  0.63728522  1
  O2-  O136  1  0.02350293  0.00925482  0.38329576  1
  O2-  O137  1  0.02322103  0.01489777  0.86775562  1
  O2-  O138  1  -0.01151830  0.52604850  0.36969849  1
  O2-  O139  1  0.00034916  0.53103839  0.86479072  1
  O2-  O140  1  0.52191119  0.00604211  0.38408501  1
  O2-  O141  1  0.53317206  0.01112944  0.86396345  1
  O2-  O142  1  0.51474200  0.52185848  0.36459467  1
  O2-  O143  1  0.50210763  0.52732546  0.87423130  1
  O2-  O144  1  0.22502363  0.23602921  0.13041082  1
  O2-  O145  1  0.21812967  0.23806715  0.63313031  1
  O2-  O146  1  0.23806984  0.72388356  0.13544812  1
  O2-  O147  1  0.23759133  0.72377776  0.63723216  1
  O2-  O148  1  0.71022469  0.23823375  0.13355504  1
  O2-  O149  1  0.72509837  0.24180934  0.61934672  1
  O2-  O150  1  0.73847244  0.72729501  0.12022558  1
  O2-  O151  1  0.73514600  0.73128411  0.61801894  1
  O2-  O152  1  0.26764255  0.26772417  0.36738637  1
  O2-  O153  1  0.26785507  0.27341375  0.86383943  1
  O2-  O154  1  0.27968742  0.76626370  0.36477138  1
  O2-  O155  1  0.29231504  0.75974628  0.86146787  1
  O2-  O156  1  0.76798297  0.26119845  0.38350780  1
  O2-  O157  1  0.77266869  0.25470825  0.86258668  1
  O2-  O158  1  0.76368221  0.76481671  0.37267708  1
  O2-  O159  1  0.75762629  0.76208785  0.87102009  1
  O2-  O160  1  0.01045839  0.27642829  0.11999605  1
  O2-  O161  1  0.00536574  0.26714468  0.61175229  1
  O2-  O162  1  0.00362177  0.77611034  0.13543679  1
  O2-  O163  1  -0.00777597  0.77270443  0.61370567  1
  O2-  O164  1  0.51491913  0.28856920  0.11319801  1
  O2-  O165  1  0.52312483  0.26970335  0.61404109  1
  O2-  O166  1  0.51690662  0.76818323  0.12334109  1
  O2-  O167  1  0.52239000  0.76789434  0.62095776  1
  O2-  O168  1  0.24135313  -0.03806584  0.38984008  1
  O2-  O169  1  0.23813185  -0.03064187  0.88157687  1
  O2-  O170  1  0.26227578  0.47462071  0.38386833  1
  O2-  O171  1  0.25194967  0.47879186  0.86751571  1
  O2-  O172  1  0.73643202  -0.03455200  0.38988251  1
  O2-  O173  1  0.73351789  -0.03400985  0.88388501  1
  O2-  O174  1  0.75315531  0.48324383  0.38613084  1
  O2-  O175  1  0.74855031  0.49139419  0.86774147  1
  O2-  O176  1  -0.02077058  0.21720534  0.38423798  1
  O2-  O177  1  -0.02100310  0.22957081  0.88398359  1
  O2-  O178  1  -0.01106808  0.73606556  0.37795996  1
  O2-  O179  1  -0.00747642  0.72088621  0.88554502  1
  O2-  O180  1  0.48545098  0.22208305  0.38536458  1
  O2-  O181  1  0.48209995  0.22247947  0.88531088  1
  O2-  O182  1  0.49296293  0.73451163  0.37132711  1
  O2-  O183  1  0.49569901  0.72893240  0.87038620  1
  O2-  O184  1  0.26021754  0.02387689  0.11745679  1
  O2-  O185  1  0.25972689  0.03458154  0.61516061  1
  O2-  O186  1  0.24659824  0.52908306  0.11243069  1
  O2-  O187  1  0.25161067  0.52304819  0.63166088  1
  O2-  O188  1  0.76937351  0.01719005  0.11576801  1
  O2-  O189  1  0.76823564  0.00923351  0.61332965  1
  O2-  O190  1  0.74289550  0.52186468  0.11120236  1
  O2-  O191  1  0.73852374  0.51812762  0.63014435  1
  O2-  O192  1  0.13133726  0.27751202  0.26561473  1
  O2-  O193  1  0.13200126  0.28301726  0.76484512  1
  O2-  O194  1  0.12517305  0.76813805  0.26525147  1
  O2-  O195  1  0.13674747  0.76409862  0.78020731  1
  O2-  O196  1  0.63182682  0.27080203  0.28256470  1
  O2-  O197  1  0.63558157  0.28494109  0.76199467  1
  O2-  O198  1  0.62854123  0.76907887  0.26207504  1
  O2-  O199  1  0.62320253  0.76112736  0.75618250  1
  O2-  O200  1  0.36727947  0.22115972  0.23172585  1
  O2-  O201  1  0.36367349  0.23948574  0.72378667  1
  O2-  O202  1  0.38408324  0.73307427  0.23218520  1
  O2-  O203  1  0.38738173  0.73736066  0.72487978  1
  O2-  O204  1  0.86079637  0.22186481  0.23189630  1
  O2-  O205  1  0.86158906  0.24369138  0.71950484  1
  O2-  O206  1  0.87598231  0.73180268  0.24409126  1
  O2-  O207  1  0.86247594  0.71877214  0.74206847  1
  O2-  O208  1  0.27463767  0.36735595  0.22724360  1
  O2-  O209  1  0.26707080  0.38466239  0.72604476  1
  O2-  O210  1  0.26806876  0.86285732  0.22480880  1
  O2-  O211  1  0.26765139  0.86391395  0.72635716  1
  O2-  O212  1  0.77212888  0.36382210  0.23769031  1
  O2-  O213  1  0.76619801  0.38622341  0.73267321  1
  O2-  O214  1  0.76671000  0.86038688  0.22096956  1
  O2-  O215  1  0.76297108  0.85883569  0.72688641  1
  O2-  O216  1  0.22610707  0.13150683  0.26975545  1
  O2-  O217  1  0.22900039  0.13492040  0.77630727  1
  O2-  O218  1  0.23651822  0.63359718  0.27666387  1
  O2-  O219  1  0.24209852  0.62225351  0.76962303  1
  O2-  O220  1  0.72683136  0.13018129  0.27281113  1
  O2-  O221  1  0.71791203  0.13491474  0.75517300  1
  O2-  O222  1  0.73130781  0.63547075  0.26415040  1
  O2-  O223  1  0.72319480  0.62543754  0.75987482  1
  O2-  O224  1  0.11615759  0.48973764  0.26939061  1
  O2-  O225  1  0.12748360  0.48819955  0.75125387  1
  O2-  O226  1  0.11428253  0.96383352  0.24321214  1
  O2-  O227  1  0.11170154  0.96775689  0.72895303  1
  O2-  O228  1  0.61552816  0.48445745  0.23097049  1
  O2-  O229  1  0.62055834  0.49055763  0.75015243  1
  O2-  O230  1  0.61489897  0.97072544  0.23870114  1
  O2-  O231  1  0.61565781  0.97548967  0.71991071  1
  O2-  O232  1  0.38686485  0.00948423  0.28367915  1
  O2-  O233  1  0.38751422  0.01103471  0.76503010  1
  O2-  O234  1  0.38760205  0.53683289  0.24710139  1
  O2-  O235  1  0.37526187  0.52098830  0.75596724  1
  O2-  O236  1  0.88664584  0.00750300  0.28405586  1
  O2-  O237  1  0.88178076  0.03276204  0.76465581  1
  O2-  O238  1  0.88335211  0.53351464  0.24247168  1
  O2-  O239  1  0.86911278  0.52638486  0.74638362  1
  O2-  O240  1  0.47426287  0.38829745  0.26221305  1
  O2-  O241  1  0.48307424  0.38851971  0.77787006  1
  O2-  O242  1  0.48604712  0.86760594  0.26552805  1
  O2-  O243  1  0.48716464  0.86828344  0.76533763  1
  O2-  O244  1  0.96836225  0.38332799  0.26558903  1
  O2-  O245  1  0.97662171  0.38920091  0.77376998  1
  O2-  O246  1  0.98381906  0.86829349  0.27840612  1
  O2-  O247  1  0.96469012  0.88586416  0.76511340  1
  O2-  O248  1  0.02380740  0.11114019  0.23530931  1
  O2-  O249  1  0.02321355  0.11661948  0.72634832  1
  O2-  O250  1  0.02068601  0.63758683  0.24169005  1
  O2-  O251  1  0.01773081  0.61804557  0.72081924  1
  O2-  O252  1  0.52558453  0.11305672  0.23774087  1
  O2-  O253  1  0.51929266  0.11659446  0.72648606  1
  O2-  O254  1  0.52673944  0.63490597  0.23514129  1
  O2-  O255  1  0.51332399  0.62771454  0.73332726  1
  O2-  O256  1  0.13355511  0.47866376  -0.00579132  1
  O2-  O257  1  0.13594586  0.47256946  0.50625224  1
  O2-  O258  1  0.13223377  0.97419687  0.01637200  1
  O2-  O259  1  0.11996967  0.98220351  0.51978857  1
  O2-  O260  1  0.62323537  0.49135682  -0.00731686  1
  O2-  O261  1  0.63532076  0.47141919  0.50946716  1
  O2-  O262  1  0.63329333  0.97438582  0.02765858  1
  O2-  O263  1  0.62522357  0.98514727  0.52080116  1
  O2-  O264  1  0.36926120  0.02273165  -0.02157886  1
  O2-  O265  1  0.37871037  0.01200642  0.48427284  1
  O2-  O266  1  0.38120497  0.52923172  -0.00617781  1
  O2-  O267  1  0.36804899  0.53915092  0.50103621  1
  O2-  O268  1  0.86443760  0.00919693  -0.02108170  1
  O2-  O269  1  0.87176641  0.01459608  0.47986456  1
  O2-  O270  1  0.86404254  0.53133265  -0.00581250  1
  O2-  O271  1  0.86223360  0.51468217  0.51850755  1
  O2-  O272  1  0.48540737  0.38942253  -0.02211841  1
  O2-  O273  1  0.48409909  0.36607787  0.47433448  1
  O2-  O274  1  0.48821336  0.86103133  -0.02458857  1
  O2-  O275  1  0.49550995  0.87254370  0.48383518  1
  O2-  O276  1  0.96554825  0.36925870  -0.01246306  1
  O2-  O277  1  0.96471692  0.36176069  0.47828347  1
  O2-  O278  1  0.96834222  0.86146843  -0.01087416  1
  O2-  O279  1  0.97773309  0.87925965  0.48555817  1
  O2-  O280  1  0.01873349  0.13330478  0.02327173  1
  O2-  O281  1  0.01178255  0.11914153  0.51738546  1
  O2-  O282  1  0.01075201  0.63946187  0.03738186  1
  O2-  O283  1  0.01543282  0.63646083  0.51603371  1
  O2-  O284  1  0.52660192  0.13433808  0.03156095  1
  O2-  O285  1  0.51756650  0.11743481  0.51861684  1
  O2-  O286  1  0.52713411  0.62965429  0.00892461  1
  O2-  O287  1  0.53492281  0.63822093  0.50971728  1
  O2-  O288  1  0.11341618  0.27505516  -0.01859384  1
  O2-  O289  1  0.11258358  0.26537801  0.47752135  1
  O2-  O290  1  0.11604826  0.77527664  -0.00904920  1
  O2-  O291  1  0.11501704  0.77701804  0.49099720  1
  O2-  O292  1  0.61424784  0.27469754  -0.02884895  1
  O2-  O293  1  0.62831321  0.25854158  0.48018829  1
  O2-  O294  1  0.62824396  0.76377257  -0.01198864  1
  O2-  O295  1  0.63343528  0.76783206  0.47843571  1
  O2-  O296  1  0.38476745  0.23925642  0.01965957  1
  O2-  O297  1  0.38643233  0.22962743  0.52519546  1
  O2-  O298  1  0.38943330  0.72769809  0.01821908  1
  O2-  O299  1  0.39094917  0.73609997  0.51650800  1
  O2-  O300  1  0.87692825  0.22739239  0.02427325  1
  O2-  O301  1  0.86458952  0.22198191  0.51575385  1
  O2-  O302  1  0.86731759  0.72744948  0.00610153  1
  O2-  O303  1  0.86721920  0.72765283  0.49999433  1
  O2-  O304  1  0.28154492  0.39136230  0.01039441  1
  O2-  O305  1  0.27893603  0.38520872  0.52738731  1
  O2-  O306  1  0.27712031  0.88135843  0.02154308  1
  O2-  O307  1  0.26544001  0.88467886  0.53657674  1
  O2-  O308  1  0.76512124  0.38798008  0.00789406  1
  O2-  O309  1  0.76779704  0.36930002  0.51690259  1
  O2-  O310  1  0.76462538  0.86305155  0.01553648  1
  O2-  O311  1  0.76756259  0.86678851  0.52036490  1
  O2-  O312  1  0.22827510  0.11705048  -0.02379040  1
  O2-  O313  1  0.23244018  0.11163677  0.46970472  1
  O2-  O314  1  0.23785146  0.61582864  -0.03730354  1
  O2-  O315  1  0.22035769  0.61539980  0.48246292  1
  O2-  O316  1  0.72311974  0.11377206  -0.02485454  1
  O2-  O317  1  0.73013312  0.11941820  0.48326625  1
  O2-  O318  1  0.72978600  0.62876340  -0.02416498  1
  O2-  O319  1  0.72920396  0.62356951  0.48345534  1
