# generated using pymatgen
data_Sr64Ca21Nb43O192
_symmetry_space_group_name_H-M   'P 1'
_cell_length_a   16.65001679
_cell_length_b   16.58337036
_cell_length_c   16.75164073
_cell_angle_alpha   89.99045595
_cell_angle_beta   89.91154890
_cell_angle_gamma   89.96812454
_symmetry_Int_Tables_number   1
_chemical_formula_structural   Sr64Ca21Nb43O192
_chemical_formula_sum   'Sr64 Ca21 Nb43 O192'
_cell_volume   4625.34609951
_cell_formula_units_Z   1
loop_
 _symmetry_equiv_pos_site_id
 _symmetry_equiv_pos_as_xyz
  1  'x, y, z'
loop_
 _atom_type_symbol
 _atom_type_oxidation_number
  Sr2+  2.0
  Ca2+  2.0
  Nb5+  5.0
  O2-  -2.0
loop_
 _atom_site_type_symbol
 _atom_site_label
 _atom_site_symmetry_multiplicity
 _atom_site_fract_x
 _atom_site_fract_y
 _atom_site_fract_z
 _atom_site_occupancy
  Sr2+  Sr0  1  0.13206640  0.13701938  0.12199877  1
  Sr2+  Sr1  1  0.13043954  0.13545708  0.62679679  1
  Sr2+  Sr2  1  0.13077388  0.63412999  0.12145337  1
  Sr2+  Sr3  1  0.13240322  0.62765323  0.62629209  1
  Sr2+  Sr4  1  0.61909527  0.13032642  0.11164622  1
  Sr2+  Sr5  1  0.63127547  0.13461343  0.62528423  1
  Sr2+  Sr6  1  0.63329150  0.61766036  0.11097541  1
  Sr2+  Sr7  1  0.63290860  0.62687820  0.62797775  1
  Sr2+  Sr8  1  0.37493289  0.35969202  0.13242076  1
  Sr2+  Sr9  1  0.38173505  0.37008429  0.62426483  1
  Sr2+  Sr10  1  0.37752659  0.87461846  0.12286133  1
  Sr2+  Sr11  1  0.38126040  0.88334782  0.62186430  1
  Sr2+  Sr12  1  0.87784117  0.37587338  0.13195052  1
  Sr2+  Sr13  1  0.87720411  0.38336799  0.62473803  1
  Sr2+  Sr14  1  0.88427499  0.88630967  0.11982745  1
  Sr2+  Sr15  1  0.88329134  0.88692095  0.62718184  1
  Sr2+  Sr16  1  0.11401625  0.37316379  0.37410056  1
  Sr2+  Sr17  1  0.10794607  0.37405488  0.87510292  1
  Sr2+  Sr18  1  0.10886165  0.86880325  0.36871029  1
  Sr2+  Sr19  1  0.10501334  0.86541417  0.87429242  1
  Sr2+  Sr20  1  0.62603806  0.37794610  0.36877934  1
  Sr2+  Sr21  1  0.61723248  0.37087512  0.87478334  1
  Sr2+  Sr22  1  0.63139844  0.87460119  0.37537606  1
  Sr2+  Sr23  1  0.61953162  0.87071846  0.87649114  1
  Sr2+  Sr24  1  0.36921268  0.11671980  0.36940200  1
  Sr2+  Sr25  1  0.36635211  0.11955460  0.86486048  1
  Sr2+  Sr26  1  0.36956566  0.61904447  0.37321556  1
  Sr2+  Sr27  1  0.36338837  0.62345179  0.87631455  1
  Sr2+  Sr28  1  0.87966987  0.12896992  0.37709519  1
  Sr2+  Sr29  1  0.86904095  0.11447934  0.87254400  1
  Sr2+  Sr30  1  0.88091381  0.62115698  0.37291221  1
  Sr2+  Sr31  1  0.88753523  0.61818021  0.87527395  1
  Sr2+  Sr32  1  0.11915353  0.11278604  0.36865211  1
  Sr2+  Sr33  1  0.11572535  0.11443977  0.87080213  1
  Sr2+  Sr34  1  0.12415826  0.62026863  0.37714590  1
  Sr2+  Sr35  1  0.12069086  0.61974854  0.88158121  1
  Sr2+  Sr36  1  0.61958635  0.12756659  0.37402762  1
  Sr2+  Sr37  1  0.61860546  0.11577429  0.87411286  1
  Sr2+  Sr38  1  0.62649607  0.64056260  0.37272379  1
  Sr2+  Sr39  1  0.61562596  0.62694710  0.87157050  1
  Sr2+  Sr40  1  0.37107197  0.37645847  0.37128622  1
  Sr2+  Sr41  1  0.36514711  0.35759010  0.86893493  1
  Sr2+  Sr42  1  0.37088479  0.86975342  0.37243687  1
  Sr2+  Sr43  1  0.37400523  0.86146073  0.87008190  1
  Sr2+  Sr44  1  0.87149166  0.36993472  0.37524813  1
  Sr2+  Sr45  1  0.87088858  0.36193016  0.88187398  1
  Sr2+  Sr46  1  0.87007174  0.86004913  0.37480542  1
  Sr2+  Sr47  1  0.86786666  0.87562739  0.87381886  1
  Sr2+  Sr48  1  0.12865886  0.38080351  0.12361157  1
  Sr2+  Sr49  1  0.11560733  0.38454003  0.62612290  1
  Sr2+  Sr50  1  0.13038020  0.87722211  0.12332598  1
  Sr2+  Sr51  1  0.13188390  0.88815490  0.63732454  1
  Sr2+  Sr52  1  0.64619639  0.37531684  0.12507815  1
  Sr2+  Sr53  1  0.63279229  0.38068138  0.62355061  1
  Sr2+  Sr54  1  0.63441289  0.88490850  0.11944610  1
  Sr2+  Sr55  1  0.63622460  0.87617141  0.62123483  1
  Sr2+  Sr56  1  0.37160929  0.12187054  0.11984527  1
  Sr2+  Sr57  1  0.38170809  0.13139757  0.62060671  1
  Sr2+  Sr58  1  0.37006166  0.62900258  0.12775962  1
  Sr2+  Sr59  1  0.38374517  0.62085488  0.61985939  1
  Sr2+  Sr60  1  0.89402583  0.13579081  0.12037091  1
  Sr2+  Sr61  1  0.89077236  0.13447616  0.62759713  1
  Sr2+  Sr62  1  0.88632525  0.61823620  0.12001618  1
  Sr2+  Sr63  1  0.89261374  0.62864373  0.62790717  1
  Ca2+  Ca64  1  0.00282569  0.00018210  0.00060118  1
  Ca2+  Ca65  1  0.00035746  -0.00107831  0.49969177  1
  Ca2+  Ca66  1  0.49619541  0.50074518  0.00317765  1
  Ca2+  Ca67  1  0.00052049  0.50037168  0.49784612  1
  Ca2+  Ca68  1  -0.00013075  0.49867865  0.00244569  1
  Ca2+  Ca69  1  0.74730680  0.74783293  -0.00102240  1
  Ca2+  Ca70  1  0.25314066  0.75176128  0.50061282  1
  Ca2+  Ca71  1  0.75132741  0.24713802  -0.00041389  1
  Ca2+  Ca72  1  0.24805349  0.25064072  -0.00333944  1
  Ca2+  Ca73  1  0.25487977  0.25122084  0.49676861  1
  Ca2+  Ca74  1  0.25114180  0.00029763  0.75115376  1
  Ca2+  Ca75  1  -0.00153921  0.75012297  0.24892731  1
  Ca2+  Ca76  1  -0.00175460  0.25082285  0.75177238  1
  Ca2+  Ca77  1  0.74656750  0.00106220  0.74713038  1
  Ca2+  Ca78  1  0.00190579  0.25086743  0.25041334  1
  Ca2+  Ca79  1  0.74818190  -0.00015152  0.24940927  1
  Ca2+  Ca80  1  0.25133776  0.49929698  0.75126712  1
  Ca2+  Ca81  1  0.75060646  0.50147314  0.74799778  1
  Ca2+  Ca82  1  0.49940806  0.25108047  0.25052829  1
  Ca2+  Ca83  1  0.00075179  0.74938555  0.74884793  1
  Ca2+  Ca84  1  0.49926270  0.75001672  0.25131541  1
  Nb5+  Nb85  1  0.49421526  -0.00222540  -0.00957914  1
  Nb5+  Nb86  1  0.50206618  0.50365618  0.49729351  1
  Nb5+  Nb87  1  0.50260329  0.00415991  0.49553806  1
  Nb5+  Nb88  1  0.75548583  0.74944007  0.50337056  1
  Nb5+  Nb89  1  0.75190280  0.25328432  0.50139952  1
  Nb5+  Nb90  1  0.24639799  0.75478896  -0.00237728  1
  Nb5+  Nb91  1  0.25372651  0.49854571  0.24783903  1
  Nb5+  Nb92  1  0.50267786  0.24370503  0.75068046  1
  Nb5+  Nb93  1  0.50038683  0.74565912  0.74735887  1
  Nb5+  Nb94  1  0.75527358  0.50111561  0.25177376  1
  Nb5+  Nb95  1  0.25193264  -0.00637763  0.24848989  1
  Nb5+  Nb96  1  -0.00636489  0.00236194  0.24786902  1
  Nb5+  Nb97  1  -0.00121191  0.00039034  0.75009050  1
  Nb5+  Nb98  1  0.00736145  0.49991333  0.24991957  1
  Nb5+  Nb99  1  -0.00039058  0.50000394  0.75104705  1
  Nb5+  Nb100  1  0.50039711  -0.00260867  0.24193113  1
  Nb5+  Nb101  1  0.50099906  -0.00519571  0.74190109  1
  Nb5+  Nb102  1  0.50496089  0.50495678  0.24911653  1
  Nb5+  Nb103  1  0.49808154  0.49405286  0.75161269  1
  Nb5+  Nb104  1  0.24810801  0.24373613  0.25342609  1
  Nb5+  Nb105  1  0.24349998  0.25481158  0.74654257  1
  Nb5+  Nb106  1  0.24722168  0.74737439  0.25268022  1
  Nb5+  Nb107  1  0.25120149  0.74987105  0.74617519  1
  Nb5+  Nb108  1  0.74922873  0.24320605  0.25106747  1
  Nb5+  Nb109  1  0.74956164  0.25057513  0.75256650  1
  Nb5+  Nb110  1  0.75339034  0.74664827  0.24139198  1
  Nb5+  Nb111  1  0.75303313  0.74819876  0.75190932  1
  Nb5+  Nb112  1  0.00838261  0.25076449  0.50316089  1
  Nb5+  Nb113  1  0.00309930  0.24970600  0.99854079  1
  Nb5+  Nb114  1  0.01018072  0.75400589  0.50608583  1
  Nb5+  Nb115  1  -0.00859807  0.74901109  1.00030173  1
  Nb5+  Nb116  1  0.50481501  0.25466972  0.49839167  1
  Nb5+  Nb117  1  0.49327157  0.25218337  0.99985546  1
  Nb5+  Nb118  1  0.50385520  0.75606356  0.50019741  1
  Nb5+  Nb119  1  0.49733990  0.75007307  1.00216150  1
  Nb5+  Nb120  1  0.25059486  -0.00402519  -0.00552929  1
  Nb5+  Nb121  1  0.24704658  -0.00186084  0.49692925  1
  Nb5+  Nb122  1  0.25629609  0.49653995  0.00064710  1
  Nb5+  Nb123  1  0.25042489  0.49876373  0.50057185  1
  Nb5+  Nb124  1  0.75208537  0.00364184  0.00531642  1
  Nb5+  Nb125  1  0.75044465  0.00702592  0.49935470  1
  Nb5+  Nb126  1  0.74737832  0.49568531  -0.00795591  1
  Nb5+  Nb127  1  0.74827847  0.50580609  0.49599290  1
  O2-  O128  1  0.01614322  -0.02902780  0.13530326  1
  O2-  O129  1  0.01267018  -0.02763188  0.63315297  1
  O2-  O130  1  -0.00482270  0.46966811  0.13624776  1
  O2-  O131  1  -0.00453875  0.47681053  0.63097336  1
  O2-  O132  1  0.51118360  -0.00631252  0.12650776  1
  O2-  O133  1  0.52355034  -0.00568786  0.62823488  1
  O2-  O134  1  0.50289698  0.53380495  0.13923463  1
  O2-  O135  1  0.49393683  0.49199014  0.61614611  1
  O2-  O136  1  -0.00730706  0.02906935  0.36528785  1
  O2-  O137  1  -0.01387473  0.02467309  0.86794007  1
  O2-  O138  1  0.00405144  0.53151577  0.36482630  1
  O2-  O139  1  0.00480923  0.52415045  0.86855089  1
  O2-  O140  1  0.48098394  0.00187711  0.38302754  1
  O2-  O141  1  0.47658024  0.00521810  0.87630096  1
  O2-  O142  1  0.49615906  0.47808653  0.38207691  1
  O2-  O143  1  0.50995978  0.50796281  0.86467547  1
  O2-  O144  1  0.27799062  0.23826116  0.13656187  1
  O2-  O145  1  0.27258503  0.22825290  0.63261277  1
  O2-  O146  1  0.26398571  0.73981017  0.12269261  1
  O2-  O147  1  0.26680407  0.71916713  0.63637717  1
  O2-  O148  1  0.76755255  0.22927726  0.13876135  1
  O2-  O149  1  0.75907667  0.22434189  0.61768971  1
  O2-  O150  1  0.76450336  0.71182531  0.13411835  1
  O2-  O151  1  0.75862976  0.71940919  0.61930042  1
  O2-  O152  1  0.22632762  0.27600794  0.36469220  1
  O2-  O153  1  0.23489510  0.28107331  0.86374030  1
  O2-  O154  1  0.23343201  0.77266507  0.36457345  1
  O2-  O155  1  0.24140070  0.77975726  0.88209695  1
  O2-  O156  1  0.72692271  0.26424538  0.38558950  1
  O2-  O157  1  0.73296811  0.27569875  0.86387331  1
  O2-  O158  1  0.72933476  0.76115863  0.38670338  1
  O2-  O159  1  0.73580337  0.77505640  0.86323927  1
  O2-  O160  1  -0.02956593  0.26427342  0.11676292  1
  O2-  O161  1  -0.02895883  0.26967667  0.61571893  1
  O2-  O162  1  -0.01358946  0.77573720  0.11517350  1
  O2-  O163  1  -0.03302501  0.76253615  0.61597295  1
  O2-  O164  1  0.47267553  0.23933564  0.11336446  1
  O2-  O165  1  0.48700858  0.24944059  0.62896427  1
  O2-  O166  1  0.47423507  0.74914924  0.11466650  1
  O2-  O167  1  0.47876160  0.75184723  0.62803148  1
  O2-  O168  1  0.27891122  -0.01112965  0.36707890  1
  O2-  O169  1  0.28345560  -0.01427263  0.88616551  1
  O2-  O170  1  0.25552080  0.49060445  0.36700756  1
  O2-  O171  1  0.26763917  0.48620528  0.88726014  1
  O2-  O172  1  0.75979020  -0.02986630  0.38775004  1
  O2-  O173  1  0.76427605  -0.01082947  0.88663154  1
  O2-  O174  1  0.74415803  0.47680010  0.37461141  1
  O2-  O175  1  0.74486051  0.46873321  0.88160531  1
  O2-  O176  1  0.01479845  0.22309134  0.38748534  1
  O2-  O177  1  0.03430853  0.23678351  0.88274632  1
  O2-  O178  1  0.02288579  0.73272754  0.38773965  1
  O2-  O179  1  0.02028065  0.73117350  0.88454170  1
  O2-  O180  1  0.53023328  0.25239823  0.38712053  1
  O2-  O181  1  0.52346252  0.24756529  0.86995417  1
  O2-  O182  1  0.52669069  0.76315738  0.38851838  1
  O2-  O183  1  0.51424582  0.75542541  0.86812866  1
  O2-  O184  1  0.23847775  0.01170188  0.13080189  1
  O2-  O185  1  0.22877597  0.01168170  0.61104663  1
  O2-  O186  1  0.24489184  0.52522886  0.13184191  1
  O2-  O187  1  0.25045026  0.52029565  0.61340685  1
  O2-  O188  1  0.71206080  0.01392840  0.11798459  1
  O2-  O189  1  0.71684497  0.00534410  0.61136230  1
  O2-  O190  1  0.74671487  0.51735391  0.13686388  1
  O2-  O191  1  0.74438241  0.51002732  0.61022482  1
  O2-  O192  1  0.13624844  0.26749211  0.22411422  1
  O2-  O193  1  0.13333370  0.26980776  0.72061116  1
  O2-  O194  1  0.13400714  0.76927711  0.22814395  1
  O2-  O195  1  0.13827726  0.77360266  0.73709188  1
  O2-  O196  1  0.63449256  0.27061728  0.23769755  1
  O2-  O197  1  0.61681910  0.27696954  0.73401090  1
  O2-  O198  1  0.63563720  0.75353471  0.24205789  1
  O2-  O199  1  0.61444412  0.77456166  0.73358244  1
  O2-  O200  1  0.36557102  0.24765659  0.28086124  1
  O2-  O201  1  0.38613442  0.23539356  0.76745524  1
  O2-  O202  1  0.36387679  0.73379039  0.26432570  1
  O2-  O203  1  0.38095526  0.73629321  0.77037442  1
  O2-  O204  1  0.86356874  0.24810853  0.28106442  1
  O2-  O205  1  0.86125909  0.22505113  0.76528319  1
  O2-  O206  1  0.86370542  0.73559854  0.28104654  1
  O2-  O207  1  0.86322181  0.72305237  0.76388960  1
  O2-  O208  1  0.26353758  0.38425550  0.23197992  1
  O2-  O209  1  0.28321798  0.36669642  0.73229290  1
  O2-  O210  1  0.27061160  0.87833197  0.23491970  1
  O2-  O211  1  0.28055578  0.86527074  0.73288815  1
  O2-  O212  1  0.75962735  0.37920041  0.23961655  1
  O2-  O213  1  0.76011520  0.36300823  0.71690622  1
  O2-  O214  1  0.76666497  0.86121739  0.22572171  1
  O2-  O215  1  0.76118698  0.86198479  0.71832905  1
  O2-  O216  1  0.23669163  0.12659621  0.26549975  1
  O2-  O217  1  0.23763912  0.13675572  0.77426808  1
  O2-  O218  1  0.23044255  0.62963441  0.26330536  1
  O2-  O219  1  0.23800360  0.63853174  0.78556307  1
  O2-  O220  1  0.73508503  0.13286231  0.28018058  1
  O2-  O221  1  0.71271071  0.13779089  0.75670430  1
  O2-  O222  1  0.74043732  0.61753827  0.27704262  1
  O2-  O223  1  0.71226248  0.63725424  0.75832611  1
  O2-  O224  1  0.12672995  0.48957302  0.25200737  1
  O2-  O225  1  0.11827398  0.46999354  0.75164611  1
  O2-  O226  1  0.13693370  0.98421974  0.26864992  1
  O2-  O227  1  0.11815114  0.97577479  0.76977789  1
  O2-  O228  1  0.62170879  0.48761937  0.25257567  1
  O2-  O229  1  0.61305330  0.48793381  0.73188098  1
  O2-  O230  1  0.61101302  0.97400818  0.26647544  1
  O2-  O231  1  0.61092255  0.98747694  0.78011353  1
  O2-  O232  1  0.37298972  0.02442140  0.23586109  1
  O2-  O233  1  0.38826335  0.02594876  0.73170084  1
  O2-  O234  1  0.36969955  0.52132405  0.24898598  1
  O2-  O235  1  0.38783711  0.53162567  0.74193533  1
  O2-  O236  1  0.88201300  0.02118104  0.22765281  1
  O2-  O237  1  0.88018136  0.02351152  0.73238622  1
  O2-  O238  1  0.87161607  0.50899147  0.25424851  1
  O2-  O239  1  0.88190180  0.53186005  0.74735783  1
  O2-  O240  1  0.47654029  0.39025959  0.24302620  1
  O2-  O241  1  0.47881243  0.37789786  0.75603233  1
  O2-  O242  1  0.46649503  0.88509058  0.25557918  1
  O2-  O243  1  0.47924095  0.87970578  0.74930950  1
  O2-  O244  1  0.99046298  0.38539185  0.28132370  1
  O2-  O245  1  0.97078348  0.38395742  0.77362148  1
  O2-  O246  1  0.98618738  0.88607977  0.27855784  1
  O2-  O247  1  0.97329074  0.88211778  0.77131929  1
  O2-  O248  1  0.02702075  0.11571064  0.22717914  1
  O2-  O249  1  0.02581749  0.11688183  0.72918979  1
  O2-  O250  1  0.00574673  0.61538521  0.21883840  1
  O2-  O251  1  0.02758065  0.61663345  0.72630352  1
  O2-  O252  1  0.51506640  0.11439901  0.25550175  1
  O2-  O253  1  0.52060102  0.12765407  0.74520456  1
  O2-  O254  1  0.50237069  0.61487650  0.29025718  1
  O2-  O255  1  0.52008240  0.63136178  0.74085575  1
  O2-  O256  1  0.13873359  0.49221777  0.00226501  1
  O2-  O257  1  0.13852144  0.47096182  0.49371491  1
  O2-  O258  1  0.13875431  0.97300484  -0.01835591  1
  O2-  O259  1  0.13785845  0.97936914  0.47048696  1
  O2-  O260  1  0.63054085  0.47483601  0.01530836  1
  O2-  O261  1  0.62258691  0.47737156  0.49502518  1
  O2-  O262  1  0.60984421  0.97621357  -0.01391546  1
  O2-  O263  1  0.61944165  0.97958331  0.48206303  1
  O2-  O264  1  0.37747635  0.00848441  0.02413645  1
  O2-  O265  1  0.38824080  0.01372294  0.52433647  1
  O2-  O266  1  0.36562374  0.54024973  0.01106062  1
  O2-  O267  1  0.38353830  0.52440854  0.49440208  1
  O2-  O268  1  0.86329255  0.02333069  0.02528067  1
  O2-  O269  1  0.86206380  0.01808188  0.52030261  1
  O2-  O270  1  0.86159987  0.52664999  0.00171631  1
  O2-  O271  1  0.86268203  0.51111301  0.48837281  1
  O2-  O272  1  0.47040641  0.36550949  -0.00653972  1
  O2-  O273  1  0.48891477  0.36929952  0.50549266  1
  O2-  O274  1  0.47397334  0.87682691  -0.00899096  1
  O2-  O275  1  0.49082944  0.87366080  0.50884392  1
  O2-  O276  1  0.98430276  0.36707005  -0.02347286  1
  O2-  O277  1  0.98433141  0.36472457  0.47435418  1
  O2-  O278  1  0.97672166  0.86687017  -0.02415736  1
  O2-  O279  1  0.97355057  0.86445811  0.47924050  1
  O2-  O280  1  0.02220326  0.13190398  0.02217905  1
  O2-  O281  1  0.01080030  0.13288247  0.52909062  1
  O2-  O282  1  0.01996967  0.63496832  0.02467761  1
  O2-  O283  1  0.02132596  0.63436306  0.52323249  1
  O2-  O284  1  0.51262646  0.11699457  0.00009079  1
  O2-  O285  1  0.52419309  0.11943885  0.50632807  1
  O2-  O286  1  0.52020700  0.63808192  -0.00839224  1
  O2-  O287  1  0.52441995  0.61965262  0.49965269  1
  O2-  O288  1  0.11855222  0.27103058  0.02816150  1
  O2-  O289  1  0.11988394  0.26749144  0.52479458  1
  O2-  O290  1  0.13080831  0.77233164  0.01260355  1
  O2-  O291  1  0.11943637  0.77952799  0.52930340  1
  O2-  O292  1  0.61096700  0.26444627  0.01626158  1
  O2-  O293  1  0.62546298  0.25542073  0.52589973  1
  O2-  O294  1  0.61024379  0.77856259  0.01263675  1
  O2-  O295  1  0.62307602  0.75379298  0.52707458  1
  O2-  O296  1  0.38307016  0.22656344  -0.03438479  1
  O2-  O297  1  0.39394156  0.22502077  0.48660516  1
  O2-  O298  1  0.37330363  0.74117436  -0.02096134  1
  O2-  O299  1  0.39216408  0.72807180  0.48447052  1
  O2-  O300  1  0.88422773  0.22578619  -0.02815862  1
  O2-  O301  1  0.86490952  0.23347508  0.48357204  1
  O2-  O302  1  0.88006771  0.72332355  -0.01339459  1
  O2-  O303  1  0.86593726  0.72527175  0.48283780  1
  O2-  O304  1  0.27546182  0.38696511  0.02615989  1
  O2-  O305  1  0.29113622  0.38738856  0.50309323  1
  O2-  O306  1  0.26792383  0.87534639  0.02434034  1
  O2-  O307  1  0.28582484  0.88589680  0.50518770  1
  O2-  O308  1  0.77015248  0.38261463  0.02862485  1
  O2-  O309  1  0.76047737  0.36946044  0.51486190  1
  O2-  O310  1  0.76102237  0.88422859  0.02321379  1
  O2-  O311  1  0.76285657  0.86455223  0.52020923  1
  O2-  O312  1  0.23632006  0.11183081  -0.00698907  1
  O2-  O313  1  0.25046091  0.11324526  0.47189023  1
  O2-  O314  1  0.23215180  0.63762613  -0.01246575  1
  O2-  O315  1  0.23841196  0.61586041  0.47533770  1
  O2-  O316  1  0.71514067  0.11589383  -0.01299522  1
  O2-  O317  1  0.73040586  0.12056246  0.48025188  1
  O2-  O318  1  0.71540833  0.61267917  -0.01586056  1
  O2-  O319  1  0.72772350  0.61942576  0.48210208  1
