# generated using pymatgen
data_Sr64Ca21Nb43O192
_symmetry_space_group_name_H-M   'P 1'
_cell_length_a   16.56282301
_cell_length_b   16.56786791
_cell_length_c   16.73601310
_cell_angle_alpha   90.04686544
_cell_angle_beta   90.02641000
_cell_angle_gamma   90.05743434
_symmetry_Int_Tables_number   1
_chemical_formula_structural   Sr64Ca21Nb43O192
_chemical_formula_sum   'Sr64 Ca21 Nb43 O192'
_cell_volume   4592.53612946
_cell_formula_units_Z   1
loop_
 _symmetry_equiv_pos_site_id
 _symmetry_equiv_pos_as_xyz
  1  'x, y, z'
loop_
 _atom_type_symbol
 _atom_type_oxidation_number
  Sr2+  2.0
  Ca2+  2.0
  Nb5+  5.0
  O2-  -2.0
loop_
 _atom_site_type_symbol
 _atom_site_label
 _atom_site_symmetry_multiplicity
 _atom_site_fract_x
 _atom_site_fract_y
 _atom_site_fract_z
 _atom_site_occupancy
  Sr2+  Sr0  1  0.12073597  0.14158529  0.12732773  1
  Sr2+  Sr1  1  0.12166602  0.13471469  0.62460663  1
  Sr2+  Sr2  1  0.12763739  0.63638727  0.12663104  1
  Sr2+  Sr3  1  0.11896886  0.61725093  0.62387444  1
  Sr2+  Sr4  1  0.62942021  0.13274886  0.12296327  1
  Sr2+  Sr5  1  0.62134699  0.14437525  0.63145891  1
  Sr2+  Sr6  1  0.62313734  0.63393878  0.12718540  1
  Sr2+  Sr7  1  0.62551195  0.62903198  0.63155865  1
  Sr2+  Sr8  1  0.36881207  0.38445939  0.11796359  1
  Sr2+  Sr9  1  0.36434565  0.38061101  0.62302354  1
  Sr2+  Sr10  1  0.37467640  0.88261948  0.12587655  1
  Sr2+  Sr11  1  0.37445180  0.89111538  0.62659087  1
  Sr2+  Sr12  1  0.88891577  0.38840411  0.12792259  1
  Sr2+  Sr13  1  0.88261231  0.39214333  0.62433029  1
  Sr2+  Sr14  1  0.87867632  0.88052298  0.12334982  1
  Sr2+  Sr15  1  0.88163639  0.87699170  0.62827467  1
  Sr2+  Sr16  1  0.12978842  0.36763580  0.37760880  1
  Sr2+  Sr17  1  0.12523469  0.36502858  0.86444237  1
  Sr2+  Sr18  1  0.13816491  0.86414358  0.37888910  1
  Sr2+  Sr19  1  0.14047301  0.86673376  0.87743162  1
  Sr2+  Sr20  1  0.62796161  0.36745962  0.37225242  1
  Sr2+  Sr21  1  0.61980578  0.37340357  0.87994541  1
  Sr2+  Sr22  1  0.62477974  0.87667500  0.37550694  1
  Sr2+  Sr23  1  0.62946416  0.86800105  0.87847990  1
  Sr2+  Sr24  1  0.38221610  0.11735929  0.38756109  1
  Sr2+  Sr25  1  0.38446546  0.12031494  0.86725946  1
  Sr2+  Sr26  1  0.37770647  0.62478469  0.36933253  1
  Sr2+  Sr27  1  0.37161602  0.62274338  0.86739808  1
  Sr2+  Sr28  1  0.86024691  0.11950518  0.37575274  1
  Sr2+  Sr29  1  0.87804286  0.11786902  0.86808836  1
  Sr2+  Sr30  1  0.86289842  0.61893174  0.37279304  1
  Sr2+  Sr31  1  0.86389555  0.61752904  0.87330846  1
  Sr2+  Sr32  1  0.13221027  0.11818644  0.37954605  1
  Sr2+  Sr33  1  0.12365988  0.11245927  0.87242253  1
  Sr2+  Sr34  1  0.12928508  0.61801903  0.37997436  1
  Sr2+  Sr35  1  0.12978795  0.60721088  0.86691711  1
  Sr2+  Sr36  1  0.62292740  0.13149715  0.37834728  1
  Sr2+  Sr37  1  0.62080407  0.12444550  0.87509126  1
  Sr2+  Sr38  1  0.61741554  0.60393510  0.37139245  1
  Sr2+  Sr39  1  0.62179725  0.61524141  0.87849583  1
  Sr2+  Sr40  1  0.37485779  0.38028841  0.38205664  1
  Sr2+  Sr41  1  0.37328821  0.38550263  0.87418127  1
  Sr2+  Sr42  1  0.38440035  0.86969444  0.37617914  1
  Sr2+  Sr43  1  0.38341025  0.86919052  0.87130511  1
  Sr2+  Sr44  1  0.87277493  0.37410471  0.37731634  1
  Sr2+  Sr45  1  0.87400530  0.38316117  0.86320197  1
  Sr2+  Sr46  1  0.87719113  0.86849605  0.38224670  1
  Sr2+  Sr47  1  0.87958771  0.86898597  0.87389334  1
  Sr2+  Sr48  1  0.13148962  0.37231115  0.13475532  1
  Sr2+  Sr49  1  0.11534888  0.37795137  0.62207572  1
  Sr2+  Sr50  1  0.12617879  0.87883282  0.12839858  1
  Sr2+  Sr51  1  0.12330417  0.88304413  0.61061774  1
  Sr2+  Sr52  1  0.62681230  0.38559508  0.12224190  1
  Sr2+  Sr53  1  0.63055164  0.38167989  0.61412453  1
  Sr2+  Sr54  1  0.63360013  0.88136162  0.12386522  1
  Sr2+  Sr55  1  0.63247961  0.87816450  0.63638630  1
  Sr2+  Sr56  1  0.36990194  0.13521166  0.11906205  1
  Sr2+  Sr57  1  0.35737207  0.12988642  0.62848704  1
  Sr2+  Sr58  1  0.36132358  0.63153463  0.12059145  1
  Sr2+  Sr59  1  0.36469902  0.63616124  0.62837833  1
  Sr2+  Sr60  1  0.88669969  0.12719129  0.12480661  1
  Sr2+  Sr61  1  0.87275282  0.13199112  0.63215702  1
  Sr2+  Sr62  1  0.88103655  0.63755455  0.12475834  1
  Sr2+  Sr63  1  0.87930456  0.62431736  0.62102067  1
  Ca2+  Ca64  1  0.49959409  0.50463130  0.50369688  1
  Ca2+  Ca65  1  0.00056284  0.50041833  0.49260607  1
  Ca2+  Ca66  1  0.50536989  -0.00041425  0.50099904  1
  Ca2+  Ca67  1  0.00032657  0.50017672  0.00213834  1
  Ca2+  Ca68  1  -0.00201707  0.00277791  0.49503553  1
  Ca2+  Ca69  1  0.75420486  0.24866943  0.00365416  1
  Ca2+  Ca70  1  0.74661782  0.75243372  0.49825539  1
  Ca2+  Ca71  1  0.25109938  0.74913927  -0.00483677  1
  Ca2+  Ca72  1  0.25447642  0.75013498  0.50160400  1
  Ca2+  Ca73  1  0.24925212  0.24662033  -0.00085993  1
  Ca2+  Ca74  1  0.49831866  0.25068946  0.24870193  1
  Ca2+  Ca75  1  0.75019214  0.50088313  0.24557938  1
  Ca2+  Ca76  1  0.49847860  0.25414810  0.75004616  1
  Ca2+  Ca77  1  0.25044567  0.00142770  0.24907472  1
  Ca2+  Ca78  1  0.25121266  0.49895470  0.74623965  1
  Ca2+  Ca79  1  0.74578262  0.50039389  0.74914792  1
  Ca2+  Ca80  1  -0.00134822  0.24990682  0.74942117  1
  Ca2+  Ca81  1  0.74836118  0.00286582  0.75335540  1
  Ca2+  Ca82  1  0.00259562  0.74998152  0.75138830  1
  Ca2+  Ca83  1  0.24720690  -0.00162420  0.75253437  1
  Ca2+  Ca84  1  0.25019055  0.49946197  0.25327767  1
  Nb5+  Nb85  1  0.49898939  0.50679450  0.00181900  1
  Nb5+  Nb86  1  0.50721841  0.00124672  -0.00028773  1
  Nb5+  Nb87  1  0.00613141  -0.00307381  0.00064201  1
  Nb5+  Nb88  1  0.75149214  0.74964140  0.00020138  1
  Nb5+  Nb89  1  0.74766867  0.25075551  0.50089064  1
  Nb5+  Nb90  1  0.24438711  0.25073492  0.50227094  1
  Nb5+  Nb91  1  -0.00344633  0.25452387  0.25254729  1
  Nb5+  Nb92  1  0.50308776  0.74957428  0.75596959  1
  Nb5+  Nb93  1  0.50636132  0.75221374  0.25209760  1
  Nb5+  Nb94  1  0.00302723  0.75686600  0.25043575  1
  Nb5+  Nb95  1  0.74949665  -0.00187589  0.24928762  1
  Nb5+  Nb96  1  -0.00251120  0.00115735  0.25075736  1
  Nb5+  Nb97  1  0.00240498  -0.00138334  0.74588857  1
  Nb5+  Nb98  1  -0.00042647  0.50952871  0.24982987  1
  Nb5+  Nb99  1  -0.00010276  0.50387246  0.75231293  1
  Nb5+  Nb100  1  0.50128179  0.00247660  0.24528435  1
  Nb5+  Nb101  1  0.50669191  0.00175798  0.74653768  1
  Nb5+  Nb102  1  0.49325411  0.49600619  0.24871679  1
  Nb5+  Nb103  1  0.50144540  0.49955686  0.74699107  1
  Nb5+  Nb104  1  0.25618357  0.24440421  0.25523853  1
  Nb5+  Nb105  1  0.24755255  0.24694044  0.75445771  1
  Nb5+  Nb106  1  0.25843075  0.75031183  0.25124832  1
  Nb5+  Nb107  1  0.24325192  0.75424379  0.74394434  1
  Nb5+  Nb108  1  0.75303871  0.25224307  0.24550507  1
  Nb5+  Nb109  1  0.74851788  0.25623636  0.75684758  1
  Nb5+  Nb110  1  0.75280767  0.75278449  0.25073831  1
  Nb5+  Nb111  1  0.75415798  0.74660388  0.74684219  1
  Nb5+  Nb112  1  -0.00796996  0.24673967  0.49721122  1
  Nb5+  Nb113  1  -0.00339448  0.25308515  0.99722100  1
  Nb5+  Nb114  1  -0.00236585  0.74925596  0.50229734  1
  Nb5+  Nb115  1  0.00466628  0.75164279  1.00149361  1
  Nb5+  Nb116  1  0.49112143  0.25083100  0.49878949  1
  Nb5+  Nb117  1  0.49757215  0.25734674  1.00120226  1
  Nb5+  Nb118  1  0.50240707  0.75115271  0.51157667  1
  Nb5+  Nb119  1  0.49973480  0.75204085  1.00402074  1
  Nb5+  Nb120  1  0.26111178  0.00015003  0.00226194  1
  Nb5+  Nb121  1  0.25356912  -0.00325628  0.49640251  1
  Nb5+  Nb122  1  0.24374830  0.49491317  -0.00051990  1
  Nb5+  Nb123  1  0.25097373  0.50408109  0.50303822  1
  Nb5+  Nb124  1  0.75548433  0.00076510  0.00131776  1
  Nb5+  Nb125  1  0.74772347  0.00337175  0.50854469  1
  Nb5+  Nb126  1  0.75331212  0.49833358  0.00717613  1
  Nb5+  Nb127  1  0.74718801  0.50461823  0.49628523  1
  O2-  O128  1  0.00618316  -0.01709905  0.12486655  1
  O2-  O129  1  0.02381827  -0.00270981  0.63320295  1
  O2-  O130  1  0.02370114  0.47712601  0.13714918  1
  O2-  O131  1  0.01686895  0.49509599  0.63092692  1
  O2-  O132  1  0.52129527  -0.00917446  0.11914286  1
  O2-  O133  1  0.53284776  -0.00133987  0.63546232  1
  O2-  O134  1  0.51995370  0.49787959  0.12230206  1
  O2-  O135  1  0.53354254  0.50222997  0.63784600  1
  O2-  O136  1  -0.03482444  0.00599821  0.35989187  1
  O2-  O137  1  -0.02400927  0.00304377  0.88857727  1
  O2-  O138  1  -0.03742953  0.50673029  0.36056404  1
  O2-  O139  1  -0.02622459  0.51305766  0.87007857  1
  O2-  O140  1  0.48423880  -0.00975603  0.35888068  1
  O2-  O141  1  0.47947089  -0.00614351  0.88466130  1
  O2-  O142  1  0.47972926  0.51067679  0.36432615  1
  O2-  O143  1  0.47707936  0.50686440  0.88508735  1
  O2-  O144  1  0.26736403  0.26409672  0.14048235  1
  O2-  O145  1  0.27039906  0.26064566  0.61721589  1
  O2-  O146  1  0.26477992  0.76987246  0.13366860  1
  O2-  O147  1  0.28506727  0.77254222  0.63405003  1
  O2-  O148  1  0.76438197  0.21449673  0.13729298  1
  O2-  O149  1  0.75965899  0.23036097  0.61414159  1
  O2-  O150  1  0.75547641  0.73335436  0.12332452  1
  O2-  O151  1  0.75937701  0.72193781  0.63376642  1
  O2-  O152  1  0.23138888  0.23301297  0.38185179  1
  O2-  O153  1  0.21925651  0.23503703  0.86585082  1
  O2-  O154  1  0.23500747  0.72751999  0.36575803  1
  O2-  O155  1  0.22857377  0.72366657  0.86114161  1
  O2-  O156  1  0.74180189  0.25998671  0.37029624  1
  O2-  O157  1  0.74041904  0.27880071  0.86920006  1
  O2-  O158  1  0.74253653  0.78228736  0.36114708  1
  O2-  O159  1  0.74421350  0.77110720  0.88351330  1
  O2-  O160  1  -0.02140836  0.25305625  0.13235198  1
  O2-  O161  1  -0.02106218  0.25338338  0.61164433  1
  O2-  O162  1  -0.01773557  0.76079845  0.13016349  1
  O2-  O163  1  -0.02440592  0.74583659  0.61547396  1
  O2-  O164  1  0.47198150  0.24633063  0.11612820  1
  O2-  O165  1  0.49553835  0.23888520  0.61490432  1
  O2-  O166  1  0.48528829  0.74432887  0.12062126  1
  O2-  O167  1  0.49391696  0.74136886  0.62819018  1
  O2-  O168  1  0.26656286  0.02881458  0.38196930  1
  O2-  O169  1  0.25895579  0.03508054  0.88936304  1
  O2-  O170  1  0.28453263  0.51029474  0.38777010  1
  O2-  O171  1  0.27270557  0.51528418  0.88508159  1
  O2-  O172  1  0.77138639  -0.02157550  0.36109945  1
  O2-  O173  1  0.77174580  -0.02254920  0.88894499  1
  O2-  O174  1  0.77236242  0.48510242  0.37965976  1
  O2-  O175  1  0.76780514  0.49157472  0.88948302  1
  O2-  O176  1  0.01400712  0.23688255  0.36855189  1
  O2-  O177  1  0.02284747  0.24267565  0.88671402  1
  O2-  O178  1  0.01283282  0.75252433  0.36592810  1
  O2-  O179  1  0.01434818  0.74886835  0.88849832  1
  O2-  O180  1  0.51902360  0.26184186  0.38212740  1
  O2-  O181  1  0.52662187  0.24958972  0.88572377  1
  O2-  O182  1  0.51237631  0.76065738  0.36659539  1
  O2-  O183  1  0.51999836  0.75547318  0.87579876  1
  O2-  O184  1  0.24305969  -0.03536241  0.11543229  1
  O2-  O185  1  0.23780049  -0.02071717  0.61486990  1
  O2-  O186  1  0.23967671  0.47357428  0.11803034  1
  O2-  O187  1  0.22853474  0.47021608  0.61512275  1
  O2-  O188  1  0.72626653  0.00941995  0.12181751  1
  O2-  O189  1  0.71976858  0.02231524  0.61631489  1
  O2-  O190  1  0.71301311  0.51985278  0.11534472  1
  O2-  O191  1  0.72009413  0.50969636  0.61366831  1
  O2-  O192  1  0.11407413  0.26335788  0.23764044  1
  O2-  O193  1  0.13337223  0.27161398  0.72274847  1
  O2-  O194  1  0.11906132  0.76769016  0.23459969  1
  O2-  O195  1  0.13404804  0.77948196  0.72108683  1
  O2-  O196  1  0.63724979  0.26857475  0.23442715  1
  O2-  O197  1  0.63500753  0.28040193  0.72630629  1
  O2-  O198  1  0.62262395  0.76934010  0.23174838  1
  O2-  O199  1  0.62530402  0.76919890  0.74125457  1
  O2-  O200  1  0.36551686  0.21527483  0.27242381  1
  O2-  O201  1  0.36506471  0.22058471  0.75905145  1
  O2-  O202  1  0.37747471  0.73679676  0.26081658  1
  O2-  O203  1  0.38665777  0.73549127  0.76826174  1
  O2-  O204  1  0.87613656  0.22610709  0.26752485  1
  O2-  O205  1  0.86365698  0.22134034  0.75869950  1
  O2-  O206  1  0.87106117  0.73391490  0.25775366  1
  O2-  O207  1  0.86590922  0.73233731  0.77227054  1
  O2-  O208  1  0.25411356  0.36123111  0.27821773  1
  O2-  O209  1  0.27544961  0.36376060  0.76157651  1
  O2-  O210  1  0.26055994  0.86622927  0.27695359  1
  O2-  O211  1  0.27007539  0.86528873  0.77928810  1
  O2-  O212  1  0.77799865  0.36309509  0.23083184  1
  O2-  O213  1  0.78110481  0.36800215  0.72848355  1
  O2-  O214  1  0.76024325  0.87282987  0.22101875  1
  O2-  O215  1  0.76181572  0.86539700  0.72830553  1
  O2-  O216  1  0.21521391  0.13383289  0.24213892  1
  O2-  O217  1  0.22989148  0.13118101  0.72462811  1
  O2-  O218  1  0.23334174  0.63509774  0.22939859  1
  O2-  O219  1  0.23901250  0.63555903  0.72059660  1
  O2-  O220  1  0.73417363  0.11438780  0.26740373  1
  O2-  O221  1  0.71832534  0.13837527  0.76138556  1
  O2-  O222  1  0.72813226  0.63943089  0.26641439  1
  O2-  O223  1  0.72511190  0.63578922  0.77522321  1
  O2-  O224  1  0.11287327  0.49151501  0.28110851  1
  O2-  O225  1  0.11822776  0.48057154  0.77555803  1
  O2-  O226  1  0.10856833  0.97749424  0.26614216  1
  O2-  O227  1  0.11259028  0.97806333  0.78544217  1
  O2-  O228  1  0.61217166  0.48046367  0.26463043  1
  O2-  O229  1  0.61234916  0.48901308  0.78848348  1
  O2-  O230  1  0.62857117  0.97273671  0.25538873  1
  O2-  O231  1  0.61609420  0.97734441  0.78415615  1
  O2-  O232  1  0.38889483  0.01624744  0.21897114  1
  O2-  O233  1  0.38778547  0.00957033  0.73717003  1
  O2-  O234  1  0.38418912  0.53244702  0.22442382  1
  O2-  O235  1  0.38882801  0.53421846  0.73925865  1
  O2-  O236  1  0.86669008  0.00770260  0.22106959  1
  O2-  O237  1  0.88291167  0.02460909  0.73763552  1
  O2-  O238  1  0.88300090  0.51843642  0.21576131  1
  O2-  O239  1  0.88137566  0.52820338  0.73211558  1
  O2-  O240  1  0.46395002  0.38495143  0.24546393  1
  O2-  O241  1  0.47180980  0.38817100  0.75351188  1
  O2-  O242  1  0.48375989  0.87057993  0.23711902  1
  O2-  O243  1  0.48830401  0.87034880  0.74469874  1
  O2-  O244  1  0.97808380  0.36921273  0.26009695  1
  O2-  O245  1  0.97829926  0.38392118  0.75623803  1
  O2-  O246  1  0.97381594  0.87249198  0.25364154  1
  O2-  O247  1  0.96976686  0.88363675  0.75418246  1
  O2-  O248  1  0.00747928  0.11798228  0.23528305  1
  O2-  O249  1  0.02180063  0.11597244  0.75884644  1
  O2-  O250  1  0.01311052  0.62905452  0.23942907  1
  O2-  O251  1  0.03393588  0.61945665  0.74794347  1
  O2-  O252  1  0.53219773  0.11341127  0.24612558  1
  O2-  O253  1  0.52054835  0.11572915  0.76152708  1
  O2-  O254  1  0.52055986  0.63373576  0.24789486  1
  O2-  O255  1  0.52512815  0.63167679  0.75549510  1
  O2-  O256  1  0.13267445  0.47749830  -0.02642538  1
  O2-  O257  1  0.13644359  0.48450038  0.47058111  1
  O2-  O258  1  0.11992986  0.97793438  -0.01194381  1
  O2-  O259  1  0.13415294  0.98383747  0.47638824  1
  O2-  O260  1  0.61860781  0.48351464  -0.01734739  1
  O2-  O261  1  0.63380163  0.47062668  0.47561009  1
  O2-  O262  1  0.62204927  0.97790534  -0.01555033  1
  O2-  O263  1  0.63963613  0.99504405  0.46239920  1
  O2-  O264  1  0.37907760  0.01002122  0.01992203  1
  O2-  O265  1  0.36951447  0.02366138  0.51869245  1
  O2-  O266  1  0.38303315  0.51444287  0.02430947  1
  O2-  O267  1  0.36757907  0.51211850  0.53615139  1
  O2-  O268  1  0.86993996  0.01069466  0.02373748  1
  O2-  O269  1  0.86239221  0.03350037  0.51090385  1
  O2-  O270  1  0.86373810  0.52279271  0.02818349  1
  O2-  O271  1  0.86436731  0.51109252  0.52400342  1
  O2-  O272  1  0.48329321  0.37557288  -0.00076325  1
  O2-  O273  1  0.47692452  0.36870081  0.50657829  1
  O2-  O274  1  0.48612999  0.86995827  0.00387715  1
  O2-  O275  1  0.46662261  0.86568273  0.50330178  1
  O2-  O276  1  0.96479673  0.36365307  -0.00724901  1
  O2-  O277  1  0.99279967  0.36333349  0.47967936  1
  O2-  O278  1  0.97512870  0.87485624  -0.00005702  1
  O2-  O279  1  0.97280769  0.86896353  0.49941921  1
  O2-  O280  1  0.01851069  0.11374337  0.01399913  1
  O2-  O281  1  0.02954995  0.13580583  0.49804972  1
  O2-  O282  1  0.01038143  0.63726526  0.02267157  1
  O2-  O283  1  0.02778120  0.63427070  0.49488228  1
  O2-  O284  1  0.52004636  0.11651104  0.00164011  1
  O2-  O285  1  0.51910725  0.13405300  0.48681097  1
  O2-  O286  1  0.52076471  0.62483070  0.00294001  1
  O2-  O287  1  0.54279671  0.63940932  0.49710485  1
  O2-  O288  1  0.11114769  0.26262441  0.03062456  1
  O2-  O289  1  0.12828697  0.26862207  0.51363509  1
  O2-  O290  1  0.11618696  0.77360210  0.02151374  1
  O2-  O291  1  0.11557645  0.77846980  0.50489534  1
  O2-  O292  1  0.61537170  0.26158168  0.02803966  1
  O2-  O293  1  0.63184281  0.26863525  0.50796775  1
  O2-  O294  1  0.62391513  0.76150277  0.01224808  1
  O2-  O295  1  0.61559428  0.79292139  0.51091656  1
  O2-  O296  1  0.38568177  0.22181596  -0.02189218  1
  O2-  O297  1  0.37480327  0.23149624  0.48510953  1
  O2-  O298  1  0.38843693  0.73050358  -0.02103905  1
  O2-  O299  1  0.39102994  0.71668016  0.48516783  1
  O2-  O300  1  0.88669999  0.20944260  -0.00868710  1
  O2-  O301  1  0.87646632  0.23218566  0.47862961  1
  O2-  O302  1  0.87070741  0.73936069  -0.00568851  1
  O2-  O303  1  0.88235358  0.72812503  0.47277503  1
  O2-  O304  1  0.27870120  0.38030141  -0.01227821  1
  O2-  O305  1  0.26812983  0.36721852  0.48500743  1
  O2-  O306  1  0.26629453  0.88454044  -0.03147323  1
  O2-  O307  1  0.27256460  0.88369082  0.47458627  1
  O2-  O308  1  0.76191598  0.38470338  0.02859283  1
  O2-  O309  1  0.77305786  0.36679125  0.50825296  1
  O2-  O310  1  0.75570949  0.87187491  0.02154588  1
  O2-  O311  1  0.77105185  0.88976732  0.52005193  1
  O2-  O312  1  0.23689938  0.11193092  0.03659320  1
  O2-  O313  1  0.23324374  0.12964580  0.51784826  1
  O2-  O314  1  0.23675354  0.61338578  0.02310958  1
  O2-  O315  1  0.23048013  0.61678819  0.52015290  1
  O2-  O316  1  0.72775087  0.11138266  -0.01611450  1
  O2-  O317  1  0.73714312  0.13166771  0.47602989  1
  O2-  O318  1  0.73466201  0.63198850  -0.01455301  1
  O2-  O319  1  0.73255635  0.61714819  0.47390973  1
