# generated using pymatgen
data_Sr64Ca21Nb43O192
_symmetry_space_group_name_H-M   'P 1'
_cell_length_a   16.54409005
_cell_length_b   16.55397739
_cell_length_c   16.69354313
_cell_angle_alpha   90.04848436
_cell_angle_beta   90.01628717
_cell_angle_gamma   89.98659012
_symmetry_Int_Tables_number   1
_chemical_formula_structural   Sr64Ca21Nb43O192
_chemical_formula_sum   'Sr64 Ca21 Nb43 O192'
_cell_volume   4571.86693269
_cell_formula_units_Z   1
loop_
 _symmetry_equiv_pos_site_id
 _symmetry_equiv_pos_as_xyz
  1  'x, y, z'
loop_
 _atom_type_symbol
 _atom_type_oxidation_number
  Sr2+  2.0
  Ca2+  2.0
  Nb5+  5.0
  O2-  -2.0
loop_
 _atom_site_type_symbol
 _atom_site_label
 _atom_site_symmetry_multiplicity
 _atom_site_fract_x
 _atom_site_fract_y
 _atom_site_fract_z
 _atom_site_occupancy
  Sr2+  Sr0  1  0.13304063  0.13203140  0.12043475  1
  Sr2+  Sr1  1  0.12547925  0.13818329  0.62687551  1
  Sr2+  Sr2  1  0.12893043  0.61557891  0.12423740  1
  Sr2+  Sr3  1  0.13736475  0.61559048  0.62962219  1
  Sr2+  Sr4  1  0.63228675  0.13542384  0.12246567  1
  Sr2+  Sr5  1  0.64130213  0.12757562  0.63219861  1
  Sr2+  Sr6  1  0.63320914  0.61889221  0.13079507  1
  Sr2+  Sr7  1  0.62874125  0.61827379  0.62591126  1
  Sr2+  Sr8  1  0.37543016  0.37278448  0.13080540  1
  Sr2+  Sr9  1  0.37461398  0.38035903  0.61650812  1
  Sr2+  Sr10  1  0.38583642  0.88946388  0.11714970  1
  Sr2+  Sr11  1  0.39173894  0.87995451  0.63444732  1
  Sr2+  Sr12  1  0.88278577  0.39100950  0.12423762  1
  Sr2+  Sr13  1  0.88316844  0.36158058  0.62795907  1
  Sr2+  Sr14  1  0.88077790  0.88024975  0.12727290  1
  Sr2+  Sr15  1  0.87670862  0.89276470  0.62398656  1
  Sr2+  Sr16  1  0.12192265  0.37465129  0.37306367  1
  Sr2+  Sr17  1  0.11288008  0.37645113  0.87427255  1
  Sr2+  Sr18  1  0.11530554  0.86920123  0.37700080  1
  Sr2+  Sr19  1  0.14555356  0.87642792  0.87188978  1
  Sr2+  Sr20  1  0.61237639  0.36973211  0.37324632  1
  Sr2+  Sr21  1  0.62152677  0.37385667  0.89402908  1
  Sr2+  Sr22  1  0.61493844  0.86462587  0.37467814  1
  Sr2+  Sr23  1  0.60936930  0.86810205  0.87683147  1
  Sr2+  Sr24  1  0.36894214  0.12455818  0.37721475  1
  Sr2+  Sr25  1  0.36486803  0.11190221  0.87952100  1
  Sr2+  Sr26  1  0.38267752  0.62110723  0.37642546  1
  Sr2+  Sr27  1  0.36096733  0.63772446  0.86887007  1
  Sr2+  Sr28  1  0.86413442  0.11229041  0.37606940  1
  Sr2+  Sr29  1  0.86502613  0.12893977  0.86462135  1
  Sr2+  Sr30  1  0.87779361  0.63528597  0.36907609  1
  Sr2+  Sr31  1  0.86929523  0.62058257  0.88317343  1
  Sr2+  Sr32  1  0.11954229  0.10875995  0.38090754  1
  Sr2+  Sr33  1  0.11931796  0.11131010  0.87690810  1
  Sr2+  Sr34  1  0.12180356  0.63692361  0.37050764  1
  Sr2+  Sr35  1  0.11694385  0.62677321  0.87119818  1
  Sr2+  Sr36  1  0.61731647  0.11843064  0.36682924  1
  Sr2+  Sr37  1  0.61624730  0.12712590  0.87402947  1
  Sr2+  Sr38  1  0.62038862  0.61907914  0.37788740  1
  Sr2+  Sr39  1  0.62349043  0.62771128  0.87985499  1
  Sr2+  Sr40  1  0.36688890  0.37030069  0.37559041  1
  Sr2+  Sr41  1  0.37307749  0.35943867  0.88004881  1
  Sr2+  Sr42  1  0.36764093  0.87179380  0.37836726  1
  Sr2+  Sr43  1  0.37526528  0.88051278  0.87006879  1
  Sr2+  Sr44  1  0.86392095  0.35843379  0.37768494  1
  Sr2+  Sr45  1  0.86785116  0.37617709  0.87214868  1
  Sr2+  Sr46  1  0.87272283  0.87141197  0.37464162  1
  Sr2+  Sr47  1  0.86960864  0.85922459  0.87930643  1
  Sr2+  Sr48  1  0.13977017  0.38339793  0.12538311  1
  Sr2+  Sr49  1  0.13939208  0.37255812  0.62440596  1
  Sr2+  Sr50  1  0.14069628  0.87518425  0.11913576  1
  Sr2+  Sr51  1  0.13571137  0.88806828  0.62561161  1
  Sr2+  Sr52  1  0.60524735  0.36955470  0.12757057  1
  Sr2+  Sr53  1  0.64824165  0.38017395  0.62173514  1
  Sr2+  Sr54  1  0.63254472  0.87986622  0.12106911  1
  Sr2+  Sr55  1  0.63426195  0.87115552  0.63276633  1
  Sr2+  Sr56  1  0.37889554  0.13644420  0.11196018  1
  Sr2+  Sr57  1  0.38226467  0.13570667  0.62988552  1
  Sr2+  Sr58  1  0.37260239  0.61921120  0.13071631  1
  Sr2+  Sr59  1  0.38238509  0.62376028  0.62914262  1
  Sr2+  Sr60  1  0.87749035  0.12463920  0.14131333  1
  Sr2+  Sr61  1  0.88962300  0.13077018  0.62113950  1
  Sr2+  Sr62  1  0.88522696  0.62687356  0.12388243  1
  Sr2+  Sr63  1  0.87851216  0.62814000  0.62137023  1
  Ca2+  Ca64  1  0.50327717  -0.00020066  0.50274340  1
  Ca2+  Ca65  1  -0.00323535  -0.00241164  0.00208174  1
  Ca2+  Ca66  1  0.49629448  0.50520705  -0.00059893  1
  Ca2+  Ca67  1  0.00110479  0.50074775  0.49806786  1
  Ca2+  Ca68  1  0.50551958  -0.00032868  0.00018195  1
  Ca2+  Ca69  1  0.25159256  0.74697385  0.00123360  1
  Ca2+  Ca70  1  0.75520623  0.25192819  0.00192780  1
  Ca2+  Ca71  1  0.74940957  0.24524320  0.49846867  1
  Ca2+  Ca72  1  0.25035625  0.75080663  0.50264967  1
  Ca2+  Ca73  1  0.24540190  0.25371237  -0.00154859  1
  Ca2+  Ca74  1  0.74838868  0.50090377  0.74985582  1
  Ca2+  Ca75  1  0.49649168  0.24463502  0.25237444  1
  Ca2+  Ca76  1  -0.00313464  0.75126309  0.74774695  1
  Ca2+  Ca77  1  0.25474317  0.49706582  0.75154118  1
  Ca2+  Ca78  1  0.24896891  0.00050947  0.24988185  1
  Ca2+  Ca79  1  0.75122322  0.50045941  0.25167690  1
  Ca2+  Ca80  1  0.75279703  -0.00279164  0.75369676  1
  Ca2+  Ca81  1  -0.00062221  0.24966573  0.25130540  1
  Ca2+  Ca82  1  0.49998002  0.75447319  0.25006131  1
  Ca2+  Ca83  1  0.25087694  0.00441926  0.74390692  1
  Ca2+  Ca84  1  0.49951008  0.25562246  0.74657896  1
  Nb5+  Nb85  1  0.50132248  0.49683807  0.50087389  1
  Nb5+  Nb86  1  0.00068981  -0.00195399  0.49947519  1
  Nb5+  Nb87  1  0.00189667  0.50099713  -0.00058179  1
  Nb5+  Nb88  1  0.75031500  0.74791426  0.50426237  1
  Nb5+  Nb89  1  0.74970915  0.74846200  0.00782387  1
  Nb5+  Nb90  1  0.25096473  0.24761573  0.49871760  1
  Nb5+  Nb91  1  0.50164552  0.74649722  0.75156665  1
  Nb5+  Nb92  1  0.25022896  0.50231986  0.25257925  1
  Nb5+  Nb93  1  0.00209385  0.75317862  0.24638564  1
  Nb5+  Nb94  1  0.00403803  0.24838582  0.75303877  1
  Nb5+  Nb95  1  0.74503599  -0.00328593  0.25168546  1
  Nb5+  Nb96  1  0.00305915  -0.00194116  0.24737514  1
  Nb5+  Nb97  1  -0.00547870  -0.00266382  0.75661601  1
  Nb5+  Nb98  1  -0.00034378  0.50173274  0.25506529  1
  Nb5+  Nb99  1  -0.00220720  0.50026944  0.74385731  1
  Nb5+  Nb100  1  0.49175717  0.00517742  0.24947542  1
  Nb5+  Nb101  1  0.50609408  0.00499372  0.74830342  1
  Nb5+  Nb102  1  0.50108359  0.49942794  0.24898691  1
  Nb5+  Nb103  1  0.49936039  0.49844647  0.75410354  1
  Nb5+  Nb104  1  0.24308034  0.24642728  0.25269469  1
  Nb5+  Nb105  1  0.25000354  0.25003626  0.75461872  1
  Nb5+  Nb106  1  0.25573362  0.75144487  0.24797942  1
  Nb5+  Nb107  1  0.24656573  0.75121469  0.74550789  1
  Nb5+  Nb108  1  0.75214185  0.25581438  0.24860484  1
  Nb5+  Nb109  1  0.74639911  0.25314411  0.74822417  1
  Nb5+  Nb110  1  0.74766654  0.75288555  0.25483150  1
  Nb5+  Nb111  1  0.75097508  0.74425984  0.75614805  1
  Nb5+  Nb112  1  0.00250274  0.24923647  0.49392381  1
  Nb5+  Nb113  1  -0.00413332  0.24873652  1.00594750  1
  Nb5+  Nb114  1  0.00025308  0.75305577  0.50573678  1
  Nb5+  Nb115  1  0.00073856  0.75149785  0.99695467  1
  Nb5+  Nb116  1  0.50644359  0.24608277  0.50514408  1
  Nb5+  Nb117  1  0.50000628  0.25086189  0.99732497  1
  Nb5+  Nb118  1  0.49732341  0.74811632  0.50128452  1
  Nb5+  Nb119  1  0.49756655  0.74660897  1.00578844  1
  Nb5+  Nb120  1  0.24775502  -0.00019231  0.00163467  1
  Nb5+  Nb121  1  0.25848373  0.00119473  0.50439659  1
  Nb5+  Nb122  1  0.25232546  0.50067241  -0.00622277  1
  Nb5+  Nb123  1  0.24834682  0.50289105  0.49654633  1
  Nb5+  Nb124  1  0.75647245  0.00168498  -0.00442617  1
  Nb5+  Nb125  1  0.74500782  -0.00431775  0.49723639  1
  Nb5+  Nb126  1  0.74752344  0.49803263  0.00677890  1
  Nb5+  Nb127  1  0.75865603  0.50012546  0.49508353  1
  O2-  O128  1  0.01636606  -0.03497394  0.13788763  1
  O2-  O129  1  0.01236534  -0.02040682  0.61673008  1
  O2-  O130  1  -0.00211553  0.49379651  0.12710072  1
  O2-  O131  1  -0.02692467  0.48590030  0.63260928  1
  O2-  O132  1  0.51607660  -0.02652240  0.13638015  1
  O2-  O133  1  0.52179988  -0.03048727  0.63565771  1
  O2-  O134  1  0.47434578  0.48959198  0.13612103  1
  O2-  O135  1  0.47406715  0.49549027  0.61498301  1
  O2-  O136  1  -0.01701580  0.01500871  0.37753682  1
  O2-  O137  1  -0.01839452  0.02852695  0.86608337  1
  O2-  O138  1  0.02013333  0.52673950  0.36538723  1
  O2-  O139  1  0.01575089  0.51414790  0.88274237  1
  O2-  O140  1  0.48912100  0.02845147  0.36836301  1
  O2-  O141  1  0.48068419  0.01205636  0.86530778  1
  O2-  O142  1  0.50778844  0.51656222  0.37825538  1
  O2-  O143  1  0.53008038  0.50653493  0.86441452  1
  O2-  O144  1  0.25787272  0.23225375  0.13650668  1
  O2-  O145  1  0.25826697  0.22786854  0.61709880  1
  O2-  O146  1  0.23848162  0.72029380  0.13591596  1
  O2-  O147  1  0.25134171  0.71512068  0.63321467  1
  O2-  O148  1  0.76373413  0.21787346  0.13591194  1
  O2-  O149  1  0.76897412  0.22210152  0.63162167  1
  O2-  O150  1  0.74852074  0.73510717  0.12452238  1
  O2-  O151  1  0.75206313  0.72891066  0.61914561  1
  O2-  O152  1  0.23307447  0.27195266  0.37913217  1
  O2-  O153  1  0.23467100  0.28108007  0.86387931  1
  O2-  O154  1  0.24128702  0.77299579  0.36494184  1
  O2-  O155  1  0.26582817  0.76967046  0.86448029  1
  O2-  O156  1  0.73054747  0.27059634  0.36655223  1
  O2-  O157  1  0.74110063  0.28123500  0.86339603  1
  O2-  O158  1  0.74999108  0.76954541  0.37186867  1
  O2-  O159  1  0.75042853  0.75972126  0.87336797  1
  O2-  O160  1  -0.03628838  0.26351871  0.11518435  1
  O2-  O161  1  -0.00864544  0.25550662  0.62097986  1
  O2-  O162  1  -0.00613757  0.76305770  0.12785941  1
  O2-  O163  1  -0.02618396  0.77390360  0.61489333  1
  O2-  O164  1  0.47782689  0.26117736  0.11753584  1
  O2-  O165  1  0.46575328  0.26522845  0.61405734  1
  O2-  O166  1  0.50046796  0.77485946  0.11617265  1
  O2-  O167  1  0.50505420  0.75985048  0.62387009  1
  O2-  O168  1  0.27057747  -0.01190055  0.38601653  1
  O2-  O169  1  0.26652367  -0.01475087  0.88025807  1
  O2-  O170  1  0.23967367  0.47759853  0.37240391  1
  O2-  O171  1  0.24637637  0.46701290  0.88485793  1
  O2-  O172  1  0.77146519  -0.01994131  0.37473221  1
  O2-  O173  1  0.79223831  -0.01490189  0.88773783  1
  O2-  O174  1  0.72208590  0.48242199  0.38461708  1
  O2-  O175  1  0.74023298  0.49144352  0.88830692  1
  O2-  O176  1  0.02991421  0.23036872  0.38379639  1
  O2-  O177  1  0.02725416  0.23890875  0.86703132  1
  O2-  O178  1  0.00109787  0.73831104  0.37396387  1
  O2-  O179  1  -0.00663222  0.72621325  0.88452622  1
  O2-  O180  1  0.50933260  0.23128115  0.38844473  1
  O2-  O181  1  0.52471527  0.25082188  0.87937631  1
  O2-  O182  1  0.51676789  0.73422879  0.38631192  1
  O2-  O183  1  0.50351016  0.72908627  0.86996572  1
  O2-  O184  1  0.21939874  0.01338151  0.11779820  1
  O2-  O185  1  0.21602516  0.02179667  0.61135623  1
  O2-  O186  1  0.25449906  0.52139103  0.13316260  1
  O2-  O187  1  0.26253363  0.51655095  0.61220519  1
  O2-  O188  1  0.72766957  0.00741849  0.13533488  1
  O2-  O189  1  0.73176505  0.00214576  0.61324911  1
  O2-  O190  1  0.76465788  0.53370537  0.11853207  1
  O2-  O191  1  0.75822576  0.52967362  0.60989255  1
  O2-  O192  1  0.13104511  0.28558019  0.23975793  1
  O2-  O193  1  0.12125193  0.26823285  0.72904446  1
  O2-  O194  1  0.11960708  0.77161870  0.24879317  1
  O2-  O195  1  0.13189027  0.77471119  0.74759283  1
  O2-  O196  1  0.63373404  0.26571525  0.23301004  1
  O2-  O197  1  0.63431248  0.26564600  0.72183119  1
  O2-  O198  1  0.63590406  0.77986257  0.24307718  1
  O2-  O199  1  0.62332151  0.77151108  0.74959138  1
  O2-  O200  1  0.35979898  0.24095852  0.27434099  1
  O2-  O201  1  0.36286499  0.22159269  0.76620970  1
  O2-  O202  1  0.36646834  0.72100211  0.25529851  1
  O2-  O203  1  0.38252828  0.73178771  0.74308102  1
  O2-  O204  1  0.86647888  0.22680029  0.27848412  1
  O2-  O205  1  0.88341432  0.23664470  0.75824063  1
  O2-  O206  1  0.87521964  0.73616662  0.24957810  1
  O2-  O207  1  0.86257405  0.71236492  0.75287759  1
  O2-  O208  1  0.26603038  0.38354748  0.23671650  1
  O2-  O209  1  0.26504613  0.36225600  0.71690871  1
  O2-  O210  1  0.27312435  0.86398344  0.22223081  1
  O2-  O211  1  0.26965621  0.86667939  0.72312759  1
  O2-  O212  1  0.77988382  0.36685803  0.23082273  1
  O2-  O213  1  0.77172433  0.36843673  0.72207438  1
  O2-  O214  1  0.77371399  0.87467937  0.23558239  1
  O2-  O215  1  0.76815372  0.85908214  0.72956550  1
  O2-  O216  1  0.21716222  0.13590552  0.26983705  1
  O2-  O217  1  0.21631872  0.13653599  0.76275899  1
  O2-  O218  1  0.23039385  0.62173209  0.27231507  1
  O2-  O219  1  0.23003385  0.63247987  0.77486683  1
  O2-  O220  1  0.73840147  0.11359482  0.27109221  1
  O2-  O221  1  0.73604187  0.13486046  0.77581504  1
  O2-  O222  1  0.72960221  0.63830244  0.26691499  1
  O2-  O223  1  0.71350136  0.63297259  0.75813602  1
  O2-  O224  1  0.12588210  0.48958990  0.23969092  1
  O2-  O225  1  0.11519598  0.47563717  0.74405417  1
  O2-  O226  1  0.11390384  0.98163646  0.27936542  1
  O2-  O227  1  0.11174511  0.97868134  0.75973574  1
  O2-  O228  1  0.61518870  0.48070109  0.23408082  1
  O2-  O229  1  0.61021925  0.48583749  0.71510368  1
  O2-  O230  1  0.63279652  0.97497886  0.27381326  1
  O2-  O231  1  0.62021016  0.97874857  0.77622589  1
  O2-  O232  1  0.38213562  0.03641013  0.22891176  1
  O2-  O233  1  0.38634358  0.01522080  0.72550307  1
  O2-  O234  1  0.36930192  0.52038463  0.26390968  1
  O2-  O235  1  0.38741227  0.53905372  0.75825537  1
  O2-  O236  1  0.87692579  0.00902670  0.24157948  1
  O2-  O237  1  0.88428176  0.02147727  0.71888718  1
  O2-  O238  1  0.88715860  0.53187973  0.25338727  1
  O2-  O239  1  0.88540388  0.51068788  0.77886227  1
  O2-  O240  1  0.48228911  0.38369890  0.27297555  1
  O2-  O241  1  0.46306725  0.38863443  0.75749077  1
  O2-  O242  1  0.47338378  0.88823570  0.27595604  1
  O2-  O243  1  0.48372503  0.86650886  0.76484341  1
  O2-  O244  1  0.97824040  0.38908188  0.27120861  1
  O2-  O245  1  0.98468903  0.37030510  0.76361806  1
  O2-  O246  1  0.98134274  0.87041875  0.26924776  1
  O2-  O247  1  0.96797771  0.88500992  0.76835325  1
  O2-  O248  1  0.01493501  0.11217027  0.22371502  1
  O2-  O249  1  0.01577477  0.12845592  0.73382862  1
  O2-  O250  1  0.01953321  0.63424933  0.23622221  1
  O2-  O251  1  0.02191404  0.61447603  0.73214884  1
  O2-  O252  1  0.53811014  0.11383516  0.23373622  1
  O2-  O253  1  0.52833755  0.11797790  0.73305956  1
  O2-  O254  1  0.51832548  0.61765750  0.24163926  1
  O2-  O255  1  0.52203868  0.62936958  0.73317894  1
  O2-  O256  1  0.12114438  0.48334605  0.01182005  1
  O2-  O257  1  0.13456754  0.47505972  0.50991903  1
  O2-  O258  1  0.12944777  0.97720781  -0.02209584  1
  O2-  O259  1  0.11898015  0.98275173  0.47943571  1
  O2-  O260  1  0.63393707  0.48072600  0.02359898  1
  O2-  O261  1  0.61829611  0.48586898  0.51347583  1
  O2-  O262  1  0.64315399  0.96892696  -0.01040926  1
  O2-  O263  1  0.63531341  0.96729999  0.47855615  1
  O2-  O264  1  0.36719175  0.01969242  0.01910414  1
  O2-  O265  1  0.36812424  0.03002870  0.52285590  1
  O2-  O266  1  0.36300696  0.53396771  -0.00750825  1
  O2-  O267  1  0.37186877  0.50810197  0.47998650  1
  O2-  O268  1  0.86412480  0.01089870  0.04386829  1
  O2-  O269  1  0.87618015  0.01091920  0.51273364  1
  O2-  O270  1  0.88194003  0.52226315  -0.00172900  1
  O2-  O271  1  0.86770834  0.52462058  0.47205966  1
  O2-  O272  1  0.47671863  0.37136261  -0.01105861  1
  O2-  O273  1  0.48383520  0.37967853  0.48234094  1
  O2-  O274  1  0.48475834  0.86126770  -0.02619884  1
  O2-  O275  1  0.47505066  0.86258452  0.48808119  1
  O2-  O276  1  0.97923320  0.38464381  -0.01201554  1
  O2-  O277  1  0.98481583  0.36358733  0.47937064  1
  O2-  O278  1  0.96736060  0.86228089  -0.01032896  1
  O2-  O279  1  0.98050390  0.87717740  0.47965805  1
  O2-  O280  1  0.01844411  0.13573007  0.01710367  1
  O2-  O281  1  0.01560972  0.11817037  0.51414355  1
  O2-  O282  1  0.01479149  0.62627712  0.01963419  1
  O2-  O283  1  0.01909612  0.63854347  0.52196623  1
  O2-  O284  1  0.52584353  0.13359135  0.00981770  1
  O2-  O285  1  0.52689561  0.13453466  0.52925615  1
  O2-  O286  1  0.53929354  0.63609909  0.01323384  1
  O2-  O287  1  0.51761339  0.62143436  0.51221547  1
  O2-  O288  1  0.10936179  0.28141318  0.01267558  1
  O2-  O289  1  0.12686382  0.25997419  0.51772868  1
  O2-  O290  1  0.11378064  0.77442419  -0.00241708  1
  O2-  O291  1  0.11346719  0.77930430  0.50711243  1
  O2-  O292  1  0.61973004  0.27611032  0.01571900  1
  O2-  O293  1  0.61615643  0.27932269  0.51650561  1
  O2-  O294  1  0.63281955  0.77123306  -0.00205281  1
  O2-  O295  1  0.63144674  0.76788896  0.50505462  1
  O2-  O296  1  0.38150490  0.22837018  -0.02383383  1
  O2-  O297  1  0.36925897  0.23504151  0.48315208  1
  O2-  O298  1  0.38650568  0.71561899  0.00445297  1
  O2-  O299  1  0.38489009  0.72044872  0.49760778  1
  O2-  O300  1  0.88830578  0.24341177  -0.04096453  1
  O2-  O301  1  0.88691121  0.22761702  0.48220544  1
  O2-  O302  1  0.87075133  0.72546093  0.00139006  1
  O2-  O303  1  0.87179133  0.73015284  0.48887969  1
  O2-  O304  1  0.26568221  0.38816901  0.03207010  1
  O2-  O305  1  0.26481787  0.36943427  0.51161089  1
  O2-  O306  1  0.26806729  0.88108816  0.02144939  1
  O2-  O307  1  0.27185527  0.88697334  0.52502017  1
  O2-  O308  1  0.77869740  0.38747949  0.01953969  1
  O2-  O309  1  0.77574806  0.38604274  0.51738136  1
  O2-  O310  1  0.77501934  0.86549822  0.01298958  1
  O2-  O311  1  0.77331252  0.86725934  0.51109005  1
  O2-  O312  1  0.22778571  0.11921253  -0.01688629  1
  O2-  O313  1  0.23487721  0.12894615  0.47594286  1
  O2-  O314  1  0.21558431  0.61352008  -0.01668791  1
  O2-  O315  1  0.22865817  0.61463299  0.47590737  1
  O2-  O316  1  0.73471023  0.11428398  -0.02074237  1
  O2-  O317  1  0.73194880  0.10945385  0.47785925  1
  O2-  O318  1  0.73505343  0.62987153  -0.01586543  1
  O2-  O319  1  0.73359189  0.63155220  0.47636291  1
