# generated using pymatgen
data_Sr64Ca21Nb43O192
_symmetry_space_group_name_H-M   'P 1'
_cell_length_a   16.53722904
_cell_length_b   16.53554916
_cell_length_c   16.71080500
_cell_angle_alpha   89.98749519
_cell_angle_beta   89.98008987
_cell_angle_gamma   89.98948759
_symmetry_Int_Tables_number   1
_chemical_formula_structural   Sr64Ca21Nb43O192
_chemical_formula_sum   'Sr64 Ca21 Nb43 O192'
_cell_volume   4569.60532469
_cell_formula_units_Z   1
loop_
 _symmetry_equiv_pos_site_id
 _symmetry_equiv_pos_as_xyz
  1  'x, y, z'
loop_
 _atom_type_symbol
 _atom_type_oxidation_number
  Sr2+  2.0
  Ca2+  2.0
  Nb5+  5.0
  O2-  -2.0
loop_
 _atom_site_type_symbol
 _atom_site_label
 _atom_site_symmetry_multiplicity
 _atom_site_fract_x
 _atom_site_fract_y
 _atom_site_fract_z
 _atom_site_occupancy
  Sr2+  Sr0  1  0.11777587  0.14669739  0.12900386  1
  Sr2+  Sr1  1  0.12128763  0.11800470  0.62329706  1
  Sr2+  Sr2  1  0.11790161  0.60188483  0.12201990  1
  Sr2+  Sr3  1  0.11744390  0.61758089  0.62962753  1
  Sr2+  Sr4  1  0.63085330  0.11953736  0.13005874  1
  Sr2+  Sr5  1  0.62737699  0.12703013  0.62123222  1
  Sr2+  Sr6  1  0.62568842  0.62134017  0.12976998  1
  Sr2+  Sr7  1  0.62253970  0.62146937  0.62402325  1
  Sr2+  Sr8  1  0.36586592  0.36360949  0.12811445  1
  Sr2+  Sr9  1  0.36853397  0.36666700  0.62443896  1
  Sr2+  Sr10  1  0.36727970  0.86983727  0.12745462  1
  Sr2+  Sr11  1  0.36652156  0.88822465  0.62847254  1
  Sr2+  Sr12  1  0.87906380  0.37308240  0.12971558  1
  Sr2+  Sr13  1  0.86748041  0.36571539  0.62624607  1
  Sr2+  Sr14  1  0.87390243  0.87874649  0.12645714  1
  Sr2+  Sr15  1  0.87852774  0.87573890  0.62703170  1
  Sr2+  Sr16  1  0.13869571  0.38602214  0.36440895  1
  Sr2+  Sr17  1  0.12117109  0.38768340  0.88632574  1
  Sr2+  Sr18  1  0.14759828  0.87516352  0.37502846  1
  Sr2+  Sr19  1  0.13842906  0.87603094  0.87770999  1
  Sr2+  Sr20  1  0.62437374  0.37530673  0.37509507  1
  Sr2+  Sr21  1  0.63143797  0.38079517  0.87664578  1
  Sr2+  Sr22  1  0.62322960  0.87216180  0.36917694  1
  Sr2+  Sr23  1  0.61740572  0.87389418  0.87226315  1
  Sr2+  Sr24  1  0.37572438  0.12103049  0.36140538  1
  Sr2+  Sr25  1  0.39096735  0.13151049  0.87677344  1
  Sr2+  Sr26  1  0.37035712  0.62266658  0.37528863  1
  Sr2+  Sr27  1  0.38190979  0.63513458  0.87493465  1
  Sr2+  Sr28  1  0.87320102  0.12030023  0.36961483  1
  Sr2+  Sr29  1  0.87079279  0.12246364  0.89146884  1
  Sr2+  Sr30  1  0.89387850  0.63055569  0.38152922  1
  Sr2+  Sr31  1  0.89566994  0.62647006  0.86709286  1
  Sr2+  Sr32  1  0.13330589  0.13405342  0.37564427  1
  Sr2+  Sr33  1  0.12369541  0.13411995  0.88591203  1
  Sr2+  Sr34  1  0.12446229  0.62319340  0.36168209  1
  Sr2+  Sr35  1  0.12762302  0.63018570  0.87547963  1
  Sr2+  Sr36  1  0.63328166  0.11739169  0.37067030  1
  Sr2+  Sr37  1  0.63118326  0.14900927  0.87759802  1
  Sr2+  Sr38  1  0.62945400  0.62456790  0.37996145  1
  Sr2+  Sr39  1  0.63384034  0.62439407  0.87370951  1
  Sr2+  Sr40  1  0.38233953  0.38875300  0.36695221  1
  Sr2+  Sr41  1  0.38788434  0.38114366  0.88288344  1
  Sr2+  Sr42  1  0.38395313  0.86757196  0.37256373  1
  Sr2+  Sr43  1  0.37944741  0.87516300  0.87951714  1
  Sr2+  Sr44  1  0.87587631  0.37102920  0.37724854  1
  Sr2+  Sr45  1  0.86331024  0.39076571  0.87408191  1
  Sr2+  Sr46  1  0.87482075  0.86500213  0.37328526  1
  Sr2+  Sr47  1  0.87961774  0.87732627  0.88232033  1
  Sr2+  Sr48  1  0.12608631  0.36912324  0.12743828  1
  Sr2+  Sr49  1  0.11921517  0.36208354  0.62864744  1
  Sr2+  Sr50  1  0.12881046  0.87190897  0.12128016  1
  Sr2+  Sr51  1  0.12712620  0.88165238  0.62411388  1
  Sr2+  Sr52  1  0.60748353  0.37239441  0.12034990  1
  Sr2+  Sr53  1  0.62213000  0.37298010  0.62664420  1
  Sr2+  Sr54  1  0.61462525  0.88204652  0.13114412  1
  Sr2+  Sr55  1  0.61512462  0.88247092  0.62443533  1
  Sr2+  Sr56  1  0.35354653  0.12785013  0.12476546  1
  Sr2+  Sr57  1  0.35985166  0.12443234  0.62850790  1
  Sr2+  Sr58  1  0.36151413  0.62547039  0.11936027  1
  Sr2+  Sr59  1  0.36627552  0.61569482  0.62094731  1
  Sr2+  Sr60  1  0.87841965  0.11598928  0.12768524  1
  Sr2+  Sr61  1  0.88151922  0.11668274  0.62118280  1
  Sr2+  Sr62  1  0.88121713  0.62131436  0.14964861  1
  Sr2+  Sr63  1  0.87214012  0.62686875  0.62622297  1
  Ca2+  Ca64  1  -0.00597863  0.50192076  0.00013695  1
  Ca2+  Ca65  1  0.50040906  0.50324659  -0.00376226  1
  Ca2+  Ca66  1  0.49985284  0.00008704  -0.00111403  1
  Ca2+  Ca67  1  -0.00004360  0.49907788  0.50108962  1
  Ca2+  Ca68  1  0.50095881  0.00146122  0.49770558  1
  Ca2+  Ca69  1  0.75248910  0.74797141  -0.00066371  1
  Ca2+  Ca70  1  0.25034878  0.24800671  -0.00515206  1
  Ca2+  Ca71  1  0.24960907  0.74835140  0.50255042  1
  Ca2+  Ca72  1  0.25234844  0.25305856  0.49851211  1
  Ca2+  Ca73  1  0.75114328  0.25415268  0.00486336  1
  Ca2+  Ca74  1  0.00279654  0.75474677  0.24878989  1
  Ca2+  Ca75  1  0.25286736  0.50215455  0.24731222  1
  Ca2+  Ca76  1  -0.00133219  0.24539574  0.75312330  1
  Ca2+  Ca77  1  0.49998903  0.74454716  0.24961513  1
  Ca2+  Ca78  1  0.25024736  0.49568871  0.75229926  1
  Ca2+  Ca79  1  0.74984615  0.00173452  0.75016472  1
  Ca2+  Ca80  1  0.50267587  0.24831809  0.25441056  1
  Ca2+  Ca81  1  -0.00459068  0.24851293  0.25412000  1
  Ca2+  Ca82  1  0.24654750  0.00379616  0.75263858  1
  Ca2+  Ca83  1  0.24677155  -0.00312606  0.24511064  1
  Ca2+  Ca84  1  0.74971499  0.49899011  0.25664614  1
  Nb5+  Nb85  1  0.00240262  -0.00073740  0.00871436  1
  Nb5+  Nb86  1  0.00068613  -0.00078811  0.49985477  1
  Nb5+  Nb87  1  0.50242839  0.50028376  0.50193513  1
  Nb5+  Nb88  1  0.74778219  0.74668817  0.50259785  1
  Nb5+  Nb89  1  0.24817672  0.74880745  -0.00100100  1
  Nb5+  Nb90  1  0.75031852  0.24518807  0.50094268  1
  Nb5+  Nb91  1  0.75173396  -0.00305187  0.25008076  1
  Nb5+  Nb92  1  0.50073195  0.25983197  0.74761354  1
  Nb5+  Nb93  1  0.50312502  0.75423149  0.74398216  1
  Nb5+  Nb94  1  0.74863357  0.50302239  0.74824299  1
  Nb5+  Nb95  1  0.00692911  0.75693436  0.74949419  1
  Nb5+  Nb96  1  0.00205548  -0.00570648  0.25617235  1
  Nb5+  Nb97  1  0.00277831  0.00257613  0.76030777  1
  Nb5+  Nb98  1  -0.00223915  0.49656077  0.25367181  1
  Nb5+  Nb99  1  -0.00109818  0.49466417  0.74554684  1
  Nb5+  Nb100  1  0.49537414  -0.00011864  0.24707932  1
  Nb5+  Nb101  1  0.50538756  0.01024001  0.74927379  1
  Nb5+  Nb102  1  0.50108533  0.50316877  0.24062246  1
  Nb5+  Nb103  1  0.49909447  0.50851472  0.74984824  1
  Nb5+  Nb104  1  0.25072924  0.24815707  0.25320007  1
  Nb5+  Nb105  1  0.24546334  0.25314154  0.75410730  1
  Nb5+  Nb106  1  0.24861918  0.74634343  0.25213613  1
  Nb5+  Nb107  1  0.25735666  0.75100033  0.74681055  1
  Nb5+  Nb108  1  0.74820354  0.25243507  0.24829309  1
  Nb5+  Nb109  1  0.75148476  0.24824999  0.74773889  1
  Nb5+  Nb110  1  0.75003130  0.74774610  0.24757781  1
  Nb5+  Nb111  1  0.75478450  0.75280028  0.74973280  1
  Nb5+  Nb112  1  0.00140624  0.25347106  0.49845748  1
  Nb5+  Nb113  1  -0.00586064  0.25520592  0.99556692  1
  Nb5+  Nb114  1  0.00492762  0.75537145  0.50093912  1
  Nb5+  Nb115  1  -0.00202699  0.75062197  0.99988036  1
  Nb5+  Nb116  1  0.50199159  0.25000908  0.50149433  1
  Nb5+  Nb117  1  0.50282179  0.24600828  1.00657477  1
  Nb5+  Nb118  1  0.49710719  0.74747552  0.50409646  1
  Nb5+  Nb119  1  0.50326000  0.74876824  1.00376069  1
  Nb5+  Nb120  1  0.24839381  0.00286698  0.00046193  1
  Nb5+  Nb121  1  0.25472703  0.00555125  0.49540374  1
  Nb5+  Nb122  1  0.25140606  0.49538605  -0.00398761  1
  Nb5+  Nb123  1  0.24380481  0.49617172  0.50521839  1
  Nb5+  Nb124  1  0.74650720  -0.00631373  -0.00250771  1
  Nb5+  Nb125  1  0.75282398  -0.00783241  0.49897265  1
  Nb5+  Nb126  1  0.75246934  0.50410401  0.00979829  1
  Nb5+  Nb127  1  0.75059439  0.49604443  0.50142426  1
  O2-  O128  1  -0.00317674  -0.01062007  0.12548699  1
  O2-  O129  1  0.00012237  -0.00142497  0.62008879  1
  O2-  O130  1  -0.02832841  0.49721929  0.13325960  1
  O2-  O131  1  -0.02103447  0.52085088  0.63338395  1
  O2-  O132  1  0.52584912  0.01252016  0.13275062  1
  O2-  O133  1  0.52159977  0.01556941  0.63074607  1
  O2-  O134  1  0.49140599  0.53170205  0.13029027  1
  O2-  O135  1  0.49320527  0.51988483  0.62926996  1
  O2-  O136  1  -0.00807677  0.00175790  0.37473423  1
  O2-  O137  1  -0.00432373  0.00104395  0.87715543  1
  O2-  O138  1  0.02777109  0.50195108  0.36997633  1
  O2-  O139  1  0.01189822  0.51038640  0.86110301  1
  O2-  O140  1  0.49302521  -0.02824494  0.36470433  1
  O2-  O141  1  0.49186103  -0.02427334  0.86157427  1
  O2-  O142  1  0.51797027  0.48149063  0.38877718  1
  O2-  O143  1  0.51591014  0.47532115  0.86017705  1
  O2-  O144  1  0.24000270  0.27032922  0.13143150  1
  O2-  O145  1  0.24116483  0.27946982  0.63396843  1
  O2-  O146  1  0.25298800  0.76737933  0.11675517  1
  O2-  O147  1  0.25782450  0.77898518  0.63526193  1
  O2-  O148  1  0.71701259  0.25855310  0.13853512  1
  O2-  O149  1  0.72938334  0.25976831  0.62438237  1
  O2-  O150  1  0.77373882  0.74681535  0.13565750  1
  O2-  O151  1  0.75650406  0.74925508  0.62467262  1
  O2-  O152  1  0.26419990  0.21804626  0.36781046  1
  O2-  O153  1  0.26412896  0.21130683  0.86319947  1
  O2-  O154  1  0.24267612  0.72592302  0.36679498  1
  O2-  O155  1  0.24322038  0.73193674  0.87525743  1
  O2-  O156  1  0.77346832  0.24953395  0.38658438  1
  O2-  O157  1  0.76806229  0.25275645  0.86348243  1
  O2-  O158  1  0.73539050  0.75619769  0.38523727  1
  O2-  O159  1  0.72814816  0.75085422  0.86150583  1
  O2-  O160  1  0.01280814  0.26488162  0.11503053  1
  O2-  O161  1  0.02234564  0.23923392  0.61569158  1
  O2-  O162  1  -0.02181713  0.75346709  0.11256442  1
  O2-  O163  1  -0.01280206  0.75878460  0.62655319  1
  O2-  O164  1  0.52585317  0.23066265  0.11754177  1
  O2-  O165  1  0.52917700  0.24225498  0.62839472  1
  O2-  O166  1  0.49953448  0.71880142  0.11328583  1
  O2-  O167  1  0.49681126  0.71851360  0.62863714  1
  O2-  O168  1  0.23933218  0.02178574  0.37925240  1
  O2-  O169  1  0.22598418  0.01354995  0.88553953  1
  O2-  O170  1  0.23701602  0.52354442  0.38728917  1
  O2-  O171  1  0.21529405  0.51133955  0.88278359  1
  O2-  O172  1  0.76028739  0.00290161  0.37544582  1
  O2-  O173  1  0.76362656  -0.00055723  0.88401865  1
  O2-  O174  1  0.71970173  0.49852924  0.39058977  1
  O2-  O175  1  0.73291192  0.49862935  0.86509182  1
  O2-  O176  1  -0.03575607  0.23910414  0.38875044  1
  O2-  O177  1  -0.01804519  0.21909637  0.88319067  1
  O2-  O178  1  0.00147343  0.75659909  0.38603741  1
  O2-  O179  1  0.01556622  0.75970861  0.86673444  1
  O2-  O180  1  0.48716610  0.27968373  0.39173268  1
  O2-  O181  1  0.48645520  0.26518734  0.86427447  1
  O2-  O182  1  0.50767521  0.76564883  0.38947193  1
  O2-  O183  1  0.49806870  0.77001959  0.86163836  1
  O2-  O184  1  0.24861528  -0.03597121  0.11258968  1
  O2-  O185  1  0.24223470  -0.01997998  0.61262469  1
  O2-  O186  1  0.27854729  0.49330013  0.11308136  1
  O2-  O187  1  0.27874056  0.48466695  0.61842217  1
  O2-  O188  1  0.74789426  -0.00592218  0.13031089  1
  O2-  O189  1  0.75164279  0.00823698  0.61310312  1
  O2-  O190  1  0.77357375  0.51082197  0.12169485  1
  O2-  O191  1  0.76753698  0.50355349  0.62578331  1
  O2-  O192  1  0.13033164  0.26436513  0.26923413  1
  O2-  O193  1  0.13423294  0.28215256  0.77196743  1
  O2-  O194  1  0.13480756  0.78393757  0.24617280  1
  O2-  O195  1  0.12139201  0.77244450  0.73719201  1
  O2-  O196  1  0.63787296  0.25345933  0.29062336  1
  O2-  O197  1  0.62452969  0.27260415  0.76459976  1
  O2-  O198  1  0.63562466  0.78059492  0.24392886  1
  O2-  O199  1  0.62140026  0.76525565  0.73488879  1
  O2-  O200  1  0.36964688  0.22728531  0.23568675  1
  O2-  O201  1  0.38886795  0.22898638  0.73088976  1
  O2-  O202  1  0.36589832  0.71693586  0.24390259  1
  O2-  O203  1  0.37464735  0.72823822  0.74955938  1
  O2-  O204  1  0.86032651  0.21758689  0.23737645  1
  O2-  O205  1  0.86357461  0.23388192  0.72153850  1
  O2-  O206  1  0.86404434  0.73206334  0.27712098  1
  O2-  O207  1  0.87097432  0.72946902  0.75509110  1
  O2-  O208  1  0.26766488  0.36677580  0.27136300  1
  O2-  O209  1  0.28999806  0.36196751  0.77297011  1
  O2-  O210  1  0.28208462  0.86290742  0.26653132  1
  O2-  O211  1  0.26629920  0.86511466  0.77779831  1
  O2-  O212  1  0.77707029  0.36415249  0.25862060  1
  O2-  O213  1  0.76274195  0.38003786  0.74536387  1
  O2-  O214  1  0.77261489  0.87756129  0.25602284  1
  O2-  O215  1  0.77255477  0.86599453  0.74370929  1
  O2-  O216  1  0.22895538  0.13040990  0.22506565  1
  O2-  O217  1  0.23744307  0.13716581  0.71753157  1
  O2-  O218  1  0.21890973  0.63383314  0.22483324  1
  O2-  O219  1  0.22464979  0.63713089  0.73579184  1
  O2-  O220  1  0.72949962  0.11775370  0.25050143  1
  O2-  O221  1  0.72046516  0.13658551  0.74658244  1
  O2-  O222  1  0.72104447  0.63513953  0.25285279  1
  O2-  O223  1  0.73278655  0.62507039  0.74185755  1
  O2-  O224  1  0.11605417  0.47588547  0.22993114  1
  O2-  O225  1  0.11286001  0.48034178  0.72496582  1
  O2-  O226  1  0.11274345  0.96511531  0.25399625  1
  O2-  O227  1  0.11214025  0.96111117  0.74820663  1
  O2-  O228  1  0.61682771  0.47010333  0.23712718  1
  O2-  O229  1  0.62818123  0.49063171  0.73059243  1
  O2-  O230  1  0.63307163  0.97788702  0.26031160  1
  O2-  O231  1  0.61710218  0.96650861  0.75348458  1
  O2-  O232  1  0.38262772  0.02449536  0.23706533  1
  O2-  O233  1  0.38646868  0.01091757  0.73258657  1
  O2-  O234  1  0.38781157  0.51486022  0.27650790  1
  O2-  O235  1  0.38599633  0.52569880  0.76233138  1
  O2-  O236  1  0.87045227  0.02169224  0.24815940  1
  O2-  O237  1  0.88744351  0.02575974  0.74465150  1
  O2-  O238  1  0.88188356  0.52734281  0.27819018  1
  O2-  O239  1  0.86877674  0.51921698  0.76234429  1
  O2-  O240  1  0.47926934  0.38291096  0.22866960  1
  O2-  O241  1  0.48753768  0.37578600  0.72849259  1
  O2-  O242  1  0.48400108  0.87988003  0.22569617  1
  O2-  O243  1  0.48275286  0.86531575  0.72169887  1
  O2-  O244  1  0.96826384  0.38112206  0.25858648  1
  O2-  O245  1  0.97035518  0.38285201  0.74630371  1
  O2-  O246  1  0.96044480  0.88447095  0.25036162  1
  O2-  O247  1  0.96893239  0.87266429  0.75081942  1
  O2-  O248  1  0.01527908  0.11137629  0.24095327  1
  O2-  O249  1  0.03871600  0.11186712  0.75164703  1
  O2-  O250  1  0.01846116  0.61935180  0.24386909  1
  O2-  O251  1  0.01235019  0.63682562  0.75017506  1
  O2-  O252  1  0.52176342  0.11298960  0.27466247  1
  O2-  O253  1  0.52280052  0.12524924  0.76744195  1
  O2-  O254  1  0.52972649  0.61316932  0.27474434  1
  O2-  O255  1  0.52207065  0.62386746  0.76668562  1
  O2-  O256  1  0.13148278  0.47887247  0.02354936  1
  O2-  O257  1  0.13375330  0.46714613  0.52146993  1
  O2-  O258  1  0.11829283  0.97308726  0.00214149  1
  O2-  O259  1  0.11525058  0.97687737  0.49308238  1
  O2-  O260  1  0.63558728  0.46971437  0.00973973  1
  O2-  O261  1  0.62879977  0.49273272  0.52953948  1
  O2-  O262  1  0.63503454  0.96459955  -0.00409902  1
  O2-  O263  1  0.63752108  0.97934647  0.48694948  1
  O2-  O264  1  0.36280536  0.02053766  -0.00699092  1
  O2-  O265  1  0.36730479  0.03259666  0.49999732  1
  O2-  O266  1  0.36450969  0.52421736  -0.02993740  1
  O2-  O267  1  0.38837929  0.52371896  0.49165278  1
  O2-  O268  1  0.88143693  0.01925588  0.00553840  1
  O2-  O269  1  0.87423969  0.02166388  0.49707153  1
  O2-  O270  1  0.86146700  0.53128093  -0.02807893  1
  O2-  O271  1  0.86232688  0.52476637  0.48574738  1
  O2-  O272  1  0.47688780  0.36474985  0.01733781  1
  O2-  O273  1  0.49573996  0.38267213  0.52778799  1
  O2-  O274  1  0.46645635  0.86173070  0.00924272  1
  O2-  O275  1  0.48217394  0.86106049  0.53012406  1
  O2-  O276  1  0.97537879  0.36720414  -0.02565920  1
  O2-  O277  1  0.96938122  0.36483195  0.50915246  1
  O2-  O278  1  0.98241176  0.87716558  -0.00474792  1
  O2-  O279  1  0.96930499  0.87991902  0.50147421  1
  O2-  O280  1  0.02326081  0.11601118  0.00991716  1
  O2-  O281  1  0.01224253  0.11950136  0.49947334  1
  O2-  O282  1  0.02406418  0.63722370  -0.00661275  1
  O2-  O283  1  0.01882585  0.63958762  0.50303266  1
  O2-  O284  1  0.51949444  0.13253405  -0.03033234  1
  O2-  O285  1  0.53034362  0.13941592  0.48501194  1
  O2-  O286  1  0.51161587  0.63836811  -0.03845563  1
  O2-  O287  1  0.52925706  0.62352709  0.49359856  1
  O2-  O288  1  0.11436719  0.26244027  -0.02057564  1
  O2-  O289  1  0.11203201  0.27223614  0.47141601  1
  O2-  O290  1  0.12361312  0.77364622  -0.00066579  1
  O2-  O291  1  0.11555761  0.78431212  0.50860657  1
  O2-  O292  1  0.61693656  0.27081012  -0.02451840  1
  O2-  O293  1  0.63256879  0.27650617  0.49251025  1
  O2-  O294  1  0.61458439  0.77848973  0.00400508  1
  O2-  O295  1  0.62825285  0.76868954  0.51626989  1
  O2-  O296  1  0.38506126  0.22296162  0.00724027  1
  O2-  O297  1  0.39079695  0.23685236  0.52870474  1
  O2-  O298  1  0.36718466  0.72905932  -0.00446568  1
  O2-  O299  1  0.38532773  0.71973917  0.49772034  1
  O2-  O300  1  0.88265940  0.21997732  0.01952062  1
  O2-  O301  1  0.86581431  0.23597828  0.52989836  1
  O2-  O302  1  0.88750285  0.73981441  -0.03475013  1
  O2-  O303  1  0.86936699  0.73611458  0.49807764  1
  O2-  O304  1  0.26976334  0.38191524  -0.02029943  1
  O2-  O305  1  0.28216001  0.38637859  0.47763726  1
  O2-  O306  1  0.26247709  0.86896887  -0.02339430  1
  O2-  O307  1  0.27097768  0.88594541  0.47301956  1
  O2-  O308  1  0.78331283  0.38665592  0.00111346  1
  O2-  O309  1  0.76875898  0.37938376  0.50354093  1
  O2-  O310  1  0.78499130  0.88213148  0.00570708  1
  O2-  O311  1  0.77265498  0.87624349  0.50355906  1
  O2-  O312  1  0.22378189  0.11284507  0.02782323  1
  O2-  O313  1  0.21877493  0.11832639  0.51484323  1
  O2-  O314  1  0.22622608  0.63057304  0.01256515  1
  O2-  O315  1  0.23247877  0.61511851  0.52958445  1
  O2-  O316  1  0.73093584  0.11289097  0.00814606  1
  O2-  O317  1  0.73129606  0.12909456  0.49889222  1
  O2-  O318  1  0.71084078  0.61745688  0.00288695  1
  O2-  O319  1  0.73159741  0.62990289  0.50593293  1
