# generated using pymatgen
data_Sr64Ca21Nb43O192
_symmetry_space_group_name_H-M   'P 1'
_cell_length_a   16.59497389
_cell_length_b   16.61383109
_cell_length_c   16.76969737
_cell_angle_alpha   90.05099188
_cell_angle_beta   90.00843523
_cell_angle_gamma   90.02164505
_symmetry_Int_Tables_number   1
_chemical_formula_structural   Sr64Ca21Nb43O192
_chemical_formula_sum   'Sr64 Ca21 Nb43 O192'
_cell_volume   4623.50553432
_cell_formula_units_Z   1
loop_
 _symmetry_equiv_pos_site_id
 _symmetry_equiv_pos_as_xyz
  1  'x, y, z'
loop_
 _atom_type_symbol
 _atom_type_oxidation_number
  Sr2+  2.0
  Ca2+  2.0
  Nb5+  5.0
  O2-  -2.0
loop_
 _atom_site_type_symbol
 _atom_site_label
 _atom_site_symmetry_multiplicity
 _atom_site_fract_x
 _atom_site_fract_y
 _atom_site_fract_z
 _atom_site_occupancy
  Sr2+  Sr0  1  0.11667053  0.12593514  0.13204516  1
  Sr2+  Sr1  1  0.12659090  0.12938115  0.61571529  1
  Sr2+  Sr2  1  0.11245281  0.63844845  0.12039921  1
  Sr2+  Sr3  1  0.11158762  0.63554400  0.63302639  1
  Sr2+  Sr4  1  0.62317469  0.11887461  0.12572220  1
  Sr2+  Sr5  1  0.61636071  0.11918417  0.63107754  1
  Sr2+  Sr6  1  0.62209781  0.61962607  0.12963417  1
  Sr2+  Sr7  1  0.61994742  0.63711183  0.62538135  1
  Sr2+  Sr8  1  0.36363313  0.38869488  0.11959828  1
  Sr2+  Sr9  1  0.36701138  0.37468026  0.62760072  1
  Sr2+  Sr10  1  0.37552089  0.87271911  0.11894574  1
  Sr2+  Sr11  1  0.37844351  0.87366266  0.63010616  1
  Sr2+  Sr12  1  0.87367755  0.37268990  0.12152590  1
  Sr2+  Sr13  1  0.87143914  0.38845718  0.63284765  1
  Sr2+  Sr14  1  0.87751910  0.87040192  0.11978501  1
  Sr2+  Sr15  1  0.88085485  0.87176384  0.63789147  1
  Sr2+  Sr16  1  0.12152266  0.36539920  0.37957240  1
  Sr2+  Sr17  1  0.15432456  0.37798822  0.87754064  1
  Sr2+  Sr18  1  0.13308544  0.87055959  0.36914840  1
  Sr2+  Sr19  1  0.12869765  0.86110105  0.86562307  1
  Sr2+  Sr20  1  0.60846043  0.37813292  0.37456977  1
  Sr2+  Sr21  1  0.64439376  0.36810354  0.87357951  1
  Sr2+  Sr22  1  0.63365900  0.86960655  0.37682456  1
  Sr2+  Sr23  1  0.62558940  0.87520941  0.89910150  1
  Sr2+  Sr24  1  0.36751348  0.13002570  0.37825763  1
  Sr2+  Sr25  1  0.38683630  0.12792598  0.87418605  1
  Sr2+  Sr26  1  0.39031374  0.62017546  0.37075001  1
  Sr2+  Sr27  1  0.36007643  0.62195244  0.87922366  1
  Sr2+  Sr28  1  0.88611549  0.12669472  0.37159279  1
  Sr2+  Sr29  1  0.87360317  0.11973928  0.87329009  1
  Sr2+  Sr30  1  0.87774004  0.61654826  0.38014240  1
  Sr2+  Sr31  1  0.88709879  0.61800674  0.86451883  1
  Sr2+  Sr32  1  0.12421095  0.12865737  0.37282655  1
  Sr2+  Sr33  1  0.12536741  0.12616943  0.85177952  1
  Sr2+  Sr34  1  0.11935698  0.62931279  0.37610211  1
  Sr2+  Sr35  1  0.12129342  0.61892656  0.88028338  1
  Sr2+  Sr36  1  0.62780160  0.11399978  0.37657691  1
  Sr2+  Sr37  1  0.62980474  0.13696539  0.87460505  1
  Sr2+  Sr38  1  0.63195666  0.60923292  0.37556732  1
  Sr2+  Sr39  1  0.63228991  0.61840669  0.87081392  1
  Sr2+  Sr40  1  0.37798815  0.38086984  0.37878506  1
  Sr2+  Sr41  1  0.37919150  0.37073640  0.87533084  1
  Sr2+  Sr42  1  0.38356495  0.86163056  0.37188720  1
  Sr2+  Sr43  1  0.38490718  0.85344034  0.87924577  1
  Sr2+  Sr44  1  0.88188546  0.36658678  0.37045922  1
  Sr2+  Sr45  1  0.88253400  0.37369822  0.87705255  1
  Sr2+  Sr46  1  0.87617707  0.85650691  0.38025408  1
  Sr2+  Sr47  1  0.87475893  0.85161086  0.87433996  1
  Sr2+  Sr48  1  0.11809135  0.38271270  0.12395088  1
  Sr2+  Sr49  1  0.12233623  0.37433763  0.63664324  1
  Sr2+  Sr50  1  0.13644196  0.88087735  0.12387263  1
  Sr2+  Sr51  1  0.13061475  0.88748108  0.63411825  1
  Sr2+  Sr52  1  0.62579735  0.37421439  0.11966208  1
  Sr2+  Sr53  1  0.61119154  0.37445425  0.63222097  1
  Sr2+  Sr54  1  0.61233391  0.88179166  0.13009303  1
  Sr2+  Sr55  1  0.64393049  0.87598745  0.61990204  1
  Sr2+  Sr56  1  0.35949343  0.11534597  0.12809454  1
  Sr2+  Sr57  1  0.36743340  0.12373956  0.62505038  1
  Sr2+  Sr58  1  0.35805216  0.63611669  0.12226773  1
  Sr2+  Sr59  1  0.36140000  0.63536110  0.62750967  1
  Sr2+  Sr60  1  0.87642194  0.12317459  0.12290113  1
  Sr2+  Sr61  1  0.89764056  0.11200875  0.62745838  1
  Sr2+  Sr62  1  0.87910844  0.62412136  0.11545998  1
  Sr2+  Sr63  1  0.86258957  0.63542764  0.62938129  1
  Ca2+  Ca64  1  -0.00166125  0.49472923  0.00019405  1
  Ca2+  Ca65  1  -0.00184838  0.50174683  0.49977744  1
  Ca2+  Ca66  1  0.00218046  -0.00641632  0.49698991  1
  Ca2+  Ca67  1  0.00140913  -0.00115620  -0.00270086  1
  Ca2+  Ca68  1  0.49851088  0.49770290  -0.00231113  1
  Ca2+  Ca69  1  0.25017913  0.75273206  0.50073072  1
  Ca2+  Ca70  1  0.74900722  0.74709514  0.00389690  1
  Ca2+  Ca71  1  0.24679097  0.75354750  -0.00013837  1
  Ca2+  Ca72  1  0.25207431  0.24395781  0.00269929  1
  Ca2+  Ca73  1  0.74951307  0.24766547  0.49878699  1
  Ca2+  Ca74  1  0.50266977  0.75062733  0.25006745  1
  Ca2+  Ca75  1  0.74935257  0.00320289  0.75038034  1
  Ca2+  Ca76  1  0.00010216  0.74923044  0.75052958  1
  Ca2+  Ca77  1  0.50141030  0.75006804  0.75081898  1
  Ca2+  Ca78  1  -0.00055337  0.24984187  0.75073279  1
  Ca2+  Ca79  1  0.25729790  -0.00123119  0.75272483  1
  Ca2+  Ca80  1  0.24921375  0.50051087  0.25504852  1
  Ca2+  Ca81  1  -0.00327454  0.75352378  0.25109188  1
  Ca2+  Ca82  1  0.74831968  0.49838686  0.74775582  1
  Ca2+  Ca83  1  0.49824687  0.24910767  0.25006840  1
  Ca2+  Ca84  1  0.25015937  0.50019562  0.74428804  1
  Nb5+  Nb85  1  0.49730821  -0.00548828  0.50404084  1
  Nb5+  Nb86  1  0.49867840  0.00583347  0.00604425  1
  Nb5+  Nb87  1  0.49885795  0.49864587  0.50504209  1
  Nb5+  Nb88  1  0.25021637  0.25228674  0.49960391  1
  Nb5+  Nb89  1  0.74764837  0.74483481  0.49694780  1
  Nb5+  Nb90  1  0.75171243  0.24752621  0.00075594  1
  Nb5+  Nb91  1  0.24518382  -0.00091379  0.25342185  1
  Nb5+  Nb92  1  0.74977212  -0.00652504  0.24971295  1
  Nb5+  Nb93  1  0.75204727  0.49239087  0.25034265  1
  Nb5+  Nb94  1  0.50038859  0.25078984  0.75096020  1
  Nb5+  Nb95  1  -0.00024095  0.25124485  0.24566834  1
  Nb5+  Nb96  1  -0.00918464  -0.00271443  0.24924632  1
  Nb5+  Nb97  1  0.00186824  0.00116657  0.75455775  1
  Nb5+  Nb98  1  0.00391812  0.50219715  0.25489469  1
  Nb5+  Nb99  1  0.00174682  0.49571004  0.74912146  1
  Nb5+  Nb100  1  0.49409002  0.00384685  0.25723738  1
  Nb5+  Nb101  1  0.50186312  -0.00137892  0.75865075  1
  Nb5+  Nb102  1  0.49988141  0.50156096  0.24482887  1
  Nb5+  Nb103  1  0.49861968  0.50331623  0.75273872  1
  Nb5+  Nb104  1  0.25063221  0.25138261  0.24979970  1
  Nb5+  Nb105  1  0.25339425  0.24744513  0.75279614  1
  Nb5+  Nb106  1  0.24522076  0.74677439  0.25153224  1
  Nb5+  Nb107  1  0.25044434  0.74933322  0.75014715  1
  Nb5+  Nb108  1  0.74895871  0.24486371  0.24911908  1
  Nb5+  Nb109  1  0.75347463  0.24887847  0.74018539  1
  Nb5+  Nb110  1  0.75019246  0.74016049  0.24911382  1
  Nb5+  Nb111  1  0.74118511  0.75114063  0.75532004  1
  Nb5+  Nb112  1  -0.00286471  0.24736533  0.50373435  1
  Nb5+  Nb113  1  0.00382448  0.24564141  0.99422995  1
  Nb5+  Nb114  1  0.00543932  0.75639966  0.50283879  1
  Nb5+  Nb115  1  -0.00270019  0.75074074  0.99866449  1
  Nb5+  Nb116  1  0.50156605  0.24480162  0.49927131  1
  Nb5+  Nb117  1  0.50030695  0.24851498  1.00634891  1
  Nb5+  Nb118  1  0.49979817  0.74351930  0.49676583  1
  Nb5+  Nb119  1  0.50612528  0.73987856  1.00027141  1
  Nb5+  Nb120  1  0.24859203  0.00319656  -0.00853487  1
  Nb5+  Nb121  1  0.25433391  -0.00299094  0.49680956  1
  Nb5+  Nb122  1  0.24777659  0.50010083  0.00551357  1
  Nb5+  Nb123  1  0.24331880  0.50483795  0.49792738  1
  Nb5+  Nb124  1  0.75009242  0.00232199  -0.00066580  1
  Nb5+  Nb125  1  0.75498653  0.00228749  0.49865623  1
  Nb5+  Nb126  1  0.74586678  0.50183868  -0.00033135  1
  Nb5+  Nb127  1  0.74976390  0.49161920  0.50130898  1
  O2-  O128  1  0.01486724  -0.00537807  0.13548934  1
  O2-  O129  1  -0.00038071  -0.00986188  0.63246632  1
  O2-  O130  1  0.00845755  0.49691803  0.13837301  1
  O2-  O131  1  0.02693248  0.49738706  0.63024433  1
  O2-  O132  1  0.49456900  0.02070728  0.12284281  1
  O2-  O133  1  0.48894670  0.01781565  0.61538755  1
  O2-  O134  1  0.52693310  0.50199288  0.13414378  1
  O2-  O135  1  0.53174010  0.51048556  0.61696522  1
  O2-  O136  1  0.01383541  0.00917298  0.36187697  1
  O2-  O137  1  0.00466690  0.03401851  0.86872178  1
  O2-  O138  1  -0.03616403  0.49352216  0.36440135  1
  O2-  O139  1  -0.02509650  0.49508528  0.86736443  1
  O2-  O140  1  0.50644066  -0.01149470  0.37119821  1
  O2-  O141  1  0.51527020  -0.00579159  0.87432865  1
  O2-  O142  1  0.49036215  0.49156483  0.38289678  1
  O2-  O143  1  0.46664774  0.49532072  0.86262593  1
  O2-  O144  1  0.23123878  0.26891180  0.13804284  1
  O2-  O145  1  0.24389486  0.26678226  0.61771304  1
  O2-  O146  1  0.26880316  0.77221667  0.13627315  1
  O2-  O147  1  0.27557321  0.77179148  0.63339960  1
  O2-  O148  1  0.73632385  0.26445727  0.12606387  1
  O2-  O149  1  0.73436799  0.27552047  0.63208890  1
  O2-  O150  1  0.78037887  0.75184705  0.13867685  1
  O2-  O151  1  0.76623003  0.76535144  0.61207711  1
  O2-  O152  1  0.25426742  0.22836389  0.37757710  1
  O2-  O153  1  0.27013974  0.22840436  0.86492706  1
  O2-  O154  1  0.21876042  0.74206381  0.36802039  1
  O2-  O155  1  0.22638446  0.72821084  0.86775125  1
  O2-  O156  1  0.77702134  0.23598341  0.36088876  1
  O2-  O157  1  0.75765195  0.23195184  0.88371179  1
  O2-  O158  1  0.72125800  0.74251823  0.37803017  1
  O2-  O159  1  0.71445411  0.74618085  0.86683246  1
  O2-  O160  1  0.02493907  0.25828803  0.13095831  1
  O2-  O161  1  0.02066980  0.25513601  0.61479601  1
  O2-  O162  1  -0.02960647  0.74467209  0.11827868  1
  O2-  O163  1  -0.02573885  0.73602541  0.61655320  1
  O2-  O164  1  0.52707002  0.24058199  0.11652045  1
  O2-  O165  1  0.51152103  0.23812441  0.62340588  1
  O2-  O166  1  0.47909217  0.73815499  0.11599588  1
  O2-  O167  1  0.47942181  0.74228115  0.61198003  1
  O2-  O168  1  0.24799465  0.02656348  0.37322840  1
  O2-  O169  1  0.25189879  0.03918761  0.88465935  1
  O2-  O170  1  0.28676983  0.51310739  0.38859292  1
  O2-  O171  1  0.25352444  0.51585910  0.88437915  1
  O2-  O172  1  0.74395970  0.01555206  0.36681438  1
  O2-  O173  1  0.73088919  0.01861099  0.88743280  1
  O2-  O174  1  0.75994788  0.51528144  0.36960069  1
  O2-  O175  1  0.76000391  0.51668215  0.88592281  1
  O2-  O176  1  -0.01322952  0.24433191  0.36750602  1
  O2-  O177  1  -0.02989775  0.23535272  0.88507499  1
  O2-  O178  1  0.01831180  0.77095049  0.38495116  1
  O2-  O179  1  0.02240435  0.75222616  0.88307608  1
  O2-  O180  1  0.48105729  0.26362486  0.38654693  1
  O2-  O181  1  0.48663889  0.25608752  0.86972628  1
  O2-  O182  1  0.51537188  0.77868353  0.38465200  1
  O2-  O183  1  0.52018110  0.77190053  0.88592148  1
  O2-  O184  1  0.26496838  -0.01784304  0.13805989  1
  O2-  O185  1  0.26936812  -0.01501700  0.61208590  1
  O2-  O186  1  0.23950498  0.47200631  0.12293303  1
  O2-  O187  1  0.24285797  0.46462013  0.60687722  1
  O2-  O188  1  0.75360642  -0.00645301  0.13020414  1
  O2-  O189  1  0.76285840  -0.01561820  0.61097047  1
  O2-  O190  1  0.72701036  0.48907125  0.13368178  1
  O2-  O191  1  0.73172647  0.47329276  0.61284699  1
  O2-  O192  1  0.12188257  0.25652542  0.26898498  1
  O2-  O193  1  0.13878476  0.26895318  0.76423157  1
  O2-  O194  1  0.13153131  0.78364955  0.23423491  1
  O2-  O195  1  0.13348565  0.77517674  0.73005179  1
  O2-  O196  1  0.63855475  0.27160821  0.26630575  1
  O2-  O197  1  0.61819540  0.27244369  0.75842764  1
  O2-  O198  1  0.63946950  0.77918639  0.23674208  1
  O2-  O199  1  0.63152202  0.76550057  0.71394358  1
  O2-  O200  1  0.36288294  0.22180819  0.24046952  1
  O2-  O201  1  0.38090310  0.22880447  0.73452635  1
  O2-  O202  1  0.36354013  0.73866680  0.27425045  1
  O2-  O203  1  0.36867875  0.72282219  0.77066865  1
  O2-  O204  1  0.87783981  0.24009017  0.22612695  1
  O2-  O205  1  0.86366976  0.22038211  0.73008655  1
  O2-  O206  1  0.86093290  0.73543827  0.28733040  1
  O2-  O207  1  0.86066032  0.73107241  0.76524210  1
  O2-  O208  1  0.26794929  0.36251476  0.27477031  1
  O2-  O209  1  0.27994420  0.36364181  0.75889729  1
  O2-  O210  1  0.26718606  0.88563725  0.27670217  1
  O2-  O211  1  0.27405052  0.86623393  0.77779461  1
  O2-  O212  1  0.77343431  0.37753018  0.25612634  1
  O2-  O213  1  0.76862333  0.36126191  0.77698135  1
  O2-  O214  1  0.77193599  0.88192801  0.26159510  1
  O2-  O215  1  0.76481854  0.86754387  0.75386821  1
  O2-  O216  1  0.23026895  0.12171767  0.23791649  1
  O2-  O217  1  0.23566158  0.13445826  0.72131426  1
  O2-  O218  1  0.22529760  0.63498832  0.23064422  1
  O2-  O219  1  0.23228027  0.63215704  0.72173904  1
  O2-  O220  1  0.73505912  0.12935192  0.23511645  1
  O2-  O221  1  0.71505033  0.13829027  0.74485414  1
  O2-  O222  1  0.72644432  0.62630504  0.24289524  1
  O2-  O223  1  0.72874778  0.63275516  0.73113160  1
  O2-  O224  1  0.11408036  0.47670200  0.27559732  1
  O2-  O225  1  0.11697641  0.46368366  0.76474739  1
  O2-  O226  1  0.12961533  0.98368627  0.25019112  1
  O2-  O227  1  0.12094790  0.97332382  0.75952298  1
  O2-  O228  1  0.62959691  0.48309464  0.26850951  1
  O2-  O229  1  0.61172886  0.46654941  0.76323879  1
  O2-  O230  1  0.63111411  0.98494980  0.24689615  1
  O2-  O231  1  0.61177558  0.99147669  0.71977343  1
  O2-  O232  1  0.37936132  0.02509389  0.25932866  1
  O2-  O233  1  0.39113979  0.03516093  0.75029826  1
  O2-  O234  1  0.38658448  0.52515147  0.23186367  1
  O2-  O235  1  0.38913782  0.51274917  0.71175652  1
  O2-  O236  1  0.87352550  0.02731185  0.24929854  1
  O2-  O237  1  0.88253902  0.03151010  0.75191485  1
  O2-  O238  1  0.86525125  0.52183013  0.23165803  1
  O2-  O239  1  0.88213466  0.52080181  0.72269591  1
  O2-  O240  1  0.48257060  0.38496332  0.25198923  1
  O2-  O241  1  0.47944003  0.36843886  0.73339427  1
  O2-  O242  1  0.48763507  0.89068243  0.22733670  1
  O2-  O243  1  0.47420037  0.88776815  0.74555780  1
  O2-  O244  1  0.98213168  0.37028854  0.24968851  1
  O2-  O245  1  0.96584744  0.37911490  0.74430630  1
  O2-  O246  1  0.96251557  0.88683528  0.25220296  1
  O2-  O247  1  0.97257751  0.88523098  0.76471591  1
  O2-  O248  1  0.00670864  0.12878220  0.24271586  1
  O2-  O249  1  0.03186835  0.11905205  0.72984497  1
  O2-  O250  1  0.01980597  0.61751637  0.25953612  1
  O2-  O251  1  0.02590653  0.61391355  0.76018612  1
  O2-  O252  1  0.53073599  0.11523083  0.25775852  1
  O2-  O253  1  0.52332777  0.13126659  0.76015464  1
  O2-  O254  1  0.52406988  0.61633568  0.27013770  1
  O2-  O255  1  0.52995294  0.61410758  0.75794824  1
  O2-  O256  1  0.13181299  0.46908609  -0.00551092  1
  O2-  O257  1  0.13506344  0.49022520  0.46563757  1
  O2-  O258  1  0.13873978  0.97059691  -0.00462583  1
  O2-  O259  1  0.14025488  0.98247654  0.50174241  1
  O2-  O260  1  0.63334048  0.46388239  -0.00827085  1
  O2-  O261  1  0.62809566  0.48885411  0.47774664  1
  O2-  O262  1  0.62357288  0.98829171  0.01752007  1
  O2-  O263  1  0.61567901  0.98239416  0.49727007  1
  O2-  O264  1  0.38395651  0.02821596  -0.00471532  1
  O2-  O265  1  0.38256631  0.02394082  0.48329633  1
  O2-  O266  1  0.36708217  0.52240701  0.02344455  1
  O2-  O267  1  0.38653677  0.52109506  0.51927221  1
  O2-  O268  1  0.86190884  0.02908101  0.00175727  1
  O2-  O269  1  0.86534879  0.02787550  0.48540232  1
  O2-  O270  1  0.85969155  0.50221388  0.02739615  1
  O2-  O271  1  0.85936033  0.52890290  0.51596771  1
  O2-  O272  1  0.47429473  0.36100446  0.00767015  1
  O2-  O273  1  0.48627644  0.38128497  0.51532812  1
  O2-  O274  1  0.48523111  0.88888977  0.00831735  1
  O2-  O275  1  0.47673644  0.88137258  0.51123068  1
  O2-  O276  1  0.97453571  0.35796407  0.00927054  1
  O2-  O277  1  0.99238815  0.36323253  0.48406476  1
  O2-  O278  1  0.96332786  0.86713075  -0.00311056  1
  O2-  O279  1  0.95735047  0.86519586  0.50721862  1
  O2-  O280  1  0.00318099  0.13490539  0.02987665  1
  O2-  O281  1  0.02632953  0.13204985  0.49398208  1
  O2-  O282  1  0.01789562  0.62981599  0.00186038  1
  O2-  O283  1  0.01474706  0.63808107  0.48313216  1
  O2-  O284  1  0.52560386  0.12332124  -0.01667070  1
  O2-  O285  1  0.51687917  0.12888502  0.48659276  1
  O2-  O286  1  0.53615104  0.63048116  -0.01182539  1
  O2-  O287  1  0.52150375  0.62771804  0.48538707  1
  O2-  O288  1  0.11603080  0.25483629  -0.02967768  1
  O2-  O289  1  0.13236050  0.25883942  0.48859193  1
  O2-  O290  1  0.11283779  0.77339452  0.02474385  1
  O2-  O291  1  0.11496218  0.78030641  0.52699075  1
  O2-  O292  1  0.62410590  0.26328232  -0.01651037  1
  O2-  O293  1  0.61317573  0.27478563  0.48939996  1
  O2-  O294  1  0.61618631  0.78000015  0.02447174  1
  O2-  O295  1  0.62203573  0.76775125  0.51564478  1
  O2-  O296  1  0.38919720  0.21481662  0.01244978  1
  O2-  O297  1  0.37642281  0.24037211  0.51269141  1
  O2-  O298  1  0.38640433  0.73254440  -0.01990804  1
  O2-  O299  1  0.38505080  0.73093822  0.47406815  1
  O2-  O300  1  0.86554350  0.23169911  0.01972795  1
  O2-  O301  1  0.88496358  0.22348608  0.51302759  1
  O2-  O302  1  0.87807270  0.72301025  -0.02894934  1
  O2-  O303  1  0.86111945  0.73188705  0.47643979  1
  O2-  O304  1  0.27809860  0.37898066  -0.01505170  1
  O2-  O305  1  0.26505653  0.36734773  0.47635195  1
  O2-  O306  1  0.28632513  0.89127699  -0.00956865  1
  O2-  O307  1  0.27728668  0.88737907  0.47204249  1
  O2-  O308  1  0.76522754  0.36667001  -0.00761636  1
  O2-  O309  1  0.77666910  0.38340999  0.47900695  1
  O2-  O310  1  0.76434803  0.88720938  -0.00911778  1
  O2-  O311  1  0.75262695  0.87925379  0.47725173  1
  O2-  O312  1  0.23673497  0.10978460  0.04021262  1
  O2-  O313  1  0.24703589  0.12710507  0.51246756  1
  O2-  O314  1  0.22684306  0.61688951  0.02451262  1
  O2-  O315  1  0.23254184  0.61596114  0.52483783  1
  O2-  O316  1  0.72711084  0.12887452  0.01918711  1
  O2-  O317  1  0.71496963  0.11214650  0.50496024  1
  O2-  O318  1  0.72114844  0.61304703  0.01783754  1
  O2-  O319  1  0.72492082  0.62975180  0.50966947  1
