# generated using pymatgen
data_Sr64Ca21Nb43O192
_symmetry_space_group_name_H-M   'P 1'
_cell_length_a   16.52934846
_cell_length_b   16.54604365
_cell_length_c   16.69715361
_cell_angle_alpha   90.01952480
_cell_angle_beta   90.00113196
_cell_angle_gamma   89.96878266
_symmetry_Int_Tables_number   1
_chemical_formula_structural   Sr64Ca21Nb43O192
_chemical_formula_sum   'Sr64 Ca21 Nb43 O192'
_cell_volume   4566.59244473
_cell_formula_units_Z   1
loop_
 _symmetry_equiv_pos_site_id
 _symmetry_equiv_pos_as_xyz
  1  'x, y, z'
loop_
 _atom_type_symbol
 _atom_type_oxidation_number
  Sr2+  2.0
  Ca2+  2.0
  Nb5+  5.0
  O2-  -2.0
loop_
 _atom_site_type_symbol
 _atom_site_label
 _atom_site_symmetry_multiplicity
 _atom_site_fract_x
 _atom_site_fract_y
 _atom_site_fract_z
 _atom_site_occupancy
  Sr2+  Sr0  1  0.13936595  0.12526199  0.12578447  1
  Sr2+  Sr1  1  0.12612879  0.11529906  0.63072141  1
  Sr2+  Sr2  1  0.12047363  0.61642944  0.12558729  1
  Sr2+  Sr3  1  0.13123538  0.62232224  0.62329211  1
  Sr2+  Sr4  1  0.62460207  0.12348272  0.12053237  1
  Sr2+  Sr5  1  0.62319436  0.11930613  0.62335886  1
  Sr2+  Sr6  1  0.63723265  0.60359193  0.12604952  1
  Sr2+  Sr7  1  0.63526237  0.60792115  0.62475571  1
  Sr2+  Sr8  1  0.37068203  0.37475294  0.12563835  1
  Sr2+  Sr9  1  0.37236158  0.37590726  0.62983909  1
  Sr2+  Sr10  1  0.38081712  0.87858360  0.11528193  1
  Sr2+  Sr11  1  0.37224859  0.87132581  0.62232417  1
  Sr2+  Sr12  1  0.87758754  0.38018894  0.11445252  1
  Sr2+  Sr13  1  0.87456511  0.36768536  0.62831228  1
  Sr2+  Sr14  1  0.87699090  0.87519747  0.13054309  1
  Sr2+  Sr15  1  0.87608309  0.86119802  0.62302048  1
  Sr2+  Sr16  1  0.12683821  0.39627964  0.37721581  1
  Sr2+  Sr17  1  0.12265533  0.38635164  0.87794091  1
  Sr2+  Sr18  1  0.13154905  0.86469626  0.36754724  1
  Sr2+  Sr19  1  0.12171967  0.86994639  0.86510378  1
  Sr2+  Sr20  1  0.62138146  0.37099459  0.36710612  1
  Sr2+  Sr21  1  0.62668882  0.38051539  0.86796962  1
  Sr2+  Sr22  1  0.62408543  0.87495434  0.37144431  1
  Sr2+  Sr23  1  0.61736076  0.87100321  0.87706207  1
  Sr2+  Sr24  1  0.37370583  0.12634114  0.37053367  1
  Sr2+  Sr25  1  0.36974545  0.12303836  0.87543151  1
  Sr2+  Sr26  1  0.36283924  0.62113176  0.37536311  1
  Sr2+  Sr27  1  0.37135214  0.62744134  0.87174708  1
  Sr2+  Sr28  1  0.86629671  0.12198179  0.37641445  1
  Sr2+  Sr29  1  0.88492082  0.12847025  0.87506132  1
  Sr2+  Sr30  1  0.89739687  0.63128452  0.37393770  1
  Sr2+  Sr31  1  0.85420898  0.62483475  0.87537605  1
  Sr2+  Sr32  1  0.11102166  0.12474328  0.37427068  1
  Sr2+  Sr33  1  0.12222785  0.12996607  0.87208609  1
  Sr2+  Sr34  1  0.12601826  0.62676305  0.37336747  1
  Sr2+  Sr35  1  0.12581680  0.62133866  0.87912821  1
  Sr2+  Sr36  1  0.62336968  0.12045338  0.37566065  1
  Sr2+  Sr37  1  0.62191824  0.11802550  0.87741848  1
  Sr2+  Sr38  1  0.62353865  0.60650744  0.37560184  1
  Sr2+  Sr39  1  0.62747781  0.62506526  0.87491720  1
  Sr2+  Sr40  1  0.38050364  0.37205400  0.36826965  1
  Sr2+  Sr41  1  0.37559613  0.37868858  0.86725348  1
  Sr2+  Sr42  1  0.37782282  0.87222697  0.37701182  1
  Sr2+  Sr43  1  0.37184391  0.86257426  0.88052374  1
  Sr2+  Sr44  1  0.86845877  0.36034523  0.37962825  1
  Sr2+  Sr45  1  0.87643527  0.39178037  0.87431963  1
  Sr2+  Sr46  1  0.87070367  0.87034249  0.37096178  1
  Sr2+  Sr47  1  0.86034750  0.87053721  0.87605893  1
  Sr2+  Sr48  1  0.13563592  0.37621414  0.12080009  1
  Sr2+  Sr49  1  0.12103710  0.37264133  0.62567773  1
  Sr2+  Sr50  1  0.14448817  0.87855458  0.12792963  1
  Sr2+  Sr51  1  0.13598392  0.88381696  0.62792726  1
  Sr2+  Sr52  1  0.61684033  0.36407287  0.12621823  1
  Sr2+  Sr53  1  0.61262477  0.36661575  0.62153456  1
  Sr2+  Sr54  1  0.63345777  0.88478835  0.12151558  1
  Sr2+  Sr55  1  0.62373787  0.87591646  0.62349606  1
  Sr2+  Sr56  1  0.36194095  0.12668778  0.12223149  1
  Sr2+  Sr57  1  0.35560086  0.12547767  0.62519284  1
  Sr2+  Sr58  1  0.37977415  0.62731762  0.12006986  1
  Sr2+  Sr59  1  0.37059984  0.61856257  0.63209509  1
  Sr2+  Sr60  1  0.88319374  0.11900602  0.12386369  1
  Sr2+  Sr61  1  0.88947451  0.12408340  0.62927379  1
  Sr2+  Sr62  1  0.87983705  0.62097847  0.11352436  1
  Sr2+  Sr63  1  0.87892073  0.62672172  0.61931610  1
  Ca2+  Ca64  1  -0.00329725  -0.00140177  0.50019351  1
  Ca2+  Ca65  1  0.00237127  -0.00030491  -0.00009761  1
  Ca2+  Ca66  1  -0.00452467  0.49852290  0.49918702  1
  Ca2+  Ca67  1  0.49929881  0.49574268  -0.00050459  1
  Ca2+  Ca68  1  0.49734708  0.49811118  0.50122578  1
  Ca2+  Ca69  1  0.25230001  0.25122773  -0.00369568  1
  Ca2+  Ca70  1  0.75100142  0.24670901  -0.00503792  1
  Ca2+  Ca71  1  0.24891402  0.25100126  0.49662407  1
  Ca2+  Ca72  1  0.24651456  0.74869725  0.00337940  1
  Ca2+  Ca73  1  0.74860332  0.75032948  0.00631774  1
  Ca2+  Ca74  1  0.50464025  0.75130702  0.24757831  1
  Ca2+  Ca75  1  0.25314219  0.00221842  0.25434476  1
  Ca2+  Ca76  1  0.75138387  0.49667479  0.74576811  1
  Ca2+  Ca77  1  -0.00032115  0.74753440  0.75139005  1
  Ca2+  Ca78  1  -0.00156526  0.25161849  0.25069199  1
  Ca2+  Ca79  1  0.24696413  0.49906871  0.75223112  1
  Ca2+  Ca80  1  0.75296079  0.00012205  0.74638885  1
  Ca2+  Ca81  1  0.25015437  0.50234655  0.24826354  1
  Ca2+  Ca82  1  0.50013585  0.74953203  0.74741239  1
  Ca2+  Ca83  1  0.75573950  0.49756744  0.25289542  1
  Ca2+  Ca84  1  0.25673491  -0.00165201  0.75293768  1
  Nb5+  Nb85  1  0.49779988  0.00194002  0.49605820  1
  Nb5+  Nb86  1  0.49883774  0.00100100  -0.00613567  1
  Nb5+  Nb87  1  0.00069358  0.50110919  -0.00225460  1
  Nb5+  Nb88  1  0.74978129  0.74378317  0.49672976  1
  Nb5+  Nb89  1  0.25612384  0.74844290  0.49940540  1
  Nb5+  Nb90  1  0.74633310  0.24342025  0.50290653  1
  Nb5+  Nb91  1  -0.00367286  0.25178222  0.75210019  1
  Nb5+  Nb92  1  0.49978443  0.24449344  0.24433804  1
  Nb5+  Nb93  1  0.49603778  0.24311085  0.74489987  1
  Nb5+  Nb94  1  0.00117110  0.75449221  0.24684968  1
  Nb5+  Nb95  1  0.75035152  0.00257399  0.25127854  1
  Nb5+  Nb96  1  0.00381679  0.00213912  0.24971584  1
  Nb5+  Nb97  1  -0.00009029  -0.00517078  0.75582726  1
  Nb5+  Nb98  1  -0.00553135  0.49607450  0.25017945  1
  Nb5+  Nb99  1  0.00055197  0.50319567  0.74740991  1
  Nb5+  Nb100  1  0.49904603  0.00173154  0.24425924  1
  Nb5+  Nb101  1  0.49949737  -0.00106643  0.74506499  1
  Nb5+  Nb102  1  0.50224265  0.50296647  0.24667573  1
  Nb5+  Nb103  1  0.50262152  0.50173982  0.74920534  1
  Nb5+  Nb104  1  0.24345664  0.25456524  0.25761154  1
  Nb5+  Nb105  1  0.24207885  0.25209476  0.75079856  1
  Nb5+  Nb106  1  0.25776646  0.74912301  0.24909273  1
  Nb5+  Nb107  1  0.24700879  0.74996302  0.75236334  1
  Nb5+  Nb108  1  0.75122236  0.24629127  0.24592136  1
  Nb5+  Nb109  1  0.74489900  0.24544756  0.75009259  1
  Nb5+  Nb110  1  0.74936307  0.74730518  0.25136351  1
  Nb5+  Nb111  1  0.74709367  0.75130364  0.75007868  1
  Nb5+  Nb112  1  0.00200902  0.25214712  0.49938157  1
  Nb5+  Nb113  1  0.00480336  0.25131400  1.00651029  1
  Nb5+  Nb114  1  0.00926917  0.75594840  0.50079478  1
  Nb5+  Nb115  1  -0.00079926  0.75361027  0.99710022  1
  Nb5+  Nb116  1  0.49713544  0.24474103  0.49663201  1
  Nb5+  Nb117  1  0.49779489  0.24918266  0.99135967  1
  Nb5+  Nb118  1  0.50784315  0.74865055  0.49859535  1
  Nb5+  Nb119  1  0.50455837  0.74332975  1.00239294  1
  Nb5+  Nb120  1  0.24712990  -0.00438566  -0.00386341  1
  Nb5+  Nb121  1  0.24460700  0.00065137  0.49404927  1
  Nb5+  Nb122  1  0.25627193  0.50323908  -0.00011533  1
  Nb5+  Nb123  1  0.25340649  0.49702022  0.50155843  1
  Nb5+  Nb124  1  0.75202236  0.00258180  -0.00347694  1
  Nb5+  Nb125  1  0.74831365  -0.00649137  0.50232369  1
  Nb5+  Nb126  1  0.74570164  0.49453795  0.00051301  1
  Nb5+  Nb127  1  0.75152493  0.48978028  0.49855482  1
  O2-  O128  1  -0.01953634  -0.01081076  0.13463633  1
  O2-  O129  1  0.01355003  -0.01161496  0.63626898  1
  O2-  O130  1  -0.01914786  0.49674187  0.12091170  1
  O2-  O131  1  -0.02456829  0.49416370  0.63475393  1
  O2-  O132  1  0.51427137  -0.00067919  0.12789447  1
  O2-  O133  1  0.51628347  0.00005442  0.62621867  1
  O2-  O134  1  0.47846127  0.48507484  0.13286076  1
  O2-  O135  1  0.47147786  0.49540003  0.63468116  1
  O2-  O136  1  -0.01119849  0.02480206  0.36553014  1
  O2-  O137  1  0.00498638  0.03258224  0.86873808  1
  O2-  O138  1  0.02014803  0.50868261  0.36366950  1
  O2-  O139  1  0.02077614  0.50409999  0.87933505  1
  O2-  O140  1  0.49211173  0.00722365  0.37748537  1
  O2-  O141  1  0.49226207  0.01008019  0.87780445  1
  O2-  O142  1  0.51592178  0.48520153  0.36516625  1
  O2-  O143  1  0.51846849  0.48337500  0.86682810  1
  O2-  O144  1  0.24433658  0.24601404  0.13681938  1
  O2-  O145  1  0.24893965  0.25010140  0.63102060  1
  O2-  O146  1  0.26894256  0.76480571  0.13672214  1
  O2-  O147  1  0.26022424  0.75122561  0.61711693  1
  O2-  O148  1  0.73461200  0.24161850  0.13311990  1
  O2-  O149  1  0.73374082  0.26955452  0.61733057  1
  O2-  O150  1  0.77277848  0.73980760  0.14016888  1
  O2-  O151  1  0.75143322  0.74920182  0.61558364  1
  O2-  O152  1  0.28351823  0.25060599  0.36773023  1
  O2-  O153  1  0.27039696  0.24378864  0.86321362  1
  O2-  O154  1  0.23437058  0.74453282  0.37932564  1
  O2-  O155  1  0.23155351  0.75336401  0.86761597  1
  O2-  O156  1  0.75592166  0.25166339  0.38202689  1
  O2-  O157  1  0.75255361  0.21484188  0.86007173  1
  O2-  O158  1  0.73976251  0.76988572  0.38024289  1
  O2-  O159  1  0.74524197  0.75772237  0.86756162  1
  O2-  O160  1  0.00782629  0.27909297  0.11819682  1
  O2-  O161  1  0.00546917  0.26884510  0.62874454  1
  O2-  O162  1  -0.02773552  0.75507170  0.13423742  1
  O2-  O163  1  -0.01342422  0.75470097  0.61471213  1
  O2-  O164  1  0.51244262  0.24468634  0.12680932  1
  O2-  O165  1  0.51332075  0.24101904  0.62497676  1
  O2-  O166  1  0.47353238  0.75772033  0.11662985  1
  O2-  O167  1  0.48130173  0.76033027  0.61134372  1
  O2-  O168  1  0.28559235  -0.00015508  0.38591327  1
  O2-  O169  1  0.28246077  -0.00397954  0.88471515  1
  O2-  O170  1  0.23295181  0.51114981  0.38350976  1
  O2-  O171  1  0.22639087  0.50686378  0.88493454  1
  O2-  O172  1  0.75059934  -0.00223845  0.37730968  1
  O2-  O173  1  0.75082381  -0.01588851  0.88360871  1
  O2-  O174  1  0.71726446  0.48969359  0.38461793  1
  O2-  O175  1  0.73116210  0.49784471  0.88125026  1
  O2-  O176  1  -0.01953938  0.23074527  0.38686182  1
  O2-  O177  1  -0.00241958  0.23749547  0.87070101  1
  O2-  O178  1  0.01368343  0.75008784  0.37456547  1
  O2-  O179  1  0.02974956  0.74397990  0.88716010  1
  O2-  O180  1  0.49506364  0.24350194  0.37656700  1
  O2-  O181  1  0.49309061  0.24360520  0.87212169  1
  O2-  O182  1  0.50316051  0.77031526  0.38414254  1
  O2-  O183  1  0.51807330  0.75042290  0.88279753  1
  O2-  O184  1  0.24530771  0.00435429  0.11844897  1
  O2-  O185  1  0.24841376  -0.00425221  0.61309374  1
  O2-  O186  1  0.25840683  0.48560061  0.11673693  1
  O2-  O187  1  0.26032542  0.51021755  0.61836498  1
  O2-  O188  1  0.74154499  0.01378719  0.13397981  1
  O2-  O189  1  0.72181854  -0.00694284  0.61370691  1
  O2-  O190  1  0.77355079  0.50584231  0.11655439  1
  O2-  O191  1  0.77580728  0.51467769  0.61340829  1
  O2-  O192  1  0.13281090  0.28528644  0.27322789  1
  O2-  O193  1  0.12651058  0.27579764  0.75924281  1
  O2-  O194  1  0.11628557  0.77892786  0.23891654  1
  O2-  O195  1  0.13276144  0.78215395  0.73108939  1
  O2-  O196  1  0.62523437  0.26406851  0.26000749  1
  O2-  O197  1  0.62871242  0.26805478  0.75645730  1
  O2-  O198  1  0.63913996  0.78589774  0.24163911  1
  O2-  O199  1  0.63347988  0.78689626  0.73950163  1
  O2-  O200  1  0.38531418  0.22134371  0.24099606  1
  O2-  O201  1  0.38296064  0.22312255  0.73987435  1
  O2-  O202  1  0.36794120  0.72405952  0.26698953  1
  O2-  O203  1  0.36494828  0.71823993  0.75447696  1
  O2-  O204  1  0.86372340  0.21426594  0.24619531  1
  O2-  O205  1  0.88100541  0.23074335  0.74048699  1
  O2-  O206  1  0.87304807  0.74598626  0.27683156  1
  O2-  O207  1  0.86473142  0.71630061  0.74500354  1
  O2-  O208  1  0.28355429  0.36755059  0.25181328  1
  O2-  O209  1  0.27994070  0.36511011  0.74859685  1
  O2-  O210  1  0.26109071  0.86623464  0.27070074  1
  O2-  O211  1  0.28206888  0.86501428  0.74463235  1
  O2-  O212  1  0.77414866  0.36010542  0.25216713  1
  O2-  O213  1  0.77802378  0.35917809  0.75500455  1
  O2-  O214  1  0.77097885  0.88480520  0.24702929  1
  O2-  O215  1  0.78560140  0.86579791  0.74035758  1
  O2-  O216  1  0.22010837  0.13551382  0.26313010  1
  O2-  O217  1  0.22618588  0.13290333  0.74684948  1
  O2-  O218  1  0.21635662  0.63862100  0.24630605  1
  O2-  O219  1  0.21963260  0.63395868  0.74268121  1
  O2-  O220  1  0.72555715  0.12305972  0.26546768  1
  O2-  O221  1  0.74581394  0.13615161  0.70927387  1
  O2-  O222  1  0.72371368  0.63655704  0.26526959  1
  O2-  O223  1  0.71746513  0.63390512  0.75015707  1
  O2-  O224  1  0.11122176  0.48297569  0.22677068  1
  O2-  O225  1  0.11334303  0.46473554  0.74044407  1
  O2-  O226  1  0.11557010  0.97316701  0.25510314  1
  O2-  O227  1  0.12091542  0.97867176  0.76059124  1
  O2-  O228  1  0.61982577  0.47467396  0.22692974  1
  O2-  O229  1  0.61673321  0.46762655  0.72898254  1
  O2-  O230  1  0.62460348  0.98332936  0.26015390  1
  O2-  O231  1  0.61536058  0.98585852  0.76798415  1
  O2-  O232  1  0.38824640  0.03484235  0.24155950  1
  O2-  O233  1  0.39024405  0.04165709  0.74340048  1
  O2-  O234  1  0.38523794  0.52684994  0.26222104  1
  O2-  O235  1  0.38402155  0.51330665  0.77347100  1
  O2-  O236  1  0.86671761  0.02437717  0.25255259  1
  O2-  O237  1  0.88692097  0.03194564  0.74831529  1
  O2-  O238  1  0.88607055  0.54206418  0.25473787  1
  O2-  O239  1  0.88630649  0.51384143  0.77938994  1
  O2-  O240  1  0.48422491  0.36230435  0.25160783  1
  O2-  O241  1  0.48279314  0.36155303  0.74478738  1
  O2-  O242  1  0.47524371  0.88938034  0.25386578  1
  O2-  O243  1  0.47026858  0.88809680  0.75298792  1
  O2-  O244  1  0.96192434  0.38626858  0.25934164  1
  O2-  O245  1  0.97965761  0.37068108  0.76152161  1
  O2-  O246  1  0.97603912  0.87728102  0.26209786  1
  O2-  O247  1  0.97453884  0.88377419  0.77751257  1
  O2-  O248  1  0.02715883  0.11741992  0.23106124  1
  O2-  O249  1  0.02514472  0.13578018  0.73572487  1
  O2-  O250  1  0.01896616  0.63739111  0.24782411  1
  O2-  O251  1  0.03072253  0.61435831  0.74397299  1
  O2-  O252  1  0.52974795  0.12545696  0.25386538  1
  O2-  O253  1  0.53386363  0.12939375  0.75154142  1
  O2-  O254  1  0.53254684  0.61568168  0.24359194  1
  O2-  O255  1  0.52950118  0.61412945  0.74765138  1
  O2-  O256  1  0.11771900  0.47754096  0.01500039  1
  O2-  O257  1  0.13257703  0.47700219  0.51450877  1
  O2-  O258  1  0.13567292  0.96246060  -0.01241258  1
  O2-  O259  1  0.13384400  0.97186976  0.47802656  1
  O2-  O260  1  0.63392109  0.46999952  0.02239923  1
  O2-  O261  1  0.63379014  0.48674167  0.52971261  1
  O2-  O262  1  0.61983235  0.97784153  -0.00294436  1
  O2-  O263  1  0.62190438  0.98347774  0.48409786  1
  O2-  O264  1  0.38475473  0.02303865  0.01705081  1
  O2-  O265  1  0.38358986  0.02423972  0.51403513  1
  O2-  O266  1  0.36771201  0.53625747  -0.00882917  1
  O2-  O267  1  0.36560074  0.53785034  0.49279798  1
  O2-  O268  1  0.86458352  0.03191698  -0.00082775  1
  O2-  O269  1  0.85899643  0.02761366  0.50899722  1
  O2-  O270  1  0.87963525  0.51932446  -0.01830680  1
  O2-  O271  1  0.86090405  0.52499649  0.47131079  1
  O2-  O272  1  0.46675567  0.36001350  0.00089276  1
  O2-  O273  1  0.47911831  0.35940814  0.50636324  1
  O2-  O274  1  0.47757250  0.88370259  -0.00595758  1
  O2-  O275  1  0.48101470  0.88543757  0.50236287  1
  O2-  O276  1  0.97676612  0.37976141  -0.01138773  1
  O2-  O277  1  0.96236210  0.36439701  0.49701052  1
  O2-  O278  1  0.96728059  0.86519065  -0.00936549  1
  O2-  O279  1  0.96581794  0.86548885  0.48966106  1
  O2-  O280  1  0.03087847  0.13772926  0.01991639  1
  O2-  O281  1  0.01762787  0.13653468  0.52403427  1
  O2-  O282  1  0.01857627  0.62020747  0.00995311  1
  O2-  O283  1  0.01367955  0.63701855  0.49775095  1
  O2-  O284  1  0.52796829  0.12238553  0.00038920  1
  O2-  O285  1  0.52909806  0.12244468  0.50120947  1
  O2-  O286  1  0.53347284  0.63115711  0.01266114  1
  O2-  O287  1  0.52722279  0.63620335  0.49587098  1
  O2-  O288  1  0.11790088  0.28042054  -0.01544754  1
  O2-  O289  1  0.11315932  0.28207219  0.48454678  1
  O2-  O290  1  0.10903300  0.76525520  0.03858336  1
  O2-  O291  1  0.12390173  0.77897566  0.50825320  1
  O2-  O292  1  0.61429658  0.27423472  -0.01007104  1
  O2-  O293  1  0.62431375  0.26858742  0.48926886  1
  O2-  O294  1  0.61555945  0.78460762  0.01487431  1
  O2-  O295  1  0.62312779  0.77976847  0.50601282  1
  O2-  O296  1  0.38615849  0.21309000  0.00642073  1
  O2-  O297  1  0.38654703  0.21459068  0.50669896  1
  O2-  O298  1  0.38487667  0.72971656  -0.01909348  1
  O2-  O299  1  0.37206668  0.73303802  0.48549838  1
  O2-  O300  1  0.88771477  0.22547838  0.00329407  1
  O2-  O301  1  0.86431415  0.22720879  0.51435079  1
  O2-  O302  1  0.88486426  0.71919720  -0.00959427  1
  O2-  O303  1  0.86604642  0.72927530  0.49177183  1
  O2-  O304  1  0.27743357  0.38490014  -0.01158001  1
  O2-  O305  1  0.28474557  0.38573283  0.49595677  1
  O2-  O306  1  0.28201595  0.88136460  0.00573022  1
  O2-  O307  1  0.27194902  0.87111629  0.49608923  1
  O2-  O308  1  0.78110883  0.38049257  -0.00506084  1
  O2-  O309  1  0.77193570  0.37490773  0.49994620  1
  O2-  O310  1  0.76710607  0.88772611  0.02609094  1
  O2-  O311  1  0.76983061  0.87804222  0.50268451  1
  O2-  O312  1  0.22468325  0.11408347  -0.00632487  1
  O2-  O313  1  0.21949952  0.11495752  0.49555298  1
  O2-  O314  1  0.21934057  0.61718349  0.01289260  1
  O2-  O315  1  0.22192481  0.63437083  0.50195147  1
  O2-  O316  1  0.71485741  0.11348303  0.00135885  1
  O2-  O317  1  0.72308264  0.12794527  0.50038009  1
  O2-  O318  1  0.72797005  0.61546936  -0.00314374  1
  O2-  O319  1  0.72104721  0.63239356  0.49148215  1
