# generated using pymatgen
data_Sr64Ca21Nb43O192
_symmetry_space_group_name_H-M   'P 1'
_cell_length_a   16.52802322
_cell_length_b   16.54713898
_cell_length_c   16.70712064
_cell_angle_alpha   90.01718510
_cell_angle_beta   89.96741553
_cell_angle_gamma   90.03796579
_symmetry_Int_Tables_number   1
_chemical_formula_structural   Sr64Ca21Nb43O192
_chemical_formula_sum   'Sr64 Ca21 Nb43 O192'
_cell_volume   4569.25348972
_cell_formula_units_Z   1
loop_
 _symmetry_equiv_pos_site_id
 _symmetry_equiv_pos_as_xyz
  1  'x, y, z'
loop_
 _atom_type_symbol
 _atom_type_oxidation_number
  Sr2+  2.0
  Ca2+  2.0
  Nb5+  5.0
  O2-  -2.0
loop_
 _atom_site_type_symbol
 _atom_site_label
 _atom_site_symmetry_multiplicity
 _atom_site_fract_x
 _atom_site_fract_y
 _atom_site_fract_z
 _atom_site_occupancy
  Sr2+  Sr0  1  0.13170116  0.12801781  0.12246065  1
  Sr2+  Sr1  1  0.13264982  0.12212652  0.61822318  1
  Sr2+  Sr2  1  0.12653125  0.65163001  0.12725967  1
  Sr2+  Sr3  1  0.13123232  0.62248694  0.62840574  1
  Sr2+  Sr4  1  0.62808808  0.11795833  0.12877527  1
  Sr2+  Sr5  1  0.62929945  0.12439942  0.62772812  1
  Sr2+  Sr6  1  0.63105015  0.62139092  0.13212273  1
  Sr2+  Sr7  1  0.62827662  0.63536712  0.62286428  1
  Sr2+  Sr8  1  0.37250651  0.36745665  0.12486369  1
  Sr2+  Sr9  1  0.37982604  0.37771638  0.62298140  1
  Sr2+  Sr10  1  0.37523246  0.87288793  0.12753771  1
  Sr2+  Sr11  1  0.37440325  0.88167104  0.62613640  1
  Sr2+  Sr12  1  0.87489120  0.37405216  0.13001473  1
  Sr2+  Sr13  1  0.88286664  0.35609147  0.62003868  1
  Sr2+  Sr14  1  0.88229995  0.87222881  0.12913612  1
  Sr2+  Sr15  1  0.87382619  0.87565622  0.61859881  1
  Sr2+  Sr16  1  0.09499141  0.37181396  0.37560083  1
  Sr2+  Sr17  1  0.10700723  0.38167235  0.87650293  1
  Sr2+  Sr18  1  0.13020496  0.88284809  0.36683444  1
  Sr2+  Sr19  1  0.11436381  0.87361123  0.87705800  1
  Sr2+  Sr20  1  0.60979296  0.38309330  0.37328748  1
  Sr2+  Sr21  1  0.62646588  0.37856936  0.87726071  1
  Sr2+  Sr22  1  0.62248765  0.87219662  0.37096302  1
  Sr2+  Sr23  1  0.62028683  0.87596307  0.87019837  1
  Sr2+  Sr24  1  0.37463526  0.12257582  0.37099535  1
  Sr2+  Sr25  1  0.37557933  0.13561265  0.87459369  1
  Sr2+  Sr26  1  0.37753220  0.61901477  0.37786240  1
  Sr2+  Sr27  1  0.37285331  0.61417888  0.87333250  1
  Sr2+  Sr28  1  0.87956369  0.12664861  0.38370353  1
  Sr2+  Sr29  1  0.86621985  0.12790405  0.87395138  1
  Sr2+  Sr30  1  0.87286328  0.62160746  0.37750104  1
  Sr2+  Sr31  1  0.89344683  0.62333478  0.87670383  1
  Sr2+  Sr32  1  0.12517693  0.14054457  0.37442375  1
  Sr2+  Sr33  1  0.11960282  0.12456647  0.87805431  1
  Sr2+  Sr34  1  0.12283637  0.62128546  0.36362052  1
  Sr2+  Sr35  1  0.12401641  0.62362077  0.87118819  1
  Sr2+  Sr36  1  0.62079185  0.11073051  0.37034867  1
  Sr2+  Sr37  1  0.62315621  0.13165363  0.87620399  1
  Sr2+  Sr38  1  0.62052448  0.62086552  0.37591909  1
  Sr2+  Sr39  1  0.62359548  0.63700251  0.86991689  1
  Sr2+  Sr40  1  0.37512582  0.37878790  0.37774446  1
  Sr2+  Sr41  1  0.37461099  0.38078947  0.87385691  1
  Sr2+  Sr42  1  0.36778798  0.88274612  0.37092000  1
  Sr2+  Sr43  1  0.38214174  0.87776251  0.87791668  1
  Sr2+  Sr44  1  0.86879905  0.38441251  0.37537074  1
  Sr2+  Sr45  1  0.86289091  0.37750242  0.87581843  1
  Sr2+  Sr46  1  0.85942341  0.88162248  0.37716536  1
  Sr2+  Sr47  1  0.87199850  0.87998943  0.87815557  1
  Sr2+  Sr48  1  0.13219992  0.37493384  0.13604898  1
  Sr2+  Sr49  1  0.13209701  0.37157543  0.61521766  1
  Sr2+  Sr50  1  0.14645287  0.87844384  0.12378241  1
  Sr2+  Sr51  1  0.14683650  0.87669980  0.62566898  1
  Sr2+  Sr52  1  0.63449940  0.37578730  0.13428521  1
  Sr2+  Sr53  1  0.62761335  0.37651321  0.61903826  1
  Sr2+  Sr54  1  0.61591126  0.87142234  0.12491858  1
  Sr2+  Sr55  1  0.64317288  0.87344832  0.62476448  1
  Sr2+  Sr56  1  0.37457186  0.11872920  0.12279157  1
  Sr2+  Sr57  1  0.36509123  0.12284787  0.62600498  1
  Sr2+  Sr58  1  0.36235478  0.62917282  0.13106425  1
  Sr2+  Sr59  1  0.36641268  0.62750389  0.62293806  1
  Sr2+  Sr60  1  0.88791148  0.11809747  0.12814311  1
  Sr2+  Sr61  1  0.88551366  0.11337698  0.61802429  1
  Sr2+  Sr62  1  0.88419425  0.61968653  0.13540368  1
  Sr2+  Sr63  1  0.88685580  0.63501865  0.62416019  1
  Ca2+  Ca64  1  -0.00186232  0.50254534  0.50347195  1
  Ca2+  Ca65  1  0.49737416  -0.00030306  0.50485561  1
  Ca2+  Ca66  1  0.00314644  0.49765197  0.00390802  1
  Ca2+  Ca67  1  0.00263815  -0.00665314  0.49972739  1
  Ca2+  Ca68  1  0.50234725  0.49983404  0.00077801  1
  Ca2+  Ca69  1  0.74739114  0.25209920  0.49661705  1
  Ca2+  Ca70  1  0.25553220  0.25075873  0.50049876  1
  Ca2+  Ca71  1  0.25148843  0.74977872  -0.00563263  1
  Ca2+  Ca72  1  0.25065189  0.75114098  0.49824630  1
  Ca2+  Ca73  1  0.74972370  0.75095265  -0.00176768  1
  Ca2+  Ca74  1  0.75170866  -0.00008856  0.24661739  1
  Ca2+  Ca75  1  0.49684081  0.74761962  0.25130565  1
  Ca2+  Ca76  1  0.75018446  0.50098337  0.74702561  1
  Ca2+  Ca77  1  -0.00263490  0.75477435  0.25414101  1
  Ca2+  Ca78  1  0.50212832  0.25025359  0.24803164  1
  Ca2+  Ca79  1  0.74942686  -0.00052296  0.75273402  1
  Ca2+  Ca80  1  0.24976810  0.50061433  0.25184761  1
  Ca2+  Ca81  1  0.24795633  0.00432629  0.24747590  1
  Ca2+  Ca82  1  0.24796970  -0.00138422  0.75778042  1
  Ca2+  Ca83  1  -0.00114100  0.24954819  0.24530579  1
  Ca2+  Ca84  1  0.00186088  0.24701753  0.75006526  1
  Nb5+  Nb85  1  0.50569338  0.00015506  0.00013374  1
  Nb5+  Nb86  1  0.00519685  -0.00155621  0.00331112  1
  Nb5+  Nb87  1  0.49928092  0.50265402  0.50192211  1
  Nb5+  Nb88  1  0.74479230  0.25002338  -0.00028204  1
  Nb5+  Nb89  1  0.74976388  0.74751699  0.49888936  1
  Nb5+  Nb90  1  0.24678717  0.25452536  -0.00500627  1
  Nb5+  Nb91  1  0.25028185  0.49560110  0.74921946  1
  Nb5+  Nb92  1  0.74889366  0.50172750  0.25284550  1
  Nb5+  Nb93  1  0.50243033  0.25588035  0.74927916  1
  Nb5+  Nb94  1  0.50144845  0.75481792  0.74671473  1
  Nb5+  Nb95  1  0.00818515  0.75252088  0.74774614  1
  Nb5+  Nb96  1  0.00097617  0.00399245  0.25654445  1
  Nb5+  Nb97  1  0.00171290  -0.00153177  0.75103983  1
  Nb5+  Nb98  1  0.00170247  0.49965404  0.25050279  1
  Nb5+  Nb99  1  -0.00364724  0.49774804  0.74878736  1
  Nb5+  Nb100  1  0.49901159  -0.00090208  0.25089686  1
  Nb5+  Nb101  1  0.49789705  0.00771742  0.75103219  1
  Nb5+  Nb102  1  0.49722462  0.50220483  0.24586361  1
  Nb5+  Nb103  1  0.50294945  0.50436235  0.74862826  1
  Nb5+  Nb104  1  0.25600336  0.25258748  0.25482862  1
  Nb5+  Nb105  1  0.24777371  0.25146483  0.75389300  1
  Nb5+  Nb106  1  0.24909337  0.75095723  0.25240431  1
  Nb5+  Nb107  1  0.25927713  0.74889151  0.75335487  1
  Nb5+  Nb108  1  0.75192538  0.24766528  0.25394993  1
  Nb5+  Nb109  1  0.75166842  0.24788991  0.74519202  1
  Nb5+  Nb110  1  0.75138236  0.74916716  0.24458677  1
  Nb5+  Nb111  1  0.75868358  0.74680692  0.75095222  1
  Nb5+  Nb112  1  0.00045100  0.24794536  0.50234391  1
  Nb5+  Nb113  1  -0.00898593  0.24891883  0.99642470  1
  Nb5+  Nb114  1  0.00515216  0.75067106  0.49840291  1
  Nb5+  Nb115  1  -0.00095971  0.74921214  1.00113578  1
  Nb5+  Nb116  1  0.50269603  0.24629737  0.49805317  1
  Nb5+  Nb117  1  0.49768674  0.25111080  0.99958904  1
  Nb5+  Nb118  1  0.49773991  0.75031986  0.50044190  1
  Nb5+  Nb119  1  0.49989281  0.74560495  0.99928339  1
  Nb5+  Nb120  1  0.25876791  0.00163157  -0.00520786  1
  Nb5+  Nb121  1  0.25097140  0.00080790  0.49830717  1
  Nb5+  Nb122  1  0.24895508  0.50133363  0.00385275  1
  Nb5+  Nb123  1  0.24703845  0.49835839  0.49665081  1
  Nb5+  Nb124  1  0.75724228  -0.00057624  0.00261449  1
  Nb5+  Nb125  1  0.74409464  0.00496942  0.49822384  1
  Nb5+  Nb126  1  0.74664774  0.50529917  -0.00167359  1
  Nb5+  Nb127  1  0.74901802  0.50264419  0.50483617  1
  O2-  O128  1  -0.02482786  -0.01382275  0.11733211  1
  O2-  O129  1  -0.02247075  -0.01620993  0.63873594  1
  O2-  O130  1  -0.01229579  0.47678570  0.13472350  1
  O2-  O131  1  0.02333894  0.48306026  0.63692714  1
  O2-  O132  1  0.47914162  0.00116639  0.11660524  1
  O2-  O133  1  0.46794225  0.00585489  0.64029146  1
  O2-  O134  1  0.51033381  0.48525229  0.13391290  1
  O2-  O135  1  0.50970376  0.49071200  0.62434768  1
  O2-  O136  1  0.02357305  0.02488552  0.36713974  1
  O2-  O137  1  0.01925515  0.00705113  0.88256791  1
  O2-  O138  1  -0.00617981  0.52506265  0.36860723  1
  O2-  O139  1  0.00861790  0.52091785  0.86593298  1
  O2-  O140  1  0.51114444  -0.00577026  0.36712763  1
  O2-  O141  1  0.52167121  -0.00206786  0.88026032  1
  O2-  O142  1  0.49255258  0.51172763  0.38147678  1
  O2-  O143  1  0.48697290  0.50284042  0.86336411  1
  O2-  O144  1  0.23193368  0.25468055  0.11117696  1
  O2-  O145  1  0.23590081  0.24649540  0.63838189  1
  O2-  O146  1  0.26671514  0.74623321  0.12812297  1
  O2-  O147  1  0.25557783  0.74174127  0.63637703  1
  O2-  O148  1  0.72340700  0.24273924  0.11470470  1
  O2-  O149  1  0.71986386  0.24616467  0.63371452  1
  O2-  O150  1  0.75903756  0.72343595  0.13248532  1
  O2-  O151  1  0.75838581  0.73162451  0.62354321  1
  O2-  O152  1  0.28504742  0.24826604  0.36626715  1
  O2-  O153  1  0.28192439  0.25886070  0.87449901  1
  O2-  O154  1  0.22337705  0.75717270  0.36754474  1
  O2-  O155  1  0.22106657  0.74459070  0.86245411  1
  O2-  O156  1  0.78584292  0.25666686  0.36284635  1
  O2-  O157  1  0.76807366  0.26021475  0.87533070  1
  O2-  O158  1  0.73582653  0.76354825  0.38149322  1
  O2-  O159  1  0.73243284  0.76716156  0.86199637  1
  O2-  O160  1  0.02738795  0.26587871  0.10610702  1
  O2-  O161  1  0.01655076  0.27677082  0.61969393  1
  O2-  O162  1  -0.02510060  0.75570277  0.11397674  1
  O2-  O163  1  -0.02169364  0.76671983  0.63373316  1
  O2-  O164  1  0.52594622  0.25764241  0.11030814  1
  O2-  O165  1  0.52794046  0.25226154  0.63478619  1
  O2-  O166  1  0.47625338  0.74989971  0.11211664  1
  O2-  O167  1  0.47897541  0.74070223  0.63136923  1
  O2-  O168  1  0.24764803  -0.01409255  0.38046175  1
  O2-  O169  1  0.21474415  -0.00289453  0.88842958  1
  O2-  O170  1  0.27388101  0.50555713  0.38526396  1
  O2-  O171  1  0.26344548  0.49536939  0.87040677  1
  O2-  O172  1  0.72961096  -0.02127968  0.38101187  1
  O2-  O173  1  0.72734994  -0.01631074  0.88945733  1
  O2-  O174  1  0.75286912  0.49515669  0.37511847  1
  O2-  O175  1  0.75271432  0.48416100  0.88431431  1
  O2-  O176  1  -0.00602855  0.22559015  0.38274461  1
  O2-  O177  1  -0.00799410  0.21562197  0.88317902  1
  O2-  O178  1  0.01267318  0.72279598  0.38752556  1
  O2-  O179  1  0.01810210  0.73347072  0.86829706  1
  O2-  O180  1  0.47617700  0.24320396  0.38639882  1
  O2-  O181  1  0.49006244  0.23826682  0.87207240  1
  O2-  O182  1  0.51953180  0.75003668  0.38800914  1
  O2-  O183  1  0.51776213  0.74881417  0.86473273  1
  O2-  O184  1  0.25646963  0.01479086  0.11113885  1
  O2-  O185  1  0.25676938  0.00743110  0.62257000  1
  O2-  O186  1  0.25549303  0.49325632  0.11686729  1
  O2-  O187  1  0.24109133  0.49849524  0.62943212  1
  O2-  O188  1  0.75811457  0.03486753  0.11377358  1
  O2-  O189  1  0.76286675  0.01496945  0.61643695  1
  O2-  O190  1  0.74392588  0.51276796  0.13032445  1
  O2-  O191  1  0.72173903  0.51242981  0.61516007  1
  O2-  O192  1  0.13734294  0.27755755  0.26357735  1
  O2-  O193  1  0.13789332  0.27574493  0.77498974  1
  O2-  O194  1  0.13014470  0.77573640  0.22881098  1
  O2-  O195  1  0.12264015  0.76586628  0.73245158  1
  O2-  O196  1  0.63912542  0.28324307  0.26169370  1
  O2-  O197  1  0.62104252  0.26823491  0.77401480  1
  O2-  O198  1  0.63340657  0.77215216  0.24255690  1
  O2-  O199  1  0.61672908  0.76533615  0.73105001  1
  O2-  O200  1  0.36814454  0.23297697  0.21411856  1
  O2-  O201  1  0.38403632  0.23062067  0.73749945  1
  O2-  O202  1  0.36434430  0.71895951  0.26885845  1
  O2-  O203  1  0.37511193  0.72391322  0.76542705  1
  O2-  O204  1  0.86202812  0.24263984  0.20911933  1
  O2-  O205  1  0.86490493  0.22071253  0.72827709  1
  O2-  O206  1  0.86340957  0.72048189  0.26881791  1
  O2-  O207  1  0.87304844  0.72551888  0.76216328  1
  O2-  O208  1  0.27773830  0.36886135  0.23979029  1
  O2-  O209  1  0.27832246  0.37618325  0.74577292  1
  O2-  O210  1  0.27798515  0.86842521  0.24499069  1
  O2-  O211  1  0.27748587  0.86302089  0.75204178  1
  O2-  O212  1  0.76903155  0.38321904  0.23855869  1
  O2-  O213  1  0.77398386  0.36522042  0.74107090  1
  O2-  O214  1  0.77659455  0.86319953  0.23764378  1
  O2-  O215  1  0.76340019  0.86288113  0.72698068  1
  O2-  O216  1  0.22421895  0.13768304  0.24738882  1
  O2-  O217  1  0.23851583  0.13594188  0.76515073  1
  O2-  O218  1  0.21806043  0.63255029  0.24540630  1
  O2-  O219  1  0.23969907  0.61777635  0.75211592  1
  O2-  O220  1  0.72316949  0.13647553  0.25990527  1
  O2-  O221  1  0.72252736  0.13305115  0.76474308  1
  O2-  O222  1  0.72385020  0.62227288  0.26291339  1
  O2-  O223  1  0.71984806  0.63523836  0.75590922  1
  O2-  O224  1  0.11520522  0.47538266  0.25945069  1
  O2-  O225  1  0.13350140  0.48214423  0.76023774  1
  O2-  O226  1  0.11390468  0.97054309  0.23441230  1
  O2-  O227  1  0.11347736  0.95883857  0.74639840  1
  O2-  O228  1  0.62857963  0.48008656  0.25767814  1
  O2-  O229  1  0.61360144  0.47266897  0.75559000  1
  O2-  O230  1  0.61515709  0.97682613  0.22679835  1
  O2-  O231  1  0.60946330  0.97195974  0.73842724  1
  O2-  O232  1  0.38362467  0.03104523  0.25347312  1
  O2-  O233  1  0.38506040  0.00902731  0.78825709  1
  O2-  O234  1  0.38558448  0.53102117  0.24385403  1
  O2-  O235  1  0.37690782  0.51383999  0.73468576  1
  O2-  O236  1  0.88270337  0.03468924  0.26456760  1
  O2-  O237  1  0.88544384  0.00984363  0.78085684  1
  O2-  O238  1  0.86753876  0.52328847  0.25263498  1
  O2-  O239  1  0.88544109  0.52895798  0.74084951  1
  O2-  O240  1  0.48326650  0.38624128  0.27092082  1
  O2-  O241  1  0.47916926  0.37114863  0.75130418  1
  O2-  O242  1  0.47193327  0.88236150  0.24489241  1
  O2-  O243  1  0.47556318  0.86851551  0.75199715  1
  O2-  O244  1  0.97267768  0.38305276  0.27141397  1
  O2-  O245  1  0.97738858  0.38478539  0.77172951  1
  O2-  O246  1  0.96621908  0.88843224  0.26621495  1
  O2-  O247  1  0.97942845  0.86536155  0.77477603  1
  O2-  O248  1  0.02060819  0.11649169  0.21832410  1
  O2-  O249  1  0.03147877  0.11033762  0.73921006  1
  O2-  O250  1  0.01583200  0.61647312  0.22550468  1
  O2-  O251  1  0.01908559  0.62995998  0.73516125  1
  O2-  O252  1  0.52912239  0.11728580  0.24661638  1
  O2-  O253  1  0.52101757  0.12278634  0.75179202  1
  O2-  O254  1  0.53312955  0.61544718  0.24943972  1
  O2-  O255  1  0.51811543  0.62143404  0.74613396  1
  O2-  O256  1  0.13779184  0.45828909  -0.00080305  1
  O2-  O257  1  0.13482946  0.47267810  0.48674818  1
  O2-  O258  1  0.12031202  0.99049016  0.02135651  1
  O2-  O259  1  0.13492593  0.96660901  0.50816139  1
  O2-  O260  1  0.63670681  0.46091746  0.00705655  1
  O2-  O261  1  0.62097491  0.48472580  0.48734077  1
  O2-  O262  1  0.62093025  0.99116231  0.02181616  1
  O2-  O263  1  0.63060249  0.97371686  0.51694060  1
  O2-  O264  1  0.37479301  0.01946896  -0.02209330  1
  O2-  O265  1  0.36763131  0.03845203  0.49198890  1
  O2-  O266  1  0.36717261  0.52748836  0.00020850  1
  O2-  O267  1  0.38133529  0.52384143  0.51437460  1
  O2-  O268  1  0.87236473  0.01525789  -0.01920516  1
  O2-  O269  1  0.86389435  0.01080593  0.48125330  1
  O2-  O270  1  0.86445697  0.52264232  0.00694405  1
  O2-  O271  1  0.86126331  0.53197711  0.50994476  1
  O2-  O272  1  0.48246904  0.36390122  -0.01619766  1
  O2-  O273  1  0.47957724  0.38320016  0.49553329  1
  O2-  O274  1  0.47988813  0.88245244  -0.00345787  1
  O2-  O275  1  0.47717935  0.86316327  0.51095489  1
  O2-  O276  1  0.98229312  0.36152879  -0.03088992  1
  O2-  O277  1  0.97288204  0.36718894  0.48213957  1
  O2-  O278  1  0.98210886  0.88012728  -0.01580553  1
  O2-  O279  1  0.96285261  0.85993883  0.48758529  1
  O2-  O280  1  0.01078942  0.11994658  0.01611240  1
  O2-  O281  1  0.01495424  0.13003831  0.52736221  1
  O2-  O282  1  0.02152546  0.63504768  0.00769671  1
  O2-  O283  1  0.01140157  0.63727675  0.53555892  1
  O2-  O284  1  0.51332437  0.12324919  -0.00219485  1
  O2-  O285  1  0.53318007  0.13511335  0.50475954  1
  O2-  O286  1  0.53047533  0.63467681  -0.00221971  1
  O2-  O287  1  0.52392302  0.62219512  0.50963306  1
  O2-  O288  1  0.13328895  0.25919349  -0.02970892  1
  O2-  O289  1  0.11938694  0.27032284  0.48576600  1
  O2-  O290  1  0.11389807  0.78127417  0.00905963  1
  O2-  O291  1  0.11406457  0.77805781  0.51669035  1
  O2-  O292  1  0.62848948  0.26004140  -0.02528753  1
  O2-  O293  1  0.61355285  0.28758995  0.49015890  1
  O2-  O294  1  0.61270639  0.78405319  -0.00022526  1
  O2-  O295  1  0.62306626  0.76050925  0.52334235  1
  O2-  O296  1  0.38185642  0.23062556  0.01331654  1
  O2-  O297  1  0.39167887  0.24128403  0.53796590  1
  O2-  O298  1  0.38686887  0.73844138  -0.03678902  1
  O2-  O299  1  0.38610761  0.71731737  0.49185730  1
  O2-  O300  1  0.87638219  0.23120020  0.01442090  1
  O2-  O301  1  0.88045485  0.22955176  0.52356325  1
  O2-  O302  1  0.88437430  0.74325105  -0.03281704  1
  O2-  O303  1  0.86528352  0.72448578  0.49368771  1
  O2-  O304  1  0.28252643  0.36958653  -0.00179090  1
  O2-  O305  1  0.28079897  0.38543144  0.51070264  1
  O2-  O306  1  0.27353994  0.88642111  0.00253389  1
  O2-  O307  1  0.28711520  0.88331947  0.50809250  1
  O2-  O308  1  0.77572176  0.36589798  0.00983279  1
  O2-  O309  1  0.77073031  0.38837643  0.50959293  1
  O2-  O310  1  0.76726528  0.88685167  0.02776307  1
  O2-  O311  1  0.76280493  0.86612824  0.51431923  1
  O2-  O312  1  0.24573259  0.13208681  -0.01293455  1
  O2-  O313  1  0.21852655  0.11781971  0.49368103  1
  O2-  O314  1  0.21647642  0.61292307  -0.00309225  1
  O2-  O315  1  0.22955080  0.61484238  0.50957283  1
  O2-  O316  1  0.74119191  0.13038877  -0.02084614  1
  O2-  O317  1  0.72263158  0.11780781  0.48304327  1
  O2-  O318  1  0.71459194  0.61547591  -0.01007624  1
  O2-  O319  1  0.72290760  0.62784779  0.48716463  1
