# generated using pymatgen
data_Sr64Ca21Nb43O192
_symmetry_space_group_name_H-M   'P 1'
_cell_length_a   16.57626057
_cell_length_b   16.56116124
_cell_length_c   16.75190798
_cell_angle_alpha   90.01465969
_cell_angle_beta   89.94674320
_cell_angle_gamma   89.93545409
_symmetry_Int_Tables_number   1
_chemical_formula_structural   Sr64Ca21Nb43O192
_chemical_formula_sum   'Sr64 Ca21 Nb43 O192'
_cell_volume   4598.76430413
_cell_formula_units_Z   1
loop_
 _symmetry_equiv_pos_site_id
 _symmetry_equiv_pos_as_xyz
  1  'x, y, z'
loop_
 _atom_type_symbol
 _atom_type_oxidation_number
  Sr2+  2.0
  Ca2+  2.0
  Nb5+  5.0
  O2-  -2.0
loop_
 _atom_site_type_symbol
 _atom_site_label
 _atom_site_symmetry_multiplicity
 _atom_site_fract_x
 _atom_site_fract_y
 _atom_site_fract_z
 _atom_site_occupancy
  Sr2+  Sr0  1  0.13248839  0.14010585  0.12690072  1
  Sr2+  Sr1  1  0.13135967  0.12614927  0.62402358  1
  Sr2+  Sr2  1  0.13043086  0.62921854  0.13319950  1
  Sr2+  Sr3  1  0.12631921  0.63929671  0.61943518  1
  Sr2+  Sr4  1  0.62345840  0.12142507  0.12515471  1
  Sr2+  Sr5  1  0.62897904  0.12623600  0.62022816  1
  Sr2+  Sr6  1  0.62571773  0.63565888  0.12563730  1
  Sr2+  Sr7  1  0.63474174  0.62678977  0.62858597  1
  Sr2+  Sr8  1  0.38548930  0.37987623  0.12717601  1
  Sr2+  Sr9  1  0.38511831  0.38396227  0.62254057  1
  Sr2+  Sr10  1  0.38342579  0.87849291  0.11809273  1
  Sr2+  Sr11  1  0.37984506  0.87608341  0.63198785  1
  Sr2+  Sr12  1  0.88446282  0.37994406  0.11502537  1
  Sr2+  Sr13  1  0.88562546  0.37078308  0.62949872  1
  Sr2+  Sr14  1  0.88171936  0.86319903  0.11537613  1
  Sr2+  Sr15  1  0.88177308  0.86678401  0.63181029  1
  Sr2+  Sr16  1  0.13376752  0.37928381  0.36798899  1
  Sr2+  Sr17  1  0.11620373  0.35882430  0.88133691  1
  Sr2+  Sr18  1  0.12255915  0.87351500  0.37596978  1
  Sr2+  Sr19  1  0.12691783  0.87142783  0.87475800  1
  Sr2+  Sr20  1  0.62036324  0.36419040  0.38028006  1
  Sr2+  Sr21  1  0.60841220  0.38014726  0.86612236  1
  Sr2+  Sr22  1  0.61837432  0.87131204  0.37465134  1
  Sr2+  Sr23  1  0.62509620  0.86942256  0.88490621  1
  Sr2+  Sr24  1  0.38751092  0.12800624  0.36649468  1
  Sr2+  Sr25  1  0.36730689  0.12824770  0.88200069  1
  Sr2+  Sr26  1  0.35636321  0.61883174  0.37338390  1
  Sr2+  Sr27  1  0.37873132  0.62803547  0.87176645  1
  Sr2+  Sr28  1  0.86361671  0.12608477  0.36718920  1
  Sr2+  Sr29  1  0.87133977  0.12606444  0.88093099  1
  Sr2+  Sr30  1  0.87064081  0.62225096  0.37402732  1
  Sr2+  Sr31  1  0.86155951  0.62066212  0.88451105  1
  Sr2+  Sr32  1  0.11306633  0.12534014  0.37504279  1
  Sr2+  Sr33  1  0.12383484  0.12431504  0.88446657  1
  Sr2+  Sr34  1  0.11791982  0.61698227  0.37139365  1
  Sr2+  Sr35  1  0.11775157  0.60524013  0.88198686  1
  Sr2+  Sr36  1  0.61976816  0.11817804  0.37630284  1
  Sr2+  Sr37  1  0.61406407  0.13104899  0.87354082  1
  Sr2+  Sr38  1  0.61862837  0.61499355  0.37817253  1
  Sr2+  Sr39  1  0.61643743  0.61209679  0.87782951  1
  Sr2+  Sr40  1  0.36762962  0.38547267  0.37250967  1
  Sr2+  Sr41  1  0.37139775  0.36411536  0.87280120  1
  Sr2+  Sr42  1  0.36862289  0.87335440  0.38165797  1
  Sr2+  Sr43  1  0.36676002  0.87039550  0.87193033  1
  Sr2+  Sr44  1  0.87039476  0.37288465  0.37069823  1
  Sr2+  Sr45  1  0.87191784  0.37713142  0.87730807  1
  Sr2+  Sr46  1  0.86694593  0.87736528  0.36720847  1
  Sr2+  Sr47  1  0.86778255  0.88242822  0.88036402  1
  Sr2+  Sr48  1  0.13498532  0.37292860  0.12055313  1
  Sr2+  Sr49  1  0.12898935  0.37513826  0.62025059  1
  Sr2+  Sr50  1  0.13092809  0.86949386  0.13572956  1
  Sr2+  Sr51  1  0.14266062  0.88111990  0.62723561  1
  Sr2+  Sr52  1  0.62638495  0.37237724  0.11938323  1
  Sr2+  Sr53  1  0.63017368  0.36878938  0.62926269  1
  Sr2+  Sr54  1  0.61762274  0.87539957  0.11850527  1
  Sr2+  Sr55  1  0.62895349  0.87428594  0.62540308  1
  Sr2+  Sr56  1  0.39424458  0.13384576  0.12352479  1
  Sr2+  Sr57  1  0.38581840  0.12440943  0.62505157  1
  Sr2+  Sr58  1  0.39191271  0.63313972  0.12752090  1
  Sr2+  Sr59  1  0.38530075  0.64098701  0.62752570  1
  Sr2+  Sr60  1  0.88687318  0.11974421  0.12406751  1
  Sr2+  Sr61  1  0.88518599  0.12366218  0.62240720  1
  Sr2+  Sr62  1  0.89428969  0.62943556  0.12398325  1
  Sr2+  Sr63  1  0.88156786  0.62936863  0.62567632  1
  Ca2+  Ca64  1  0.00227349  0.49830706  0.00148861  1
  Ca2+  Ca65  1  0.49938149  0.50171195  0.49998335  1
  Ca2+  Ca66  1  0.49778822  0.50014548  0.00231419  1
  Ca2+  Ca67  1  0.00326182  -0.00245039  -0.00048759  1
  Ca2+  Ca68  1  0.49697035  0.00108761  -0.00534067  1
  Ca2+  Ca69  1  0.74933351  0.24935209  -0.00454738  1
  Ca2+  Ca70  1  0.24962355  0.74796986  0.00124420  1
  Ca2+  Ca71  1  0.25011054  0.75131758  0.49988651  1
  Ca2+  Ca72  1  0.25074729  0.24846897  0.49715335  1
  Ca2+  Ca73  1  0.75173254  0.74860689  0.00165776  1
  Ca2+  Ca74  1  0.00007342  0.24602201  0.74903278  1
  Ca2+  Ca75  1  0.50579026  0.25424668  0.25022818  1
  Ca2+  Ca76  1  0.74852504  -0.00212731  0.24973767  1
  Ca2+  Ca77  1  0.50312002  0.75312570  0.75010547  1
  Ca2+  Ca78  1  0.75182794  0.49879488  0.25273899  1
  Ca2+  Ca79  1  0.00144190  0.74794785  0.74979849  1
  Ca2+  Ca80  1  0.24792108  0.49851791  0.75085054  1
  Ca2+  Ca81  1  0.49610020  0.24920387  0.74785605  1
  Ca2+  Ca82  1  0.50067379  0.75245690  0.25272983  1
  Ca2+  Ca83  1  -0.00138856  0.25154469  0.24989715  1
  Ca2+  Ca84  1  0.25077564  0.00154969  0.25050955  1
  Nb5+  Nb85  1  0.00007941  0.50358496  0.50244383  1
  Nb5+  Nb86  1  0.00494119  0.00114507  0.50251360  1
  Nb5+  Nb87  1  0.50443470  -0.00115971  0.50001850  1
  Nb5+  Nb88  1  0.74853249  0.74599599  0.49856365  1
  Nb5+  Nb89  1  0.25279836  0.25074466  0.00228756  1
  Nb5+  Nb90  1  0.74999855  0.24446165  0.50018990  1
  Nb5+  Nb91  1  0.75191190  -0.00340523  0.74825810  1
  Nb5+  Nb92  1  0.25740095  0.00506364  0.75015346  1
  Nb5+  Nb93  1  0.25021305  0.50294153  0.24612900  1
  Nb5+  Nb94  1  0.75327061  0.49390228  0.74835592  1
  Nb5+  Nb95  1  0.00071378  0.74897004  0.25449070  1
  Nb5+  Nb96  1  0.00194634  -0.00301038  0.24895384  1
  Nb5+  Nb97  1  0.00533009  -0.00057758  0.75172951  1
  Nb5+  Nb98  1  -0.00007143  0.49663125  0.25103754  1
  Nb5+  Nb99  1  -0.00002365  0.49890566  0.75337620  1
  Nb5+  Nb100  1  0.49921882  -0.00304723  0.24630103  1
  Nb5+  Nb101  1  0.50402924  0.00296388  0.74961694  1
  Nb5+  Nb102  1  0.50669528  0.49896486  0.25460660  1
  Nb5+  Nb103  1  0.49382578  0.50360075  0.74339225  1
  Nb5+  Nb104  1  0.25147290  0.24865051  0.25382157  1
  Nb5+  Nb105  1  0.25034431  0.25079268  0.74495900  1
  Nb5+  Nb106  1  0.25603523  0.75239892  0.25101459  1
  Nb5+  Nb107  1  0.24544315  0.74319485  0.75425803  1
  Nb5+  Nb108  1  0.75040990  0.24926477  0.24019128  1
  Nb5+  Nb109  1  0.75055251  0.24195501  0.74907429  1
  Nb5+  Nb110  1  0.75072068  0.74840626  0.24681400  1
  Nb5+  Nb111  1  0.74983223  0.74550411  0.75279462  1
  Nb5+  Nb112  1  -0.00043937  0.25850769  0.49494199  1
  Nb5+  Nb113  1  -0.00321790  0.24606542  1.00334972  1
  Nb5+  Nb114  1  -0.00236300  0.75793586  0.49746355  1
  Nb5+  Nb115  1  0.00622479  0.74693206  0.99220373  1
  Nb5+  Nb116  1  0.49553425  0.25070841  0.49791164  1
  Nb5+  Nb117  1  0.50413131  0.25449115  0.99691559  1
  Nb5+  Nb118  1  0.50259866  0.74689654  0.49870924  1
  Nb5+  Nb119  1  0.49951394  0.74881256  0.99730254  1
  Nb5+  Nb120  1  0.24767883  0.00062555  0.00667609  1
  Nb5+  Nb121  1  0.25645211  0.00265539  0.49905370  1
  Nb5+  Nb122  1  0.25398532  0.50086022  -0.00352749  1
  Nb5+  Nb123  1  0.24814616  0.50404259  0.50724560  1
  Nb5+  Nb124  1  0.74894289  0.00486354  0.00444132  1
  Nb5+  Nb125  1  0.75542337  -0.00607302  0.50362428  1
  Nb5+  Nb126  1  0.74582812  0.50115835  0.00833954  1
  Nb5+  Nb127  1  0.75239056  0.49086443  0.50273280  1
  O2-  O128  1  -0.00719842  -0.03293695  0.13796899  1
  O2-  O129  1  -0.00562685  -0.02929252  0.61809177  1
  O2-  O130  1  0.01159626  0.47613300  0.13865233  1
  O2-  O131  1  0.00989455  0.47092424  0.61844126  1
  O2-  O132  1  0.49970814  -0.02106130  0.13193913  1
  O2-  O133  1  0.49261088  -0.01944530  0.61792408  1
  O2-  O134  1  0.51481423  0.47278747  0.13826567  1
  O2-  O135  1  0.51547409  0.46833987  0.63113724  1
  O2-  O136  1  0.00460175  0.01174214  0.38503546  1
  O2-  O137  1  -0.00474267  0.02765673  0.86081680  1
  O2-  O138  1  -0.01262131  0.51914619  0.38430140  1
  O2-  O139  1  -0.02109929  0.52588291  0.86404835  1
  O2-  O140  1  0.50045094  0.01959847  0.38243776  1
  O2-  O141  1  0.49705887  0.03083728  0.86007238  1
  O2-  O142  1  0.47435402  0.52756139  0.36805016  1
  O2-  O143  1  0.49303678  0.52487691  0.86184607  1
  O2-  O144  1  0.24745904  0.24210281  0.12331973  1
  O2-  O145  1  0.24042140  0.23212991  0.63214255  1
  O2-  O146  1  0.24373279  0.72676868  0.13691435  1
  O2-  O147  1  0.25733372  0.72850613  0.63457636  1
  O2-  O148  1  0.73054087  0.23037526  0.12980932  1
  O2-  O149  1  0.73509021  0.23879880  0.62107236  1
  O2-  O150  1  0.76359802  0.71616693  0.13756991  1
  O2-  O151  1  0.75594842  0.73577310  0.61998807  1
  O2-  O152  1  0.26192859  0.27518752  0.36512899  1
  O2-  O153  1  0.25338045  0.26036153  0.87975196  1
  O2-  O154  1  0.24562334  0.77828696  0.36700291  1
  O2-  O155  1  0.24526884  0.78086360  0.86651824  1
  O2-  O156  1  0.75865731  0.27001696  0.38614334  1
  O2-  O157  1  0.77425596  0.26034961  0.85946237  1
  O2-  O158  1  0.74701312  0.77950648  0.38424560  1
  O2-  O159  1  0.75325127  0.77523570  0.86363486  1
  O2-  O160  1  0.00383472  0.28033013  0.11705590  1
  O2-  O161  1  0.00978565  0.26389712  0.61093289  1
  O2-  O162  1  -0.00353969  0.76459425  0.13917295  1
  O2-  O163  1  -0.01639709  0.75583955  0.61190683  1
  O2-  O164  1  0.50335343  0.27114602  0.11535884  1
  O2-  O165  1  0.50556955  0.27034953  0.61333946  1
  O2-  O166  1  0.49017009  0.77399699  0.11758060  1
  O2-  O167  1  0.49403888  0.77688041  0.61258839  1
  O2-  O168  1  0.25115673  -0.02378499  0.38736004  1
  O2-  O169  1  0.26817375  -0.00641672  0.86649691  1
  O2-  O170  1  0.25692961  0.48743812  0.37562582  1
  O2-  O171  1  0.28590906  0.49071655  0.88666602  1
  O2-  O172  1  0.74442844  -0.01772578  0.39041270  1
  O2-  O173  1  0.74627376  -0.02098547  0.86174195  1
  O2-  O174  1  0.77810210  0.48982330  0.39040633  1
  O2-  O175  1  0.77116010  0.49025926  0.86208249  1
  O2-  O176  1  -0.01661208  0.21738954  0.38581246  1
  O2-  O177  1  0.00366764  0.22223038  0.88443716  1
  O2-  O178  1  0.00328844  0.72369849  0.38198824  1
  O2-  O179  1  0.01874099  0.72204044  0.88200760  1
  O2-  O180  1  0.51173453  0.22391788  0.38397754  1
  O2-  O181  1  0.49068144  0.22644023  0.88138102  1
  O2-  O182  1  0.53278596  0.74301987  0.38543343  1
  O2-  O183  1  0.51350507  0.72578490  0.88098619  1
  O2-  O184  1  0.21805622  0.01241891  0.11617755  1
  O2-  O185  1  0.24412929  0.02215805  0.62658837  1
  O2-  O186  1  0.22118530  0.50744336  0.13335769  1
  O2-  O187  1  0.21341293  0.51411852  0.61735851  1
  O2-  O188  1  0.74969470  0.03269785  0.11590372  1
  O2-  O189  1  0.74052892  0.02012554  0.62303087  1
  O2-  O190  1  0.71865951  0.51144488  0.11886554  1
  O2-  O191  1  0.73982424  0.51776715  0.62188445  1
  O2-  O192  1  0.13479166  0.27666109  0.24600185  1
  O2-  O193  1  0.13390761  0.27235669  0.75687407  1
  O2-  O194  1  0.12201183  0.76266022  0.25581345  1
  O2-  O195  1  0.13289691  0.77856311  0.73617156  1
  O2-  O196  1  0.63896940  0.29164276  0.25480114  1
  O2-  O197  1  0.63542235  0.27262013  0.75479500  1
  O2-  O198  1  0.63838350  0.77331932  0.23696767  1
  O2-  O199  1  0.63694296  0.77491404  0.73683954  1
  O2-  O200  1  0.36789286  0.23054075  0.24035177  1
  O2-  O201  1  0.36224657  0.21306176  0.75314074  1
  O2-  O202  1  0.36668295  0.72170517  0.26145646  1
  O2-  O203  1  0.36598729  0.73484588  0.75785576  1
  O2-  O204  1  0.86691781  0.21454078  0.24076270  1
  O2-  O205  1  0.86460195  0.23456195  0.72214429  1
  O2-  O206  1  0.88216679  0.72880635  0.26395344  1
  O2-  O207  1  0.86635963  0.73704360  0.74423591  1
  O2-  O208  1  0.26582557  0.38357266  0.23790753  1
  O2-  O209  1  0.28098311  0.36330310  0.73536328  1
  O2-  O210  1  0.26992382  0.86519987  0.22265015  1
  O2-  O211  1  0.26447272  0.88722158  0.73131615  1
  O2-  O212  1  0.79169613  0.36366745  0.23584577  1
  O2-  O213  1  0.76542980  0.37917576  0.72877716  1
  O2-  O214  1  0.78499606  0.86213933  0.23465450  1
  O2-  O215  1  0.76431708  0.88265117  0.72494706  1
  O2-  O216  1  0.22277040  0.13689394  0.26853059  1
  O2-  O217  1  0.21877882  0.11958148  0.76354091  1
  O2-  O218  1  0.23051640  0.62262926  0.27084219  1
  O2-  O219  1  0.22380894  0.63304679  0.77916384  1
  O2-  O220  1  0.72719474  0.13749200  0.27890290  1
  O2-  O221  1  0.72620198  0.12552267  0.75868006  1
  O2-  O222  1  0.73727485  0.63779030  0.28870334  1
  O2-  O223  1  0.73251084  0.62944898  0.76261691  1
  O2-  O224  1  0.12290253  0.49405016  0.27054850  1
  O2-  O225  1  0.11247203  0.47648488  0.77509182  1
  O2-  O226  1  0.11554078  0.96945056  0.26312499  1
  O2-  O227  1  0.12102086  0.97887761  0.75145623  1
  O2-  O228  1  0.61709283  0.48398020  0.28479195  1
  O2-  O229  1  0.63348799  0.48880250  0.75623444  1
  O2-  O230  1  0.61587666  0.96828081  0.25542784  1
  O2-  O231  1  0.62133405  0.98357407  0.74473398  1
  O2-  O232  1  0.38347319  0.03330534  0.24880331  1
  O2-  O233  1  0.37206057  0.02327685  0.73818160  1
  O2-  O234  1  0.36460235  0.52328485  0.23653176  1
  O2-  O235  1  0.38111176  0.52321610  0.72307766  1
  O2-  O236  1  0.88535933  0.00990123  0.26980059  1
  O2-  O237  1  0.86528620  0.02281652  0.74497126  1
  O2-  O238  1  0.88705117  0.52495459  0.24287432  1
  O2-  O239  1  0.86944074  0.52005052  0.72914762  1
  O2-  O240  1  0.47001313  0.38625948  0.27060435  1
  O2-  O241  1  0.48246781  0.38511255  0.77098616  1
  O2-  O242  1  0.46752338  0.88583396  0.27507382  1
  O2-  O243  1  0.47347088  0.88990153  0.76091337  1
  O2-  O244  1  0.99019418  0.38599099  0.28360117  1
  O2-  O245  1  0.96813254  0.38377784  0.75933132  1
  O2-  O246  1  0.98804221  0.86504642  0.28084024  1
  O2-  O247  1  0.96977972  0.88711378  0.76302842  1
  O2-  O248  1  0.02235392  0.11025044  0.23269215  1
  O2-  O249  1  0.00862117  0.11011751  0.71144810  1
  O2-  O250  1  0.01997230  0.62593801  0.24184544  1
  O2-  O251  1  0.01539340  0.61050114  0.71647152  1
  O2-  O252  1  0.52862696  0.11553449  0.23908346  1
  O2-  O253  1  0.51449244  0.11549880  0.71391499  1
  O2-  O254  1  0.51734567  0.61620464  0.22727391  1
  O2-  O255  1  0.52030199  0.61815675  0.72065540  1
  O2-  O256  1  0.13760741  0.46978820  -0.01607797  1
  O2-  O257  1  0.11563472  0.47644086  0.48609002  1
  O2-  O258  1  0.13652911  0.98962555  -0.03394500  1
  O2-  O259  1  0.11922209  0.97585382  0.50418204  1
  O2-  O260  1  0.63429819  0.47735836  -0.02550309  1
  O2-  O261  1  0.63785078  0.48486444  0.48403695  1
  O2-  O262  1  0.63279540  0.97536761  -0.00389643  1
  O2-  O263  1  0.62354597  0.98559982  0.50410073  1
  O2-  O264  1  0.36237769  0.03105109  0.00917064  1
  O2-  O265  1  0.37336126  0.02201273  0.49901483  1
  O2-  O266  1  0.36210071  0.51343368  0.03998731  1
  O2-  O267  1  0.36157970  0.52478375  0.52331627  1
  O2-  O268  1  0.86703583  0.02252806  -0.01209771  1
  O2-  O269  1  0.87184307  0.01546628  0.50204904  1
  O2-  O270  1  0.86642790  0.52210679  0.01832932  1
  O2-  O271  1  0.87750113  0.51316362  0.52001389  1
  O2-  O272  1  0.46996025  0.36743871  -0.01945125  1
  O2-  O273  1  0.47997224  0.36422203  0.47501947  1
  O2-  O274  1  0.47480291  0.86690868  -0.02572283  1
  O2-  O275  1  0.48630379  0.88131091  0.47950460  1
  O2-  O276  1  0.98316254  0.36393349  -0.02580819  1
  O2-  O277  1  0.97504822  0.37181091  0.48133999  1
  O2-  O278  1  0.97636425  0.86389077  -0.02059586  1
  O2-  O279  1  0.97679465  0.87162421  0.47936060  1
  O2-  O280  1  0.02234358  0.13100436  0.03099771  1
  O2-  O281  1  0.01366679  0.11605310  0.52013686  1
  O2-  O282  1  0.02703055  0.63279335  0.02690247  1
  O2-  O283  1  0.01318761  0.61890577  0.51809545  1
  O2-  O284  1  0.51966581  0.13547581  0.02053163  1
  O2-  O285  1  0.51801276  0.11923048  0.51861003  1
  O2-  O286  1  0.52433886  0.63222863  0.02334410  1
  O2-  O287  1  0.52821314  0.63619362  0.52127045  1
  O2-  O288  1  0.12966981  0.26499234  0.00104959  1
  O2-  O289  1  0.11352087  0.26737824  0.47926744  1
  O2-  O290  1  0.11664587  0.78314612  0.01350360  1
  O2-  O291  1  0.11240147  0.76964313  0.50775654  1
  O2-  O292  1  0.61677060  0.27918619  -0.01729931  1
  O2-  O293  1  0.62965296  0.26368820  0.49800884  1
  O2-  O294  1  0.61932102  0.77567938  0.00707545  1
  O2-  O295  1  0.63349218  0.77607779  0.51093994  1
  O2-  O296  1  0.37060664  0.22895550  0.00329487  1
  O2-  O297  1  0.38444288  0.21953223  0.50123419  1
  O2-  O298  1  0.38244645  0.71902880  -0.00709732  1
  O2-  O299  1  0.38826367  0.73154972  0.48319485  1
  O2-  O300  1  0.88288734  0.22206280  0.00990603  1
  O2-  O301  1  0.87025984  0.23521062  0.51292291  1
  O2-  O302  1  0.88813321  0.72651598  0.00504324  1
  O2-  O303  1  0.87049293  0.73495771  0.49186460  1
  O2-  O304  1  0.26908780  0.37011954  0.01488201  1
  O2-  O305  1  0.26464273  0.38541013  0.51761312  1
  O2-  O306  1  0.27344244  0.88748467  0.01271131  1
  O2-  O307  1  0.26543434  0.88706329  0.52946995  1
  O2-  O308  1  0.77614629  0.38484067  0.00797123  1
  O2-  O309  1  0.76521426  0.37585544  0.52188449  1
  O2-  O310  1  0.77395255  0.88650379  0.01254471  1
  O2-  O311  1  0.76762135  0.88004966  0.52592829  1
  O2-  O312  1  0.23070671  0.13052231  -0.00994578  1
  O2-  O313  1  0.21620855  0.11272307  0.48677408  1
  O2-  O314  1  0.22365228  0.61228997  -0.01143008  1
  O2-  O315  1  0.22308981  0.61707975  0.47883915  1
  O2-  O316  1  0.72750223  0.11531842  -0.03618767  1
  O2-  O317  1  0.73704800  0.12643775  0.48731133  1
  O2-  O318  1  0.73393612  0.61480103  -0.02847139  1
  O2-  O319  1  0.73345107  0.63069696  0.48588474  1
