# generated using pymatgen
data_Sr64Ca21Nb43O192
_symmetry_space_group_name_H-M   'P 1'
_cell_length_a   16.57981558
_cell_length_b   16.57423382
_cell_length_c   16.76803558
_cell_angle_alpha   89.99831509
_cell_angle_beta   90.03660932
_cell_angle_gamma   89.92532004
_symmetry_Int_Tables_number   1
_chemical_formula_structural   Sr64Ca21Nb43O192
_chemical_formula_sum   'Sr64 Ca21 Nb43 O192'
_cell_volume   4607.81342931
_cell_formula_units_Z   1
loop_
 _symmetry_equiv_pos_site_id
 _symmetry_equiv_pos_as_xyz
  1  'x, y, z'
loop_
 _atom_type_symbol
 _atom_type_oxidation_number
  Sr2+  2.0
  Ca2+  2.0
  Nb5+  5.0
  O2-  -2.0
loop_
 _atom_site_type_symbol
 _atom_site_label
 _atom_site_symmetry_multiplicity
 _atom_site_fract_x
 _atom_site_fract_y
 _atom_site_fract_z
 _atom_site_occupancy
  Sr2+  Sr0  1  0.11797016  0.11536639  0.11635724  1
  Sr2+  Sr1  1  0.12205092  0.11377737  0.62184475  1
  Sr2+  Sr2  1  0.11846449  0.61549632  0.12569880  1
  Sr2+  Sr3  1  0.11749713  0.61104798  0.62696126  1
  Sr2+  Sr4  1  0.62204326  0.11136719  0.12845354  1
  Sr2+  Sr5  1  0.61990541  0.12492349  0.62632337  1
  Sr2+  Sr6  1  0.62439898  0.62896661  0.12391458  1
  Sr2+  Sr7  1  0.62127887  0.62999991  0.62406929  1
  Sr2+  Sr8  1  0.37763509  0.36965183  0.11804452  1
  Sr2+  Sr9  1  0.37260789  0.36228523  0.62956284  1
  Sr2+  Sr10  1  0.37076648  0.87222530  0.11026121  1
  Sr2+  Sr11  1  0.37246390  0.85944226  0.62910213  1
  Sr2+  Sr12  1  0.86816218  0.37180287  0.13005415  1
  Sr2+  Sr13  1  0.87232248  0.38095044  0.62372704  1
  Sr2+  Sr14  1  0.86980481  0.85198664  0.12463583  1
  Sr2+  Sr15  1  0.86092012  0.86629079  0.62568362  1
  Sr2+  Sr16  1  0.13036627  0.37796473  0.37602626  1
  Sr2+  Sr17  1  0.13108639  0.38252756  0.87167536  1
  Sr2+  Sr18  1  0.12284620  0.87723349  0.37359511  1
  Sr2+  Sr19  1  0.14168248  0.88136197  0.87355863  1
  Sr2+  Sr20  1  0.64152428  0.38511785  0.38143293  1
  Sr2+  Sr21  1  0.61791578  0.38259250  0.86848810  1
  Sr2+  Sr22  1  0.61345649  0.88397176  0.36086443  1
  Sr2+  Sr23  1  0.63498850  0.88402204  0.88451766  1
  Sr2+  Sr24  1  0.36778980  0.12764422  0.38017061  1
  Sr2+  Sr25  1  0.38202739  0.13259559  0.88123107  1
  Sr2+  Sr26  1  0.37740721  0.63096714  0.36802626  1
  Sr2+  Sr27  1  0.37639587  0.62196353  0.88424635  1
  Sr2+  Sr28  1  0.88867037  0.13504993  0.37724070  1
  Sr2+  Sr29  1  0.88310965  0.12712848  0.86932234  1
  Sr2+  Sr30  1  0.88606727  0.62642014  0.36937607  1
  Sr2+  Sr31  1  0.89010453  0.63643157  0.87331816  1
  Sr2+  Sr32  1  0.12773084  0.13186892  0.37268416  1
  Sr2+  Sr33  1  0.13275244  0.13193662  0.87688568  1
  Sr2+  Sr34  1  0.13750256  0.63499298  0.37335390  1
  Sr2+  Sr35  1  0.12484015  0.62751572  0.86839431  1
  Sr2+  Sr36  1  0.62019143  0.12837357  0.37947040  1
  Sr2+  Sr37  1  0.63060434  0.13483759  0.86836084  1
  Sr2+  Sr38  1  0.62924805  0.63065140  0.37311203  1
  Sr2+  Sr39  1  0.62024250  0.63335235  0.87929393  1
  Sr2+  Sr40  1  0.37453129  0.37168055  0.37275352  1
  Sr2+  Sr41  1  0.38429764  0.38167482  0.87499842  1
  Sr2+  Sr42  1  0.37815940  0.86732013  0.38008943  1
  Sr2+  Sr43  1  0.37664976  0.89972837  0.87406362  1
  Sr2+  Sr44  1  0.87962171  0.37224760  0.37078152  1
  Sr2+  Sr45  1  0.88153379  0.39338729  0.86852236  1
  Sr2+  Sr46  1  0.87986296  0.89276815  0.37717485  1
  Sr2+  Sr47  1  0.87606976  0.87722181  0.87678352  1
  Sr2+  Sr48  1  0.10774600  0.36523277  0.12230781  1
  Sr2+  Sr49  1  0.11405680  0.37173972  0.62461143  1
  Sr2+  Sr50  1  0.11181018  0.86994265  0.12362372  1
  Sr2+  Sr51  1  0.11391701  0.86491877  0.62529924  1
  Sr2+  Sr52  1  0.63308845  0.37275215  0.12126294  1
  Sr2+  Sr53  1  0.61358534  0.36807165  0.62681419  1
  Sr2+  Sr54  1  0.63155417  0.86590920  0.12336095  1
  Sr2+  Sr55  1  0.61601569  0.87418651  0.63284958  1
  Sr2+  Sr56  1  0.36226069  0.11413050  0.11817225  1
  Sr2+  Sr57  1  0.37391478  0.12044148  0.62793852  1
  Sr2+  Sr58  1  0.37663654  0.61085173  0.12719608  1
  Sr2+  Sr59  1  0.36470615  0.62301609  0.61909063  1
  Sr2+  Sr60  1  0.86769838  0.13025630  0.13226587  1
  Sr2+  Sr61  1  0.85975305  0.11004037  0.62184727  1
  Sr2+  Sr62  1  0.86871590  0.61778291  0.11873232  1
  Sr2+  Sr63  1  0.87248955  0.62049850  0.63305550  1
  Ca2+  Ca64  1  -0.00173360  0.49818076  0.00068637  1
  Ca2+  Ca65  1  -0.00234306  -0.00100984  -0.00237416  1
  Ca2+  Ca66  1  0.49874108  0.49912470  0.49810076  1
  Ca2+  Ca67  1  -0.00339979  0.50223586  0.49655860  1
  Ca2+  Ca68  1  0.50503204  0.00118307  -0.00223340  1
  Ca2+  Ca69  1  0.25072503  0.25272697  0.00150605  1
  Ca2+  Ca70  1  0.75101304  0.25101176  0.50100061  1
  Ca2+  Ca71  1  0.74791124  0.75065140  0.49764085  1
  Ca2+  Ca72  1  0.75458746  0.25008898  -0.00476472  1
  Ca2+  Ca73  1  0.25055758  0.74678052  0.00234470  1
  Ca2+  Ca74  1  -0.00100426  0.24818416  0.74514181  1
  Ca2+  Ca75  1  0.74526220  0.50144236  0.75364456  1
  Ca2+  Ca76  1  0.49935030  0.24767904  0.24997882  1
  Ca2+  Ca77  1  -0.00113067  0.74882396  0.25192977  1
  Ca2+  Ca78  1  0.49711332  0.75101584  0.75448675  1
  Ca2+  Ca79  1  0.25106618  0.00150468  0.25059681  1
  Ca2+  Ca80  1  0.25308879  0.00168162  0.74640030  1
  Ca2+  Ca81  1  0.75130329  -0.00096611  0.25141041  1
  Ca2+  Ca82  1  0.25316724  0.49991884  0.74846023  1
  Ca2+  Ca83  1  0.49674738  0.75007002  0.24639534  1
  Ca2+  Ca84  1  0.00039458  0.75435489  0.74756317  1
  Nb5+  Nb85  1  0.50251348  0.49965722  0.00327625  1
  Nb5+  Nb86  1  0.49242254  0.00085203  0.50068752  1
  Nb5+  Nb87  1  -0.00477111  0.00236637  0.50170018  1
  Nb5+  Nb88  1  0.24741207  0.74629290  0.50226611  1
  Nb5+  Nb89  1  0.75161413  0.74650137  -0.00224369  1
  Nb5+  Nb90  1  0.24723350  0.24619505  0.50230441  1
  Nb5+  Nb91  1  0.74905970  0.00042557  0.75151403  1
  Nb5+  Nb92  1  0.00220964  0.24898238  0.24873329  1
  Nb5+  Nb93  1  0.75389912  0.50181862  0.25135964  1
  Nb5+  Nb94  1  0.49917576  0.25009885  0.75165509  1
  Nb5+  Nb95  1  0.25386964  0.49903359  0.25203515  1
  Nb5+  Nb96  1  -0.00383909  0.00075679  0.24555054  1
  Nb5+  Nb97  1  0.00451648  -0.00396936  0.75071496  1
  Nb5+  Nb98  1  0.00745273  0.49800922  0.25203362  1
  Nb5+  Nb99  1  -0.00040883  0.49936687  0.74937832  1
  Nb5+  Nb100  1  0.49654897  0.00321872  0.24412720  1
  Nb5+  Nb101  1  0.50168288  0.00236939  0.75208545  1
  Nb5+  Nb102  1  0.50883162  0.49399160  0.24962923  1
  Nb5+  Nb103  1  0.49814236  0.50441409  0.74446199  1
  Nb5+  Nb104  1  0.24735377  0.25138981  0.24527236  1
  Nb5+  Nb105  1  0.24938376  0.24960639  0.75374084  1
  Nb5+  Nb106  1  0.25029998  0.75738617  0.24850909  1
  Nb5+  Nb107  1  0.25142163  0.74717984  0.75500450  1
  Nb5+  Nb108  1  0.74543888  0.24975051  0.25243089  1
  Nb5+  Nb109  1  0.75488380  0.25013183  0.74538350  1
  Nb5+  Nb110  1  0.75377882  0.74788456  0.25570630  1
  Nb5+  Nb111  1  0.74199138  0.74853323  0.74998082  1
  Nb5+  Nb112  1  -0.00020505  0.24855812  0.50441059  1
  Nb5+  Nb113  1  -0.00315430  0.25152052  0.98961149  1
  Nb5+  Nb114  1  -0.00275857  0.74738110  0.49890893  1
  Nb5+  Nb115  1  0.00705054  0.75270753  0.99796005  1
  Nb5+  Nb116  1  0.49661547  0.25122879  0.49714399  1
  Nb5+  Nb117  1  0.51083151  0.24848993  1.00461337  1
  Nb5+  Nb118  1  0.50403123  0.75000090  0.49880615  1
  Nb5+  Nb119  1  0.49735235  0.75037314  0.99986075  1
  Nb5+  Nb120  1  0.24897771  -0.00116244  0.00023297  1
  Nb5+  Nb121  1  0.24623372  -0.00704247  0.50048952  1
  Nb5+  Nb122  1  0.24627809  0.49708234  0.00287720  1
  Nb5+  Nb123  1  0.25322662  0.49216840  0.50021148  1
  Nb5+  Nb124  1  0.75636717  0.00163552  0.00766452  1
  Nb5+  Nb125  1  0.73562971  -0.00483668  0.50037922  1
  Nb5+  Nb126  1  0.74898210  0.50021179  -0.00477229  1
  Nb5+  Nb127  1  0.74913073  0.50420006  0.50521021  1
  O2-  O128  1  -0.01494353  0.03222349  0.13625893  1
  O2-  O129  1  -0.00883555  0.03048524  0.61837959  1
  O2-  O130  1  -0.01517227  0.51853817  0.13795430  1
  O2-  O131  1  -0.01809646  0.52067370  0.63113098  1
  O2-  O132  1  0.47610148  0.00225048  0.13124693  1
  O2-  O133  1  0.49050010  0.00766516  0.62261579  1
  O2-  O134  1  0.48254340  0.48692260  0.12352483  1
  O2-  O135  1  0.47116496  0.49877742  0.63424026  1
  O2-  O136  1  0.01689296  -0.01333577  0.38453802  1
  O2-  O137  1  0.01149310  -0.03477572  0.86094936  1
  O2-  O138  1  0.00171607  0.46535071  0.36462264  1
  O2-  O139  1  0.01498275  0.47508336  0.86773797  1
  O2-  O140  1  0.52166366  0.00635637  0.38698675  1
  O2-  O141  1  0.52860865  0.00162873  0.86337007  1
  O2-  O142  1  0.52357987  0.50412130  0.36333417  1
  O2-  O143  1  0.51887039  0.50160498  0.88484109  1
  O2-  O144  1  0.23049613  0.27833910  0.13624334  1
  O2-  O145  1  0.23785641  0.27660025  0.61611723  1
  O2-  O146  1  0.23455212  0.77804846  0.13699059  1
  O2-  O147  1  0.23853922  0.77579931  0.61547042  1
  O2-  O148  1  0.74886153  0.27582156  0.13594380  1
  O2-  O149  1  0.71657334  0.25783790  0.63340671  1
  O2-  O150  1  0.73702363  0.75638209  0.12077845  1
  O2-  O151  1  0.72292531  0.76245274  0.63521646  1
  O2-  O152  1  0.26377886  0.24088924  0.37941347  1
  O2-  O153  1  0.26512288  0.22568591  0.86493769  1
  O2-  O154  1  0.26678171  0.73411052  0.38177117  1
  O2-  O155  1  0.25794174  0.71738566  0.86633264  1
  O2-  O156  1  0.77488443  0.23819500  0.36581938  1
  O2-  O157  1  0.76052664  0.21795137  0.85885595  1
  O2-  O158  1  0.76854164  0.72247948  0.36592978  1
  O2-  O159  1  0.76699637  0.73709194  0.87886592  1
  O2-  O160  1  0.02079085  0.23151729  0.13584353  1
  O2-  O161  1  0.03624782  0.23563809  0.61340090  1
  O2-  O162  1  0.01959477  0.73344852  0.11721851  1
  O2-  O163  1  0.03216725  0.73717300  0.61054813  1
  O2-  O164  1  0.53563609  0.25384738  0.11643415  1
  O2-  O165  1  0.51064788  0.25034906  0.62605307  1
  O2-  O166  1  0.52640278  0.75945345  0.11411408  1
  O2-  O167  1  0.51572439  0.76204538  0.61599772  1
  O2-  O168  1  0.23959804  0.02403941  0.38830354  1
  O2-  O169  1  0.22569877  0.01204678  0.88139983  1
  O2-  O170  1  0.22536394  0.50876385  0.37269121  1
  O2-  O171  1  0.23039218  0.51410595  0.88939914  1
  O2-  O172  1  0.71836700  0.00375864  0.38579482  1
  O2-  O173  1  0.72728846  0.00973525  0.86704966  1
  O2-  O174  1  0.72713563  0.51195807  0.36629239  1
  O2-  O175  1  0.71441264  0.50711760  0.88708753  1
  O2-  O176  1  -0.01205762  0.26093876  0.37919982  1
  O2-  O177  1  -0.02792309  0.26988323  0.88026482  1
  O2-  O178  1  -0.01445219  0.78540470  0.38711829  1
  O2-  O179  1  -0.02419516  0.76350253  0.88364247  1
  O2-  O180  1  0.47012154  0.24091948  0.38533914  1
  O2-  O181  1  0.48119637  0.24959386  0.86951962  1
  O2-  O182  1  0.47412194  0.74752974  0.38373915  1
  O2-  O183  1  0.49015925  0.71902661  0.88683374  1
  O2-  O184  1  0.27728022  -0.01384775  0.11778223  1
  O2-  O185  1  0.28124251  -0.00668915  0.61144587  1
  O2-  O186  1  0.26987708  0.48045292  0.13632766  1
  O2-  O187  1  0.27945620  0.48987885  0.61213164  1
  O2-  O188  1  0.78777796  -0.01599463  0.11597515  1
  O2-  O189  1  0.76212479  -0.01542624  0.62527952  1
  O2-  O190  1  0.76263840  0.49171660  0.12829563  1
  O2-  O191  1  0.76997414  0.50089635  0.61850897  1
  O2-  O192  1  0.11976735  0.27192439  0.27126793  1
  O2-  O193  1  0.13589861  0.27091324  0.76767056  1
  O2-  O194  1  0.13461691  0.75746149  0.27527706  1
  O2-  O195  1  0.13566315  0.77909209  0.76026360  1
  O2-  O196  1  0.63512788  0.27185928  0.27534543  1
  O2-  O197  1  0.61864619  0.26523280  0.76679447  1
  O2-  O198  1  0.63517445  0.76120307  0.26394155  1
  O2-  O199  1  0.63151489  0.78060448  0.77832330  1
  O2-  O200  1  0.36073762  0.23273594  0.23079632  1
  O2-  O201  1  0.38004222  0.22996277  0.73273990  1
  O2-  O202  1  0.36112811  0.71895644  0.23717191  1
  O2-  O203  1  0.36583583  0.72964360  0.72301552  1
  O2-  O204  1  0.88199461  0.24036458  0.24028566  1
  O2-  O205  1  0.86405756  0.22742564  0.71721934  1
  O2-  O206  1  0.86604247  0.71879921  0.22692517  1
  O2-  O207  1  0.86053578  0.73619401  0.73389656  1
  O2-  O208  1  0.25733111  0.37660953  0.27499817  1
  O2-  O209  1  0.28043615  0.36396875  0.75868737  1
  O2-  O210  1  0.27052384  0.86669735  0.27602979  1
  O2-  O211  1  0.27842887  0.86592601  0.76605433  1
  O2-  O212  1  0.76552979  0.38095639  0.26512531  1
  O2-  O213  1  0.77130674  0.36361066  0.76274525  1
  O2-  O214  1  0.77579517  0.86143553  0.26138855  1
  O2-  O215  1  0.76590107  0.88003011  0.76152225  1
  O2-  O216  1  0.21750775  0.13945197  0.23871987  1
  O2-  O217  1  0.23765380  0.13798953  0.71690623  1
  O2-  O218  1  0.22582354  0.61492585  0.23953294  1
  O2-  O219  1  0.22792465  0.63416223  0.72155975  1
  O2-  O220  1  0.73741645  0.13591882  0.22772744  1
  O2-  O221  1  0.73109523  0.11811931  0.73037944  1
  O2-  O222  1  0.72621597  0.61783309  0.23699310  1
  O2-  O223  1  0.71687384  0.63553367  0.74688139  1
  O2-  O224  1  0.12163274  0.47918009  0.23449354  1
  O2-  O225  1  0.11836763  0.47855980  0.73149377  1
  O2-  O226  1  0.11354716  0.98240914  0.24254212  1
  O2-  O227  1  0.11672287  0.98481626  0.72444683  1
  O2-  O228  1  0.62325162  0.47528328  0.23154624  1
  O2-  O229  1  0.61108773  0.46830185  0.73823910  1
  O2-  O230  1  0.61782260  0.97477765  0.22540603  1
  O2-  O231  1  0.62620127  0.98796080  0.72872066  1
  O2-  O232  1  0.38557390  0.03580858  0.26741935  1
  O2-  O233  1  0.38876111  0.02995144  0.76879886  1
  O2-  O234  1  0.36752910  0.51535608  0.26859467  1
  O2-  O235  1  0.38717352  0.51158145  0.78476342  1
  O2-  O236  1  0.88486980  0.02028014  0.28365626  1
  O2-  O237  1  0.86818886  0.01906297  0.75786642  1
  O2-  O238  1  0.86935293  0.51474114  0.26335842  1
  O2-  O239  1  0.88034040  0.52079997  0.77280789  1
  O2-  O240  1  0.46845313  0.38307639  0.25150065  1
  O2-  O241  1  0.48098597  0.36913884  0.74938061  1
  O2-  O242  1  0.48066693  0.88783856  0.26898493  1
  O2-  O243  1  0.47904011  0.88871059  0.74521537  1
  O2-  O244  1  0.98414669  0.37110456  0.23130211  1
  O2-  O245  1  0.97516079  0.38214409  0.72812950  1
  O2-  O246  1  0.97680155  0.88671876  0.23107444  1
  O2-  O247  1  0.97483938  0.88769430  0.71536138  1
  O2-  O248  1  0.01365289  0.13069162  0.27288227  1
  O2-  O249  1  0.01143703  0.11359838  0.77543311  1
  O2-  O250  1  0.01595750  0.61090307  0.27901709  1
  O2-  O251  1  0.02004446  0.61861544  0.76563805  1
  O2-  O252  1  0.53759423  0.11561210  0.25537770  1
  O2-  O253  1  0.52318323  0.12906260  0.74723918  1
  O2-  O254  1  0.50774698  0.61089991  0.23219523  1
  O2-  O255  1  0.52568377  0.61573769  0.74431144  1
  O2-  O256  1  0.13540939  0.47572936  0.02490921  1
  O2-  O257  1  0.13535902  0.48961443  0.51763772  1
  O2-  O258  1  0.13311258  0.97657705  0.02243770  1
  O2-  O259  1  0.13105204  0.98660126  0.52018126  1
  O2-  O260  1  0.62416643  0.48609840  0.02551354  1
  O2-  O261  1  0.63291042  0.46573713  0.51331498  1
  O2-  O262  1  0.64072140  0.97264383  0.01623139  1
  O2-  O263  1  0.62221929  0.97902858  0.52182344  1
  O2-  O264  1  0.37040461  0.02139863  -0.02252795  1
  O2-  O265  1  0.37815507  0.01831464  0.48379064  1
  O2-  O266  1  0.38259419  0.51887393  -0.00699538  1
  O2-  O267  1  0.36262912  0.52503493  0.47103901  1
  O2-  O268  1  0.86379564  0.00912453  -0.03890361  1
  O2-  O269  1  0.88137932  0.02003887  0.48555283  1
  O2-  O270  1  0.86151127  0.52886396  -0.01829610  1
  O2-  O271  1  0.86143097  0.53658331  0.48198791  1
  O2-  O272  1  0.48711767  0.37677224  -0.00396539  1
  O2-  O273  1  0.47035093  0.36416619  0.50458837  1
  O2-  O274  1  0.48312526  0.86413418  -0.01744541  1
  O2-  O275  1  0.47650647  0.88285311  0.50108578  1
  O2-  O276  1  0.97794769  0.36277215  0.02967111  1
  O2-  O277  1  0.98587776  0.36409270  0.51911843  1
  O2-  O278  1  0.97476866  0.86546381  0.02358693  1
  O2-  O279  1  0.98994156  0.88538531  0.52210840  1
  O2-  O280  1  0.02966612  0.13457025  -0.01706755  1
  O2-  O281  1  0.02472622  0.12411832  0.48285568  1
  O2-  O282  1  0.02224373  0.63309511  -0.01851351  1
  O2-  O283  1  0.01611113  0.63831172  0.46732847  1
  O2-  O284  1  0.53369454  0.13487188  -0.00685643  1
  O2-  O285  1  0.51226274  0.12486760  0.50643948  1
  O2-  O286  1  0.52027652  0.61796922  0.01367385  1
  O2-  O287  1  0.51771197  0.63560780  0.50678895  1
  O2-  O288  1  0.11611064  0.27814883  -0.01756176  1
  O2-  O289  1  0.13098730  0.26641281  0.47978922  1
  O2-  O290  1  0.11824215  0.77906123  -0.01757640  1
  O2-  O291  1  0.13171080  0.77015554  0.48020641  1
  O2-  O292  1  0.62100659  0.27695917  -0.02916153  1
  O2-  O293  1  0.61099344  0.26371703  0.47868112  1
  O2-  O294  1  0.62949202  0.76085407  -0.01829775  1
  O2-  O295  1  0.61307358  0.77953954  0.47324498  1
  O2-  O296  1  0.39221452  0.23302264  0.01943253  1
  O2-  O297  1  0.36837916  0.23131973  0.51869608  1
  O2-  O298  1  0.38629031  0.72763407  0.02452937  1
  O2-  O299  1  0.37062795  0.74313988  0.51751693  1
  O2-  O300  1  0.88662970  0.21691956  0.01707465  1
  O2-  O301  1  0.88817140  0.22331482  0.51879499  1
  O2-  O302  1  0.86925947  0.72803067  0.01526856  1
  O2-  O303  1  0.88535370  0.73647952  0.52678652  1
  O2-  O304  1  0.28426485  0.38574438  -0.00896989  1
  O2-  O305  1  0.26651299  0.37702179  0.48240086  1
  O2-  O306  1  0.27665868  0.88103579  -0.01799609  1
  O2-  O307  1  0.26318200  0.87963590  0.48094255  1
  O2-  O308  1  0.77486677  0.38712744  -0.01000984  1
  O2-  O309  1  0.77720632  0.38738930  0.48224166  1
  O2-  O310  1  0.76654877  0.86687024  -0.01049828  1
  O2-  O311  1  0.77963595  0.88589668  0.49086173  1
  O2-  O312  1  0.23439523  0.11814846  0.02017113  1
  O2-  O313  1  0.23361374  0.13069676  0.51463997  1
  O2-  O314  1  0.24262595  0.61150836  0.03415124  1
  O2-  O315  1  0.23312793  0.63112539  0.51587485  1
  O2-  O316  1  0.73448538  0.11377687  0.02267951  1
  O2-  O317  1  0.73597223  0.11213860  0.51562836  1
  O2-  O318  1  0.72841516  0.62614699  0.01164328  1
  O2-  O319  1  0.70844373  0.61698382  0.50316886  1
