# generated using pymatgen
data_Sr64Ca21Nb43O192
_symmetry_space_group_name_H-M   'P 1'
_cell_length_a   16.56085884
_cell_length_b   16.57541798
_cell_length_c   16.74481998
_cell_angle_alpha   90.04676302
_cell_angle_beta   89.98557106
_cell_angle_gamma   90.00714791
_symmetry_Int_Tables_number   1
_chemical_formula_structural   Sr64Ca21Nb43O192
_chemical_formula_sum   'Sr64 Ca21 Nb43 O192'
_cell_volume   4596.50423972
_cell_formula_units_Z   1
loop_
 _symmetry_equiv_pos_site_id
 _symmetry_equiv_pos_as_xyz
  1  'x, y, z'
loop_
 _atom_type_symbol
 _atom_type_oxidation_number
  Sr2+  2.0
  Ca2+  2.0
  Nb5+  5.0
  O2-  -2.0
loop_
 _atom_site_type_symbol
 _atom_site_label
 _atom_site_symmetry_multiplicity
 _atom_site_fract_x
 _atom_site_fract_y
 _atom_site_fract_z
 _atom_site_occupancy
  Sr2+  Sr0  1  0.12426827  0.13736306  0.12520053  1
  Sr2+  Sr1  1  0.13462164  0.11164506  0.62081068  1
  Sr2+  Sr2  1  0.13189944  0.63975193  0.12327818  1
  Sr2+  Sr3  1  0.13271785  0.62335677  0.62606338  1
  Sr2+  Sr4  1  0.62207867  0.12240746  0.12480478  1
  Sr2+  Sr5  1  0.61789820  0.12217151  0.62909336  1
  Sr2+  Sr6  1  0.61863012  0.62991571  0.11998096  1
  Sr2+  Sr7  1  0.61539166  0.63279850  0.62686729  1
  Sr2+  Sr8  1  0.36876504  0.36162723  0.12054869  1
  Sr2+  Sr9  1  0.37035664  0.36581886  0.62286149  1
  Sr2+  Sr10  1  0.36548085  0.89049845  0.12609864  1
  Sr2+  Sr11  1  0.36660826  0.88769731  0.62953478  1
  Sr2+  Sr12  1  0.87868819  0.36451921  0.10984195  1
  Sr2+  Sr13  1  0.87095070  0.36713724  0.62974186  1
  Sr2+  Sr14  1  0.87313786  0.87976331  0.11710170  1
  Sr2+  Sr15  1  0.87797916  0.88204613  0.63349239  1
  Sr2+  Sr16  1  0.12209132  0.38157185  0.37465582  1
  Sr2+  Sr17  1  0.10494399  0.38402698  0.87304183  1
  Sr2+  Sr18  1  0.12009316  0.87215265  0.37764078  1
  Sr2+  Sr19  1  0.12604340  0.86772704  0.87091550  1
  Sr2+  Sr20  1  0.63705489  0.37905935  0.37601538  1
  Sr2+  Sr21  1  0.63863909  0.38027784  0.87687660  1
  Sr2+  Sr22  1  0.63325963  0.85876211  0.37979176  1
  Sr2+  Sr23  1  0.62802919  0.87824438  0.87121205  1
  Sr2+  Sr24  1  0.38495019  0.12632199  0.37042937  1
  Sr2+  Sr25  1  0.39515659  0.12213871  0.87136554  1
  Sr2+  Sr26  1  0.39050073  0.61863313  0.37467859  1
  Sr2+  Sr27  1  0.37916705  0.62092865  0.87983024  1
  Sr2+  Sr28  1  0.87531916  0.12307200  0.36824944  1
  Sr2+  Sr29  1  0.87493778  0.12172928  0.88852305  1
  Sr2+  Sr30  1  0.86250277  0.62068409  0.37476755  1
  Sr2+  Sr31  1  0.85646461  0.62004655  0.87546177  1
  Sr2+  Sr32  1  0.12703720  0.12563717  0.37454497  1
  Sr2+  Sr33  1  0.11352317  0.14304703  0.87773259  1
  Sr2+  Sr34  1  0.12431971  0.62488885  0.36852141  1
  Sr2+  Sr35  1  0.12899398  0.62641091  0.87474813  1
  Sr2+  Sr36  1  0.63746514  0.13225118  0.36585057  1
  Sr2+  Sr37  1  0.63168440  0.12659246  0.88540327  1
  Sr2+  Sr38  1  0.62682354  0.62659212  0.37993144  1
  Sr2+  Sr39  1  0.62776112  0.62104682  0.87471016  1
  Sr2+  Sr40  1  0.37298483  0.38161725  0.37087255  1
  Sr2+  Sr41  1  0.37075381  0.37271163  0.88033770  1
  Sr2+  Sr42  1  0.38116724  0.86189796  0.36704645  1
  Sr2+  Sr43  1  0.38105935  0.86629127  0.87863999  1
  Sr2+  Sr44  1  0.87341192  0.35676741  0.38122669  1
  Sr2+  Sr45  1  0.87738392  0.35712858  0.86857815  1
  Sr2+  Sr46  1  0.88244440  0.85339837  0.37042864  1
  Sr2+  Sr47  1  0.87912779  0.89783083  0.87909320  1
  Sr2+  Sr48  1  0.12525449  0.38066879  0.10938316  1
  Sr2+  Sr49  1  0.12340946  0.37504643  0.62919452  1
  Sr2+  Sr50  1  0.12314156  0.87703811  0.12436572  1
  Sr2+  Sr51  1  0.11343257  0.87739911  0.62836409  1
  Sr2+  Sr52  1  0.61030785  0.37066382  0.11346952  1
  Sr2+  Sr53  1  0.61721832  0.37174065  0.62648399  1
  Sr2+  Sr54  1  0.61219345  0.88713281  0.11993941  1
  Sr2+  Sr55  1  0.60504516  0.87630786  0.62905111  1
  Sr2+  Sr56  1  0.40041703  0.12414303  0.13236644  1
  Sr2+  Sr57  1  0.38782574  0.12573750  0.62502404  1
  Sr2+  Sr58  1  0.37030253  0.62666318  0.11649642  1
  Sr2+  Sr59  1  0.37364446  0.62410676  0.62305819  1
  Sr2+  Sr60  1  0.85355422  0.12021064  0.12413912  1
  Sr2+  Sr61  1  0.87812389  0.11642801  0.62657016  1
  Sr2+  Sr62  1  0.87576986  0.63398941  0.12431182  1
  Sr2+  Sr63  1  0.86314603  0.63106753  0.63145549  1
  Ca2+  Ca64  1  0.50035099  0.00115900  0.49654877  1
  Ca2+  Ca65  1  0.49436950  -0.00409624  0.00065888  1
  Ca2+  Ca66  1  0.49909058  0.49976724  -0.00210652  1
  Ca2+  Ca67  1  -0.00475610  0.50553840  0.00019048  1
  Ca2+  Ca68  1  0.00747827  0.00116857  0.00427501  1
  Ca2+  Ca69  1  0.74784233  0.25240759  -0.00056504  1
  Ca2+  Ca70  1  0.75360891  0.75097921  0.50324188  1
  Ca2+  Ca71  1  0.75109149  0.74903214  -0.00216396  1
  Ca2+  Ca72  1  0.25118081  0.75122942  0.49728403  1
  Ca2+  Ca73  1  0.25026945  0.24689821  -0.00149251  1
  Ca2+  Ca74  1  0.00043292  0.25302482  0.25107364  1
  Ca2+  Ca75  1  0.75020237  0.49708157  0.24919742  1
  Ca2+  Ca76  1  0.49936595  0.74829296  0.75147094  1
  Ca2+  Ca77  1  0.75129085  -0.00458666  0.25509667  1
  Ca2+  Ca78  1  0.00128384  0.24946578  0.74442165  1
  Ca2+  Ca79  1  0.50071942  0.25285406  0.75126124  1
  Ca2+  Ca80  1  0.75039061  0.00328507  0.74902042  1
  Ca2+  Ca81  1  0.25110528  0.00239638  0.75395239  1
  Ca2+  Ca82  1  0.49830826  0.74637810  0.24538785  1
  Ca2+  Ca83  1  0.49969933  0.25315066  0.25427414  1
  Ca2+  Ca84  1  -0.00291462  0.74931184  0.75034624  1
  Nb5+  Nb85  1  -0.00035233  -0.00389753  0.49663372  1
  Nb5+  Nb86  1  0.49741886  0.49716033  0.50113092  1
  Nb5+  Nb87  1  -0.00474453  0.49683122  0.49976322  1
  Nb5+  Nb88  1  0.25129006  0.75346760  -0.00103707  1
  Nb5+  Nb89  1  0.25425154  0.24813508  0.50032133  1
  Nb5+  Nb90  1  0.75411628  0.24555227  0.50506314  1
  Nb5+  Nb91  1  0.24440666  0.00853608  0.24793059  1
  Nb5+  Nb92  1  0.00190378  0.74757942  0.24907758  1
  Nb5+  Nb93  1  0.24781757  0.50481619  0.24531812  1
  Nb5+  Nb94  1  0.74260830  0.49828479  0.74596666  1
  Nb5+  Nb95  1  0.24729593  0.49850676  0.74733123  1
  Nb5+  Nb96  1  0.00518310  0.00266194  0.24959758  1
  Nb5+  Nb97  1  0.00399708  0.00524095  0.75554842  1
  Nb5+  Nb98  1  -0.00252723  0.49947396  0.24990717  1
  Nb5+  Nb99  1  -0.00821432  0.50737194  0.74947779  1
  Nb5+  Nb100  1  0.50464644  -0.00701157  0.25859421  1
  Nb5+  Nb101  1  0.49943696  -0.00039981  0.75069836  1
  Nb5+  Nb102  1  0.50210989  0.49642604  0.24631925  1
  Nb5+  Nb103  1  0.49301666  0.49702661  0.74962380  1
  Nb5+  Nb104  1  0.24580981  0.25725353  0.25115677  1
  Nb5+  Nb105  1  0.24943541  0.24686092  0.75331570  1
  Nb5+  Nb106  1  0.24976404  0.75533113  0.25093509  1
  Nb5+  Nb107  1  0.25536629  0.75258911  0.74735314  1
  Nb5+  Nb108  1  0.74692826  0.25580541  0.24473262  1
  Nb5+  Nb109  1  0.74821367  0.24739850  0.74804763  1
  Nb5+  Nb110  1  0.74432484  0.75086945  0.24290248  1
  Nb5+  Nb111  1  0.75458361  0.75620842  0.75003180  1
  Nb5+  Nb112  1  0.00835406  0.24584221  0.50058652  1
  Nb5+  Nb113  1  0.00064162  0.25129713  1.00091371  1
  Nb5+  Nb114  1  0.00348849  0.74196621  0.50186665  1
  Nb5+  Nb115  1  -0.00052110  0.74678145  0.99488524  1
  Nb5+  Nb116  1  0.50920513  0.24981601  0.49552601  1
  Nb5+  Nb117  1  0.49677084  0.24985422  0.99853754  1
  Nb5+  Nb118  1  0.49549283  0.75386864  0.50286270  1
  Nb5+  Nb119  1  0.50450983  0.75052148  1.00060370  1
  Nb5+  Nb120  1  0.24722419  0.00569050  -0.00365511  1
  Nb5+  Nb121  1  0.25544902  -0.00003391  0.49528842  1
  Nb5+  Nb122  1  0.24932371  0.50086506  -0.00627902  1
  Nb5+  Nb123  1  0.24610951  0.49814365  0.49710727  1
  Nb5+  Nb124  1  0.74741277  -0.00235397  0.00097319  1
  Nb5+  Nb125  1  0.75098789  -0.00527708  0.49710020  1
  Nb5+  Nb126  1  0.75006539  0.49611736  0.00884354  1
  Nb5+  Nb127  1  0.74491017  0.49829607  0.50466845  1
  O2-  O128  1  0.01165801  -0.01945701  0.13802649  1
  O2-  O129  1  0.00078834  -0.01091561  0.61569992  1
  O2-  O130  1  -0.00250841  0.47502468  0.13882283  1
  O2-  O131  1  0.00004136  0.48715717  0.61843669  1
  O2-  O132  1  0.51492835  0.01428492  0.13910596  1
  O2-  O133  1  0.50706436  0.02443895  0.62929451  1
  O2-  O134  1  0.49760038  0.52376711  0.13575519  1
  O2-  O135  1  0.49480132  0.52175530  0.61807326  1
  O2-  O136  1  0.00843008  0.01528250  0.37759372  1
  O2-  O137  1  0.00492165  0.02208619  0.86903380  1
  O2-  O138  1  0.00985529  0.52422448  0.38475440  1
  O2-  O139  1  0.00451686  0.52565372  0.86240675  1
  O2-  O140  1  0.46821257  -0.02130738  0.36880195  1
  O2-  O141  1  0.48332606  -0.02264536  0.86647360  1
  O2-  O142  1  0.49950575  0.47508430  0.38287019  1
  O2-  O143  1  0.49758348  0.46906411  0.86050028  1
  O2-  O144  1  0.22177148  0.26011245  0.13831526  1
  O2-  O145  1  0.22611960  0.25720015  0.61628441  1
  O2-  O146  1  0.26423771  0.74565943  0.12487946  1
  O2-  O147  1  0.27233845  0.74816824  0.63353138  1
  O2-  O148  1  0.73332814  0.28165653  0.13455095  1
  O2-  O149  1  0.73427874  0.27446821  0.61995715  1
  O2-  O150  1  0.78614958  0.75608275  0.13280215  1
  O2-  O151  1  0.78205707  0.76474768  0.63289019  1
  O2-  O152  1  0.26776856  0.25252787  0.38159710  1
  O2-  O153  1  0.27641849  0.24330935  0.86402134  1
  O2-  O154  1  0.22273974  0.75153352  0.36269166  1
  O2-  O155  1  0.23040375  0.74887347  0.88097580  1
  O2-  O156  1  0.76424905  0.23165477  0.38834024  1
  O2-  O157  1  0.76695663  0.23434279  0.86212174  1
  O2-  O158  1  0.73592033  0.73273088  0.36371693  1
  O2-  O159  1  0.73171644  0.72509296  0.86279922  1
  O2-  O160  1  0.02190561  0.27268433  0.11833001  1
  O2-  O161  1  0.00677122  0.28013898  0.61074113  1
  O2-  O162  1  -0.01412166  0.75775708  0.13282809  1
  O2-  O163  1  -0.01806233  0.76672051  0.61142744  1
  O2-  O164  1  0.52437043  0.23568913  0.12020284  1
  O2-  O165  1  0.50978602  0.22951378  0.61185167  1
  O2-  O166  1  0.48873265  0.71206130  0.11434288  1
  O2-  O167  1  0.48804632  0.71864156  0.61547291  1
  O2-  O168  1  0.24590996  0.01082689  0.37302038  1
  O2-  O169  1  0.27672675  0.00199277  0.88729245  1
  O2-  O170  1  0.24349631  0.49731374  0.37869520  1
  O2-  O171  1  0.24999654  0.50499205  0.87379229  1
  O2-  O172  1  0.75440125  0.03626591  0.38829953  1
  O2-  O173  1  0.75436390  0.02356094  0.88336817  1
  O2-  O174  1  0.74054198  0.51757330  0.38865644  1
  O2-  O175  1  0.74179356  0.51622799  0.86186155  1
  O2-  O176  1  -0.02552263  0.23938321  0.38917540  1
  O2-  O177  1  -0.01827080  0.23323454  0.87990524  1
  O2-  O178  1  0.02740972  0.74299706  0.37214021  1
  O2-  O179  1  0.03053141  0.74337920  0.88457974  1
  O2-  O180  1  0.47126177  0.27300235  0.38856113  1
  O2-  O181  1  0.46603780  0.26162263  0.88342074  1
  O2-  O182  1  0.51213873  0.76874542  0.38305425  1
  O2-  O183  1  0.51053186  0.78108901  0.88433612  1
  O2-  O184  1  0.22555419  -0.00428281  0.13312057  1
  O2-  O185  1  0.24358637  -0.00374383  0.61233152  1
  O2-  O186  1  0.24798803  0.49866693  0.12901057  1
  O2-  O187  1  0.25348792  0.49648688  0.62660668  1
  O2-  O188  1  0.74193057  -0.01991938  0.12060121  1
  O2-  O189  1  0.77324197  -0.00517388  0.61206412  1
  O2-  O190  1  0.75843344  0.46777873  0.11794658  1
  O2-  O191  1  0.75902123  0.47536310  0.62309187  1
  O2-  O192  1  0.13383342  0.25830589  0.28775253  1
  O2-  O193  1  0.13745335  0.28598526  0.76175073  1
  O2-  O194  1  0.12783500  0.75941591  0.22580525  1
  O2-  O195  1  0.13691554  0.76713172  0.73674040  1
  O2-  O196  1  0.63252431  0.26196857  0.28217514  1
  O2-  O197  1  0.63565888  0.28426146  0.75727550  1
  O2-  O198  1  0.63377749  0.77678171  0.22546560  1
  O2-  O199  1  0.63754929  0.76163100  0.72406268  1
  O2-  O200  1  0.35863168  0.22533555  0.24220937  1
  O2-  O201  1  0.36194354  0.24273303  0.71701438  1
  O2-  O202  1  0.36121107  0.72628999  0.26683916  1
  O2-  O203  1  0.36573318  0.71879866  0.77316596  1
  O2-  O204  1  0.86511311  0.23328476  0.23938512  1
  O2-  O205  1  0.86493596  0.24307172  0.72106074  1
  O2-  O206  1  0.88870541  0.72499431  0.26884268  1
  O2-  O207  1  0.86702757  0.71350068  0.76226507  1
  O2-  O208  1  0.26340918  0.37543631  0.25478851  1
  O2-  O209  1  0.27595366  0.38373211  0.75431816  1
  O2-  O210  1  0.26592870  0.87174793  0.25064184  1
  O2-  O211  1  0.27968610  0.86494384  0.75923532  1
  O2-  O212  1  0.76518589  0.36582111  0.28442008  1
  O2-  O213  1  0.77480448  0.38200201  0.75920786  1
  O2-  O214  1  0.78008085  0.86228864  0.26609466  1
  O2-  O215  1  0.77498587  0.86707633  0.77296789  1
  O2-  O216  1  0.22271983  0.12321226  0.24963633  1
  O2-  O217  1  0.21922229  0.13647667  0.74632141  1
  O2-  O218  1  0.22801267  0.62065816  0.24861468  1
  O2-  O219  1  0.23060977  0.61923419  0.74902986  1
  O2-  O220  1  0.72986833  0.13459732  0.23392244  1
  O2-  O221  1  0.72439313  0.13718483  0.72909458  1
  O2-  O222  1  0.72986959  0.63139559  0.22990222  1
  O2-  O223  1  0.73540241  0.61386080  0.72140498  1
  O2-  O224  1  0.12860316  0.48280899  0.25500221  1
  O2-  O225  1  0.13099584  0.48151621  0.74630154  1
  O2-  O226  1  0.12731302  0.97165914  0.26420215  1
  O2-  O227  1  0.11839582  0.96784341  0.74988364  1
  O2-  O228  1  0.61282830  0.46629771  0.24670350  1
  O2-  O229  1  0.62765462  0.47828693  0.73902874  1
  O2-  O230  1  0.61589734  0.97115814  0.27682010  1
  O2-  O231  1  0.61806001  0.97149418  0.74938854  1
  O2-  O232  1  0.36071677  0.01595564  0.24010543  1
  O2-  O233  1  0.38266214  0.03015135  0.73879980  1
  O2-  O234  1  0.36435120  0.51815381  0.26027996  1
  O2-  O235  1  0.37611375  0.52107095  0.74918427  1
  O2-  O236  1  0.88968755  0.01705724  0.25141270  1
  O2-  O237  1  0.88625721  0.03066004  0.75111648  1
  O2-  O238  1  0.88679941  0.53008085  0.25550673  1
  O2-  O239  1  0.87657455  0.52235792  0.74367587  1
  O2-  O240  1  0.46083123  0.38578296  0.23808953  1
  O2-  O241  1  0.48758822  0.38608789  0.71246638  1
  O2-  O242  1  0.47058858  0.88100054  0.23219368  1
  O2-  O243  1  0.47822947  0.88214346  0.72223254  1
  O2-  O244  1  0.98904689  0.38982549  0.28568463  1
  O2-  O245  1  0.98786294  0.38915889  0.76097274  1
  O2-  O246  1  0.99479622  0.86755517  0.26665702  1
  O2-  O247  1  0.97334693  0.88672232  0.75477982  1
  O2-  O248  1  0.03076986  0.11502298  0.24392724  1
  O2-  O249  1  0.03059515  0.11719189  0.72529677  1
  O2-  O250  1  0.02866998  0.62448920  0.24294785  1
  O2-  O251  1  0.02621786  0.61619906  0.72372281  1
  O2-  O252  1  0.50606174  0.11331358  0.27327428  1
  O2-  O253  1  0.52565927  0.11776916  0.77503123  1
  O2-  O254  1  0.51282074  0.60974480  0.28215181  1
  O2-  O255  1  0.52650845  0.60977190  0.76060012  1
  O2-  O256  1  0.13232304  0.48251864  -0.00224318  1
  O2-  O257  1  0.12702933  0.48171478  0.50628076  1
  O2-  O258  1  0.13947664  0.95760107  -0.00792235  1
  O2-  O259  1  0.12446455  0.99034960  0.49625222  1
  O2-  O260  1  0.63149034  0.47134004  -0.00021618  1
  O2-  O261  1  0.62531832  0.48249124  0.50876356  1
  O2-  O262  1  0.62984234  0.97404498  -0.01012303  1
  O2-  O263  1  0.63749899  0.97210233  0.50080114  1
  O2-  O264  1  0.35834548  0.01588475  0.03523354  1
  O2-  O265  1  0.36331758  0.03987892  0.50017698  1
  O2-  O266  1  0.36451434  0.52644452  0.00098822  1
  O2-  O267  1  0.37363369  0.50652933  0.49636324  1
  O2-  O268  1  0.87010453  0.01999967  0.00844073  1
  O2-  O269  1  0.88636726  0.03012684  0.49439146  1
  O2-  O270  1  0.86338793  0.53303713  0.00109276  1
  O2-  O271  1  0.87835867  0.51411377  0.49833619  1
  O2-  O272  1  0.47795395  0.36746031  0.02208024  1
  O2-  O273  1  0.48996192  0.37660327  0.52285642  1
  O2-  O274  1  0.47090774  0.86155792  0.02708497  1
  O2-  O275  1  0.47595786  0.86546765  0.52615983  1
  O2-  O276  1  0.97542608  0.37057424  -0.01672034  1
  O2-  O277  1  0.98933485  0.38231763  0.48109318  1
  O2-  O278  1  0.97974831  0.86396279  -0.00155519  1
  O2-  O279  1  0.98626089  0.88161671  0.48308392  1
  O2-  O280  1  0.02849599  0.13544089  0.01106461  1
  O2-  O281  1  0.02116113  0.13128842  0.51516121  1
  O2-  O282  1  0.02728808  0.63568774  0.02330137  1
  O2-  O283  1  0.02281939  0.62685228  0.51455819  1
  O2-  O284  1  0.51138780  0.13005572  -0.01781579  1
  O2-  O285  1  0.51975556  0.13692161  0.47021181  1
  O2-  O286  1  0.51095440  0.63407880  -0.03412149  1
  O2-  O287  1  0.51484335  0.61353048  0.47952350  1
  O2-  O288  1  0.11758294  0.27691417  -0.02462790  1
  O2-  O289  1  0.12092611  0.26873794  0.48069564  1
  O2-  O290  1  0.13175720  0.76747810  0.02028124  1
  O2-  O291  1  0.11693427  0.77677526  0.51217779  1
  O2-  O292  1  0.61433012  0.26969604  -0.02388857  1
  O2-  O293  1  0.62473943  0.27153558  0.48636808  1
  O2-  O294  1  0.61679589  0.76894505  0.02198502  1
  O2-  O295  1  0.61644164  0.75963857  0.51224566  1
  O2-  O296  1  0.37985987  0.23152353  0.03143606  1
  O2-  O297  1  0.36849294  0.23775948  0.51807546  1
  O2-  O298  1  0.36732466  0.72689536  -0.01401559  1
  O2-  O299  1  0.38279387  0.72255990  0.47993565  1
  O2-  O300  1  0.88266440  0.23163606  0.02435705  1
  O2-  O301  1  0.87125494  0.24041364  0.52026061  1
  O2-  O302  1  0.88785945  0.71979101  -0.01429227  1
  O2-  O303  1  0.89032603  0.73426346  0.47001382  1
  O2-  O304  1  0.27221091  0.38586369  0.00118570  1
  O2-  O305  1  0.26097837  0.37485915  0.50000785  1
  O2-  O306  1  0.27590670  0.86774394  0.00041200  1
  O2-  O307  1  0.28034841  0.88802733  0.48657662  1
  O2-  O308  1  0.77363912  0.38571625  -0.03124036  1
  O2-  O309  1  0.76346729  0.37560088  0.48641289  1
  O2-  O310  1  0.77572790  0.88204014  -0.01725450  1
  O2-  O311  1  0.77939143  0.88630661  0.47469687  1
  O2-  O312  1  0.21053777  0.11466378  -0.00092767  1
  O2-  O313  1  0.22408599  0.13331967  0.49638963  1
  O2-  O314  1  0.22942722  0.62505497  0.00286499  1
  O2-  O315  1  0.23345567  0.61310654  0.50527730  1
  O2-  O316  1  0.72888973  0.11852593  0.02172475  1
  O2-  O317  1  0.72924302  0.13310672  0.52321979  1
  O2-  O318  1  0.71783804  0.61242418  0.00977500  1
  O2-  O319  1  0.74107757  0.61318446  0.52612488  1
