# generated using pymatgen
data_Sr64Ca21Nb43O192
_symmetry_space_group_name_H-M   'P 1'
_cell_length_a   16.55456766
_cell_length_b   16.56186538
_cell_length_c   16.72814334
_cell_angle_alpha   89.98647763
_cell_angle_beta   90.03286816
_cell_angle_gamma   90.01758664
_symmetry_Int_Tables_number   1
_chemical_formula_structural   Sr64Ca21Nb43O192
_chemical_formula_sum   'Sr64 Ca21 Nb43 O192'
_cell_volume   4586.42958726
_cell_formula_units_Z   1
loop_
 _symmetry_equiv_pos_site_id
 _symmetry_equiv_pos_as_xyz
  1  'x, y, z'
loop_
 _atom_type_symbol
 _atom_type_oxidation_number
  Sr2+  2.0
  Ca2+  2.0
  Nb5+  5.0
  O2-  -2.0
loop_
 _atom_site_type_symbol
 _atom_site_label
 _atom_site_symmetry_multiplicity
 _atom_site_fract_x
 _atom_site_fract_y
 _atom_site_fract_z
 _atom_site_occupancy
  Sr2+  Sr0  1  0.12346728  0.13339406  0.13477885  1
  Sr2+  Sr1  1  0.11694850  0.11519789  0.63153288  1
  Sr2+  Sr2  1  0.11525711  0.61139594  0.12815680  1
  Sr2+  Sr3  1  0.12050024  0.61933069  0.62296926  1
  Sr2+  Sr4  1  0.62330297  0.12498502  0.13399181  1
  Sr2+  Sr5  1  0.62067990  0.13771393  0.62085775  1
  Sr2+  Sr6  1  0.62741745  0.61225859  0.11971343  1
  Sr2+  Sr7  1  0.61986899  0.61234029  0.62476824  1
  Sr2+  Sr8  1  0.36411484  0.36193461  0.12254621  1
  Sr2+  Sr9  1  0.37141716  0.36487927  0.62873021  1
  Sr2+  Sr10  1  0.36907532  0.88082723  0.11114334  1
  Sr2+  Sr11  1  0.36718868  0.87102624  0.63544529  1
  Sr2+  Sr12  1  0.87387008  0.36372087  0.11952299  1
  Sr2+  Sr13  1  0.86213486  0.36719831  0.63120230  1
  Sr2+  Sr14  1  0.86564913  0.87216697  0.12595142  1
  Sr2+  Sr15  1  0.87259987  0.86612690  0.62134076  1
  Sr2+  Sr16  1  0.13628694  0.37715345  0.37166276  1
  Sr2+  Sr17  1  0.13068885  0.38545933  0.87070914  1
  Sr2+  Sr18  1  0.13155162  0.88212946  0.37563495  1
  Sr2+  Sr19  1  0.13597377  0.88339615  0.87439740  1
  Sr2+  Sr20  1  0.62698226  0.38179865  0.37443941  1
  Sr2+  Sr21  1  0.63869188  0.37955779  0.86837424  1
  Sr2+  Sr22  1  0.63122662  0.87895680  0.37737881  1
  Sr2+  Sr23  1  0.61511064  0.87827861  0.87844093  1
  Sr2+  Sr24  1  0.38213630  0.12867704  0.36940068  1
  Sr2+  Sr25  1  0.38831366  0.13088243  0.88365733  1
  Sr2+  Sr26  1  0.38307017  0.63072227  0.37361809  1
  Sr2+  Sr27  1  0.39312678  0.63248111  0.87334613  1
  Sr2+  Sr28  1  0.88530049  0.13200800  0.37695994  1
  Sr2+  Sr29  1  0.88257795  0.13051967  0.86801894  1
  Sr2+  Sr30  1  0.88647966  0.64147453  0.37311724  1
  Sr2+  Sr31  1  0.88358420  0.62984517  0.88204317  1
  Sr2+  Sr32  1  0.13267750  0.13828365  0.37987906  1
  Sr2+  Sr33  1  0.13377324  0.13956494  0.87179775  1
  Sr2+  Sr34  1  0.13680315  0.63543824  0.37165166  1
  Sr2+  Sr35  1  0.12134924  0.62924522  0.88265548  1
  Sr2+  Sr36  1  0.63775821  0.13326192  0.36919669  1
  Sr2+  Sr37  1  0.63330521  0.13641891  0.86789767  1
  Sr2+  Sr38  1  0.62295989  0.62798821  0.38403400  1
  Sr2+  Sr39  1  0.63580624  0.63616229  0.87484779  1
  Sr2+  Sr40  1  0.38237004  0.39209718  0.37316242  1
  Sr2+  Sr41  1  0.38180705  0.38135137  0.88306315  1
  Sr2+  Sr42  1  0.37921128  0.87675680  0.37592484  1
  Sr2+  Sr43  1  0.38467722  0.87798303  0.87507394  1
  Sr2+  Sr44  1  0.88245390  0.38033067  0.37284878  1
  Sr2+  Sr45  1  0.88182702  0.39095255  0.87136939  1
  Sr2+  Sr46  1  0.87840755  0.88432060  0.37624295  1
  Sr2+  Sr47  1  0.87291967  0.87671380  0.87399319  1
  Sr2+  Sr48  1  0.11477027  0.36996128  0.12062196  1
  Sr2+  Sr49  1  0.11319177  0.36700293  0.62788630  1
  Sr2+  Sr50  1  0.11539612  0.87942694  0.12785414  1
  Sr2+  Sr51  1  0.11571487  0.87483464  0.62483910  1
  Sr2+  Sr52  1  0.61872578  0.36410402  0.12271629  1
  Sr2+  Sr53  1  0.61343099  0.37195820  0.62199311  1
  Sr2+  Sr54  1  0.61447239  0.87736448  0.12938231  1
  Sr2+  Sr55  1  0.61756446  0.87877238  0.63490147  1
  Sr2+  Sr56  1  0.35802638  0.12211899  0.12275308  1
  Sr2+  Sr57  1  0.36545482  0.12441840  0.62892788  1
  Sr2+  Sr58  1  0.35810566  0.62171306  0.12652917  1
  Sr2+  Sr59  1  0.37165292  0.61908278  0.62663929  1
  Sr2+  Sr60  1  0.86112752  0.11970263  0.12593061  1
  Sr2+  Sr61  1  0.87674399  0.11070416  0.62414457  1
  Sr2+  Sr62  1  0.88016662  0.62147204  0.11944691  1
  Sr2+  Sr63  1  0.86402136  0.62096108  0.62113290  1
  Ca2+  Ca64  1  -0.00061304  0.50172377  0.49669159  1
  Ca2+  Ca65  1  0.50264691  -0.00049871  0.50051567  1
  Ca2+  Ca66  1  0.00124455  0.00045821  0.00367665  1
  Ca2+  Ca67  1  0.50373862  0.00453316  0.00133448  1
  Ca2+  Ca68  1  0.50086958  0.50012612  0.00114526  1
  Ca2+  Ca69  1  0.75094277  0.25011191  0.49990497  1
  Ca2+  Ca70  1  0.24886836  0.25138089  0.50310270  1
  Ca2+  Ca71  1  0.74984751  0.24770498  -0.00132654  1
  Ca2+  Ca72  1  0.24961535  0.74937259  -0.00033501  1
  Ca2+  Ca73  1  0.24681382  0.24912632  -0.00259016  1
  Ca2+  Ca74  1  0.25119596  0.50093013  0.74884600  1
  Ca2+  Ca75  1  0.75064211  0.50271587  0.75009626  1
  Ca2+  Ca76  1  0.75063179  0.00090729  0.74836474  1
  Ca2+  Ca77  1  0.49850840  0.25080871  0.25279486  1
  Ca2+  Ca78  1  0.50028741  0.74973487  0.24897764  1
  Ca2+  Ca79  1  -0.00051225  0.24907349  0.24936501  1
  Ca2+  Ca80  1  -0.00146891  0.25023998  0.75035017  1
  Ca2+  Ca81  1  0.74954323  0.50465813  0.25096362  1
  Ca2+  Ca82  1  0.00070757  0.75056039  0.24752498  1
  Ca2+  Ca83  1  0.25182395  0.00028287  0.74706837  1
  Ca2+  Ca84  1  -0.00141468  0.74914868  0.74954708  1
  Nb5+  Nb85  1  0.49784905  0.49932365  0.50241493  1
  Nb5+  Nb86  1  0.00032600  0.49864911  -0.00027418  1
  Nb5+  Nb87  1  0.00186094  0.00002875  0.49579586  1
  Nb5+  Nb88  1  0.25633849  0.75141858  0.50119280  1
  Nb5+  Nb89  1  0.74932386  0.75210635  0.00771575  1
  Nb5+  Nb90  1  0.75049269  0.75047248  0.50519321  1
  Nb5+  Nb91  1  0.24936547  0.50539573  0.24952907  1
  Nb5+  Nb92  1  0.49756585  0.25777785  0.75180983  1
  Nb5+  Nb93  1  0.24539171  0.00262817  0.25083456  1
  Nb5+  Nb94  1  0.74447785  -0.00481989  0.25092029  1
  Nb5+  Nb95  1  0.50257054  0.75274702  0.74784692  1
  Nb5+  Nb96  1  -0.00491324  0.00339773  0.24941290  1
  Nb5+  Nb97  1  0.00070909  -0.00587498  0.75742429  1
  Nb5+  Nb98  1  -0.00254192  0.49779464  0.25429093  1
  Nb5+  Nb99  1  -0.00123817  0.50491993  0.74268043  1
  Nb5+  Nb100  1  0.49363726  -0.00208356  0.25255240  1
  Nb5+  Nb101  1  0.50375512  0.01014913  0.74866599  1
  Nb5+  Nb102  1  0.49955855  0.50347880  0.24349000  1
  Nb5+  Nb103  1  0.50305894  0.50327293  0.75451309  1
  Nb5+  Nb104  1  0.25329426  0.25745458  0.25504290  1
  Nb5+  Nb105  1  0.24855302  0.25353712  0.75186317  1
  Nb5+  Nb106  1  0.25141513  0.76029073  0.24923222  1
  Nb5+  Nb107  1  0.24820978  0.74647480  0.75445105  1
  Nb5+  Nb108  1  0.75319900  0.25590848  0.25270630  1
  Nb5+  Nb109  1  0.75339439  0.24658121  0.74697917  1
  Nb5+  Nb110  1  0.74460053  0.74803110  0.25633147  1
  Nb5+  Nb111  1  0.75345832  0.74831531  0.75486089  1
  Nb5+  Nb112  1  -0.00439767  0.25658428  0.50222296  1
  Nb5+  Nb113  1  -0.00167977  0.24468048  0.99415377  1
  Nb5+  Nb114  1  0.00902200  0.75089086  0.49475904  1
  Nb5+  Nb115  1  0.00208470  0.75458888  1.00023688  1
  Nb5+  Nb116  1  0.49722454  0.24921657  0.49637566  1
  Nb5+  Nb117  1  0.50261848  0.25005328  1.00414980  1
  Nb5+  Nb118  1  0.50282975  0.75241310  0.50382045  1
  Nb5+  Nb119  1  0.50318917  0.74478167  1.00634264  1
  Nb5+  Nb120  1  0.24770258  0.00152574  -0.00547324  1
  Nb5+  Nb121  1  0.25035123  0.00100786  0.50126749  1
  Nb5+  Nb122  1  0.25077147  0.50466154  -0.00490439  1
  Nb5+  Nb123  1  0.25112503  0.49762845  0.50123119  1
  Nb5+  Nb124  1  0.74870225  0.00118128  -0.00138314  1
  Nb5+  Nb125  1  0.74773258  -0.00154961  0.50036615  1
  Nb5+  Nb126  1  0.75111451  0.49630615  0.00265030  1
  Nb5+  Nb127  1  0.75435572  0.49941047  0.49367588  1
  O2-  O128  1  0.00646748  0.03368106  0.13874530  1
  O2-  O129  1  -0.00249039  0.01441652  0.61326704  1
  O2-  O130  1  -0.00844932  0.51786727  0.12281563  1
  O2-  O131  1  -0.01609882  0.53013514  0.63103753  1
  O2-  O132  1  0.51120219  0.02083340  0.13794571  1
  O2-  O133  1  0.52398289  0.01917660  0.63230393  1
  O2-  O134  1  0.48276658  0.53487687  0.13474300  1
  O2-  O135  1  0.48336978  0.51461426  0.62300292  1
  O2-  O136  1  0.00416667  -0.02798845  0.37472654  1
  O2-  O137  1  0.00132377  -0.03425144  0.86857509  1
  O2-  O138  1  0.01600406  0.46692455  0.36477197  1
  O2-  O139  1  0.01600746  0.48516091  0.88235011  1
  O2-  O140  1  0.50272444  -0.03582874  0.36719443  1
  O2-  O141  1  0.48820636  -0.01527732  0.86472599  1
  O2-  O142  1  0.51053325  0.48342196  0.38400810  1
  O2-  O143  1  0.51822941  0.47775354  0.86525184  1
  O2-  O144  1  0.23325400  0.26479587  0.13689009  1
  O2-  O145  1  0.23944992  0.28632768  0.63535258  1
  O2-  O146  1  0.23686201  0.77886587  0.13693698  1
  O2-  O147  1  0.23899296  0.77570908  0.61572856  1
  O2-  O148  1  0.72547041  0.25890747  0.13659826  1
  O2-  O149  1  0.72787923  0.27533617  0.63330735  1
  O2-  O150  1  0.73373439  0.76951455  0.12089014  1
  O2-  O151  1  0.73475061  0.77036342  0.61735710  1
  O2-  O152  1  0.26761068  0.22343878  0.36812931  1
  O2-  O153  1  0.26881120  0.21831888  0.86452720  1
  O2-  O154  1  0.26726945  0.73447167  0.38021878  1
  O2-  O155  1  0.26351428  0.71429542  0.86346520  1
  O2-  O156  1  0.76534693  0.22337741  0.36687328  1
  O2-  O157  1  0.75975928  0.22036112  0.86460373  1
  O2-  O158  1  0.75520640  0.73409939  0.37279641  1
  O2-  O159  1  0.76437673  0.73442926  0.86995228  1
  O2-  O160  1  0.02920371  0.24373579  0.11141789  1
  O2-  O161  1  0.02785556  0.23326032  0.61518711  1
  O2-  O162  1  0.01697751  0.72528285  0.11395073  1
  O2-  O163  1  0.01404565  0.73226622  0.61027929  1
  O2-  O164  1  0.52496744  0.23849768  0.11712485  1
  O2-  O165  1  0.51876396  0.24688487  0.63033577  1
  O2-  O166  1  0.53293833  0.73130941  0.11515413  1
  O2-  O167  1  0.52063721  0.73058779  0.62802487  1
  O2-  O168  1  0.24090972  0.00992239  0.37341038  1
  O2-  O169  1  0.24117058  0.02178032  0.88191959  1
  O2-  O170  1  0.23423251  0.51674631  0.37244099  1
  O2-  O171  1  0.22157606  0.51672794  0.88527793  1
  O2-  O172  1  0.74599650  0.00511633  0.37412697  1
  O2-  O173  1  0.75801190  0.01738796  0.88623025  1
  O2-  O174  1  0.71251424  0.51113998  0.38396226  1
  O2-  O175  1  0.73050867  0.51610576  0.88741587  1
  O2-  O176  1  -0.02930238  0.26193628  0.38465403  1
  O2-  O177  1  -0.03935813  0.26602597  0.88245280  1
  O2-  O178  1  -0.02612184  0.76907489  0.38233737  1
  O2-  O179  1  -0.03271395  0.75945317  0.88553908  1
  O2-  O180  1  0.46917189  0.26773500  0.38692050  1
  O2-  O181  1  0.47585480  0.26323744  0.86825482  1
  O2-  O182  1  0.48221295  0.76191775  0.39016064  1
  O2-  O183  1  0.48885533  0.76336341  0.86629431  1
  O2-  O184  1  0.25491338  -0.02156481  0.13648647  1
  O2-  O185  1  0.24976942  -0.03025725  0.61102222  1
  O2-  O186  1  0.27164877  0.48553667  0.13482290  1
  O2-  O187  1  0.27955578  0.48931090  0.61176111  1
  O2-  O188  1  0.74743236  -0.02355005  0.13479319  1
  O2-  O189  1  0.77264588  -0.01838570  0.61149964  1
  O2-  O190  1  0.77892827  0.50538510  0.11772118  1
  O2-  O191  1  0.76917029  0.49515807  0.61147029  1
  O2-  O192  1  0.13515625  0.25819268  0.27308772  1
  O2-  O193  1  0.13427473  0.26908537  0.77142557  1
  O2-  O194  1  0.13709517  0.76100437  0.27791511  1
  O2-  O195  1  0.13633179  0.77238688  0.76194412  1
  O2-  O196  1  0.63291829  0.26263566  0.27608216  1
  O2-  O197  1  0.61659715  0.26520000  0.76959912  1
  O2-  O198  1  0.63353342  0.78856329  0.25890466  1
  O2-  O199  1  0.62429994  0.76956089  0.76231471  1
  O2-  O200  1  0.36578521  0.22696565  0.23066065  1
  O2-  O201  1  0.38148918  0.23434466  0.72954605  1
  O2-  O202  1  0.36327222  0.72410819  0.24085020  1
  O2-  O203  1  0.38478828  0.73019182  0.73351429  1
  O2-  O204  1  0.86586288  0.22645843  0.22882644  1
  O2-  O205  1  0.86475945  0.22658581  0.72298277  1
  O2-  O206  1  0.86017508  0.73008716  0.23165259  1
  O2-  O207  1  0.86367096  0.72646461  0.72592032  1
  O2-  O208  1  0.26823817  0.37407888  0.27147534  1
  O2-  O209  1  0.27750967  0.36721540  0.77846027  1
  O2-  O210  1  0.26917692  0.87451155  0.27298992  1
  O2-  O211  1  0.28135371  0.86038449  0.76533759  1
  O2-  O212  1  0.77398928  0.36876239  0.26621681  1
  O2-  O213  1  0.76470922  0.36497123  0.77280196  1
  O2-  O214  1  0.77552328  0.87633702  0.26491395  1
  O2-  O215  1  0.77081921  0.86492333  0.75638198  1
  O2-  O216  1  0.23484868  0.11745174  0.23665932  1
  O2-  O217  1  0.23939744  0.13589108  0.71774040  1
  O2-  O218  1  0.23102392  0.62116939  0.23504215  1
  O2-  O219  1  0.24060190  0.63698649  0.71097452  1
  O2-  O220  1  0.73348016  0.11300200  0.23779428  1
  O2-  O221  1  0.71832594  0.13293941  0.72893890  1
  O2-  O222  1  0.71150206  0.63859719  0.23999993  1
  O2-  O223  1  0.72191190  0.63676953  0.73032418  1
  O2-  O224  1  0.13322132  0.47627169  0.23621100  1
  O2-  O225  1  0.11631140  0.47508703  0.73298682  1
  O2-  O226  1  0.12921514  0.97871232  0.24932591  1
  O2-  O227  1  0.11818323  0.97332037  0.73847925  1
  O2-  O228  1  0.61222759  0.47724259  0.22961116  1
  O2-  O229  1  0.61566019  0.48392104  0.72364416  1
  O2-  O230  1  0.62784795  0.97796467  0.25435017  1
  O2-  O231  1  0.61691512  0.97313991  0.75965190  1
  O2-  O232  1  0.37334117  0.01740865  0.25850071  1
  O2-  O233  1  0.38719218  0.00629400  0.72781245  1
  O2-  O234  1  0.36905092  0.51884613  0.27027098  1
  O2-  O235  1  0.38669419  0.52326939  0.76520480  1
  O2-  O236  1  0.87652822  0.01588507  0.25607110  1
  O2-  O237  1  0.88600670  0.02787344  0.75337594  1
  O2-  O238  1  0.88587975  0.52325449  0.27247797  1
  O2-  O239  1  0.88473274  0.52323416  0.77496207  1
  O2-  O240  1  0.46893490  0.38851106  0.23901319  1
  O2-  O241  1  0.48268097  0.37578366  0.73641430  1
  O2-  O242  1  0.47336768  0.88259009  0.22234364  1
  O2-  O243  1  0.48828344  0.86775613  0.72986006  1
  O2-  O244  1  0.98400734  0.38419930  0.22188559  1
  O2-  O245  1  0.97404660  0.38602692  0.73320962  1
  O2-  O246  1  0.98888871  0.88616484  0.22419122  1
  O2-  O247  1  0.97664862  0.88250371  0.72189330  1
  O2-  O248  1  0.02050898  0.11342298  0.28326684  1
  O2-  O249  1  0.02781063  0.11261086  0.76499179  1
  O2-  O250  1  0.02972113  0.61213239  0.26329724  1
  O2-  O251  1  0.02965094  0.61735300  0.77008320  1
  O2-  O252  1  0.51533885  0.11292006  0.28064578  1
  O2-  O253  1  0.51352150  0.12711781  0.76631777  1
  O2-  O254  1  0.51251434  0.61485728  0.28293742  1
  O2-  O255  1  0.52239237  0.62338693  0.76420434  1
  O2-  O256  1  0.12130842  0.48778284  0.01946540  1
  O2-  O257  1  0.13620298  0.49030789  0.52103310  1
  O2-  O258  1  0.13512147  0.96531906  0.00842097  1
  O2-  O259  1  0.12171486  0.97532981  0.49810037  1
  O2-  O260  1  0.63686021  0.48438333  0.02947469  1
  O2-  O261  1  0.61759051  0.48982735  0.51904410  1
  O2-  O262  1  0.63659431  0.96472697  0.00386982  1
  O2-  O263  1  0.63791797  0.96417317  0.50432739  1
  O2-  O264  1  0.36606927  0.01929923  0.01093209  1
  O2-  O265  1  0.36492750  0.02005586  0.49143120  1
  O2-  O266  1  0.36445333  0.52473642  -0.02093702  1
  O2-  O267  1  0.37629421  0.52323138  0.48146021  1
  O2-  O268  1  0.86494661  0.00299650  0.02157412  1
  O2-  O269  1  0.87834698  0.00825393  0.48349405  1
  O2-  O270  1  0.87921496  0.51877174  -0.01516071  1
  O2-  O271  1  0.86320503  0.52964969  0.47084064  1
  O2-  O272  1  0.47117490  0.36746182  0.01538656  1
  O2-  O273  1  0.47662207  0.38327621  0.51710403  1
  O2-  O274  1  0.48820566  0.86289333  0.00710708  1
  O2-  O275  1  0.48284858  0.86277223  0.53095341  1
  O2-  O276  1  0.98199111  0.38183961  0.01427567  1
  O2-  O277  1  0.97193975  0.36812120  0.52396738  1
  O2-  O278  1  0.98452956  0.86446236  0.02912775  1
  O2-  O279  1  0.98575044  0.87215176  0.51557069  1
  O2-  O280  1  0.01283905  0.13200772  -0.03088207  1
  O2-  O281  1  0.01712267  0.11465048  0.47832945  1
  O2-  O282  1  0.00987900  0.62240576  -0.01496262  1
  O2-  O283  1  0.01503830  0.63590316  0.46929042  1
  O2-  O284  1  0.52527166  0.13672157  -0.02702525  1
  O2-  O285  1  0.52350985  0.13688288  0.48305332  1
  O2-  O286  1  0.52215850  0.63362591  -0.03064916  1
  O2-  O287  1  0.51073068  0.62606616  0.49363513  1
  O2-  O288  1  0.11298930  0.27194526  -0.03302567  1
  O2-  O289  1  0.11295818  0.26760609  0.47471814  1
  O2-  O290  1  0.11446140  0.76375619  -0.03012628  1
  O2-  O291  1  0.12568312  0.76701267  0.48163093  1
  O2-  O292  1  0.61512862  0.28262333  -0.02265687  1
  O2-  O293  1  0.61207611  0.28260852  0.48933341  1
  O2-  O294  1  0.63162853  0.76334420  -0.02242899  1
  O2-  O295  1  0.62162298  0.76294596  0.48609700  1
  O2-  O296  1  0.38386677  0.22388779  0.01334354  1
  O2-  O297  1  0.38438303  0.23656014  0.53101722  1
  O2-  O298  1  0.38793486  0.72706440  0.01709926  1
  O2-  O299  1  0.37308952  0.73467417  0.51876727  1
  O2-  O300  1  0.88334304  0.23436783  0.03047588  1
  O2-  O301  1  0.88389395  0.21670716  0.52048533  1
  O2-  O302  1  0.86893971  0.73346949  0.01731685  1
  O2-  O303  1  0.86752240  0.73278334  0.51258536  1
  O2-  O304  1  0.26526204  0.38712664  -0.00557234  1
  O2-  O305  1  0.26585648  0.38745641  0.47215287  1
  O2-  O306  1  0.27669299  0.88212060  -0.02091315  1
  O2-  O307  1  0.26406567  0.87091382  0.47519627  1
  O2-  O308  1  0.77445840  0.38428615  -0.01071294  1
  O2-  O309  1  0.77184402  0.38568856  0.48023212  1
  O2-  O310  1  0.77095194  0.86737070  -0.01661943  1
  O2-  O311  1  0.76672339  0.86603893  0.47751854  1
  O2-  O312  1  0.22390180  0.11365032  0.02714966  1
  O2-  O313  1  0.22393639  0.11246468  0.51865325  1
  O2-  O314  1  0.23160448  0.61594817  0.03359724  1
  O2-  O315  1  0.23385054  0.63221866  0.51114345  1
  O2-  O316  1  0.72801328  0.11180515  0.02603249  1
  O2-  O317  1  0.72502712  0.11119344  0.50906059  1
  O2-  O318  1  0.73515949  0.63216265  0.00964278  1
  O2-  O319  1  0.72815245  0.63180469  0.51066802  1
