# generated using pymatgen
data_Sr64Ca21Nb43O192
_symmetry_space_group_name_H-M   'P 1'
_cell_length_a   16.58228292
_cell_length_b   16.57252888
_cell_length_c   16.72112312
_cell_angle_alpha   89.99282873
_cell_angle_beta   89.98645299
_cell_angle_gamma   90.12212536
_symmetry_Int_Tables_number   1
_chemical_formula_structural   Sr64Ca21Nb43O192
_chemical_formula_sum   'Sr64 Ca21 Nb43 O192'
_cell_volume   4595.12730355
_cell_formula_units_Z   1
loop_
 _symmetry_equiv_pos_site_id
 _symmetry_equiv_pos_as_xyz
  1  'x, y, z'
loop_
 _atom_type_symbol
 _atom_type_oxidation_number
  Sr2+  2.0
  Ca2+  2.0
  Nb5+  5.0
  O2-  -2.0
loop_
 _atom_site_type_symbol
 _atom_site_label
 _atom_site_symmetry_multiplicity
 _atom_site_fract_x
 _atom_site_fract_y
 _atom_site_fract_z
 _atom_site_occupancy
  Sr2+  Sr0  1  0.13548440  0.11374324  0.12996521  1
  Sr2+  Sr1  1  0.13523683  0.10393663  0.62554391  1
  Sr2+  Sr2  1  0.12548180  0.62774760  0.12708825  1
  Sr2+  Sr3  1  0.12636077  0.63408687  0.62958551  1
  Sr2+  Sr4  1  0.62247901  0.12103167  0.12913251  1
  Sr2+  Sr5  1  0.61451400  0.12125103  0.62119452  1
  Sr2+  Sr6  1  0.62045604  0.64435485  0.12943942  1
  Sr2+  Sr7  1  0.62310077  0.63747755  0.62602440  1
  Sr2+  Sr8  1  0.37575406  0.36348706  0.12965814  1
  Sr2+  Sr9  1  0.37779272  0.35537220  0.62892763  1
  Sr2+  Sr10  1  0.37831313  0.85685918  0.12348920  1
  Sr2+  Sr11  1  0.36883806  0.86006480  0.62407038  1
  Sr2+  Sr12  1  0.88173406  0.37483062  0.12246897  1
  Sr2+  Sr13  1  0.87926020  0.36902713  0.61725759  1
  Sr2+  Sr14  1  0.87473361  0.87898712  0.13380661  1
  Sr2+  Sr15  1  0.87929411  0.86952375  0.61877278  1
  Sr2+  Sr16  1  0.12456211  0.37907219  0.37874454  1
  Sr2+  Sr17  1  0.14221764  0.37806492  0.87926722  1
  Sr2+  Sr18  1  0.12191715  0.86856332  0.37896794  1
  Sr2+  Sr19  1  0.11979281  0.87407875  0.86183301  1
  Sr2+  Sr20  1  0.60339107  0.37421103  0.36804713  1
  Sr2+  Sr21  1  0.62850279  0.37583103  0.87282706  1
  Sr2+  Sr22  1  0.63333355  0.87762404  0.37625520  1
  Sr2+  Sr23  1  0.62850736  0.88706854  0.88102671  1
  Sr2+  Sr24  1  0.36676086  0.13285261  0.37998555  1
  Sr2+  Sr25  1  0.37053754  0.13343144  0.87746000  1
  Sr2+  Sr26  1  0.39322029  0.62436217  0.37912332  1
  Sr2+  Sr27  1  0.38351934  0.61770884  0.87712828  1
  Sr2+  Sr28  1  0.88194889  0.12805054  0.36683399  1
  Sr2+  Sr29  1  0.86800165  0.13543866  0.87576423  1
  Sr2+  Sr30  1  0.88002546  0.62334990  0.37377261  1
  Sr2+  Sr31  1  0.87488920  0.62545374  0.86914584  1
  Sr2+  Sr32  1  0.11314538  0.13494913  0.36705399  1
  Sr2+  Sr33  1  0.12775050  0.11710802  0.87811947  1
  Sr2+  Sr34  1  0.12670035  0.61544009  0.38411134  1
  Sr2+  Sr35  1  0.11233893  0.62288811  0.87767217  1
  Sr2+  Sr36  1  0.63533946  0.13354770  0.37980810  1
  Sr2+  Sr37  1  0.62454158  0.13296068  0.87688446  1
  Sr2+  Sr38  1  0.63005300  0.61504862  0.36969239  1
  Sr2+  Sr39  1  0.63734924  0.61262386  0.86791200  1
  Sr2+  Sr40  1  0.37322633  0.38266897  0.38947254  1
  Sr2+  Sr41  1  0.37830715  0.37094481  0.86520012  1
  Sr2+  Sr42  1  0.36985714  0.87278619  0.38615216  1
  Sr2+  Sr43  1  0.38214688  0.87323809  0.88599085  1
  Sr2+  Sr44  1  0.87970961  0.36886071  0.37670496  1
  Sr2+  Sr45  1  0.87386204  0.37740121  0.87751011  1
  Sr2+  Sr46  1  0.87862638  0.90074447  0.37227103  1
  Sr2+  Sr47  1  0.87787385  0.89943338  0.87154669  1
  Sr2+  Sr48  1  0.13883876  0.37564651  0.13132261  1
  Sr2+  Sr49  1  0.12883983  0.37917941  0.61795669  1
  Sr2+  Sr50  1  0.13074443  0.86385393  0.12069568  1
  Sr2+  Sr51  1  0.13750210  0.86624897  0.62465254  1
  Sr2+  Sr52  1  0.62159540  0.38094182  0.12837527  1
  Sr2+  Sr53  1  0.61037105  0.37375049  0.61822831  1
  Sr2+  Sr54  1  0.61386662  0.88071406  0.12210546  1
  Sr2+  Sr55  1  0.62804503  0.87984980  0.62359932  1
  Sr2+  Sr56  1  0.37668686  0.12431675  0.12315259  1
  Sr2+  Sr57  1  0.37635540  0.12143910  0.63568114  1
  Sr2+  Sr58  1  0.37360805  0.63114475  0.12918871  1
  Sr2+  Sr59  1  0.37010690  0.62828176  0.62249211  1
  Sr2+  Sr60  1  0.87806656  0.11555766  0.12622062  1
  Sr2+  Sr61  1  0.86822628  0.11585329  0.61793656  1
  Sr2+  Sr62  1  0.87810725  0.63443754  0.12860077  1
  Sr2+  Sr63  1  0.86989017  0.63071720  0.62537847  1
  Ca2+  Ca64  1  0.50358250  0.50270634  0.50340342  1
  Ca2+  Ca65  1  0.49734328  -0.00233273  0.49873759  1
  Ca2+  Ca66  1  0.50433264  0.49848964  0.00120964  1
  Ca2+  Ca67  1  0.00179502  -0.00014707  0.50126382  1
  Ca2+  Ca68  1  -0.00015771  0.00027512  0.00069845  1
  Ca2+  Ca69  1  0.75369632  0.74791563  0.49572884  1
  Ca2+  Ca70  1  0.75330105  0.75065291  -0.00134178  1
  Ca2+  Ca71  1  0.75043336  0.25309811  0.50092440  1
  Ca2+  Ca72  1  0.24852088  0.74792205  -0.00579766  1
  Ca2+  Ca73  1  0.24744745  0.24716445  0.50339549  1
  Ca2+  Ca74  1  0.49998607  0.75492957  0.25210834  1
  Ca2+  Ca75  1  0.50087036  0.75087741  0.75144454  1
  Ca2+  Ca76  1  0.25560663  -0.00470262  0.25167019  1
  Ca2+  Ca77  1  0.74738818  0.00397829  0.75137367  1
  Ca2+  Ca78  1  -0.00082722  0.25435326  0.24409573  1
  Ca2+  Ca79  1  0.24962949  0.49983734  0.75015727  1
  Ca2+  Ca80  1  -0.00213473  0.25370860  0.74950503  1
  Ca2+  Ca81  1  0.49950780  0.24419382  0.24840682  1
  Ca2+  Ca82  1  0.25373276  -0.00426182  0.75183036  1
  Ca2+  Ca83  1  0.00219653  0.75020701  0.25304056  1
  Ca2+  Ca84  1  0.24941809  0.50287257  0.25035569  1
  Nb5+  Nb85  1  0.00328691  0.49771076  0.00603781  1
  Nb5+  Nb86  1  0.49561414  0.00410799  -0.00020684  1
  Nb5+  Nb87  1  -0.00071515  0.50084182  0.50816752  1
  Nb5+  Nb88  1  0.25067926  0.74615511  0.49882069  1
  Nb5+  Nb89  1  0.25263236  0.24925699  0.00225865  1
  Nb5+  Nb90  1  0.75492924  0.25137074  0.00553325  1
  Nb5+  Nb91  1  0.74969001  0.49613656  0.73987795  1
  Nb5+  Nb92  1  0.50299672  0.24748753  0.75080523  1
  Nb5+  Nb93  1  -0.00415533  0.75000882  0.74914831  1
  Nb5+  Nb94  1  0.74678416  0.00848224  0.25030866  1
  Nb5+  Nb95  1  0.75153638  0.50483196  0.24315292  1
  Nb5+  Nb96  1  0.00833429  -0.00290992  0.24399710  1
  Nb5+  Nb97  1  0.00060785  0.00790050  0.74746569  1
  Nb5+  Nb98  1  0.00113976  0.49971709  0.25520198  1
  Nb5+  Nb99  1  -0.00250586  0.49684217  0.75502802  1
  Nb5+  Nb100  1  0.49903223  0.00107823  0.25616020  1
  Nb5+  Nb101  1  0.49569422  -0.00514554  0.75108042  1
  Nb5+  Nb102  1  0.49803639  0.50249909  0.24500677  1
  Nb5+  Nb103  1  0.50057424  0.50307986  0.74981501  1
  Nb5+  Nb104  1  0.25069158  0.25228443  0.25674549  1
  Nb5+  Nb105  1  0.24232746  0.24920328  0.75194566  1
  Nb5+  Nb106  1  0.25040607  0.74812303  0.25123608  1
  Nb5+  Nb107  1  0.25194072  0.74667995  0.75617008  1
  Nb5+  Nb108  1  0.75314944  0.25907445  0.25145452  1
  Nb5+  Nb109  1  0.74631935  0.25198041  0.74442252  1
  Nb5+  Nb110  1  0.75246750  0.75925631  0.25028467  1
  Nb5+  Nb111  1  0.75002985  0.75423721  0.75052482  1
  Nb5+  Nb112  1  0.00374548  0.24705339  0.50616246  1
  Nb5+  Nb113  1  0.00927276  0.25148183  0.99818968  1
  Nb5+  Nb114  1  0.00019047  0.74516666  0.49722888  1
  Nb5+  Nb115  1  -0.00643662  0.75360171  0.99961397  1
  Nb5+  Nb116  1  0.49716964  0.24838426  0.49484502  1
  Nb5+  Nb117  1  0.50551329  0.25149862  0.99982058  1
  Nb5+  Nb118  1  0.50702112  0.75358455  0.50132298  1
  Nb5+  Nb119  1  0.50538868  0.74473233  0.99182344  1
  Nb5+  Nb120  1  0.24792313  -0.00554279  0.00399264  1
  Nb5+  Nb121  1  0.24695612  0.00272118  0.49401732  1
  Nb5+  Nb122  1  0.25453477  0.50428898  0.00027753  1
  Nb5+  Nb123  1  0.25349254  0.50009351  0.50519332  1
  Nb5+  Nb124  1  0.74895900  0.00572446  -0.00118396  1
  Nb5+  Nb125  1  0.75118013  -0.00178000  0.50324995  1
  Nb5+  Nb126  1  0.75206267  0.50129119  0.00020328  1
  Nb5+  Nb127  1  0.75035701  0.49760706  0.49109464  1
  O2-  O128  1  -0.02912456  -0.00578906  0.13162236  1
  O2-  O129  1  -0.03449426  -0.00559923  0.63525292  1
  O2-  O130  1  0.01032640  0.48180618  0.12006010  1
  O2-  O131  1  0.00384854  0.48652898  0.62420719  1
  O2-  O132  1  0.49489694  0.02982578  0.11522590  1
  O2-  O133  1  0.49434931  0.02213837  0.63766331  1
  O2-  O134  1  0.53330315  0.51865227  0.13293978  1
  O2-  O135  1  0.53601631  0.51017584  0.63709507  1
  O2-  O136  1  0.01467627  0.00901983  0.36388511  1
  O2-  O137  1  0.02168723  -0.00606182  0.86595399  1
  O2-  O138  1  -0.00532536  0.51780016  0.37206844  1
  O2-  O139  1  -0.01499308  0.51490109  0.87144910  1
  O2-  O140  1  0.51095566  -0.03041521  0.36365509  1
  O2-  O141  1  0.51460554  -0.01013159  0.87921596  1
  O2-  O142  1  0.48798796  0.48102876  0.36460139  1
  O2-  O143  1  0.49121766  0.47589585  0.86536190  1
  O2-  O144  1  0.22500082  0.23710337  0.11628589  1
  O2-  O145  1  0.23566785  0.22626893  0.63865363  1
  O2-  O146  1  0.25327008  0.73599539  0.13250471  1
  O2-  O147  1  0.25502269  0.72956157  0.62254386  1
  O2-  O148  1  0.72773577  0.26724935  0.12170097  1
  O2-  O149  1  0.73301546  0.28138512  0.63616710  1
  O2-  O150  1  0.77925578  0.75688156  0.13342156  1
  O2-  O151  1  0.77479278  0.75932388  0.63422504  1
  O2-  O152  1  0.27666315  0.26613687  0.36815199  1
  O2-  O153  1  0.26450864  0.26697592  0.88131880  1
  O2-  O154  1  0.23966585  0.76077260  0.38156192  1
  O2-  O155  1  0.24338765  0.78163234  0.86401749  1
  O2-  O156  1  0.77288722  0.23574270  0.36377539  1
  O2-  O157  1  0.75422039  0.23938739  0.88381869  1
  O2-  O158  1  0.72183371  0.73500041  0.36276478  1
  O2-  O159  1  0.74331576  0.71846261  0.86287722  1
  O2-  O160  1  0.00947832  0.28406059  0.10955454  1
  O2-  O161  1  0.01313494  0.28513964  0.61774418  1
  O2-  O162  1  -0.00398451  0.75764284  0.11497087  1
  O2-  O163  1  -0.00784307  0.75297493  0.62639813  1
  O2-  O164  1  0.51338084  0.22904199  0.11202814  1
  O2-  O165  1  0.51742354  0.23923602  0.63184127  1
  O2-  O166  1  0.48125429  0.73520772  0.11055022  1
  O2-  O167  1  0.48461578  0.72239628  0.61655360  1
  O2-  O168  1  0.23021528  -0.03411238  0.38292802  1
  O2-  O169  1  0.22806005  -0.01365231  0.88730860  1
  O2-  O170  1  0.25061871  0.48319881  0.38681793  1
  O2-  O171  1  0.26447995  0.47401893  0.88525587  1
  O2-  O172  1  0.73312652  0.01170048  0.36825736  1
  O2-  O173  1  0.72956399  0.02449954  0.88578039  1
  O2-  O174  1  0.76539920  0.51822713  0.37680469  1
  O2-  O175  1  0.76560092  0.51202862  0.88413450  1
  O2-  O176  1  -0.01770233  0.24255128  0.38581873  1
  O2-  O177  1  -0.02864100  0.24612380  0.88672718  1
  O2-  O178  1  0.02002769  0.72442556  0.38564077  1
  O2-  O179  1  0.00414346  0.73410504  0.86830051  1
  O2-  O180  1  0.47299263  0.26344064  0.38236595  1
  O2-  O181  1  0.48781216  0.26142079  0.87336755  1
  O2-  O182  1  0.50169769  0.78134015  0.38542374  1
  O2-  O183  1  0.51430650  0.78848374  0.88243284  1
  O2-  O184  1  0.26804000  0.02712863  0.11594902  1
  O2-  O185  1  0.26994836  0.01787924  0.61331687  1
  O2-  O186  1  0.22385196  0.51326145  0.11329214  1
  O2-  O187  1  0.22484291  0.51748898  0.61790515  1
  O2-  O188  1  0.76094107  -0.00509047  0.12569251  1
  O2-  O189  1  0.76559942  -0.01892171  0.61750441  1
  O2-  O190  1  0.74745081  0.47724976  0.13015488  1
  O2-  O191  1  0.74288208  0.47318139  0.62899682  1
  O2-  O192  1  0.13227586  0.27362617  0.26697455  1
  O2-  O193  1  0.13257708  0.27404649  0.76998022  1
  O2-  O194  1  0.13627459  0.78876136  0.24804199  1
  O2-  O195  1  0.11570275  0.76256673  0.74268313  1
  O2-  O196  1  0.63620025  0.26470478  0.26480870  1
  O2-  O197  1  0.62259237  0.26977745  0.76914715  1
  O2-  O198  1  0.63570752  0.76578214  0.22179641  1
  O2-  O199  1  0.63617624  0.76104602  0.72679159  1
  O2-  O200  1  0.36444228  0.23356407  0.22205684  1
  O2-  O201  1  0.38286141  0.23385720  0.74338797  1
  O2-  O202  1  0.36543351  0.71161898  0.26157913  1
  O2-  O203  1  0.36431781  0.71987174  0.75912490  1
  O2-  O204  1  0.86316343  0.23153455  0.21942150  1
  O2-  O205  1  0.85984949  0.22834256  0.73950713  1
  O2-  O206  1  0.86554257  0.72704527  0.26938145  1
  O2-  O207  1  0.87710799  0.72434761  0.75456396  1
  O2-  O208  1  0.26305412  0.36771533  0.22506327  1
  O2-  O209  1  0.27610024  0.36322441  0.74013692  1
  O2-  O210  1  0.29335464  0.86181173  0.24753277  1
  O2-  O211  1  0.25606241  0.86123876  0.72223675  1
  O2-  O212  1  0.77194877  0.37470353  0.26061788  1
  O2-  O213  1  0.76109675  0.37689840  0.77466055  1
  O2-  O214  1  0.76902129  0.87589252  0.26271732  1
  O2-  O215  1  0.76569538  0.86540944  0.77613750  1
  O2-  O216  1  0.22586668  0.13460477  0.26424178  1
  O2-  O217  1  0.23845061  0.13361152  0.77857040  1
  O2-  O218  1  0.21057042  0.63460051  0.26249659  1
  O2-  O219  1  0.21702166  0.63371855  0.76725727  1
  O2-  O220  1  0.73223290  0.12382731  0.23802869  1
  O2-  O221  1  0.71922009  0.13873607  0.73457815  1
  O2-  O222  1  0.73157473  0.61846814  0.23267479  1
  O2-  O223  1  0.73262994  0.61493397  0.73178048  1
  O2-  O224  1  0.11270902  0.47476277  0.25844850  1
  O2-  O225  1  0.11017536  0.47364505  0.76029027  1
  O2-  O226  1  0.11913470  0.97862217  0.22098057  1
  O2-  O227  1  0.11402489  0.97594438  0.72640975  1
  O2-  O228  1  0.63800910  0.48201075  0.26920393  1
  O2-  O229  1  0.63422671  0.48634821  0.77176259  1
  O2-  O230  1  0.63271680  0.97737852  0.23641344  1
  O2-  O231  1  0.61372044  0.97072773  0.74673724  1
  O2-  O232  1  0.38905354  0.03571488  0.26162578  1
  O2-  O233  1  0.38565113  0.03095213  0.77297533  1
  O2-  O234  1  0.38503576  0.51699089  0.22802414  1
  O2-  O235  1  0.38706448  0.51756096  0.73107431  1
  O2-  O236  1  0.86623080  0.01751148  0.26244937  1
  O2-  O237  1  0.88271571  0.02141590  0.77776974  1
  O2-  O238  1  0.86989752  0.52247979  0.24554520  1
  O2-  O239  1  0.86741479  0.52003448  0.74218244  1
  O2-  O240  1  0.49975745  0.38252391  0.22696547  1
  O2-  O241  1  0.49075572  0.37159752  0.73418861  1
  O2-  O242  1  0.49009754  0.89128633  0.21314480  1
  O2-  O243  1  0.46171042  0.88484955  0.74229268  1
  O2-  O244  1  0.96423440  0.38806356  0.25404287  1
  O2-  O245  1  0.96094975  0.38752806  0.75506620  1
  O2-  O246  1  0.97301754  0.88366918  0.25779923  1
  O2-  O247  1  0.97567756  0.86565649  0.75635812  1
  O2-  O248  1  0.01464929  0.11809164  0.23718611  1
  O2-  O249  1  0.02840470  0.11918396  0.74133788  1
  O2-  O250  1  0.00903473  0.61302193  0.22312092  1
  O2-  O251  1  0.00977214  0.61976366  0.73641256  1
  O2-  O252  1  0.54063105  0.11224680  0.26238395  1
  O2-  O253  1  0.52406376  0.13091116  0.76308801  1
  O2-  O254  1  0.52420141  0.61727894  0.26843302  1
  O2-  O255  1  0.51902244  0.61544018  0.77560404  1
  O2-  O256  1  0.11868925  0.48315015  -0.01677283  1
  O2-  O257  1  0.11911974  0.48445378  0.49086009  1
  O2-  O258  1  0.13362300  0.98908791  0.02728343  1
  O2-  O259  1  0.13327046  0.97743188  0.52528248  1
  O2-  O260  1  0.64058009  0.46756007  -0.00640871  1
  O2-  O261  1  0.63854723  0.47272666  0.48116114  1
  O2-  O262  1  0.62153587  0.99698764  0.01253925  1
  O2-  O263  1  0.63469058  0.97208333  0.50272411  1
  O2-  O264  1  0.37662372  0.01598217  -0.01872766  1
  O2-  O265  1  0.36451373  0.01041856  0.47030570  1
  O2-  O266  1  0.36748348  0.52422655  0.01581984  1
  O2-  O267  1  0.36685759  0.52495079  0.50872327  1
  O2-  O268  1  0.86281769  0.03001562  -0.01280559  1
  O2-  O269  1  0.86616555  0.02786107  0.47770367  1
  O2-  O270  1  0.87643310  0.50986221  0.01764956  1
  O2-  O271  1  0.88236122  0.52587832  0.50652212  1
  O2-  O272  1  0.47813352  0.36320360  0.01278073  1
  O2-  O273  1  0.47982351  0.36678715  0.51926295  1
  O2-  O274  1  0.48368117  0.88759110  0.01505930  1
  O2-  O275  1  0.47661980  0.86561606  0.52706860  1
  O2-  O276  1  0.98285467  0.38188033  -0.01886291  1
  O2-  O277  1  0.98066975  0.38616355  0.48565282  1
  O2-  O278  1  0.96309170  0.86451213  -0.01086722  1
  O2-  O279  1  0.98377197  0.86058521  0.48775039  1
  O2-  O280  1  0.01965797  0.13782943  0.01455707  1
  O2-  O281  1  0.02910466  0.13550549  0.51951783  1
  O2-  O282  1  0.02116189  0.61690180  0.00829332  1
  O2-  O283  1  0.02493873  0.62028195  0.51639855  1
  O2-  O284  1  0.50285476  0.12970743  -0.02490319  1
  O2-  O285  1  0.52480820  0.13296826  0.48771027  1
  O2-  O286  1  0.52301548  0.63340362  -0.03165090  1
  O2-  O287  1  0.51768293  0.63562484  0.47216130  1
  O2-  O288  1  0.12366577  0.26519992  -0.02269953  1
  O2-  O289  1  0.11734825  0.28063221  0.48681293  1
  O2-  O290  1  0.11199613  0.77056719  -0.00771281  1
  O2-  O291  1  0.12612499  0.75932506  0.51334073  1
  O2-  O292  1  0.62091040  0.26543559  -0.01489695  1
  O2-  O293  1  0.61528519  0.27365109  0.48424164  1
  O2-  O294  1  0.61816203  0.77169592  0.01732406  1
  O2-  O295  1  0.61982227  0.76957693  0.52024897  1
  O2-  O296  1  0.36941949  0.23705532  0.01342713  1
  O2-  O297  1  0.38305410  0.22433153  0.52438066  1
  O2-  O298  1  0.38445379  0.73851409  -0.02535060  1
  O2-  O299  1  0.36852871  0.73013680  0.49052139  1
  O2-  O300  1  0.86872957  0.23310418  0.01897501  1
  O2-  O301  1  0.88485449  0.23562347  0.52655883  1
  O2-  O302  1  0.88490426  0.70977239  -0.00907227  1
  O2-  O303  1  0.88774678  0.71718070  0.49483228  1
  O2-  O304  1  0.25636833  0.37200716  0.01935018  1
  O2-  O305  1  0.26856995  0.38425559  0.52353664  1
  O2-  O306  1  0.27044137  0.88316458  0.02090295  1
  O2-  O307  1  0.26441396  0.86458401  0.51579534  1
  O2-  O308  1  0.77339683  0.37016834  -0.00538074  1
  O2-  O309  1  0.78853497  0.38698302  0.49379528  1
  O2-  O310  1  0.76028224  0.89063005  -0.01597756  1
  O2-  O311  1  0.77751911  0.88249868  0.48000519  1
  O2-  O312  1  0.23677052  0.13093576  -0.01691077  1
  O2-  O313  1  0.22520888  0.11471665  0.47128357  1
  O2-  O314  1  0.22919465  0.61440474  -0.02598311  1
  O2-  O315  1  0.23156699  0.62503038  0.48928025  1
  O2-  O316  1  0.72910699  0.13276719  0.01844462  1
  O2-  O317  1  0.72735426  0.11663450  0.51752597  1
  O2-  O318  1  0.72860320  0.61092342  0.02160076  1
  O2-  O319  1  0.73553428  0.60936458  0.52605002  1
