# generated using pymatgen
data_Sr64Ca21Nb43O192
_symmetry_space_group_name_H-M   'P 1'
_cell_length_a   16.55959395
_cell_length_b   16.57782059
_cell_length_c   16.77094449
_cell_angle_alpha   90.02691120
_cell_angle_beta   90.01891964
_cell_angle_gamma   90.02820764
_symmetry_Int_Tables_number   1
_chemical_formula_structural   Sr64Ca21Nb43O192
_chemical_formula_sum   'Sr64 Ca21 Nb43 O192'
_cell_volume   4603.99152921
_cell_formula_units_Z   1
loop_
 _symmetry_equiv_pos_site_id
 _symmetry_equiv_pos_as_xyz
  1  'x, y, z'
loop_
 _atom_type_symbol
 _atom_type_oxidation_number
  Sr2+  2.0
  Ca2+  2.0
  Nb5+  5.0
  O2-  -2.0
loop_
 _atom_site_type_symbol
 _atom_site_label
 _atom_site_symmetry_multiplicity
 _atom_site_fract_x
 _atom_site_fract_y
 _atom_site_fract_z
 _atom_site_occupancy
  Sr2+  Sr0  1  0.11955706  0.09974727  0.12741407  1
  Sr2+  Sr1  1  0.12944738  0.10981269  0.62406430  1
  Sr2+  Sr2  1  0.12710095  0.60652997  0.12252190  1
  Sr2+  Sr3  1  0.11812407  0.62143312  0.61608669  1
  Sr2+  Sr4  1  0.63469007  0.11764755  0.12730204  1
  Sr2+  Sr5  1  0.61913108  0.11264182  0.61899469  1
  Sr2+  Sr6  1  0.62459088  0.62313467  0.12167736  1
  Sr2+  Sr7  1  0.62611904  0.63459770  0.63892387  1
  Sr2+  Sr8  1  0.37590689  0.37818602  0.12180482  1
  Sr2+  Sr9  1  0.37485403  0.36711083  0.64803799  1
  Sr2+  Sr10  1  0.37060519  0.86742427  0.12220810  1
  Sr2+  Sr11  1  0.37779803  0.86785211  0.63963310  1
  Sr2+  Sr12  1  0.88401533  0.37607705  0.12344782  1
  Sr2+  Sr13  1  0.88431562  0.38712473  0.62762950  1
  Sr2+  Sr14  1  0.88654174  0.88240206  0.11986100  1
  Sr2+  Sr15  1  0.87945314  0.86227411  0.62538711  1
  Sr2+  Sr16  1  0.13468253  0.37246449  0.37487562  1
  Sr2+  Sr17  1  0.15096146  0.37423449  0.87549497  1
  Sr2+  Sr18  1  0.12535513  0.88595035  0.37698014  1
  Sr2+  Sr19  1  0.10750789  0.88220591  0.87058171  1
  Sr2+  Sr20  1  0.64564058  0.37555065  0.37807723  1
  Sr2+  Sr21  1  0.61482266  0.37179367  0.88339438  1
  Sr2+  Sr22  1  0.61270099  0.88005369  0.37286548  1
  Sr2+  Sr23  1  0.61798804  0.86597970  0.86713302  1
  Sr2+  Sr24  1  0.36990490  0.12806152  0.38732091  1
  Sr2+  Sr25  1  0.37412775  0.13686121  0.87221062  1
  Sr2+  Sr26  1  0.37387234  0.62622547  0.36703878  1
  Sr2+  Sr27  1  0.38695192  0.63191603  0.86780033  1
  Sr2+  Sr28  1  0.86891949  0.13851972  0.37504525  1
  Sr2+  Sr29  1  0.86186806  0.12975405  0.87638180  1
  Sr2+  Sr30  1  0.87028755  0.62468714  0.37200657  1
  Sr2+  Sr31  1  0.86670342  0.63719388  0.87633262  1
  Sr2+  Sr32  1  0.12625165  0.13741105  0.38016714  1
  Sr2+  Sr33  1  0.12138697  0.13059639  0.85119345  1
  Sr2+  Sr34  1  0.12529280  0.62462117  0.37425952  1
  Sr2+  Sr35  1  0.11218643  0.62700416  0.87724952  1
  Sr2+  Sr36  1  0.60558874  0.13868372  0.37433776  1
  Sr2+  Sr37  1  0.62424107  0.14382326  0.88631348  1
  Sr2+  Sr38  1  0.62026747  0.63238224  0.37702533  1
  Sr2+  Sr39  1  0.61330352  0.61485748  0.87365038  1
  Sr2+  Sr40  1  0.37646920  0.36980144  0.37550290  1
  Sr2+  Sr41  1  0.37742459  0.37433946  0.87923636  1
  Sr2+  Sr42  1  0.37599545  0.86955670  0.37594426  1
  Sr2+  Sr43  1  0.37058161  0.89830738  0.87439757  1
  Sr2+  Sr44  1  0.88127559  0.37558893  0.37465048  1
  Sr2+  Sr45  1  0.87495989  0.36221013  0.86670234  1
  Sr2+  Sr46  1  0.86479754  0.88300484  0.37625747  1
  Sr2+  Sr47  1  0.87316602  0.88962094  0.86676827  1
  Sr2+  Sr48  1  0.12538619  0.36866279  0.12734068  1
  Sr2+  Sr49  1  0.12149632  0.37789681  0.64913025  1
  Sr2+  Sr50  1  0.12216822  0.86701581  0.11969727  1
  Sr2+  Sr51  1  0.12567485  0.86732063  0.62914302  1
  Sr2+  Sr52  1  0.62873485  0.37797866  0.12186777  1
  Sr2+  Sr53  1  0.63798481  0.36566609  0.63347232  1
  Sr2+  Sr54  1  0.62813493  0.86822451  0.12258191  1
  Sr2+  Sr55  1  0.63595047  0.87043198  0.62106131  1
  Sr2+  Sr56  1  0.37204792  0.11055089  0.11597448  1
  Sr2+  Sr57  1  0.38669254  0.11516354  0.63556529  1
  Sr2+  Sr58  1  0.39015379  0.62809293  0.12016416  1
  Sr2+  Sr59  1  0.35575274  0.62924617  0.62499714  1
  Sr2+  Sr60  1  0.88208804  0.12611718  0.12268394  1
  Sr2+  Sr61  1  0.88519572  0.12147365  0.63211093  1
  Sr2+  Sr62  1  0.89177780  0.63159523  0.12341512  1
  Sr2+  Sr63  1  0.87171658  0.62693617  0.61665196  1
  Ca2+  Ca64  1  0.50115064  0.50252105  0.50304091  1
  Ca2+  Ca65  1  0.50214758  0.00226458  0.00319041  1
  Ca2+  Ca66  1  -0.00061516  0.00028262  0.49771696  1
  Ca2+  Ca67  1  0.00074460  0.00469618  -0.00492684  1
  Ca2+  Ca68  1  -0.00284379  0.49734677  -0.00033990  1
  Ca2+  Ca69  1  0.25010978  0.74861211  -0.00128156  1
  Ca2+  Ca70  1  0.24641571  0.24686825  0.00638372  1
  Ca2+  Ca71  1  0.25097699  0.25347727  0.50621642  1
  Ca2+  Ca72  1  0.74817438  0.24642122  0.49993852  1
  Ca2+  Ca73  1  0.75036195  0.75073566  0.00067308  1
  Ca2+  Ca74  1  0.49685319  0.25070013  0.24902536  1
  Ca2+  Ca75  1  0.50472954  0.24793907  0.75126449  1
  Ca2+  Ca76  1  0.25042601  -0.00130594  0.74812563  1
  Ca2+  Ca77  1  0.75102044  0.49859983  0.75394529  1
  Ca2+  Ca78  1  0.00182047  0.75037600  0.25073717  1
  Ca2+  Ca79  1  0.50213228  0.74892546  0.24999354  1
  Ca2+  Ca80  1  0.00128620  0.74735574  0.74631334  1
  Ca2+  Ca81  1  -0.00137359  0.25121508  0.74961361  1
  Ca2+  Ca82  1  0.49976409  0.75123152  0.74705942  1
  Ca2+  Ca83  1  0.25018632  0.50623924  0.74930214  1
  Ca2+  Ca84  1  0.74716712  0.00201338  0.74818590  1
  Nb5+  Nb85  1  0.49859351  -0.00441127  0.49802293  1
  Nb5+  Nb86  1  0.49953903  0.49835222  0.00200674  1
  Nb5+  Nb87  1  0.00048095  0.49873907  0.49718652  1
  Nb5+  Nb88  1  0.74700559  0.75214530  0.49398748  1
  Nb5+  Nb89  1  0.24438268  0.75278517  0.49522658  1
  Nb5+  Nb90  1  0.75090010  0.25076380  0.00533814  1
  Nb5+  Nb91  1  0.75437394  0.50350198  0.24808070  1
  Nb5+  Nb92  1  0.24822193  -0.00896504  0.25140696  1
  Nb5+  Nb93  1  0.74442854  0.00502759  0.25287530  1
  Nb5+  Nb94  1  0.25402368  0.49736456  0.25120389  1
  Nb5+  Nb95  1  0.00122230  0.24902923  0.25025157  1
  Nb5+  Nb96  1  -0.00735066  -0.00064633  0.25763127  1
  Nb5+  Nb97  1  -0.00281650  0.00085832  0.74436617  1
  Nb5+  Nb98  1  0.00560291  0.49764392  0.25042059  1
  Nb5+  Nb99  1  -0.00552160  0.50467932  0.75909636  1
  Nb5+  Nb100  1  0.48905750  0.00202230  0.25105020  1
  Nb5+  Nb101  1  0.50799934  0.00248419  0.76077315  1
  Nb5+  Nb102  1  0.50663599  0.49615904  0.25222878  1
  Nb5+  Nb103  1  0.50524958  0.49608010  0.74185906  1
  Nb5+  Nb104  1  0.25309287  0.23606785  0.24815351  1
  Nb5+  Nb105  1  0.25015712  0.25110036  0.74988742  1
  Nb5+  Nb106  1  0.24697261  0.74402299  0.24788462  1
  Nb5+  Nb107  1  0.24825013  0.74714334  0.75735664  1
  Nb5+  Nb108  1  0.75137201  0.25622071  0.24979620  1
  Nb5+  Nb109  1  0.74655636  0.24340828  0.74357322  1
  Nb5+  Nb110  1  0.75381464  0.75640389  0.24779947  1
  Nb5+  Nb111  1  0.75356018  0.75382175  0.75315957  1
  Nb5+  Nb112  1  0.00238309  0.24950007  0.50458770  1
  Nb5+  Nb113  1  0.00108905  0.25150454  0.99755969  1
  Nb5+  Nb114  1  -0.00443609  0.75191027  0.49023731  1
  Nb5+  Nb115  1  -0.00132957  0.75114230  0.99628090  1
  Nb5+  Nb116  1  0.49473382  0.25770767  0.50337024  1
  Nb5+  Nb117  1  0.49707071  0.24754285  1.01154289  1
  Nb5+  Nb118  1  0.49369630  0.74753385  0.50229141  1
  Nb5+  Nb119  1  0.49942761  0.75792568  0.99511208  1
  Nb5+  Nb120  1  0.24689176  0.00193087  -0.00542001  1
  Nb5+  Nb121  1  0.25198794  -0.00249215  0.50148346  1
  Nb5+  Nb122  1  0.25343410  0.50458326  -0.00425873  1
  Nb5+  Nb123  1  0.25083131  0.50206164  0.49660648  1
  Nb5+  Nb124  1  0.74871919  -0.00561187  0.00094608  1
  Nb5+  Nb125  1  0.74913734  0.00552305  0.49481499  1
  Nb5+  Nb126  1  0.75115510  0.49812372  0.00049016  1
  Nb5+  Nb127  1  0.74664114  0.50305660  0.50164120  1
  O2-  O128  1  -0.00758780  -0.00611162  0.14019206  1
  O2-  O129  1  -0.03403306  -0.01316664  0.62743489  1
  O2-  O130  1  0.01408184  0.47487535  0.13599651  1
  O2-  O131  1  0.01472214  0.48375794  0.61019490  1
  O2-  O132  1  0.47253024  -0.01742582  0.13742721  1
  O2-  O133  1  0.47962119  -0.01627211  0.61133403  1
  O2-  O134  1  0.51087857  0.48140874  0.12489548  1
  O2-  O135  1  0.53731159  0.47838022  0.63403151  1
  O2-  O136  1  0.03423205  0.02045744  0.36426946  1
  O2-  O137  1  0.02555269  0.01539540  0.86199646  1
  O2-  O138  1  -0.02134754  0.51041459  0.36852297  1
  O2-  O139  1  -0.02838465  0.52462870  0.86821628  1
  O2-  O140  1  0.51748233  0.01288346  0.37314420  1
  O2-  O141  1  0.53868550  0.01708951  0.86926021  1
  O2-  O142  1  0.48626043  0.51730581  0.36406625  1
  O2-  O143  1  0.48262124  0.51327622  0.88598562  1
  O2-  O144  1  0.24110812  0.27861647  0.14203825  1
  O2-  O145  1  0.23562201  0.28034577  0.63523822  1
  O2-  O146  1  0.23788395  0.76883791  0.13683677  1
  O2-  O147  1  0.24422161  0.77037741  0.61011676  1
  O2-  O148  1  0.74318618  0.22657092  0.13339515  1
  O2-  O149  1  0.72961814  0.21901566  0.63357735  1
  O2-  O150  1  0.73221703  0.73187131  0.13783260  1
  O2-  O151  1  0.74204082  0.73045194  0.60943020  1
  O2-  O152  1  0.26151276  0.24670054  0.36433032  1
  O2-  O153  1  0.26126592  0.23688779  0.87127005  1
  O2-  O154  1  0.26983865  0.74026199  0.37658857  1
  O2-  O155  1  0.25029454  0.71423695  0.86562057  1
  O2-  O156  1  0.77340006  0.26591091  0.36451509  1
  O2-  O157  1  0.76017165  0.26608328  0.89134136  1
  O2-  O158  1  0.77344394  0.76215611  0.37655105  1
  O2-  O159  1  0.76679271  0.77818234  0.86427009  1
  O2-  O160  1  0.00285504  0.27178677  0.13344686  1
  O2-  O161  1  0.00690402  0.27927260  0.61404864  1
  O2-  O162  1  -0.00128740  0.77698475  0.11651686  1
  O2-  O163  1  0.01864044  0.75991623  0.60569103  1
  O2-  O164  1  0.50796833  0.28714049  0.12004065  1
  O2-  O165  1  0.52988836  0.25882521  0.61555861  1
  O2-  O166  1  0.50655599  0.76374162  0.11473958  1
  O2-  O167  1  0.51134703  0.78371066  0.61198075  1
  O2-  O168  1  0.23871187  0.00590502  0.37077702  1
  O2-  O169  1  0.22159606  0.00903536  0.88350138  1
  O2-  O170  1  0.25174647  0.52554799  0.37022402  1
  O2-  O171  1  0.27569710  0.52268285  0.88595894  1
  O2-  O172  1  0.73850563  -0.03114825  0.36712942  1
  O2-  O173  1  0.73301660  -0.02874892  0.89023533  1
  O2-  O174  1  0.76584653  0.47635884  0.36408009  1
  O2-  O175  1  0.77099261  0.47029672  0.89188930  1
  O2-  O176  1  -0.01439704  0.23939687  0.36935780  1
  O2-  O177  1  -0.01297378  0.22598027  0.88708629  1
  O2-  O178  1  -0.00393664  0.71188671  0.38152098  1
  O2-  O179  1  -0.00610022  0.72180687  0.87931755  1
  O2-  O180  1  0.47194908  0.23812754  0.38431885  1
  O2-  O181  1  0.49629898  0.23368411  0.89104166  1
  O2-  O182  1  0.49162109  0.72643432  0.38566831  1
  O2-  O183  1  0.50861215  0.72639627  0.88141142  1
  O2-  O184  1  0.27535213  -0.00829096  0.13821983  1
  O2-  O185  1  0.28228063  -0.00778658  0.61151759  1
  O2-  O186  1  0.22868952  0.48425590  0.13803759  1
  O2-  O187  1  0.22368051  0.49287101  0.60758651  1
  O2-  O188  1  0.77405684  0.01755762  0.14076847  1
  O2-  O189  1  0.75941868  0.02653927  0.60671421  1
  O2-  O190  1  0.72396452  0.50742607  0.13375179  1
  O2-  O191  1  0.73250813  0.52759531  0.61149429  1
  O2-  O192  1  0.12006046  0.26511204  0.26262763  1
  O2-  O193  1  0.13077475  0.27209551  0.76998876  1
  O2-  O194  1  0.13648126  0.77605770  0.27496688  1
  O2-  O195  1  0.13472140  0.78128011  0.75551210  1
  O2-  O196  1  0.63623014  0.26364474  0.26710845  1
  O2-  O197  1  0.63625074  0.27363869  0.77395767  1
  O2-  O198  1  0.63913398  0.75923406  0.27626784  1
  O2-  O199  1  0.63618241  0.76948960  0.74194073  1
  O2-  O200  1  0.36414796  0.21454957  0.23366749  1
  O2-  O201  1  0.36861637  0.23229851  0.73442118  1
  O2-  O202  1  0.36521769  0.73061518  0.24204223  1
  O2-  O203  1  0.36674546  0.72792333  0.73394116  1
  O2-  O204  1  0.87601016  0.23259694  0.23924535  1
  O2-  O205  1  0.86373798  0.22774170  0.75432576  1
  O2-  O206  1  0.86513799  0.71857150  0.24596724  1
  O2-  O207  1  0.86706783  0.73158882  0.72397509  1
  O2-  O208  1  0.26375886  0.38398243  0.27130565  1
  O2-  O209  1  0.27153624  0.37219747  0.76952571  1
  O2-  O210  1  0.27492165  0.87806112  0.26198497  1
  O2-  O211  1  0.27867401  0.86451217  0.75843242  1
  O2-  O212  1  0.76319666  0.37097583  0.23004224  1
  O2-  O213  1  0.76828670  0.36316839  0.72357797  1
  O2-  O214  1  0.77455565  0.87135509  0.23519472  1
  O2-  O215  1  0.76844384  0.86907222  0.71940315  1
  O2-  O216  1  0.22164581  0.12305517  0.24413124  1
  O2-  O217  1  0.22676509  0.13393128  0.73577690  1
  O2-  O218  1  0.22176149  0.62852987  0.24400403  1
  O2-  O219  1  0.22756621  0.63761876  0.71496879  1
  O2-  O220  1  0.73548684  0.11964647  0.27243279  1
  O2-  O221  1  0.72926973  0.13265315  0.78488566  1
  O2-  O222  1  0.73272930  0.61452593  0.26984096  1
  O2-  O223  1  0.73410585  0.63554885  0.77249397  1
  O2-  O224  1  0.12090099  0.48721924  0.26954617  1
  O2-  O225  1  0.11338361  0.47719347  0.76915592  1
  O2-  O226  1  0.13286559  0.97700166  0.23513827  1
  O2-  O227  1  0.11657521  0.98362618  0.71895166  1
  O2-  O228  1  0.62204301  0.47358871  0.26194538  1
  O2-  O229  1  0.61763920  0.48270145  0.78357667  1
  O2-  O230  1  0.63328319  0.98015290  0.23342952  1
  O2-  O231  1  0.61535884  0.98044692  0.71727311  1
  O2-  O232  1  0.37518445  0.02377948  0.27084603  1
  O2-  O233  1  0.38698992  0.02222316  0.77165791  1
  O2-  O234  1  0.36532973  0.52537606  0.23776811  1
  O2-  O235  1  0.38651689  0.51492613  0.71964055  1
  O2-  O236  1  0.87835307  0.01921883  0.27423841  1
  O2-  O237  1  0.88087381  0.02425944  0.77127180  1
  O2-  O238  1  0.86996927  0.50906872  0.23155295  1
  O2-  O239  1  0.88321804  0.51964333  0.71783984  1
  O2-  O240  1  0.46134778  0.38739155  0.25549888  1
  O2-  O241  1  0.47706264  0.38248465  0.76770132  1
  O2-  O242  1  0.49204861  0.88495258  0.27214264  1
  O2-  O243  1  0.48186702  0.88595743  0.77006331  1
  O2-  O244  1  0.98316112  0.37381914  0.26502134  1
  O2-  O245  1  0.97257918  0.38602389  0.75247796  1
  O2-  O246  1  0.97997818  0.88593975  0.27242884  1
  O2-  O247  1  0.98046807  0.88260161  0.76211981  1
  O2-  O248  1  0.01380624  0.13035680  0.23808898  1
  O2-  O249  1  0.01821054  0.11955589  0.72159816  1
  O2-  O250  1  0.01212903  0.61185783  0.22921011  1
  O2-  O251  1  0.02698953  0.61411318  0.73032284  1
  O2-  O252  1  0.52804172  0.11262361  0.23762960  1
  O2-  O253  1  0.51472629  0.11485472  0.72297544  1
  O2-  O254  1  0.51464831  0.61181494  0.22667104  1
  O2-  O255  1  0.52118875  0.61444897  0.74633885  1
  O2-  O256  1  0.13704760  0.49306832  -0.01775269  1
  O2-  O257  1  0.11720316  0.49917401  0.47077184  1
  O2-  O258  1  0.13383203  0.97915560  0.02648531  1
  O2-  O259  1  0.13839055  0.97523489  0.51768800  1
  O2-  O260  1  0.62437848  0.47758347  -0.00321988  1
  O2-  O261  1  0.63637408  0.50200216  0.46584190  1
  O2-  O262  1  0.63627774  0.99348466  0.03884806  1
  O2-  O263  1  0.62446706  0.97738817  0.50606284  1
  O2-  O264  1  0.36697760  0.02829187  -0.02266092  1
  O2-  O265  1  0.37911545  0.00279285  0.47321172  1
  O2-  O266  1  0.38160470  0.50719134  0.02633311  1
  O2-  O267  1  0.36214480  0.52882380  0.50484782  1
  O2-  O268  1  0.86362480  0.02384579  -0.00639795  1
  O2-  O269  1  0.86296094  0.01098154  0.46893432  1
  O2-  O270  1  0.86061019  0.51226623  0.03431614  1
  O2-  O271  1  0.87243078  0.50883967  0.50312679  1
  O2-  O272  1  0.48958171  0.37693380  -0.01633724  1
  O2-  O273  1  0.46439601  0.36880559  0.49984189  1
  O2-  O274  1  0.47602949  0.86936366  -0.02231640  1
  O2-  O275  1  0.49391375  0.87362706  0.47262792  1
  O2-  O276  1  0.96158156  0.36407129  -0.00902443  1
  O2-  O277  1  0.98282964  0.37928208  0.48154351  1
  O2-  O278  1  0.97163402  0.86884588  -0.02448162  1
  O2-  O279  1  0.99131857  0.86450015  0.46497467  1
  O2-  O280  1  0.01104967  0.13909368  0.03143447  1
  O2-  O281  1  0.02494108  0.13495685  0.51501121  1
  O2-  O282  1  0.02395451  0.63292276  0.02205380  1
  O2-  O283  1  0.00207316  0.61838532  0.51156691  1
  O2-  O284  1  0.51921880  0.13576091  0.03339974  1
  O2-  O285  1  0.51631775  0.11312023  0.50669734  1
  O2-  O286  1  0.52143571  0.61601545  0.01468957  1
  O2-  O287  1  0.52062812  0.63786988  0.52805036  1
  O2-  O288  1  0.11231061  0.28314175  -0.00442004  1
  O2-  O289  1  0.11579041  0.26605712  0.47448447  1
  O2-  O290  1  0.11625193  0.77704229  -0.01516685  1
  O2-  O291  1  0.12820032  0.76172465  0.47818325  1
  O2-  O292  1  0.62894605  0.26375061  0.00125729  1
  O2-  O293  1  0.61184706  0.26244530  0.47072867  1
  O2-  O294  1  0.61894542  0.77823952  -0.00722289  1
  O2-  O295  1  0.63132870  0.76159774  0.48038400  1
  O2-  O296  1  0.38246197  0.23468464  0.01903654  1
  O2-  O297  1  0.38414846  0.21880215  0.52660116  1
  O2-  O298  1  0.38599052  0.72206864  0.00041080  1
  O2-  O299  1  0.37652010  0.73990104  0.51089130  1
  O2-  O300  1  0.86842600  0.23205644  0.01727105  1
  O2-  O301  1  0.88410655  0.22584527  0.50614046  1
  O2-  O302  1  0.88078158  0.71978142  0.00383989  1
  O2-  O303  1  0.87887050  0.74366443  0.50806698  1
  O2-  O304  1  0.27134253  0.38688603  -0.00411494  1
  O2-  O305  1  0.25954973  0.39031366  0.47272936  1
  O2-  O306  1  0.27916520  0.88697594  0.00037909  1
  O2-  O307  1  0.26326189  0.87300064  0.47717944  1
  O2-  O308  1  0.75785354  0.36903615  0.03284648  1
  O2-  O309  1  0.75074009  0.38640035  0.51765174  1
  O2-  O310  1  0.76671213  0.88503448  0.03407857  1
  O2-  O311  1  0.76423658  0.87148254  0.51112262  1
  O2-  O312  1  0.23563116  0.11417730  0.03391365  1
  O2-  O313  1  0.23502948  0.11308291  0.49759796  1
  O2-  O314  1  0.24889495  0.61379700  0.03730034  1
  O2-  O315  1  0.23111309  0.63254094  0.50424017  1
  O2-  O316  1  0.73200261  0.12798032  -0.00642062  1
  O2-  O317  1  0.72491543  0.11276756  0.46427268  1
  O2-  O318  1  0.72779070  0.61019659  -0.01715898  1
  O2-  O319  1  0.75071712  0.62886758  0.47196413  1
