# generated using pymatgen
data_Sr64Ca21Nb43O192
_symmetry_space_group_name_H-M   'P 1'
_cell_length_a   16.58607534
_cell_length_b   16.53840856
_cell_length_c   16.73530424
_cell_angle_alpha   90.04908840
_cell_angle_beta   90.04942981
_cell_angle_gamma   89.95638385
_symmetry_Int_Tables_number   1
_chemical_formula_structural   Sr64Ca21Nb43O192
_chemical_formula_sum   'Sr64 Ca21 Nb43 O192'
_cell_volume   4590.61123935
_cell_formula_units_Z   1
loop_
 _symmetry_equiv_pos_site_id
 _symmetry_equiv_pos_as_xyz
  1  'x, y, z'
loop_
 _atom_type_symbol
 _atom_type_oxidation_number
  Sr2+  2.0
  Ca2+  2.0
  Nb5+  5.0
  O2-  -2.0
loop_
 _atom_site_type_symbol
 _atom_site_label
 _atom_site_symmetry_multiplicity
 _atom_site_fract_x
 _atom_site_fract_y
 _atom_site_fract_z
 _atom_site_occupancy
  Sr2+  Sr0  1  0.13885624  0.12709356  0.11591563  1
  Sr2+  Sr1  1  0.13386008  0.12157753  0.62857333  1
  Sr2+  Sr2  1  0.12726627  0.61937534  0.12032501  1
  Sr2+  Sr3  1  0.13738799  0.63867255  0.62918825  1
  Sr2+  Sr4  1  0.62619154  0.12651116  0.11800408  1
  Sr2+  Sr5  1  0.62831929  0.11708155  0.63248006  1
  Sr2+  Sr6  1  0.62489370  0.62790377  0.12143550  1
  Sr2+  Sr7  1  0.62410963  0.61985386  0.62410666  1
  Sr2+  Sr8  1  0.37164527  0.35755112  0.12848549  1
  Sr2+  Sr9  1  0.37675939  0.34552215  0.62225119  1
  Sr2+  Sr10  1  0.37661454  0.90355191  0.12746159  1
  Sr2+  Sr11  1  0.37500728  0.86549038  0.61962247  1
  Sr2+  Sr12  1  0.88310810  0.36920071  0.12562425  1
  Sr2+  Sr13  1  0.88040502  0.36213269  0.61595996  1
  Sr2+  Sr14  1  0.87857204  0.86248504  0.12093934  1
  Sr2+  Sr15  1  0.87302768  0.88014477  0.63123252  1
  Sr2+  Sr16  1  0.10953594  0.38610113  0.37817793  1
  Sr2+  Sr17  1  0.11096649  0.37967662  0.87069031  1
  Sr2+  Sr18  1  0.11217955  0.87188635  0.37244113  1
  Sr2+  Sr19  1  0.12497641  0.88368419  0.87777508  1
  Sr2+  Sr20  1  0.62575814  0.37944937  0.37241641  1
  Sr2+  Sr21  1  0.62714329  0.37638997  0.87725271  1
  Sr2+  Sr22  1  0.61853845  0.87627028  0.37960606  1
  Sr2+  Sr23  1  0.62858003  0.87369425  0.87090542  1
  Sr2+  Sr24  1  0.37265652  0.12873900  0.37635929  1
  Sr2+  Sr25  1  0.34720397  0.12749474  0.87351839  1
  Sr2+  Sr26  1  0.36559319  0.62564890  0.37466398  1
  Sr2+  Sr27  1  0.36397659  0.62203739  0.86873477  1
  Sr2+  Sr28  1  0.87772790  0.12262107  0.37620312  1
  Sr2+  Sr29  1  0.87170745  0.12016513  0.86600687  1
  Sr2+  Sr30  1  0.85804511  0.62862159  0.37228424  1
  Sr2+  Sr31  1  0.87232623  0.62205992  0.87640555  1
  Sr2+  Sr32  1  0.11023981  0.12680249  0.38343367  1
  Sr2+  Sr33  1  0.11599718  0.13951311  0.86757831  1
  Sr2+  Sr34  1  0.12452407  0.62817928  0.37551643  1
  Sr2+  Sr35  1  0.12047381  0.61462929  0.86631289  1
  Sr2+  Sr36  1  0.63508195  0.12807174  0.37592582  1
  Sr2+  Sr37  1  0.63256096  0.11890038  0.87404801  1
  Sr2+  Sr38  1  0.62307375  0.60294790  0.37364149  1
  Sr2+  Sr39  1  0.62437779  0.60781837  0.87628307  1
  Sr2+  Sr40  1  0.37426858  0.38336214  0.37242150  1
  Sr2+  Sr41  1  0.37320792  0.37674031  0.84345963  1
  Sr2+  Sr42  1  0.37414520  0.87193016  0.37728036  1
  Sr2+  Sr43  1  0.36611694  0.87893600  0.88671111  1
  Sr2+  Sr44  1  0.86067311  0.36863912  0.37790848  1
  Sr2+  Sr45  1  0.87120456  0.37790202  0.87966973  1
  Sr2+  Sr46  1  0.86953708  0.88427378  0.36429511  1
  Sr2+  Sr47  1  0.86643005  0.86600272  0.87180743  1
  Sr2+  Sr48  1  0.12738518  0.38063775  0.12734386  1
  Sr2+  Sr49  1  0.12863295  0.36447964  0.62524224  1
  Sr2+  Sr50  1  0.11472534  0.87506364  0.12818414  1
  Sr2+  Sr51  1  0.12352246  0.87791941  0.61986075  1
  Sr2+  Sr52  1  0.62540989  0.36254664  0.12620193  1
  Sr2+  Sr53  1  0.62019928  0.37973188  0.61458957  1
  Sr2+  Sr54  1  0.61180020  0.87967695  0.12609106  1
  Sr2+  Sr55  1  0.62589953  0.88270322  0.62682517  1
  Sr2+  Sr56  1  0.37591540  0.12593306  0.12244403  1
  Sr2+  Sr57  1  0.37115159  0.12099048  0.62585854  1
  Sr2+  Sr58  1  0.37238249  0.62570188  0.12449875  1
  Sr2+  Sr59  1  0.37796703  0.62158516  0.63451830  1
  Sr2+  Sr60  1  0.87967572  0.11359497  0.12220275  1
  Sr2+  Sr61  1  0.90076397  0.11849975  0.62459713  1
  Sr2+  Sr62  1  0.87647284  0.62536162  0.12270057  1
  Sr2+  Sr63  1  0.88526732  0.63157419  0.63217502  1
  Ca2+  Ca64  1  0.49781307  0.49679846  0.00367670  1
  Ca2+  Ca65  1  0.00055639  -0.00369077  0.49914390  1
  Ca2+  Ca66  1  0.50121005  0.00426940  -0.00437318  1
  Ca2+  Ca67  1  -0.00134701  -0.00138243  -0.00223193  1
  Ca2+  Ca68  1  -0.00047994  0.50347230  0.49994678  1
  Ca2+  Ca69  1  0.24884013  0.25196255  0.49440132  1
  Ca2+  Ca70  1  0.74634975  0.75162281  0.49924163  1
  Ca2+  Ca71  1  0.24816563  0.25685860  -0.00293792  1
  Ca2+  Ca72  1  0.24957149  0.75086273  0.00505986  1
  Ca2+  Ca73  1  0.74680929  0.24748860  0.50491263  1
  Ca2+  Ca74  1  0.50752361  0.24541492  0.75178216  1
  Ca2+  Ca75  1  0.24827830  0.49934424  0.74452119  1
  Ca2+  Ca76  1  0.75265269  0.49728268  0.74773208  1
  Ca2+  Ca77  1  0.25337509  -0.00344007  0.74811596  1
  Ca2+  Ca78  1  0.74996188  0.49849629  0.24656976  1
  Ca2+  Ca79  1  0.00396198  0.75205751  0.75206345  1
  Ca2+  Ca80  1  -0.00586485  0.25186796  0.75141725  1
  Ca2+  Ca81  1  0.00122155  0.25011759  0.24926857  1
  Ca2+  Ca82  1  0.50271588  0.75162611  0.74853915  1
  Ca2+  Ca83  1  0.74675162  -0.00176583  0.24673013  1
  Ca2+  Ca84  1  0.24686832  0.00073603  0.25141930  1
  Nb5+  Nb85  1  0.49762434  -0.00347252  0.49995097  1
  Nb5+  Nb86  1  0.49518696  0.49401803  0.49942365  1
  Nb5+  Nb87  1  -0.00269994  0.50162570  0.00118183  1
  Nb5+  Nb88  1  0.25042030  0.75262755  0.49716515  1
  Nb5+  Nb89  1  0.74636311  0.74421972  0.00016620  1
  Nb5+  Nb90  1  0.75252359  0.24519801  0.00086270  1
  Nb5+  Nb91  1  0.49902418  0.25469332  0.25165318  1
  Nb5+  Nb92  1  0.24846379  0.50121358  0.25019267  1
  Nb5+  Nb93  1  0.75282969  -0.00198872  0.75002618  1
  Nb5+  Nb94  1  -0.00723730  0.74468262  0.25184027  1
  Nb5+  Nb95  1  0.49194906  0.75218751  0.24867311  1
  Nb5+  Nb96  1  0.00240698  0.00519372  0.24567839  1
  Nb5+  Nb97  1  0.00666339  -0.00361443  0.75180929  1
  Nb5+  Nb98  1  -0.00530673  0.50338829  0.25258356  1
  Nb5+  Nb99  1  -0.00218786  0.49789747  0.74047186  1
  Nb5+  Nb100  1  0.50313242  0.01098006  0.25338873  1
  Nb5+  Nb101  1  0.49795241  -0.00236891  0.75391129  1
  Nb5+  Nb102  1  0.49670979  0.50484409  0.24885716  1
  Nb5+  Nb103  1  0.50505203  0.49640344  0.75171424  1
  Nb5+  Nb104  1  0.24479101  0.24865613  0.25616538  1
  Nb5+  Nb105  1  0.24848888  0.24983035  0.74879116  1
  Nb5+  Nb106  1  0.24452325  0.75078486  0.24812388  1
  Nb5+  Nb107  1  0.25354424  0.75436977  0.75748806  1
  Nb5+  Nb108  1  0.75344433  0.24341603  0.24702836  1
  Nb5+  Nb109  1  0.75044496  0.25148764  0.74788674  1
  Nb5+  Nb110  1  0.73968116  0.75366755  0.24966986  1
  Nb5+  Nb111  1  0.74897243  0.74483922  0.74764048  1
  Nb5+  Nb112  1  -0.00015965  0.25138961  0.49924609  1
  Nb5+  Nb113  1  -0.00003051  0.24848254  1.00511414  1
  Nb5+  Nb114  1  -0.00752494  0.74798825  0.50005435  1
  Nb5+  Nb115  1  0.00165001  0.74804435  0.99807164  1
  Nb5+  Nb116  1  0.50373084  0.23869653  0.49777384  1
  Nb5+  Nb117  1  0.49813341  0.25428958  0.99603652  1
  Nb5+  Nb118  1  0.49996984  0.74277216  0.49673930  1
  Nb5+  Nb119  1  0.49825294  0.74868723  0.99778241  1
  Nb5+  Nb120  1  0.24785078  0.00101671  -0.00029631  1
  Nb5+  Nb121  1  0.24795158  0.00105636  0.49349678  1
  Nb5+  Nb122  1  0.25118566  0.49863529  -0.00451059  1
  Nb5+  Nb123  1  0.24936168  0.50007770  0.50203032  1
  Nb5+  Nb124  1  0.75235925  -0.00799153  0.00041682  1
  Nb5+  Nb125  1  0.75164601  0.00195196  0.50040455  1
  Nb5+  Nb126  1  0.74960995  0.49359808  0.00537232  1
  Nb5+  Nb127  1  0.75424635  0.50500725  0.50176996  1
  O2-  O128  1  -0.01290885  -0.03175144  0.13368722  1
  O2-  O129  1  -0.00616697  -0.02920017  0.63321600  1
  O2-  O130  1  -0.00498718  0.48725211  0.12929191  1
  O2-  O131  1  -0.00706056  0.46771040  0.63158209  1
  O2-  O132  1  0.51106801  0.01522021  0.13520571  1
  O2-  O133  1  0.50486796  0.02223115  0.61399549  1
  O2-  O134  1  0.48640880  0.52134166  0.13716044  1
  O2-  O135  1  0.50176557  0.51960314  0.61452652  1
  O2-  O136  1  0.00190531  0.01872474  0.36516452  1
  O2-  O137  1  0.00569679  0.03265416  0.86597392  1
  O2-  O138  1  0.01924125  0.52020901  0.36483338  1
  O2-  O139  1  0.00055036  0.52375288  0.88707046  1
  O2-  O140  1  0.49332448  -0.01405833  0.37442297  1
  O2-  O141  1  0.49665144  -0.03474703  0.86318273  1
  O2-  O142  1  0.49998654  0.48676035  0.37530946  1
  O2-  O143  1  0.50993333  0.48414483  0.86728669  1
  O2-  O144  1  0.24630461  0.23650420  0.13723529  1
  O2-  O145  1  0.23612228  0.23194838  0.62931547  1
  O2-  O146  1  0.24850730  0.71744600  0.13765089  1
  O2-  O147  1  0.26653277  0.73523569  0.61238967  1
  O2-  O148  1  0.72812396  0.24301302  0.12387521  1
  O2-  O149  1  0.71298163  0.25147570  0.64015308  1
  O2-  O150  1  0.75288271  0.73109831  0.12420544  1
  O2-  O151  1  0.76418371  0.73168875  0.63481688  1
  O2-  O152  1  0.28350075  0.26657039  0.36418859  1
  O2-  O153  1  0.27267786  0.26822361  0.86569623  1
  O2-  O154  1  0.24898864  0.76592070  0.37148409  1
  O2-  O155  1  0.24208412  0.77490832  0.86946705  1
  O2-  O156  1  0.75937022  0.24797015  0.36480529  1
  O2-  O157  1  0.77921476  0.25584997  0.88749183  1
  O2-  O158  1  0.75103276  0.77809495  0.36300491  1
  O2-  O159  1  0.74290714  0.76560516  0.88373591  1
  O2-  O160  1  0.01022000  0.28591591  0.11789932  1
  O2-  O161  1  0.00709900  0.27663703  0.61750440  1
  O2-  O162  1  -0.00576991  0.76198161  0.13094125  1
  O2-  O163  1  -0.01295215  0.77425229  0.61316468  1
  O2-  O164  1  0.51451797  0.23141060  0.13647114  1
  O2-  O165  1  0.52061889  0.23569010  0.61217664  1
  O2-  O166  1  0.50102191  0.72614327  0.13449288  1
  O2-  O167  1  0.48627709  0.73245498  0.60975200  1
  O2-  O168  1  0.27038450  -0.02074351  0.38142437  1
  O2-  O169  1  0.25099712  -0.02308442  0.88226079  1
  O2-  O170  1  0.24397021  0.48955256  0.37455209  1
  O2-  O171  1  0.24441285  0.46915035  0.88566051  1
  O2-  O172  1  0.74946664  -0.00694447  0.38495936  1
  O2-  O173  1  0.76087231  -0.01040707  0.87167551  1
  O2-  O174  1  0.74657629  0.48413800  0.38231768  1
  O2-  O175  1  0.75177916  0.49380244  0.88695651  1
  O2-  O176  1  -0.01046058  0.22136564  0.38121009  1
  O2-  O177  1  -0.02819764  0.23754591  0.89140442  1
  O2-  O178  1  0.00476690  0.72315877  0.36887644  1
  O2-  O179  1  0.00837787  0.71889499  0.88779822  1
  O2-  O180  1  0.48201262  0.25985636  0.37207685  1
  O2-  O181  1  0.49056976  0.28472348  0.88673432  1
  O2-  O182  1  0.50658362  0.76489879  0.36819860  1
  O2-  O183  1  0.50781142  0.77136130  0.88635702  1
  O2-  O184  1  0.25398156  0.02754932  0.11793509  1
  O2-  O185  1  0.25699293  0.01042864  0.61163372  1
  O2-  O186  1  0.25405364  0.52676034  0.13500908  1
  O2-  O187  1  0.25346785  0.53469347  0.61183898  1
  O2-  O188  1  0.73853174  0.01215401  0.11214397  1
  O2-  O189  1  0.74215081  0.00501349  0.63056531  1
  O2-  O190  1  0.75352311  0.53031967  0.11615377  1
  O2-  O191  1  0.73045852  0.51353029  0.61577237  1
  O2-  O192  1  0.13574399  0.28508405  0.26558262  1
  O2-  O193  1  0.13041120  0.27042948  0.76691164  1
  O2-  O194  1  0.12726224  0.76312113  0.25085418  1
  O2-  O195  1  0.14032298  0.77076623  0.72364857  1
  O2-  O196  1  0.61748657  0.27377586  0.26213699  1
  O2-  O197  1  0.64195644  0.25446797  0.79470879  1
  O2-  O198  1  0.62366457  0.76919248  0.24019645  1
  O2-  O199  1  0.63695642  0.78170220  0.74333170  1
  O2-  O200  1  0.38029244  0.23153595  0.23532094  1
  O2-  O201  1  0.37079703  0.22911585  0.73649652  1
  O2-  O202  1  0.37734693  0.72846106  0.25566413  1
  O2-  O203  1  0.36946866  0.71965945  0.75401973  1
  O2-  O204  1  0.86508464  0.21705625  0.23435037  1
  O2-  O205  1  0.86192457  0.21446544  0.73440155  1
  O2-  O206  1  0.87747985  0.72643014  0.25134545  1
  O2-  O207  1  0.86666291  0.73622830  0.77032432  1
  O2-  O208  1  0.27056640  0.38422631  0.23838419  1
  O2-  O209  1  0.26777358  0.36733217  0.72260827  1
  O2-  O210  1  0.27082465  0.86094954  0.22929568  1
  O2-  O211  1  0.28850536  0.86532866  0.73679542  1
  O2-  O212  1  0.76835294  0.36249253  0.23453521  1
  O2-  O213  1  0.78323369  0.36230227  0.74888216  1
  O2-  O214  1  0.77499851  0.86411826  0.22586005  1
  O2-  O215  1  0.77364159  0.87626639  0.74459223  1
  O2-  O216  1  0.22323181  0.13672092  0.27515130  1
  O2-  O217  1  0.22931688  0.13121424  0.76830409  1
  O2-  O218  1  0.24105481  0.62370569  0.27542972  1
  O2-  O219  1  0.23105073  0.63408629  0.76877092  1
  O2-  O220  1  0.71190066  0.13212489  0.24810406  1
  O2-  O221  1  0.73444262  0.11702649  0.76237146  1
  O2-  O222  1  0.73220920  0.63663489  0.26920349  1
  O2-  O223  1  0.72398370  0.63415304  0.76804747  1
  O2-  O224  1  0.12958893  0.48724284  0.24197643  1
  O2-  O225  1  0.11461328  0.48325465  0.75978842  1
  O2-  O226  1  0.11506622  0.96582439  0.25028171  1
  O2-  O227  1  0.12007260  0.97184325  0.74451222  1
  O2-  O228  1  0.61146824  0.48107644  0.24756503  1
  O2-  O229  1  0.61991927  0.46394927  0.74405150  1
  O2-  O230  1  0.61278177  0.96722920  0.25829595  1
  O2-  O231  1  0.63323301  0.97618515  0.75457069  1
  O2-  O232  1  0.38588158  0.01593073  0.24385461  1
  O2-  O233  1  0.38772165  0.02995881  0.75110995  1
  O2-  O234  1  0.37348918  0.51459047  0.26420891  1
  O2-  O235  1  0.38550331  0.52010699  0.75869832  1
  O2-  O236  1  0.88221333  0.01757626  0.25583543  1
  O2-  O237  1  0.87384166  0.01369397  0.74425025  1
  O2-  O238  1  0.88420620  0.53344978  0.25532756  1
  O2-  O239  1  0.88431154  0.53395033  0.75321482  1
  O2-  O240  1  0.47780724  0.37340774  0.24175465  1
  O2-  O241  1  0.47910257  0.38218230  0.72233917  1
  O2-  O242  1  0.47941446  0.86734835  0.23591870  1
  O2-  O243  1  0.49400380  0.88837168  0.70900632  1
  O2-  O244  1  0.97637129  0.38862469  0.26881235  1
  O2-  O245  1  0.97875153  0.38747348  0.78157954  1
  O2-  O246  1  0.98435237  0.86184737  0.26974863  1
  O2-  O247  1  0.98568035  0.88350935  0.78695119  1
  O2-  O248  1  0.02732057  0.11495289  0.22008995  1
  O2-  O249  1  0.02002515  0.11530992  0.72556326  1
  O2-  O250  1  0.02425361  0.62720701  0.23063211  1
  O2-  O251  1  0.02279771  0.61734985  0.72487769  1
  O2-  O252  1  0.51862842  0.12561091  0.27254465  1
  O2-  O253  1  0.53698337  0.10956341  0.75689181  1
  O2-  O254  1  0.51224030  0.62244867  0.26903207  1
  O2-  O255  1  0.53301051  0.61343478  0.75056958  1
  O2-  O256  1  0.11643079  0.48758582  0.01116078  1
  O2-  O257  1  0.13644259  0.47756937  0.50494620  1
  O2-  O258  1  0.13192293  0.96933574  0.00812601  1
  O2-  O259  1  0.13612820  0.97106789  0.49319152  1
  O2-  O260  1  0.63478742  0.48032852  0.00756739  1
  O2-  O261  1  0.61431956  0.48271257  0.49400248  1
  O2-  O262  1  0.63651355  0.98686945  -0.02124819  1
  O2-  O263  1  0.61725551  0.97738699  0.49568640  1
  O2-  O264  1  0.36875571  0.03021217  -0.00547202  1
  O2-  O265  1  0.38122309  0.02569606  0.49817703  1
  O2-  O266  1  0.36369349  0.52399302  -0.00519904  1
  O2-  O267  1  0.37878771  0.52548040  0.48899071  1
  O2-  O268  1  0.86451305  0.02754171  -0.00410441  1
  O2-  O269  1  0.86489693  0.02706009  0.50285831  1
  O2-  O270  1  0.87556927  0.52037832  0.00289439  1
  O2-  O271  1  0.86552912  0.53620582  0.50526149  1
  O2-  O272  1  0.49845277  0.36367916  0.04130535  1
  O2-  O273  1  0.47756766  0.37938585  0.50980894  1
  O2-  O274  1  0.48864711  0.86296355  0.03203120  1
  O2-  O275  1  0.47619841  0.88042011  0.50498215  1
  O2-  O276  1  0.97795359  0.38490603  -0.01181875  1
  O2-  O277  1  0.97148134  0.36827164  0.47377341  1
  O2-  O278  1  0.97226717  0.86020481  -0.01544596  1
  O2-  O279  1  0.98739715  0.86101127  0.46404126  1
  O2-  O280  1  0.01195646  0.13635048  0.03023903  1
  O2-  O281  1  0.02882552  0.13272447  0.52103018  1
  O2-  O282  1  0.00531731  0.62492048  0.02802787  1
  O2-  O283  1  0.03521648  0.63852355  0.51613114  1
  O2-  O284  1  0.53381983  0.14203363  -0.00939273  1
  O2-  O285  1  0.51974535  0.12485074  0.47544338  1
  O2-  O286  1  0.53681805  0.63566920  -0.00366011  1
  O2-  O287  1  0.51521105  0.62846854  0.47865459  1
  O2-  O288  1  0.11148156  0.27012641  -0.01871974  1
  O2-  O289  1  0.11686288  0.28052125  0.48480524  1
  O2-  O290  1  0.11334362  0.76975297  0.01320550  1
  O2-  O291  1  0.13436800  0.77197277  0.50147701  1
  O2-  O292  1  0.63696814  0.27688245  -0.00799898  1
  O2-  O293  1  0.61272142  0.27841396  0.47857558  1
  O2-  O294  1  0.63223621  0.77365385  0.01543083  1
  O2-  O295  1  0.61001718  0.77840155  0.50369290  1
  O2-  O296  1  0.38616519  0.23361654  0.01475020  1
  O2-  O297  1  0.38628335  0.23018238  0.51195629  1
  O2-  O298  1  0.38625757  0.71950064  -0.00465240  1
  O2-  O299  1  0.37839031  0.74239411  0.47783982  1
  O2-  O300  1  0.86995892  0.24166636  0.03344664  1
  O2-  O301  1  0.88114519  0.22717153  0.51646638  1
  O2-  O302  1  0.86892747  0.73195729  0.00275370  1
  O2-  O303  1  0.88234711  0.72077153  0.49144116  1
  O2-  O304  1  0.25331707  0.38943524  0.03975904  1
  O2-  O305  1  0.28123793  0.39005729  0.51278051  1
  O2-  O306  1  0.28177738  0.88415131  0.01803598  1
  O2-  O307  1  0.27522226  0.87063897  0.50734057  1
  O2-  O308  1  0.77297138  0.37894245  0.01713647  1
  O2-  O309  1  0.77029815  0.38500853  0.51249749  1
  O2-  O310  1  0.77184452  0.87599150  0.00933635  1
  O2-  O311  1  0.76488690  0.88580724  0.52175211  1
  O2-  O312  1  0.22052721  0.11910361  -0.02387372  1
  O2-  O313  1  0.23002060  0.11508866  0.47734435  1
  O2-  O314  1  0.22002573  0.61330584  -0.01697673  1
  O2-  O315  1  0.24060146  0.63197347  0.47594368  1
  O2-  O316  1  0.73397705  0.13077763  -0.00871027  1
  O2-  O317  1  0.71291857  0.11443773  0.50471710  1
  O2-  O318  1  0.73121374  0.62962088  -0.01469642  1
  O2-  O319  1  0.71767900  0.61876286  0.48280839  1
