# generated using pymatgen
data_Sr64Ca21Nb43O192
_symmetry_space_group_name_H-M   'P 1'
_cell_length_a   16.61429521
_cell_length_b   16.62340170
_cell_length_c   16.72296999
_cell_angle_alpha   89.90765982
_cell_angle_beta   89.96643122
_cell_angle_gamma   90.09304865
_symmetry_Int_Tables_number   1
_chemical_formula_structural   Sr64Ca21Nb43O192
_chemical_formula_sum   'Sr64 Ca21 Nb43 O192'
_cell_volume   4618.63902677
_cell_formula_units_Z   1
loop_
 _symmetry_equiv_pos_site_id
 _symmetry_equiv_pos_as_xyz
  1  'x, y, z'
loop_
 _atom_type_symbol
 _atom_type_oxidation_number
  Sr2+  2.0
  Ca2+  2.0
  Nb5+  5.0
  O2-  -2.0
loop_
 _atom_site_type_symbol
 _atom_site_label
 _atom_site_symmetry_multiplicity
 _atom_site_fract_x
 _atom_site_fract_y
 _atom_site_fract_z
 _atom_site_occupancy
  Sr2+  Sr0  1  0.11535857  0.13493207  0.12030056  1
  Sr2+  Sr1  1  0.11561140  0.11868386  0.62087053  1
  Sr2+  Sr2  1  0.12268044  0.63105677  0.11651998  1
  Sr2+  Sr3  1  0.11768989  0.63203463  0.62588412  1
  Sr2+  Sr4  1  0.61709017  0.12794211  0.12825964  1
  Sr2+  Sr5  1  0.62328504  0.13832744  0.62434179  1
  Sr2+  Sr6  1  0.62690087  0.63130121  0.12275312  1
  Sr2+  Sr7  1  0.61254780  0.63513683  0.62500013  1
  Sr2+  Sr8  1  0.36410276  0.38664955  0.13621027  1
  Sr2+  Sr9  1  0.37217434  0.38326117  0.63166632  1
  Sr2+  Sr10  1  0.37221916  0.88006378  0.12051350  1
  Sr2+  Sr11  1  0.36012719  0.89099350  0.62353723  1
  Sr2+  Sr12  1  0.86620752  0.38298348  0.12065395  1
  Sr2+  Sr13  1  0.86517827  0.36455686  0.61603042  1
  Sr2+  Sr14  1  0.87084541  0.88529194  0.12821416  1
  Sr2+  Sr15  1  0.87327596  0.89158221  0.62615055  1
  Sr2+  Sr16  1  0.14723535  0.37045601  0.37187420  1
  Sr2+  Sr17  1  0.12998031  0.37119961  0.87998921  1
  Sr2+  Sr18  1  0.14105067  0.86810554  0.37545546  1
  Sr2+  Sr19  1  0.14307980  0.86579129  0.87206176  1
  Sr2+  Sr20  1  0.63143373  0.36939605  0.37846129  1
  Sr2+  Sr21  1  0.62775987  0.36556711  0.87167284  1
  Sr2+  Sr22  1  0.63453393  0.86631457  0.37631717  1
  Sr2+  Sr23  1  0.63279891  0.87121894  0.87378513  1
  Sr2+  Sr24  1  0.36971133  0.12681638  0.37725957  1
  Sr2+  Sr25  1  0.38110833  0.12098066  0.87184455  1
  Sr2+  Sr26  1  0.39507824  0.61554967  0.37247313  1
  Sr2+  Sr27  1  0.38504633  0.61611353  0.88355182  1
  Sr2+  Sr28  1  0.88499095  0.12684758  0.37215744  1
  Sr2+  Sr29  1  0.88155540  0.12109630  0.86784155  1
  Sr2+  Sr30  1  0.88397712  0.62141580  0.36729216  1
  Sr2+  Sr31  1  0.88700395  0.62212021  0.87244626  1
  Sr2+  Sr32  1  0.14011870  0.11363760  0.37358377  1
  Sr2+  Sr33  1  0.13344681  0.11944957  0.87079274  1
  Sr2+  Sr34  1  0.12842442  0.61125388  0.37918795  1
  Sr2+  Sr35  1  0.13348924  0.61290091  0.87232859  1
  Sr2+  Sr36  1  0.63536653  0.12365824  0.36711804  1
  Sr2+  Sr37  1  0.62565706  0.11337219  0.87076297  1
  Sr2+  Sr38  1  0.63063441  0.61041328  0.37722626  1
  Sr2+  Sr39  1  0.64165931  0.61410607  0.87711615  1
  Sr2+  Sr40  1  0.38310768  0.37263467  0.37137188  1
  Sr2+  Sr41  1  0.38221705  0.35842184  0.87397321  1
  Sr2+  Sr42  1  0.37764975  0.86741392  0.37627619  1
  Sr2+  Sr43  1  0.38338989  0.87825375  0.87925577  1
  Sr2+  Sr44  1  0.87910818  0.38200634  0.38300514  1
  Sr2+  Sr45  1  0.88561198  0.36678324  0.88008857  1
  Sr2+  Sr46  1  0.87955719  0.86458737  0.36416601  1
  Sr2+  Sr47  1  0.87599018  0.86681505  0.87241350  1
  Sr2+  Sr48  1  0.12569931  0.37540117  0.12334928  1
  Sr2+  Sr49  1  0.11579915  0.38569851  0.62008755  1
  Sr2+  Sr50  1  0.12681967  0.87801484  0.12472199  1
  Sr2+  Sr51  1  0.11287095  0.87948921  0.61833769  1
  Sr2+  Sr52  1  0.61919994  0.37814059  0.11921947  1
  Sr2+  Sr53  1  0.61643571  0.37459759  0.62882669  1
  Sr2+  Sr54  1  0.61135271  0.88220772  0.12212009  1
  Sr2+  Sr55  1  0.61094901  0.88108066  0.61966259  1
  Sr2+  Sr56  1  0.36080837  0.13560693  0.12322697  1
  Sr2+  Sr57  1  0.35522830  0.13841255  0.62630157  1
  Sr2+  Sr58  1  0.36029735  0.63001160  0.12742426  1
  Sr2+  Sr59  1  0.37401230  0.63058433  0.61910749  1
  Sr2+  Sr60  1  0.87891884  0.12565305  0.12491078  1
  Sr2+  Sr61  1  0.86812106  0.13062456  0.62754669  1
  Sr2+  Sr62  1  0.86674180  0.63285654  0.12390472  1
  Sr2+  Sr63  1  0.87907777  0.63023928  0.61704120  1
  Ca2+  Ca64  1  -0.00394558  -0.00154605  0.49555972  1
  Ca2+  Ca65  1  -0.00134156  0.49853824  0.00208739  1
  Ca2+  Ca66  1  -0.00169754  -0.00013226  -0.00148734  1
  Ca2+  Ca67  1  0.49990992  0.49845774  -0.00040203  1
  Ca2+  Ca68  1  0.49785474  0.00547259  0.50103695  1
  Ca2+  Ca69  1  0.25043709  0.24971995  -0.00253843  1
  Ca2+  Ca70  1  0.75247013  0.74859674  0.50074326  1
  Ca2+  Ca71  1  0.24798051  0.25294752  0.50031896  1
  Ca2+  Ca72  1  0.74971629  0.24379680  -0.00218200  1
  Ca2+  Ca73  1  0.25166860  0.74570968  0.50150921  1
  Ca2+  Ca74  1  0.75343579  0.49960735  0.74846695  1
  Ca2+  Ca75  1  -0.00117389  0.25225652  0.25113384  1
  Ca2+  Ca76  1  0.50004647  0.24740516  0.25214004  1
  Ca2+  Ca77  1  0.50027792  0.75022533  0.24875767  1
  Ca2+  Ca78  1  0.24762779  0.00169279  0.74948028  1
  Ca2+  Ca79  1  0.25134012  0.50125755  0.74830924  1
  Ca2+  Ca80  1  0.00024942  0.25202573  0.74850802  1
  Ca2+  Ca81  1  0.24968092  0.50402267  0.25224269  1
  Ca2+  Ca82  1  0.25172523  0.00066932  0.24701839  1
  Ca2+  Ca83  1  0.75176622  0.50036148  0.24981900  1
  Ca2+  Ca84  1  0.49989282  0.75167773  0.75191958  1
  Nb5+  Nb85  1  0.50051600  0.00294499  0.00090204  1
  Nb5+  Nb86  1  0.00424447  0.49993560  0.49972077  1
  Nb5+  Nb87  1  0.50850860  0.49749127  0.50162044  1
  Nb5+  Nb88  1  0.74989803  0.24609421  0.49826493  1
  Nb5+  Nb89  1  0.75586541  0.75071426  -0.00180989  1
  Nb5+  Nb90  1  0.25734990  0.74957813  -0.00199422  1
  Nb5+  Nb91  1  0.49830044  0.24818936  0.74949521  1
  Nb5+  Nb92  1  0.74630402  -0.00081504  0.24134856  1
  Nb5+  Nb93  1  0.74594165  -0.00310648  0.74183859  1
  Nb5+  Nb94  1  0.00258067  0.74977416  0.24183612  1
  Nb5+  Nb95  1  0.00065392  0.75288179  0.74635133  1
  Nb5+  Nb96  1  0.00368302  0.00069329  0.25481400  1
  Nb5+  Nb97  1  0.00147654  -0.00126228  0.75675426  1
  Nb5+  Nb98  1  0.00088157  0.49883330  0.24705676  1
  Nb5+  Nb99  1  -0.00803281  0.49632383  0.74963608  1
  Nb5+  Nb100  1  0.49391404  0.00104874  0.25339199  1
  Nb5+  Nb101  1  0.49813760  0.00300627  0.74508088  1
  Nb5+  Nb102  1  0.50770813  0.50102400  0.24417205  1
  Nb5+  Nb103  1  0.50178952  0.50251732  0.75388781  1
  Nb5+  Nb104  1  0.24975413  0.24879598  0.24872638  1
  Nb5+  Nb105  1  0.24108198  0.25714560  0.74692525  1
  Nb5+  Nb106  1  0.25046620  0.74640116  0.25491016  1
  Nb5+  Nb107  1  0.25813723  0.74734780  0.75128055  1
  Nb5+  Nb108  1  0.75461905  0.25447705  0.24764054  1
  Nb5+  Nb109  1  0.74943674  0.24923457  0.75348546  1
  Nb5+  Nb110  1  0.74711772  0.75062912  0.24681590  1
  Nb5+  Nb111  1  0.75069139  0.75212457  0.74493907  1
  Nb5+  Nb112  1  0.00400427  0.24796183  0.49653586  1
  Nb5+  Nb113  1  -0.00005844  0.24876917  0.99854733  1
  Nb5+  Nb114  1  -0.00065023  0.75249338  0.49144450  1
  Nb5+  Nb115  1  0.00759919  0.75522116  0.99276953  1
  Nb5+  Nb116  1  0.49965626  0.24879723  0.49829307  1
  Nb5+  Nb117  1  0.49818402  0.25076087  1.00520741  1
  Nb5+  Nb118  1  0.49723808  0.75670143  0.50230006  1
  Nb5+  Nb119  1  0.50818060  0.74949499  0.99769771  1
  Nb5+  Nb120  1  0.24541564  -0.00023139  -0.00057339  1
  Nb5+  Nb121  1  0.24853995  -0.00046513  0.50044690  1
  Nb5+  Nb122  1  0.25385451  0.49581424  -0.00409534  1
  Nb5+  Nb123  1  0.26236230  0.50114390  0.50219741  1
  Nb5+  Nb124  1  0.74771741  0.00138421  -0.00464939  1
  Nb5+  Nb125  1  0.75177797  -0.00191166  0.48745895  1
  Nb5+  Nb126  1  0.75279261  0.49280471  -0.00341779  1
  Nb5+  Nb127  1  0.75404430  0.50159097  0.50673433  1
  O2-  O128  1  0.00960945  0.01492453  0.13713549  1
  O2-  O129  1  0.01378093  0.00272173  0.63722331  1
  O2-  O130  1  0.02987868  0.51365163  0.13767810  1
  O2-  O131  1  0.01204860  0.51925176  0.62059309  1
  O2-  O132  1  0.52308908  0.01191705  0.11669091  1
  O2-  O133  1  0.53323760  0.01518161  0.63630270  1
  O2-  O134  1  0.53464851  0.51245129  0.13288731  1
  O2-  O135  1  0.52328848  0.50961836  0.62143158  1
  O2-  O136  1  -0.03824118  -0.01480759  0.36450063  1
  O2-  O137  1  -0.03943621  -0.01237505  0.86700706  1
  O2-  O138  1  -0.02330104  0.49872421  0.38390577  1
  O2-  O139  1  -0.02424656  0.48982835  0.86462011  1
  O2-  O140  1  0.47270519  -0.01237837  0.36527590  1
  O2-  O141  1  0.48813058  -0.00492191  0.87457215  1
  O2-  O142  1  0.48395286  0.48490688  0.38585538  1
  O2-  O143  1  0.47363469  0.48104240  0.86381504  1
  O2-  O144  1  0.26756184  0.26973892  0.13083259  1
  O2-  O145  1  0.27253648  0.26837445  0.63303547  1
  O2-  O146  1  0.26023605  0.77038542  0.11727402  1
  O2-  O147  1  0.27450558  0.76348406  0.63855299  1
  O2-  O148  1  0.75044051  0.27230727  0.13432941  1
  O2-  O149  1  0.75148146  0.25441396  0.62735898  1
  O2-  O150  1  0.77318081  0.76629502  0.11884275  1
  O2-  O151  1  0.78237122  0.76747932  0.63629148  1
  O2-  O152  1  0.24070858  0.22662470  0.36710509  1
  O2-  O153  1  0.24050408  0.22807972  0.86236984  1
  O2-  O154  1  0.22056552  0.73265155  0.36485955  1
  O2-  O155  1  0.22609469  0.73730253  0.88238834  1
  O2-  O156  1  0.75205851  0.22644801  0.38265741  1
  O2-  O157  1  0.73264705  0.21983338  0.86369975  1
  O2-  O158  1  0.73301179  0.73497504  0.36123831  1
  O2-  O159  1  0.73259217  0.74309322  0.87998031  1
  O2-  O160  1  -0.00599717  0.22451263  0.11694631  1
  O2-  O161  1  -0.00431375  0.23019326  0.61344441  1
  O2-  O162  1  -0.00680884  0.72802341  0.12872665  1
  O2-  O163  1  -0.01251822  0.73492650  0.63300223  1
  O2-  O164  1  0.49678012  0.22235068  0.11579792  1
  O2-  O165  1  0.49931228  0.23473758  0.62647777  1
  O2-  O166  1  0.47927016  0.73428271  0.11050546  1
  O2-  O167  1  0.49081336  0.72319938  0.61847973  1
  O2-  O168  1  0.26604309  0.02099457  0.38240018  1
  O2-  O169  1  0.27090611  0.01681761  0.88495806  1
  O2-  O170  1  0.26226616  0.53533923  0.38747169  1
  O2-  O171  1  0.26421624  0.53237429  0.88227360  1
  O2-  O172  1  0.76299371  0.02371432  0.37489863  1
  O2-  O173  1  0.76028112  0.01654468  0.88090368  1
  O2-  O174  1  0.76342222  0.51677065  0.38939523  1
  O2-  O175  1  0.76941909  0.52868420  0.88431124  1
  O2-  O176  1  -0.02479493  0.27110658  0.38579384  1
  O2-  O177  1  0.00729789  0.27888541  0.88042817  1
  O2-  O178  1  0.01235075  0.76980931  0.37747164  1
  O2-  O179  1  0.01022686  0.77654451  0.87947185  1
  O2-  O180  1  0.50594443  0.27931182  0.38751772  1
  O2-  O181  1  0.50935483  0.26331149  0.86852991  1
  O2-  O182  1  0.51088148  0.77723115  0.38459281  1
  O2-  O183  1  0.50625055  0.78316224  0.88498079  1
  O2-  O184  1  0.24878391  -0.03087658  0.11334702  1
  O2-  O185  1  0.22796128  -0.02622774  0.61858040  1
  O2-  O186  1  0.23728165  0.48023494  0.11484271  1
  O2-  O187  1  0.23937012  0.46636703  0.61371292  1
  O2-  O188  1  0.73026758  -0.02390568  0.12881645  1
  O2-  O189  1  0.73182272  -0.02636937  0.63077617  1
  O2-  O190  1  0.72765425  0.48122959  0.11490153  1
  O2-  O191  1  0.74392996  0.45930846  0.61617846  1
  O2-  O192  1  0.13222192  0.28168874  0.24250477  1
  O2-  O193  1  0.13198370  0.29073904  0.73837068  1
  O2-  O194  1  0.11957631  0.77329769  0.23444360  1
  O2-  O195  1  0.11548491  0.77910869  0.73959159  1
  O2-  O196  1  0.63845986  0.25618957  0.26426604  1
  O2-  O197  1  0.62470663  0.26230253  0.73859851  1
  O2-  O198  1  0.63645615  0.77003125  0.22304161  1
  O2-  O199  1  0.63803247  0.78096880  0.73392429  1
  O2-  O200  1  0.36805021  0.21900069  0.25837087  1
  O2-  O201  1  0.38345368  0.22592340  0.75747763  1
  O2-  O202  1  0.36373219  0.72583230  0.26544602  1
  O2-  O203  1  0.36589011  0.71889499  0.77484935  1
  O2-  O204  1  0.86274677  0.21037626  0.25104030  1
  O2-  O205  1  0.86341052  0.22373109  0.75220283  1
  O2-  O206  1  0.87941390  0.73916113  0.26134497  1
  O2-  O207  1  0.87572774  0.74144308  0.77577287  1
  O2-  O208  1  0.27534566  0.36838658  0.27014353  1
  O2-  O209  1  0.28067308  0.36701500  0.77062441  1
  O2-  O210  1  0.26674884  0.86397746  0.26547782  1
  O2-  O211  1  0.26615273  0.86392616  0.77590949  1
  O2-  O212  1  0.77712588  0.36384386  0.27343347  1
  O2-  O213  1  0.76597928  0.36103743  0.77493500  1
  O2-  O214  1  0.76801258  0.87410077  0.26368982  1
  O2-  O215  1  0.76566816  0.87993165  0.77299249  1
  O2-  O216  1  0.22040913  0.13294820  0.22565611  1
  O2-  O217  1  0.22226651  0.13703214  0.72507168  1
  O2-  O218  1  0.22743207  0.63687754  0.21812126  1
  O2-  O219  1  0.21437189  0.63885389  0.74083763  1
  O2-  O220  1  0.72779136  0.11461037  0.23290000  1
  O2-  O221  1  0.72967218  0.11494432  0.73252523  1
  O2-  O222  1  0.74113955  0.63660316  0.22302316  1
  O2-  O223  1  0.72643824  0.63950099  0.73859969  1
  O2-  O224  1  0.11240775  0.48910577  0.28476783  1
  O2-  O225  1  0.10972392  0.48701698  0.75891360  1
  O2-  O226  1  0.11415619  0.97402494  0.27144443  1
  O2-  O227  1  0.11248332  0.98202838  0.78140336  1
  O2-  O228  1  0.62000402  0.48195023  0.28133478  1
  O2-  O229  1  0.61628207  0.46982995  0.76018582  1
  O2-  O230  1  0.63153563  0.97530868  0.27093180  1
  O2-  O231  1  0.62816657  0.98478921  0.77332504  1
  O2-  O232  1  0.38641808  0.02613042  0.22448030  1
  O2-  O233  1  0.38588172  0.02783068  0.73208633  1
  O2-  O234  1  0.38895918  0.52229722  0.23611803  1
  O2-  O235  1  0.38900810  0.51661142  0.71893563  1
  O2-  O236  1  0.86510089  0.00981215  0.23076979  1
  O2-  O237  1  0.86453856  0.01399382  0.73235038  1
  O2-  O238  1  0.88790653  0.53552605  0.24042087  1
  O2-  O239  1  0.88440842  0.54255560  0.73372689  1
  O2-  O240  1  0.48559841  0.38363284  0.23407964  1
  O2-  O241  1  0.48469035  0.36648866  0.73445523  1
  O2-  O242  1  0.48843604  0.88646062  0.22345167  1
  O2-  O243  1  0.47927839  0.88866664  0.73386801  1
  O2-  O244  1  0.96992314  0.38885575  0.23799655  1
  O2-  O245  1  0.96504261  0.38756174  0.72700185  1
  O2-  O246  1  0.98079218  0.86979228  0.23605030  1
  O2-  O247  1  0.97496254  0.87369135  0.73976559  1
  O2-  O248  1  0.01632288  0.11407855  0.27464413  1
  O2-  O249  1  0.01088645  0.11493611  0.76706740  1
  O2-  O250  1  0.01885237  0.63618977  0.27268446  1
  O2-  O251  1  0.01721176  0.63868629  0.77115392  1
  O2-  O252  1  0.53407966  0.11112085  0.25843825  1
  O2-  O253  1  0.52194148  0.12711320  0.76353211  1
  O2-  O254  1  0.52343051  0.61722171  0.27435338  1
  O2-  O255  1  0.52761789  0.61422787  0.76890509  1
  O2-  O256  1  0.13438114  0.49141600  -0.02091305  1
  O2-  O257  1  0.11864848  0.48342055  0.48617726  1
  O2-  O258  1  0.13428222  0.97393254  -0.01643333  1
  O2-  O259  1  0.12971608  0.97572248  0.47910782  1
  O2-  O260  1  0.63434729  0.48541662  -0.02706901  1
  O2-  O261  1  0.62636526  0.48019858  0.48669972  1
  O2-  O262  1  0.62409602  0.97638448  -0.01536931  1
  O2-  O263  1  0.63544927  0.97767539  0.48713310  1
  O2-  O264  1  0.38338042  0.01479586  0.01251715  1
  O2-  O265  1  0.36453003  0.02291576  0.52788020  1
  O2-  O266  1  0.36763353  0.52870401  0.01835858  1
  O2-  O267  1  0.37930948  0.51291264  0.51829374  1
  O2-  O268  1  0.85942836  0.00745590  0.02435917  1
  O2-  O269  1  0.86040013  0.01822915  0.52841378  1
  O2-  O270  1  0.86450986  0.52050046  0.02830581  1
  O2-  O271  1  0.87208668  0.51274064  0.51687478  1
  O2-  O272  1  0.47198880  0.36290829  0.02002077  1
  O2-  O273  1  0.49024851  0.37634760  0.52335886  1
  O2-  O274  1  0.48547714  0.88027814  0.01452059  1
  O2-  O275  1  0.47544337  0.86751782  0.52659158  1
  O2-  O276  1  0.96810197  0.36554006  0.01933896  1
  O2-  O277  1  0.97874919  0.38360920  0.51756092  1
  O2-  O278  1  0.97844484  0.86272931  0.02670750  1
  O2-  O279  1  0.97506658  0.86190548  0.51768202  1
  O2-  O280  1  0.03134886  0.13275446  -0.02315759  1
  O2-  O281  1  0.02043817  0.13546248  0.47532739  1
  O2-  O282  1  0.00974139  0.63830740  -0.01442683  1
  O2-  O283  1  0.01746071  0.62294097  0.49070200  1
  O2-  O284  1  0.52435235  0.11955818  -0.01609072  1
  O2-  O285  1  0.52917367  0.13822825  0.48168589  1
  O2-  O286  1  0.51991113  0.63718119  -0.02707995  1
  O2-  O287  1  0.52181821  0.61562038  0.48599467  1
  O2-  O288  1  0.11770494  0.27981850  0.00997391  1
  O2-  O289  1  0.11290547  0.28392565  0.49832086  1
  O2-  O290  1  0.12191770  0.76980782  0.01331582  1
  O2-  O291  1  0.11347822  0.76046053  0.52145598  1
  O2-  O292  1  0.61452820  0.27531034  0.00100658  1
  O2-  O293  1  0.63050703  0.26861178  0.50977142  1
  O2-  O294  1  0.62333713  0.76712903  0.01758093  1
  O2-  O295  1  0.61730609  0.76426992  0.51647898  1
  O2-  O296  1  0.38647281  0.22140598  -0.01997942  1
  O2-  O297  1  0.38622114  0.22943187  0.49540379  1
  O2-  O298  1  0.37189766  0.73577869  -0.01766357  1
  O2-  O299  1  0.38598147  0.71933761  0.48250719  1
  O2-  O300  1  0.88263187  0.21683606  -0.01502023  1
  O2-  O301  1  0.86828054  0.23442444  0.50980143  1
  O2-  O302  1  0.87146520  0.73781362  -0.01690307  1
  O2-  O303  1  0.88584231  0.71857326  0.48584533  1
  O2-  O304  1  0.27258677  0.38506586  -0.02677802  1
  O2-  O305  1  0.26648406  0.38711116  0.46748740  1
  O2-  O306  1  0.26923829  0.87086540  -0.02070317  1
  O2-  O307  1  0.27400223  0.88061886  0.48132931  1
  O2-  O308  1  0.77348222  0.38090623  -0.02012955  1
  O2-  O309  1  0.76529783  0.36629710  0.48183045  1
  O2-  O310  1  0.75777752  0.87296262  -0.01440494  1
  O2-  O311  1  0.77257229  0.88400963  0.47432889  1
  O2-  O312  1  0.23232960  0.11252406  0.02208065  1
  O2-  O313  1  0.22170551  0.11685288  0.51806063  1
  O2-  O314  1  0.23448204  0.63515813  0.01845946  1
  O2-  O315  1  0.23348854  0.61244689  0.53339595  1
  O2-  O316  1  0.72304644  0.11009838  0.02193737  1
  O2-  O317  1  0.73031995  0.12483164  0.51471853  1
  O2-  O318  1  0.73167898  0.63576697  0.01531476  1
  O2-  O319  1  0.73112949  0.61138333  0.53175346  1
