# generated using pymatgen
data_Sr64Ca21Nb43O192
_symmetry_space_group_name_H-M   'P 1'
_cell_length_a   16.54856845
_cell_length_b   16.52882327
_cell_length_c   16.70070450
_cell_angle_alpha   90.00936996
_cell_angle_beta   89.96556512
_cell_angle_gamma   90.01704707
_symmetry_Int_Tables_number   1
_chemical_formula_structural   Sr64Ca21Nb43O192
_chemical_formula_sum   'Sr64 Ca21 Nb43 O192'
_cell_volume   4568.11528054
_cell_formula_units_Z   1
loop_
 _symmetry_equiv_pos_site_id
 _symmetry_equiv_pos_as_xyz
  1  'x, y, z'
loop_
 _atom_type_symbol
 _atom_type_oxidation_number
  Sr2+  2.0
  Ca2+  2.0
  Nb5+  5.0
  O2-  -2.0
loop_
 _atom_site_type_symbol
 _atom_site_label
 _atom_site_symmetry_multiplicity
 _atom_site_fract_x
 _atom_site_fract_y
 _atom_site_fract_z
 _atom_site_occupancy
  Sr2+  Sr0  1  0.12884947  0.12916205  0.12898532  1
  Sr2+  Sr1  1  0.13761713  0.13904925  0.61948319  1
  Sr2+  Sr2  1  0.12434402  0.61546564  0.12461472  1
  Sr2+  Sr3  1  0.12951810  0.62246830  0.62789370  1
  Sr2+  Sr4  1  0.63647130  0.13708104  0.12615839  1
  Sr2+  Sr5  1  0.62759801  0.14366007  0.62260000  1
  Sr2+  Sr6  1  0.62652166  0.62932708  0.12615203  1
  Sr2+  Sr7  1  0.63472414  0.62996078  0.61488569  1
  Sr2+  Sr8  1  0.37118772  0.37165569  0.11734614  1
  Sr2+  Sr9  1  0.37538911  0.37816903  0.63027866  1
  Sr2+  Sr10  1  0.38149750  0.87780909  0.13041883  1
  Sr2+  Sr11  1  0.37506469  0.89292936  0.62485415  1
  Sr2+  Sr12  1  0.88480882  0.38383203  0.13015502  1
  Sr2+  Sr13  1  0.88084526  0.37739710  0.62127923  1
  Sr2+  Sr14  1  0.87911634  0.88855465  0.12665819  1
  Sr2+  Sr15  1  0.88363687  0.88237285  0.61653871  1
  Sr2+  Sr16  1  0.11420383  0.36644386  0.37821576  1
  Sr2+  Sr17  1  0.12525987  0.36281153  0.87487848  1
  Sr2+  Sr18  1  0.12297988  0.86151768  0.37437910  1
  Sr2+  Sr19  1  0.12409230  0.86652608  0.87237444  1
  Sr2+  Sr20  1  0.61141731  0.36806369  0.37642764  1
  Sr2+  Sr21  1  0.60946883  0.37186942  0.86866775  1
  Sr2+  Sr22  1  0.61398217  0.87242619  0.38111016  1
  Sr2+  Sr23  1  0.62203905  0.86310895  0.87130179  1
  Sr2+  Sr24  1  0.37883797  0.11558473  0.37648983  1
  Sr2+  Sr25  1  0.37267410  0.12222985  0.87765717  1
  Sr2+  Sr26  1  0.37521287  0.61973220  0.37578974  1
  Sr2+  Sr27  1  0.37890655  0.61673342  0.88308133  1
  Sr2+  Sr28  1  0.86181765  0.12134538  0.37828653  1
  Sr2+  Sr29  1  0.86569591  0.11366924  0.87082781  1
  Sr2+  Sr30  1  0.85981301  0.62237214  0.37880929  1
  Sr2+  Sr31  1  0.86813180  0.62098200  0.87136164  1
  Sr2+  Sr32  1  0.12441561  0.11956443  0.38062113  1
  Sr2+  Sr33  1  0.12553129  0.11043275  0.87191816  1
  Sr2+  Sr34  1  0.13085674  0.61066300  0.39059953  1
  Sr2+  Sr35  1  0.12354549  0.61732397  0.87276133  1
  Sr2+  Sr36  1  0.61799781  0.11565760  0.37629813  1
  Sr2+  Sr37  1  0.61037888  0.11701242  0.87689741  1
  Sr2+  Sr38  1  0.61636853  0.61906320  0.37368548  1
  Sr2+  Sr39  1  0.62490599  0.61732211  0.86446434  1
  Sr2+  Sr40  1  0.36137231  0.37762800  0.37287230  1
  Sr2+  Sr41  1  0.37578999  0.34851637  0.87481523  1
  Sr2+  Sr42  1  0.37525836  0.87485151  0.37784913  1
  Sr2+  Sr43  1  0.37116973  0.86460398  0.87341327  1
  Sr2+  Sr44  1  0.87007359  0.35596278  0.37859929  1
  Sr2+  Sr45  1  0.86475522  0.36266486  0.87134379  1
  Sr2+  Sr46  1  0.86508966  0.86914417  0.37810649  1
  Sr2+  Sr47  1  0.87337038  0.86256740  0.87222580  1
  Sr2+  Sr48  1  0.11828955  0.37445974  0.12262227  1
  Sr2+  Sr49  1  0.12529863  0.38266251  0.61791333  1
  Sr2+  Sr50  1  0.12569126  0.88087038  0.12234586  1
  Sr2+  Sr51  1  0.13684613  0.87666753  0.63185884  1
  Sr2+  Sr52  1  0.63442197  0.38348577  0.12660810  1
  Sr2+  Sr53  1  0.63239244  0.38145517  0.62492173  1
  Sr2+  Sr54  1  0.63691117  0.87738126  0.12802246  1
  Sr2+  Sr55  1  0.63038656  0.88387916  0.62962685  1
  Sr2+  Sr56  1  0.37860951  0.13765950  0.12518802  1
  Sr2+  Sr57  1  0.38294070  0.13346260  0.61870925  1
  Sr2+  Sr58  1  0.37949893  0.63724348  0.12913612  1
  Sr2+  Sr59  1  0.36859103  0.63172674  0.62350360  1
  Sr2+  Sr60  1  0.88578811  0.12701824  0.12787977  1
  Sr2+  Sr61  1  0.89132877  0.13734342  0.62522479  1
  Sr2+  Sr62  1  0.87971038  0.62805966  0.12524664  1
  Sr2+  Sr63  1  0.89154259  0.62851638  0.61998287  1
  Ca2+  Ca64  1  0.49917035  0.50060402  0.50241091  1
  Ca2+  Ca65  1  -0.00153347  0.50098079  0.49866826  1
  Ca2+  Ca66  1  0.50114560  0.49969638  0.00236968  1
  Ca2+  Ca67  1  0.00109146  -0.00062070  0.49907128  1
  Ca2+  Ca68  1  0.50007263  -0.00360757  0.00529033  1
  Ca2+  Ca69  1  0.25440073  0.25279073  0.49832119  1
  Ca2+  Ca70  1  0.74880802  0.24908495  0.50096269  1
  Ca2+  Ca71  1  0.25169439  0.75210444  0.49967807  1
  Ca2+  Ca72  1  0.75263197  0.25106472  -0.00133012  1
  Ca2+  Ca73  1  0.74810777  0.75016683  0.49943065  1
  Ca2+  Ca74  1  0.50075132  0.24875869  0.74815409  1
  Ca2+  Ca75  1  0.00412514  0.25116010  0.75082312  1
  Ca2+  Ca76  1  0.25039119  0.49923831  0.24535722  1
  Ca2+  Ca77  1  0.49811233  0.24706301  0.25079895  1
  Ca2+  Ca78  1  0.24976281  0.00471792  0.75017095  1
  Ca2+  Ca79  1  0.24939245  0.49901415  0.75544097  1
  Ca2+  Ca80  1  -0.00358453  0.74856993  0.24712967  1
  Ca2+  Ca81  1  0.00055748  0.24854323  0.25063397  1
  Ca2+  Ca82  1  0.24986761  0.00171603  0.24976936  1
  Ca2+  Ca83  1  0.74883107  -0.00171366  0.75137406  1
  Ca2+  Ca84  1  0.49915479  0.74693522  0.74738937  1
  Nb5+  Nb85  1  -0.00221353  0.49384285  -0.00555639  1
  Nb5+  Nb86  1  0.50256463  0.00007050  0.50421493  1
  Nb5+  Nb87  1  -0.00172412  -0.00631661  -0.00309845  1
  Nb5+  Nb88  1  0.25099284  0.74531007  0.00091188  1
  Nb5+  Nb89  1  0.75562550  0.74732077  0.00058923  1
  Nb5+  Nb90  1  0.24577710  0.24179111  -0.00077515  1
  Nb5+  Nb91  1  0.75297239  0.50012646  0.74178484  1
  Nb5+  Nb92  1  0.74827014  0.50402788  0.24596538  1
  Nb5+  Nb93  1  0.50120844  0.74877239  0.25283532  1
  Nb5+  Nb94  1  0.74887040  0.00460171  0.25123238  1
  Nb5+  Nb95  1  -0.00083921  0.75259790  0.74774352  1
  Nb5+  Nb96  1  -0.00029616  -0.00178052  0.25460744  1
  Nb5+  Nb97  1  0.00277128  0.00108901  0.74347695  1
  Nb5+  Nb98  1  -0.00180617  0.50600942  0.25758682  1
  Nb5+  Nb99  1  -0.00139768  0.49757354  0.75431969  1
  Nb5+  Nb100  1  0.50279785  -0.00130481  0.24642798  1
  Nb5+  Nb101  1  0.49846225  -0.00071184  0.75504353  1
  Nb5+  Nb102  1  0.49707394  0.49725001  0.24925967  1
  Nb5+  Nb103  1  0.49523162  0.50464236  0.74886526  1
  Nb5+  Nb104  1  0.24818682  0.25202119  0.25363225  1
  Nb5+  Nb105  1  0.25194615  0.25138129  0.74651863  1
  Nb5+  Nb106  1  0.24399194  0.75196819  0.24787366  1
  Nb5+  Nb107  1  0.25338229  0.74758717  0.75371667  1
  Nb5+  Nb108  1  0.75014105  0.25832499  0.24717734  1
  Nb5+  Nb109  1  0.74876644  0.24345231  0.75599956  1
  Nb5+  Nb110  1  0.74841054  0.75381446  0.24962205  1
  Nb5+  Nb111  1  0.75470933  0.74789998  0.74313701  1
  Nb5+  Nb112  1  0.00264769  0.24864690  0.49929002  1
  Nb5+  Nb113  1  -0.00008418  0.23925140  0.99561383  1
  Nb5+  Nb114  1  0.00349930  0.74958498  0.49145979  1
  Nb5+  Nb115  1  0.00369917  0.74627230  1.00020241  1
  Nb5+  Nb116  1  0.49701116  0.25618702  0.49689383  1
  Nb5+  Nb117  1  0.50673012  0.25116246  1.00614576  1
  Nb5+  Nb118  1  0.49712466  0.75148243  0.50611176  1
  Nb5+  Nb119  1  0.50824697  0.75132835  1.00213205  1
  Nb5+  Nb120  1  0.25149831  -0.00436089  0.00207346  1
  Nb5+  Nb121  1  0.24512391  -0.00228634  0.49442400  1
  Nb5+  Nb122  1  0.25144522  0.49494277  0.00282160  1
  Nb5+  Nb123  1  0.25291533  0.50120159  0.50268533  1
  Nb5+  Nb124  1  0.74751889  -0.00234008  -0.00234088  1
  Nb5+  Nb125  1  0.74872419  0.00450676  0.50895941  1
  Nb5+  Nb126  1  0.75327373  0.49723567  -0.00648676  1
  Nb5+  Nb127  1  0.75177060  0.49622786  0.48900261  1
  O2-  O128  1  0.00831158  -0.02076998  0.11705391  1
  O2-  O129  1  0.01446023  -0.03283159  0.63440103  1
  O2-  O130  1  0.00738567  0.48270849  0.11258356  1
  O2-  O131  1  0.01163762  0.49063113  0.63873858  1
  O2-  O132  1  0.51956494  -0.03271499  0.13650547  1
  O2-  O133  1  0.51434973  -0.02216670  0.61857779  1
  O2-  O134  1  0.53217284  0.49147658  0.13716388  1
  O2-  O135  1  0.50885968  0.46988718  0.63614929  1
  O2-  O136  1  -0.01936403  0.02516260  0.36390730  1
  O2-  O137  1  -0.01752257  0.01902528  0.88176732  1
  O2-  O138  1  -0.01576099  0.53792806  0.36535570  1
  O2-  O139  1  -0.01845325  0.52579208  0.87828741  1
  O2-  O140  1  0.49472916  0.00918509  0.37293062  1
  O2-  O141  1  0.48398732  0.01737980  0.86899325  1
  O2-  O142  1  0.49728764  0.52675896  0.36416789  1
  O2-  O143  1  0.50144350  0.52994787  0.86845233  1
  O2-  O144  1  0.26426732  0.24757255  0.11743497  1
  O2-  O145  1  0.27290729  0.24407398  0.63379376  1
  O2-  O146  1  0.26622180  0.77061942  0.11480525  1
  O2-  O147  1  0.26818528  0.75476936  0.63956267  1
  O2-  O148  1  0.77244887  0.22677343  0.13271826  1
  O2-  O149  1  0.77054568  0.23062970  0.63893650  1
  O2-  O150  1  0.75911475  0.72803475  0.12139935  1
  O2-  O151  1  0.76740935  0.71940749  0.63378707  1
  O2-  O152  1  0.23637774  0.27267277  0.36574424  1
  O2-  O153  1  0.23354821  0.25393946  0.88209603  1
  O2-  O154  1  0.22705444  0.73955515  0.36097577  1
  O2-  O155  1  0.22427416  0.74672394  0.88445511  1
  O2-  O156  1  0.72815774  0.26952864  0.36264171  1
  O2-  O157  1  0.73297684  0.28586631  0.86783427  1
  O2-  O158  1  0.73079767  0.76745291  0.36228600  1
  O2-  O159  1  0.73805076  0.76166038  0.88273023  1
  O2-  O160  1  -0.01520694  0.26947426  0.10938891  1
  O2-  O161  1  -0.02215763  0.26601243  0.61777931  1
  O2-  O162  1  -0.02635973  0.76688073  0.10994169  1
  O2-  O163  1  -0.02317306  0.76260238  0.63466606  1
  O2-  O164  1  0.46812474  0.26011795  0.11800011  1
  O2-  O165  1  0.47116951  0.25909734  0.61545471  1
  O2-  O166  1  0.48608229  0.76610490  0.12971565  1
  O2-  O167  1  0.46096637  0.76092155  0.61481240  1
  O2-  O168  1  0.28206385  0.00094140  0.38091318  1
  O2-  O169  1  0.26326681  0.01610473  0.88756680  1
  O2-  O170  1  0.26948050  0.51008828  0.38029158  1
  O2-  O171  1  0.25803505  0.52454297  0.89085694  1
  O2-  O172  1  0.76936816  -0.01388456  0.36594384  1
  O2-  O173  1  0.77542991  -0.02332915  0.88750665  1
  O2-  O174  1  0.77072778  0.48600512  0.37182323  1
  O2-  O175  1  0.77321361  0.49374241  0.87928171  1
  O2-  O176  1  0.03101382  0.23552160  0.38183162  1
  O2-  O177  1  0.03607927  0.23779456  0.88467701  1
  O2-  O178  1  0.02973176  0.73441816  0.38049599  1
  O2-  O179  1  0.01249857  0.74399012  0.87946267  1
  O2-  O180  1  0.52822268  0.23229851  0.38340415  1
  O2-  O181  1  0.51537362  0.23407870  0.88772449  1
  O2-  O182  1  0.52833885  0.74237022  0.36811564  1
  O2-  O183  1  0.52164875  0.73701109  0.88737054  1
  O2-  O184  1  0.21591415  0.00035164  0.11463033  1
  O2-  O185  1  0.22956880  -0.00262283  0.61461009  1
  O2-  O186  1  0.21093799  0.49322682  0.11263212  1
  O2-  O187  1  0.22838935  0.49779011  0.62123827  1
  O2-  O188  1  0.73327224  0.00467883  0.12477669  1
  O2-  O189  1  0.71837214  0.01635250  0.61824217  1
  O2-  O190  1  0.73500002  0.51241465  0.12792513  1
  O2-  O191  1  0.73489929  0.51342859  0.62869450  1
  O2-  O192  1  0.13356248  0.27914370  0.22882773  1
  O2-  O193  1  0.13761492  0.29007866  0.73694611  1
  O2-  O194  1  0.13253757  0.77246172  0.22553639  1
  O2-  O195  1  0.11639712  0.77056944  0.74085808  1
  O2-  O196  1  0.63425088  0.26341020  0.21985829  1
  O2-  O197  1  0.63593215  0.27472169  0.73022017  1
  O2-  O198  1  0.62800816  0.75917287  0.22470497  1
  O2-  O199  1  0.63908576  0.76708294  0.74041792  1
  O2-  O200  1  0.36296301  0.21134652  0.25887725  1
  O2-  O201  1  0.36691194  0.22510655  0.77621189  1
  O2-  O202  1  0.38480170  0.73108980  0.26207541  1
  O2-  O203  1  0.36368051  0.72695623  0.78224146  1
  O2-  O204  1  0.86449156  0.23165438  0.27329729  1
  O2-  O205  1  0.86785121  0.23446046  0.77755026  1
  O2-  O206  1  0.86045445  0.72383783  0.26266779  1
  O2-  O207  1  0.87630918  0.73464269  0.77472446  1
  O2-  O208  1  0.28601674  0.36648003  0.23760090  1
  O2-  O209  1  0.28520705  0.36881009  0.75730123  1
  O2-  O210  1  0.28125397  0.86425459  0.25002461  1
  O2-  O211  1  0.25542274  0.86610612  0.76867066  1
  O2-  O212  1  0.76761419  0.37594213  0.23006000  1
  O2-  O213  1  0.77792846  0.38568998  0.73544726  1
  O2-  O214  1  0.76614416  0.86858458  0.22954721  1
  O2-  O215  1  0.77788220  0.86221464  0.73137606  1
  O2-  O216  1  0.21270818  0.13480036  0.25480460  1
  O2-  O217  1  0.21636909  0.13780096  0.75522356  1
  O2-  O218  1  0.24786617  0.63843682  0.21773763  1
  O2-  O219  1  0.21602360  0.63620053  0.75268296  1
  O2-  O220  1  0.72949096  0.11864584  0.26134275  1
  O2-  O221  1  0.72787761  0.13254246  0.78317777  1
  O2-  O222  1  0.72822152  0.62034463  0.26220705  1
  O2-  O223  1  0.74140886  0.62431260  0.77065480  1
  O2-  O224  1  0.11251058  0.48996286  0.26678953  1
  O2-  O225  1  0.11133532  0.48801105  0.77914595  1
  O2-  O226  1  0.11176800  0.97037987  0.26473040  1
  O2-  O227  1  0.11314851  0.98007385  0.77901599  1
  O2-  O228  1  0.63412750  0.47823567  0.26886151  1
  O2-  O229  1  0.63907209  0.48377085  0.76804529  1
  O2-  O230  1  0.63353052  0.97191497  0.26360799  1
  O2-  O231  1  0.61525299  0.96481289  0.76570081  1
  O2-  O232  1  0.38937722  0.01500746  0.23008548  1
  O2-  O233  1  0.38493817  0.02258269  0.72429522  1
  O2-  O234  1  0.38728544  0.52164256  0.22767240  1
  O2-  O235  1  0.38418781  0.53519487  0.74041406  1
  O2-  O236  1  0.86655449  0.01443461  0.22816092  1
  O2-  O237  1  0.88476294  0.02099189  0.73930886  1
  O2-  O238  1  0.86724666  0.51808463  0.23399392  1
  O2-  O239  1  0.87435410  0.52760451  0.73994657  1
  O2-  O240  1  0.48475803  0.38425242  0.27146728  1
  O2-  O241  1  0.48695778  0.38753366  0.77805871  1
  O2-  O242  1  0.49194082  0.87039747  0.26929371  1
  O2-  O243  1  0.46986196  0.88075396  0.75958169  1
  O2-  O244  1  0.97246576  0.38981708  0.26076960  1
  O2-  O245  1  0.97240663  0.38743521  0.77062655  1
  O2-  O246  1  0.96462693  0.88385118  0.25968255  1
  O2-  O247  1  0.98023898  0.87126669  0.76921371  1
  O2-  O248  1  0.00912648  0.11201316  0.21932644  1
  O2-  O249  1  0.02396570  0.11453359  0.72748934  1
  O2-  O250  1  0.00386769  0.61551770  0.21203563  1
  O2-  O251  1  0.01251686  0.63181025  0.74380392  1
  O2-  O252  1  0.53372124  0.10965173  0.23603301  1
  O2-  O253  1  0.53327642  0.11226401  0.73417701  1
  O2-  O254  1  0.52228389  0.63094345  0.23651671  1
  O2-  O255  1  0.53704137  0.61540163  0.72648437  1
  O2-  O256  1  0.11569908  0.49178249  -0.02234211  1
  O2-  O257  1  0.13416843  0.47802312  0.47807310  1
  O2-  O258  1  0.11628987  0.98436829  -0.01900458  1
  O2-  O259  1  0.13429892  0.97717635  0.46599620  1
  O2-  O260  1  0.63969582  0.47835704  -0.01417275  1
  O2-  O261  1  0.63549765  0.47059427  0.49124927  1
  O2-  O262  1  0.63588316  0.96724329  -0.01552224  1
  O2-  O263  1  0.62416287  0.98107332  0.48288437  1
  O2-  O264  1  0.36188641  0.01390267  0.02901848  1
  O2-  O265  1  0.38491663  0.01814368  0.51566427  1
  O2-  O266  1  0.36159984  0.51598670  0.02932825  1
  O2-  O267  1  0.36831336  0.53638945  0.51502276  1
  O2-  O268  1  0.87525453  0.01299345  0.01954539  1
  O2-  O269  1  0.86382222  0.02430515  0.52266792  1
  O2-  O270  1  0.87808553  0.52582714  0.01261355  1
  O2-  O271  1  0.86399908  0.52774471  0.51480540  1
  O2-  O272  1  0.47688167  0.36627427  -0.01337840  1
  O2-  O273  1  0.47765231  0.36717504  0.47247802  1
  O2-  O274  1  0.46918841  0.86187836  -0.00885007  1
  O2-  O275  1  0.48605668  0.87781034  0.48235830  1
  O2-  O276  1  0.98465332  0.37962497  -0.02406402  1
  O2-  O277  1  0.98143401  0.36852808  0.47844272  1
  O2-  O278  1  0.98181336  0.87653613  -0.01818601  1
  O2-  O279  1  0.97030172  0.86593495  0.48423547  1
  O2-  O280  1  0.01488179  0.12377259  0.01689857  1
  O2-  O281  1  0.02338940  0.13137373  0.52199488  1
  O2-  O282  1  0.01551656  0.63021697  0.01106820  1
  O2-  O283  1  0.02249961  0.63664924  0.52498221  1
  O2-  O284  1  0.51737179  0.13079600  0.02174803  1
  O2-  O285  1  0.52353541  0.11661603  0.51244286  1
  O2-  O286  1  0.50099622  0.63693950  0.02645665  1
  O2-  O287  1  0.52418293  0.63772349  0.51022643  1
  O2-  O288  1  0.12681653  0.26869159  0.01688208  1
  O2-  O289  1  0.12036600  0.27295626  0.52160602  1
  O2-  O290  1  0.11905411  0.76856188  0.01596579  1
  O2-  O291  1  0.11487587  0.78383710  0.51962837  1
  O2-  O292  1  0.61866679  0.27131376  0.02670857  1
  O2-  O293  1  0.61413501  0.26643860  0.52806716  1
  O2-  O294  1  0.62483266  0.76479937  0.01838983  1
  O2-  O295  1  0.61385203  0.77722832  0.52356712  1
  O2-  O296  1  0.36541821  0.22975144  -0.01506885  1
  O2-  O297  1  0.38633109  0.21744919  0.47956717  1
  O2-  O298  1  0.36597284  0.73291700  -0.01692981  1
  O2-  O299  1  0.38721513  0.73832849  0.46295462  1
  O2-  O300  1  0.88754472  0.23065100  -0.02934645  1
  O2-  O301  1  0.88438378  0.22797906  0.47707955  1
  O2-  O302  1  0.87217378  0.73213658  -0.01701785  1
  O2-  O303  1  0.88374972  0.72631992  0.48308016  1
  O2-  O304  1  0.26190106  0.37791957  -0.00585076  1
  O2-  O305  1  0.28637113  0.38650284  0.50638852  1
  O2-  O306  1  0.25619620  0.87798419  -0.01067905  1
  O2-  O307  1  0.28081837  0.88388486  0.50225289  1
  O2-  O308  1  0.78135562  0.38767494  0.01874403  1
  O2-  O309  1  0.77780842  0.38292014  0.51353735  1
  O2-  O310  1  0.76822029  0.86502597  0.02054769  1
  O2-  O311  1  0.76876131  0.88635031  0.50945546  1
  O2-  O312  1  0.22386152  0.12635030  0.00135148  1
  O2-  O313  1  0.23090426  0.11691096  0.49486876  1
  O2-  O314  1  0.22893081  0.63182963  0.01439957  1
  O2-  O315  1  0.22294417  0.62135196  0.50880977  1
  O2-  O316  1  0.73002021  0.11141467  -0.01615939  1
  O2-  O317  1  0.73012072  0.11502324  0.47206238  1
  O2-  O318  1  0.73365600  0.62515264  -0.00960032  1
  O2-  O319  1  0.72347393  0.61447416  0.47960009  1
