# generated using pymatgen
data_Sr64Ca21Nb43O192
_symmetry_space_group_name_H-M   'P 1'
_cell_length_a   16.55430042
_cell_length_b   16.53969581
_cell_length_c   16.69291531
_cell_angle_alpha   89.97525210
_cell_angle_beta   90.02111774
_cell_angle_gamma   89.99158359
_symmetry_Int_Tables_number   1
_chemical_formula_structural   Sr64Ca21Nb43O192
_chemical_formula_sum   'Sr64 Ca21 Nb43 O192'
_cell_volume   4570.57106042
_cell_formula_units_Z   1
loop_
 _symmetry_equiv_pos_site_id
 _symmetry_equiv_pos_as_xyz
  1  'x, y, z'
loop_
 _atom_type_symbol
 _atom_type_oxidation_number
  Sr2+  2.0
  Ca2+  2.0
  Nb5+  5.0
  O2-  -2.0
loop_
 _atom_site_type_symbol
 _atom_site_label
 _atom_site_symmetry_multiplicity
 _atom_site_fract_x
 _atom_site_fract_y
 _atom_site_fract_z
 _atom_site_occupancy
  Sr2+  Sr0  1  0.12841147  0.10629741  0.12260433  1
  Sr2+  Sr1  1  0.12602070  0.11777427  0.62705036  1
  Sr2+  Sr2  1  0.11262035  0.61017193  0.12576402  1
  Sr2+  Sr3  1  0.12233367  0.63756649  0.62217513  1
  Sr2+  Sr4  1  0.62287060  0.12089531  0.12665169  1
  Sr2+  Sr5  1  0.62220332  0.12294143  0.61597517  1
  Sr2+  Sr6  1  0.62835995  0.62877376  0.12618587  1
  Sr2+  Sr7  1  0.62889703  0.61099011  0.62377830  1
  Sr2+  Sr8  1  0.37380367  0.36950085  0.12975428  1
  Sr2+  Sr9  1  0.37830831  0.36782400  0.62365324  1
  Sr2+  Sr10  1  0.36995055  0.85798458  0.12679841  1
  Sr2+  Sr11  1  0.36992429  0.85321957  0.62559607  1
  Sr2+  Sr12  1  0.88210992  0.37772341  0.11960107  1
  Sr2+  Sr13  1  0.87944846  0.36696638  0.63031300  1
  Sr2+  Sr14  1  0.88140898  0.85387229  0.12880600  1
  Sr2+  Sr15  1  0.88380481  0.85901730  0.62151037  1
  Sr2+  Sr16  1  0.13914960  0.37992816  0.37569598  1
  Sr2+  Sr17  1  0.12045753  0.38424563  0.88164059  1
  Sr2+  Sr18  1  0.10549362  0.88097974  0.37242050  1
  Sr2+  Sr19  1  0.12552445  0.88538146  0.87267695  1
  Sr2+  Sr20  1  0.61895643  0.37631758  0.37054792  1
  Sr2+  Sr21  1  0.62930781  0.37859365  0.86760584  1
  Sr2+  Sr22  1  0.64155639  0.87963052  0.37485794  1
  Sr2+  Sr23  1  0.62186177  0.87868668  0.88271448  1
  Sr2+  Sr24  1  0.37718446  0.12473833  0.37198272  1
  Sr2+  Sr25  1  0.37678343  0.12275398  0.86770811  1
  Sr2+  Sr26  1  0.37037498  0.62689431  0.38058522  1
  Sr2+  Sr27  1  0.38271694  0.63338761  0.86484454  1
  Sr2+  Sr28  1  0.88604297  0.12929704  0.38031470  1
  Sr2+  Sr29  1  0.86290206  0.12942911  0.87753684  1
  Sr2+  Sr30  1  0.87246810  0.63461635  0.37520724  1
  Sr2+  Sr31  1  0.86993062  0.62758293  0.87220238  1
  Sr2+  Sr32  1  0.12084462  0.12524199  0.37429278  1
  Sr2+  Sr33  1  0.12989320  0.11746760  0.87170645  1
  Sr2+  Sr34  1  0.12456101  0.63817754  0.37870417  1
  Sr2+  Sr35  1  0.11824412  0.62822915  0.87318012  1
  Sr2+  Sr36  1  0.62002171  0.10777909  0.37166198  1
  Sr2+  Sr37  1  0.61305867  0.11339231  0.87736172  1
  Sr2+  Sr38  1  0.62035584  0.63246958  0.37605140  1
  Sr2+  Sr39  1  0.62173207  0.63561192  0.87574932  1
  Sr2+  Sr40  1  0.37966556  0.38785928  0.37216354  1
  Sr2+  Sr41  1  0.38257949  0.38292581  0.87530968  1
  Sr2+  Sr42  1  0.37733711  0.86097739  0.37520292  1
  Sr2+  Sr43  1  0.38292044  0.86259850  0.87113157  1
  Sr2+  Sr44  1  0.88163086  0.37630912  0.37635503  1
  Sr2+  Sr45  1  0.87119805  0.37892059  0.87670596  1
  Sr2+  Sr46  1  0.87966214  0.87564756  0.37497642  1
  Sr2+  Sr47  1  0.87533978  0.87231023  0.87109439  1
  Sr2+  Sr48  1  0.14153616  0.37188419  0.11914599  1
  Sr2+  Sr49  1  0.11926213  0.35895841  0.62506975  1
  Sr2+  Sr50  1  0.11449598  0.87347252  0.13614185  1
  Sr2+  Sr51  1  0.12159309  0.87811391  0.62867692  1
  Sr2+  Sr52  1  0.63408728  0.36627427  0.12659155  1
  Sr2+  Sr53  1  0.63381310  0.36973085  0.62374243  1
  Sr2+  Sr54  1  0.63918083  0.86527924  0.12702158  1
  Sr2+  Sr55  1  0.63525379  0.88059053  0.61486025  1
  Sr2+  Sr56  1  0.37125912  0.12319146  0.12784983  1
  Sr2+  Sr57  1  0.36660040  0.12002656  0.62217568  1
  Sr2+  Sr58  1  0.36240287  0.61382862  0.13035896  1
  Sr2+  Sr59  1  0.36754050  0.61285984  0.62104371  1
  Sr2+  Sr60  1  0.86467245  0.12999506  0.12009799  1
  Sr2+  Sr61  1  0.89434681  0.13173053  0.62346610  1
  Sr2+  Sr62  1  0.88041207  0.62057104  0.12704207  1
  Sr2+  Sr63  1  0.87805186  0.61675841  0.62497311  1
  Ca2+  Ca64  1  0.00318769  0.00180854  0.50241460  1
  Ca2+  Ca65  1  -0.00081117  0.49743236  0.50257573  1
  Ca2+  Ca66  1  0.49992777  0.50023965  0.00107371  1
  Ca2+  Ca67  1  -0.00145688  0.00045809  0.00051323  1
  Ca2+  Ca68  1  0.49557123  -0.00058082  0.00286149  1
  Ca2+  Ca69  1  0.74954548  0.25052436  0.49904458  1
  Ca2+  Ca70  1  0.24781360  0.75107496  0.00030916  1
  Ca2+  Ca71  1  0.24908476  0.75436881  0.49973011  1
  Ca2+  Ca72  1  0.24977419  0.25021455  0.49957043  1
  Ca2+  Ca73  1  0.74813777  0.74861165  0.50308593  1
  Ca2+  Ca74  1  0.75113607  0.00139290  0.74775125  1
  Ca2+  Ca75  1  0.50087416  0.75028443  0.24994408  1
  Ca2+  Ca76  1  0.24854814  0.49415208  0.74841608  1
  Ca2+  Ca77  1  0.50619409  0.74991482  0.74512651  1
  Ca2+  Ca78  1  0.24649008  0.49845840  0.25249080  1
  Ca2+  Ca79  1  0.00051856  0.24919012  0.75715638  1
  Ca2+  Ca80  1  0.75188390  0.00398872  0.24760638  1
  Ca2+  Ca81  1  -0.00042887  0.74967127  0.75154001  1
  Ca2+  Ca82  1  0.75130058  0.49868528  0.24859007  1
  Ca2+  Ca83  1  0.00097308  0.25224874  0.24469706  1
  Ca2+  Ca84  1  0.00166315  0.74637405  0.25088536  1
  Nb5+  Nb85  1  0.49478690  -0.00657581  0.49872523  1
  Nb5+  Nb86  1  0.50015962  0.49457896  0.50053718  1
  Nb5+  Nb87  1  -0.00176842  0.49988784  -0.00158444  1
  Nb5+  Nb88  1  0.75303790  0.74353443  -0.00089287  1
  Nb5+  Nb89  1  0.74728616  0.24631405  -0.00390845  1
  Nb5+  Nb90  1  0.25822788  0.24615718  -0.00203291  1
  Nb5+  Nb91  1  0.75016698  0.50101721  0.75057466  1
  Nb5+  Nb92  1  0.50085571  0.24770595  0.74241469  1
  Nb5+  Nb93  1  0.25448878  -0.00397531  0.74505758  1
  Nb5+  Nb94  1  0.49933696  0.25101769  0.24527190  1
  Nb5+  Nb95  1  0.25483790  -0.00357897  0.24653145  1
  Nb5+  Nb96  1  -0.00511031  0.00886449  0.24799531  1
  Nb5+  Nb97  1  -0.00354604  0.00509467  0.75222084  1
  Nb5+  Nb98  1  0.00170891  0.49634736  0.25803772  1
  Nb5+  Nb99  1  0.00312073  0.49489295  0.74748972  1
  Nb5+  Nb100  1  0.49534027  -0.00275496  0.24950884  1
  Nb5+  Nb101  1  0.49876196  -0.00470254  0.74632984  1
  Nb5+  Nb102  1  0.50003880  0.50271665  0.24589808  1
  Nb5+  Nb103  1  0.50143181  0.49970990  0.75037706  1
  Nb5+  Nb104  1  0.24965435  0.24720617  0.25209632  1
  Nb5+  Nb105  1  0.24933948  0.25094237  0.75387190  1
  Nb5+  Nb106  1  0.24795890  0.74543048  0.24530247  1
  Nb5+  Nb107  1  0.24834343  0.74358816  0.75174560  1
  Nb5+  Nb108  1  0.75104824  0.25141328  0.25420490  1
  Nb5+  Nb109  1  0.74552486  0.24509209  0.75098889  1
  Nb5+  Nb110  1  0.75180464  0.75091965  0.25345403  1
  Nb5+  Nb111  1  0.74786521  0.75187333  0.74651413  1
  Nb5+  Nb112  1  0.00151280  0.25253473  0.49763665  1
  Nb5+  Nb113  1  0.00886467  0.24757413  0.99853381  1
  Nb5+  Nb114  1  -0.00040871  0.74983812  0.49945216  1
  Nb5+  Nb115  1  0.00155483  0.75278803  0.99505066  1
  Nb5+  Nb116  1  0.50036585  0.24640019  0.49277450  1
  Nb5+  Nb117  1  0.50308521  0.25321421  0.99362687  1
  Nb5+  Nb118  1  0.50327033  0.74087700  0.50280443  1
  Nb5+  Nb119  1  0.49728494  0.74562321  1.00521221  1
  Nb5+  Nb120  1  0.25790536  -0.00475601  -0.00439488  1
  Nb5+  Nb121  1  0.25144575  -0.00135403  0.49185138  1
  Nb5+  Nb122  1  0.24971634  0.50491030  -0.00498260  1
  Nb5+  Nb123  1  0.24230232  0.49764224  0.50530193  1
  Nb5+  Nb124  1  0.75287116  -0.00803525  0.00071220  1
  Nb5+  Nb125  1  0.75683425  0.00754005  0.50196799  1
  Nb5+  Nb126  1  0.74909050  0.49574284  0.00106053  1
  Nb5+  Nb127  1  0.75011736  0.49795984  0.49525620  1
  O2-  O128  1  0.01601220  -0.00434712  0.13339828  1
  O2-  O129  1  0.01623729  0.00073130  0.63561081  1
  O2-  O130  1  -0.02069362  0.50356115  0.11637860  1
  O2-  O131  1  -0.03122401  0.49319231  0.63716826  1
  O2-  O132  1  0.49515787  0.01917302  0.13742412  1
  O2-  O133  1  0.49765222  0.01400333  0.62010032  1
  O2-  O134  1  0.46937650  0.50026309  0.13509389  1
  O2-  O135  1  0.48590347  0.49663534  0.62466423  1
  O2-  O136  1  0.00538888  0.01034228  0.36764215  1
  O2-  O137  1  0.02019248  -0.00040879  0.86788030  1
  O2-  O138  1  0.02459881  0.48307491  0.36919712  1
  O2-  O139  1  0.01581863  0.50553742  0.87698372  1
  O2-  O140  1  0.49056018  0.00606493  0.37821129  1
  O2-  O141  1  0.49678223  0.00506499  0.86277778  1
  O2-  O142  1  0.52074272  0.49826431  0.38220097  1
  O2-  O143  1  0.51807715  0.48501240  0.86516346  1
  O2-  O144  1  0.25312986  0.25892331  0.11897199  1
  O2-  O145  1  0.23791040  0.25515958  0.63830701  1
  O2-  O146  1  0.23378005  0.78335675  0.13242767  1
  O2-  O147  1  0.23013571  0.77142681  0.63699072  1
  O2-  O148  1  0.72935422  0.23426498  0.11265242  1
  O2-  O149  1  0.72499217  0.23758431  0.63774832  1
  O2-  O150  1  0.73244368  0.73942278  0.11843082  1
  O2-  O151  1  0.71665229  0.73848431  0.63748905  1
  O2-  O152  1  0.25328291  0.22235514  0.36447724  1
  O2-  O153  1  0.26644948  0.23016565  0.87818586  1
  O2-  O154  1  0.27343275  0.74104835  0.36269765  1
  O2-  O155  1  0.28134924  0.74562379  0.86731341  1
  O2-  O156  1  0.75487795  0.28240581  0.36406465  1
  O2-  O157  1  0.75090863  0.27420510  0.87639260  1
  O2-  O158  1  0.77447845  0.76316824  0.36711317  1
  O2-  O159  1  0.77620853  0.75882510  0.88253138  1
  O2-  O160  1  -0.01906338  0.25697197  0.11040616  1
  O2-  O161  1  0.00400445  0.25607575  0.62169676  1
  O2-  O162  1  0.02045087  0.75015133  0.11368744  1
  O2-  O163  1  0.02624600  0.76202841  0.61788056  1
  O2-  O164  1  0.50745853  0.25049636  0.12716695  1
  O2-  O165  1  0.51518972  0.25015589  0.62704511  1
  O2-  O166  1  0.53302395  0.75769576  0.11663970  1
  O2-  O167  1  0.53242396  0.76452378  0.61370660  1
  O2-  O168  1  0.25332911  0.01562730  0.37463467  1
  O2-  O169  1  0.24981076  0.00795931  0.87691468  1
  O2-  O170  1  0.22499904  0.51960242  0.38611209  1
  O2-  O171  1  0.21436481  0.50169487  0.88291892  1
  O2-  O172  1  0.75576444  -0.01754765  0.38380386  1
  O2-  O173  1  0.75436971  -0.02082498  0.88248605  1
  O2-  O174  1  0.73308076  0.47468681  0.38452032  1
  O2-  O175  1  0.73541367  0.48804778  0.87632495  1
  O2-  O176  1  -0.00825264  0.24300605  0.37931992  1
  O2-  O177  1  -0.02741765  0.24411902  0.88884680  1
  O2-  O178  1  -0.02899521  0.74612189  0.38238091  1
  O2-  O179  1  -0.03213353  0.73949503  0.88336823  1
  O2-  O180  1  0.48335619  0.25499299  0.37685379  1
  O2-  O181  1  0.48855843  0.24982488  0.87644197  1
  O2-  O182  1  0.47288839  0.74100103  0.38506624  1
  O2-  O183  1  0.48703938  0.74197801  0.88325045  1
  O2-  O184  1  0.26182927  -0.00563500  0.12727076  1
  O2-  O185  1  0.25512246  -0.00693178  0.62849844  1
  O2-  O186  1  0.26589521  0.47954381  0.11124251  1
  O2-  O187  1  0.28260126  0.48171311  0.61641294  1
  O2-  O188  1  0.74360674  0.02878252  0.11354078  1
  O2-  O189  1  0.73116140  0.02167506  0.61684768  1
  O2-  O190  1  0.77098219  0.51778991  0.11210004  1
  O2-  O191  1  0.75835601  0.51899447  0.63420239  1
  O2-  O192  1  0.13757684  0.27550527  0.24747714  1
  O2-  O193  1  0.13806447  0.27326652  0.77481844  1
  O2-  O194  1  0.13592993  0.77633371  0.27051975  1
  O2-  O195  1  0.13515108  0.77094159  0.77918240  1
  O2-  O196  1  0.61560755  0.27516114  0.25581186  1
  O2-  O197  1  0.61769005  0.27176420  0.76309041  1
  O2-  O198  1  0.63485916  0.77979137  0.26155597  1
  O2-  O199  1  0.63803894  0.76343360  0.78832215  1
  O2-  O200  1  0.37754943  0.23029280  0.23884149  1
  O2-  O201  1  0.38233659  0.22419770  0.74035542  1
  O2-  O202  1  0.36717538  0.73349164  0.22147234  1
  O2-  O203  1  0.36819249  0.72652830  0.72736984  1
  O2-  O204  1  0.86131645  0.22028773  0.24636918  1
  O2-  O205  1  0.86000353  0.23042792  0.74177000  1
  O2-  O206  1  0.86694689  0.73050331  0.22541803  1
  O2-  O207  1  0.86199941  0.71862587  0.73548279  1
  O2-  O208  1  0.27693613  0.36243554  0.26118797  1
  O2-  O209  1  0.28591998  0.36032393  0.76397643  1
  O2-  O210  1  0.28220253  0.88430510  0.25855138  1
  O2-  O211  1  0.27796219  0.88180518  0.76030205  1
  O2-  O212  1  0.76072539  0.36224239  0.21227651  1
  O2-  O213  1  0.76075688  0.37681150  0.74241959  1
  O2-  O214  1  0.76917420  0.86949798  0.22663250  1
  O2-  O215  1  0.77481653  0.86432845  0.73634200  1
  O2-  O216  1  0.23785769  0.12479608  0.23008010  1
  O2-  O217  1  0.23722044  0.12297431  0.74886278  1
  O2-  O218  1  0.22948475  0.63300110  0.22457047  1
  O2-  O219  1  0.22424267  0.63037055  0.74215769  1
  O2-  O220  1  0.71180240  0.13999308  0.25625856  1
  O2-  O221  1  0.72319330  0.13564657  0.77987084  1
  O2-  O222  1  0.72257810  0.63461542  0.25960957  1
  O2-  O223  1  0.72760701  0.61799037  0.76726526  1
  O2-  O224  1  0.11378777  0.47130104  0.22213658  1
  O2-  O225  1  0.11359598  0.46547577  0.73285376  1
  O2-  O226  1  0.13917232  0.97971208  0.25279693  1
  O2-  O227  1  0.13793039  0.97803861  0.75058210  1
  O2-  O228  1  0.61257219  0.46824065  0.23703011  1
  O2-  O229  1  0.62584927  0.47617879  0.73490279  1
  O2-  O230  1  0.61114584  0.98536737  0.26088184  1
  O2-  O231  1  0.61264792  0.97284518  0.74410283  1
  O2-  O232  1  0.37391741  0.03125164  0.25685523  1
  O2-  O233  1  0.37457306  0.02786169  0.74741732  1
  O2-  O234  1  0.38444956  0.51576916  0.27902428  1
  O2-  O235  1  0.38628608  0.51643034  0.76681228  1
  O2-  O236  1  0.88464560  0.03912533  0.24502414  1
  O2-  O237  1  0.88562046  0.03881469  0.75232489  1
  O2-  O238  1  0.88555234  0.53154855  0.26584051  1
  O2-  O239  1  0.86620390  0.51460338  0.76964272  1
  O2-  O240  1  0.47546422  0.37044309  0.25295338  1
  O2-  O241  1  0.47905174  0.36848945  0.74530733  1
  O2-  O242  1  0.46749418  0.88666045  0.24812390  1
  O2-  O243  1  0.46753030  0.88479294  0.74244706  1
  O2-  O244  1  0.96155178  0.38391483  0.24650455  1
  O2-  O245  1  0.97035867  0.38230255  0.76709849  1
  O2-  O246  1  0.98323634  0.88724169  0.25579855  1
  O2-  O247  1  0.97324094  0.88611591  0.75212421  1
  O2-  O248  1  0.04031010  0.11907193  0.24609941  1
  O2-  O249  1  0.03730472  0.11902185  0.75039700  1
  O2-  O250  1  0.03155733  0.61401280  0.25349136  1
  O2-  O251  1  0.02117487  0.61294795  0.74788628  1
  O2-  O252  1  0.51425120  0.13328054  0.26112803  1
  O2-  O253  1  0.52230020  0.12838668  0.74914221  1
  O2-  O254  1  0.52783040  0.61474363  0.24891100  1
  O2-  O255  1  0.52581581  0.61286025  0.74771447  1
  O2-  O256  1  0.11736608  0.48084108  0.01609210  1
  O2-  O257  1  0.13291819  0.47682007  0.53166011  1
  O2-  O258  1  0.14181895  0.97694068  0.00830347  1
  O2-  O259  1  0.14047544  0.96762844  0.49800434  1
  O2-  O260  1  0.63584861  0.48221625  0.01881889  1
  O2-  O261  1  0.61947877  0.48202391  0.52153727  1
  O2-  O262  1  0.63317936  0.98495633  -0.00361885  1
  O2-  O263  1  0.61297101  0.98262725  0.49331728  1
  O2-  O264  1  0.36498292  0.04368292  -0.00058926  1
  O2-  O265  1  0.37981143  0.03243827  0.49842057  1
  O2-  O266  1  0.36188315  0.52080336  -0.03001732  1
  O2-  O267  1  0.38471181  0.52112078  0.48563323  1
  O2-  O268  1  0.86471701  0.03525918  -0.00267762  1
  O2-  O269  1  0.86843433  0.03333180  0.50706910  1
  O2-  O270  1  0.87574931  0.51033310  -0.02285216  1
  O2-  O271  1  0.86234204  0.52475233  0.48364449  1
  O2-  O272  1  0.46641921  0.36473857  0.00645893  1
  O2-  O273  1  0.47834657  0.37845697  0.49982827  1
  O2-  O274  1  0.48355074  0.86481814  -0.00635650  1
  O2-  O275  1  0.47628401  0.88042111  0.50123412  1
  O2-  O276  1  0.98368436  0.37882730  -0.00896483  1
  O2-  O277  1  0.96241694  0.36643364  0.50071972  1
  O2-  O278  1  0.97299149  0.86577978  -0.00329979  1
  O2-  O279  1  0.97445058  0.86979917  0.49423796  1
  O2-  O280  1  0.03085626  0.13471210  0.00313748  1
  O2-  O281  1  0.03560594  0.13498167  0.50557834  1
  O2-  O282  1  0.01280145  0.62160152  0.00066315  1
  O2-  O283  1  0.02338362  0.63111814  0.50333970  1
  O2-  O284  1  0.52395505  0.13834672  0.00237718  1
  O2-  O285  1  0.52118795  0.13127018  0.49421639  1
  O2-  O286  1  0.53549308  0.63183335  0.00168741  1
  O2-  O287  1  0.52169260  0.62347998  0.50687426  1
  O2-  O288  1  0.12358037  0.27524813  -0.00730347  1
  O2-  O289  1  0.11711103  0.28697044  0.49095399  1
  O2-  O290  1  0.11385812  0.76385656  -0.03288061  1
  O2-  O291  1  0.11666798  0.76712657  0.47058459  1
  O2-  O292  1  0.61866900  0.28155200  -0.00969169  1
  O2-  O293  1  0.61187372  0.28080792  0.49341347  1
  O2-  O294  1  0.63784589  0.76984258  -0.01647376  1
  O2-  O295  1  0.61428335  0.76843219  0.46736056  1
  O2-  O296  1  0.37372237  0.22771536  0.00762308  1
  O2-  O297  1  0.38652540  0.23927068  0.52329546  1
  O2-  O298  1  0.38605300  0.72135096  0.02743703  1
  O2-  O299  1  0.38646666  0.73280444  0.52785337  1
  O2-  O300  1  0.86131609  0.23242943  0.00302989  1
  O2-  O301  1  0.88162263  0.21846945  0.50435656  1
  O2-  O302  1  0.87196211  0.73212289  0.02352806  1
  O2-  O303  1  0.88165310  0.72912879  0.52947317  1
  O2-  O304  1  0.26162016  0.36693653  -0.01646148  1
  O2-  O305  1  0.27066914  0.38499545  0.47318151  1
  O2-  O306  1  0.29143233  0.88596804  -0.00782415  1
  O2-  O307  1  0.29211934  0.88842019  0.49737523  1
  O2-  O308  1  0.76656743  0.37708134  0.00939358  1
  O2-  O309  1  0.76307732  0.38656370  0.53303460  1
  O2-  O310  1  0.77194370  0.87643130  0.01952826  1
  O2-  O311  1  0.76100784  0.88696329  0.52311034  1
  O2-  O312  1  0.22267113  0.13194080  0.00563303  1
  O2-  O313  1  0.23566333  0.11326600  0.51782924  1
  O2-  O314  1  0.22302207  0.61553862  0.01503063  1
  O2-  O315  1  0.23942378  0.61736158  0.52235490  1
  O2-  O316  1  0.72586838  0.13414780  -0.02625318  1
  O2-  O317  1  0.71674276  0.11838947  0.48119911  1
  O2-  O318  1  0.73946364  0.62549955  -0.01604537  1
  O2-  O319  1  0.71773132  0.61313672  0.49438122  1
