# generated using pymatgen
data_Sr64Ca21Nb43O192
_symmetry_space_group_name_H-M   'P 1'
_cell_length_a   16.59692468
_cell_length_b   16.59557437
_cell_length_c   16.72913280
_cell_angle_alpha   90.00324606
_cell_angle_beta   90.06586637
_cell_angle_gamma   89.97789439
_symmetry_Int_Tables_number   1
_chemical_formula_structural   Sr64Ca21Nb43O192
_chemical_formula_sum   'Sr64 Ca21 Nb43 O192'
_cell_volume   4607.79362774
_cell_formula_units_Z   1
loop_
 _symmetry_equiv_pos_site_id
 _symmetry_equiv_pos_as_xyz
  1  'x, y, z'
loop_
 _atom_type_symbol
 _atom_type_oxidation_number
  Sr2+  2.0
  Ca2+  2.0
  Nb5+  5.0
  O2-  -2.0
loop_
 _atom_site_type_symbol
 _atom_site_label
 _atom_site_symmetry_multiplicity
 _atom_site_fract_x
 _atom_site_fract_y
 _atom_site_fract_z
 _atom_site_occupancy
  Sr2+  Sr0  1  0.13398041  0.11359815  0.12099415  1
  Sr2+  Sr1  1  0.12373080  0.12169468  0.63278098  1
  Sr2+  Sr2  1  0.12898513  0.61291153  0.12791067  1
  Sr2+  Sr3  1  0.13789159  0.61922029  0.62019997  1
  Sr2+  Sr4  1  0.62849718  0.10969042  0.13187539  1
  Sr2+  Sr5  1  0.63577422  0.11255702  0.62302131  1
  Sr2+  Sr6  1  0.62661134  0.62292837  0.11942835  1
  Sr2+  Sr7  1  0.62791202  0.61843191  0.62404610  1
  Sr2+  Sr8  1  0.38503418  0.36043845  0.12064958  1
  Sr2+  Sr9  1  0.38257485  0.36775857  0.62673572  1
  Sr2+  Sr10  1  0.38001945  0.86637830  0.12742503  1
  Sr2+  Sr11  1  0.38613428  0.86924916  0.61765088  1
  Sr2+  Sr12  1  0.88086954  0.36818851  0.13248307  1
  Sr2+  Sr13  1  0.87970036  0.36367620  0.62003371  1
  Sr2+  Sr14  1  0.88572018  0.86116568  0.12846233  1
  Sr2+  Sr15  1  0.88658760  0.87331864  0.62530665  1
  Sr2+  Sr16  1  0.11281503  0.38455394  0.36687047  1
  Sr2+  Sr17  1  0.12562663  0.37946733  0.87168548  1
  Sr2+  Sr18  1  0.11249359  0.88029474  0.38156886  1
  Sr2+  Sr19  1  0.11108433  0.87840894  0.87745722  1
  Sr2+  Sr20  1  0.60601643  0.37692644  0.37176072  1
  Sr2+  Sr21  1  0.61033512  0.38191874  0.87873382  1
  Sr2+  Sr22  1  0.62413325  0.88074562  0.36730890  1
  Sr2+  Sr23  1  0.61922038  0.88438301  0.87140262  1
  Sr2+  Sr24  1  0.37943994  0.12939202  0.36035562  1
  Sr2+  Sr25  1  0.36439845  0.13894507  0.88224716  1
  Sr2+  Sr26  1  0.36236668  0.62348851  0.37734108  1
  Sr2+  Sr27  1  0.36694967  0.62887185  0.87362811  1
  Sr2+  Sr28  1  0.85647549  0.13098941  0.37530812  1
  Sr2+  Sr29  1  0.86954217  0.12954065  0.87595652  1
  Sr2+  Sr30  1  0.87252045  0.63709526  0.36624773  1
  Sr2+  Sr31  1  0.87009148  0.63595003  0.86775301  1
  Sr2+  Sr32  1  0.12909968  0.13955801  0.36779028  1
  Sr2+  Sr33  1  0.10921195  0.13900028  0.87775458  1
  Sr2+  Sr34  1  0.11715150  0.63357601  0.38229014  1
  Sr2+  Sr35  1  0.11933133  0.63463824  0.87508650  1
  Sr2+  Sr36  1  0.61716134  0.14091610  0.37676219  1
  Sr2+  Sr37  1  0.61916317  0.13919258  0.86935830  1
  Sr2+  Sr38  1  0.61610613  0.63624185  0.36784628  1
  Sr2+  Sr39  1  0.61439475  0.64020822  0.87051174  1
  Sr2+  Sr40  1  0.37001836  0.37078347  0.37574458  1
  Sr2+  Sr41  1  0.36915947  0.38232704  0.88168160  1
  Sr2+  Sr42  1  0.36522841  0.88936735  0.37029551  1
  Sr2+  Sr43  1  0.37070047  0.88349923  0.87201550  1
  Sr2+  Sr44  1  0.86602882  0.38188119  0.36796978  1
  Sr2+  Sr45  1  0.86931022  0.38788376  0.86991270  1
  Sr2+  Sr46  1  0.87220492  0.88070526  0.36683326  1
  Sr2+  Sr47  1  0.87125181  0.88556601  0.88024193  1
  Sr2+  Sr48  1  0.12338747  0.36791908  0.12472386  1
  Sr2+  Sr49  1  0.13262726  0.36699262  0.62488064  1
  Sr2+  Sr50  1  0.13846628  0.87476426  0.12122534  1
  Sr2+  Sr51  1  0.13777266  0.86860406  0.61891996  1
  Sr2+  Sr52  1  0.63863332  0.37214042  0.12065655  1
  Sr2+  Sr53  1  0.63760737  0.36975047  0.62411362  1
  Sr2+  Sr54  1  0.63704350  0.85812877  0.13000217  1
  Sr2+  Sr55  1  0.63211259  0.86994351  0.62737663  1
  Sr2+  Sr56  1  0.38400798  0.11016851  0.12748545  1
  Sr2+  Sr57  1  0.39269979  0.11664384  0.62812765  1
  Sr2+  Sr58  1  0.38567471  0.62630597  0.12271817  1
  Sr2+  Sr59  1  0.38713941  0.61986623  0.62182707  1
  Sr2+  Sr60  1  0.89363831  0.12111536  0.12685590  1
  Sr2+  Sr61  1  0.88256026  0.12045163  0.62377367  1
  Sr2+  Sr62  1  0.88036717  0.61795237  0.13749672  1
  Sr2+  Sr63  1  0.87812871  0.61093274  0.62555568  1
  Ca2+  Ca64  1  0.50099492  -0.00043019  0.49734315  1
  Ca2+  Ca65  1  0.00150956  0.00350141  0.49937371  1
  Ca2+  Ca66  1  0.50310486  -0.00129084  -0.00048661  1
  Ca2+  Ca67  1  -0.00264487  0.50153816  -0.00024729  1
  Ca2+  Ca68  1  -0.00178845  0.49975492  0.50057508  1
  Ca2+  Ca69  1  0.74825821  0.74683067  0.50001369  1
  Ca2+  Ca70  1  0.75344494  0.74842740  -0.00182370  1
  Ca2+  Ca71  1  0.75030389  0.24756664  -0.00355808  1
  Ca2+  Ca72  1  0.24946206  0.24804943  0.50089985  1
  Ca2+  Ca73  1  0.24646091  0.25249480  0.00200533  1
  Ca2+  Ca74  1  0.49900431  0.75056052  0.75034128  1
  Ca2+  Ca75  1  0.49789384  0.74816400  0.25338403  1
  Ca2+  Ca76  1  0.00133121  0.74980017  0.74626040  1
  Ca2+  Ca77  1  0.25118561  0.00046665  0.75288219  1
  Ca2+  Ca78  1  0.75499535  0.00064530  0.24846171  1
  Ca2+  Ca79  1  0.74547875  0.49931427  0.25240184  1
  Ca2+  Ca80  1  -0.00008128  0.24656214  0.25187094  1
  Ca2+  Ca81  1  0.50039118  0.25185968  0.75103206  1
  Ca2+  Ca82  1  0.00796150  0.75203902  0.24856414  1
  Ca2+  Ca83  1  0.50026931  0.25228482  0.24601072  1
  Ca2+  Ca84  1  0.25231284  0.49955373  0.24867416  1
  Nb5+  Nb85  1  0.49947977  0.50259266  -0.00557358  1
  Nb5+  Nb86  1  -0.00051085  -0.00006443  0.00088006  1
  Nb5+  Nb87  1  0.50049352  0.50094278  0.49499973  1
  Nb5+  Nb88  1  0.74899026  0.24931504  0.50027575  1
  Nb5+  Nb89  1  0.25500935  0.75232842  0.49146802  1
  Nb5+  Nb90  1  0.25207746  0.75185512  -0.00830714  1
  Nb5+  Nb91  1  0.75064480  0.00552177  0.75169709  1
  Nb5+  Nb92  1  0.25711134  0.50139708  0.74947442  1
  Nb5+  Nb93  1  0.74966833  0.50438789  0.75400522  1
  Nb5+  Nb94  1  0.24761824  -0.00186405  0.25043071  1
  Nb5+  Nb95  1  -0.00236361  0.25356708  0.74924182  1
  Nb5+  Nb96  1  0.00373436  0.00520843  0.25589738  1
  Nb5+  Nb97  1  0.00042515  -0.00220905  0.75052075  1
  Nb5+  Nb98  1  0.00045303  0.49996694  0.25125960  1
  Nb5+  Nb99  1  0.00930680  0.50047030  0.74577375  1
  Nb5+  Nb100  1  0.50609043  -0.00404795  0.24766327  1
  Nb5+  Nb101  1  0.49783098  0.00434629  0.75409392  1
  Nb5+  Nb102  1  0.49674079  0.49920136  0.23794678  1
  Nb5+  Nb103  1  0.50420062  0.49699300  0.74535275  1
  Nb5+  Nb104  1  0.25221484  0.25297726  0.24660616  1
  Nb5+  Nb105  1  0.24918315  0.24682128  0.74988592  1
  Nb5+  Nb106  1  0.24642227  0.74631950  0.24127337  1
  Nb5+  Nb107  1  0.25322732  0.75176101  0.74213438  1
  Nb5+  Nb108  1  0.74549169  0.24540568  0.24305092  1
  Nb5+  Nb109  1  0.75172847  0.25767642  0.75029496  1
  Nb5+  Nb110  1  0.75197783  0.74895566  0.25091164  1
  Nb5+  Nb111  1  0.75320306  0.75923566  0.74780692  1
  Nb5+  Nb112  1  0.00036682  0.24957472  0.49549419  1
  Nb5+  Nb113  1  -0.00722539  0.25699336  0.99847879  1
  Nb5+  Nb114  1  -0.00625299  0.74835420  0.50258592  1
  Nb5+  Nb115  1  0.00151162  0.74547376  1.00338061  1
  Nb5+  Nb116  1  0.49780898  0.24879559  0.50769921  1
  Nb5+  Nb117  1  0.50348913  0.24399537  1.00394230  1
  Nb5+  Nb118  1  0.49952013  0.75311362  0.49513948  1
  Nb5+  Nb119  1  0.50025255  0.75529289  0.99669928  1
  Nb5+  Nb120  1  0.24991331  0.00151988  -0.00584783  1
  Nb5+  Nb121  1  0.24862192  0.00642303  0.50298137  1
  Nb5+  Nb122  1  0.25157834  0.50201115  0.00367792  1
  Nb5+  Nb123  1  0.25177823  0.49506611  0.50236577  1
  Nb5+  Nb124  1  0.75055489  0.00001543  0.00506114  1
  Nb5+  Nb125  1  0.75334267  -0.00783490  0.50160503  1
  Nb5+  Nb126  1  0.75296050  0.50569062  0.00114950  1
  Nb5+  Nb127  1  0.74479825  0.49757310  0.49661639  1
  O2-  O128  1  -0.01790757  -0.01477241  0.11491035  1
  O2-  O129  1  -0.02248627  -0.00603561  0.63634064  1
  O2-  O130  1  -0.02601359  0.48460797  0.13268149  1
  O2-  O131  1  -0.02999470  0.48280752  0.63635539  1
  O2-  O132  1  0.47447224  -0.01654102  0.13321114  1
  O2-  O133  1  0.47958678  -0.01300315  0.63483738  1
  O2-  O134  1  0.47613144  0.48960474  0.12297094  1
  O2-  O135  1  0.48340174  0.48424747  0.63252360  1
  O2-  O136  1  0.03395568  0.02102269  0.36436427  1
  O2-  O137  1  0.01712093  0.01664731  0.87217825  1
  O2-  O138  1  0.02827162  0.51303091  0.36886328  1
  O2-  O139  1  0.01162728  0.51355825  0.86189251  1
  O2-  O140  1  0.51912283  0.02191332  0.36474417  1
  O2-  O141  1  0.53564824  0.01487925  0.86651736  1
  O2-  O142  1  0.51606353  0.51484057  0.38340972  1
  O2-  O143  1  0.51447642  0.51718543  0.87872396  1
  O2-  O144  1  0.21481737  0.24195180  0.13370037  1
  O2-  O145  1  0.21598570  0.24217685  0.63704530  1
  O2-  O146  1  0.22619914  0.73515823  0.12609098  1
  O2-  O147  1  0.23292910  0.73950355  0.62808708  1
  O2-  O148  1  0.72109818  0.23041083  0.13232396  1
  O2-  O149  1  0.73317835  0.23532451  0.63047412  1
  O2-  O150  1  0.72835298  0.73082024  0.13257201  1
  O2-  O151  1  0.71938898  0.73575090  0.63588709  1
  O2-  O152  1  0.27839968  0.24562353  0.36613378  1
  O2-  O153  1  0.26001257  0.27813252  0.86394577  1
  O2-  O154  1  0.27554463  0.76042801  0.37855689  1
  O2-  O155  1  0.27509737  0.76200814  0.87856089  1
  O2-  O156  1  0.76953359  0.26335319  0.38771162  1
  O2-  O157  1  0.78214524  0.26023804  0.86156998  1
  O2-  O158  1  0.77611380  0.76981197  0.36854402  1
  O2-  O159  1  0.78289011  0.75970555  0.86367788  1
  O2-  O160  1  0.00467089  0.27186915  0.11342913  1
  O2-  O161  1  0.01032991  0.27344413  0.63209631  1
  O2-  O162  1  0.02531142  0.78026554  0.11280779  1
  O2-  O163  1  0.01610017  0.78622870  0.61430965  1
  O2-  O164  1  0.51686276  0.28498592  0.11440518  1
  O2-  O165  1  0.51499317  0.28625539  0.61870833  1
  O2-  O166  1  0.50995170  0.76286721  0.11481858  1
  O2-  O167  1  0.51132126  0.76631003  0.61403277  1
  O2-  O168  1  0.23201015  -0.01867051  0.36582759  1
  O2-  O169  1  0.23747924  -0.03691143  0.88463319  1
  O2-  O170  1  0.24684071  0.47836087  0.38850765  1
  O2-  O171  1  0.24406984  0.48440208  0.86925800  1
  O2-  O172  1  0.74225451  -0.02323655  0.38745713  1
  O2-  O173  1  0.74324190  -0.02750252  0.86556924  1
  O2-  O174  1  0.72946445  0.46621591  0.38866978  1
  O2-  O175  1  0.73418443  0.47091866  0.86787210  1
  O2-  O176  1  -0.01449790  0.21533293  0.38750717  1
  O2-  O177  1  -0.01764143  0.23457284  0.86969904  1
  O2-  O178  1  -0.00260471  0.72566387  0.38507923  1
  O2-  O179  1  -0.00835533  0.73192818  0.88451044  1
  O2-  O180  1  0.48654172  0.24232014  0.38922364  1
  O2-  O181  1  0.48224395  0.23102452  0.88563547  1
  O2-  O182  1  0.47897258  0.71171506  0.38742441  1
  O2-  O183  1  0.48026396  0.72243323  0.88529639  1
  O2-  O184  1  0.25877745  0.01107597  0.11747709  1
  O2-  O185  1  0.27144915  0.01531325  0.61528725  1
  O2-  O186  1  0.26233407  0.53326834  0.11311419  1
  O2-  O187  1  0.26473939  0.52374948  0.63056566  1
  O2-  O188  1  0.76896684  0.03381440  0.11290644  1
  O2-  O189  1  0.76663078  0.01826664  0.63161984  1
  O2-  O190  1  0.75484506  0.52933559  0.11406393  1
  O2-  O191  1  0.74957325  0.51235184  0.63318054  1
  O2-  O192  1  0.13565301  0.26479668  0.27969726  1
  O2-  O193  1  0.11639004  0.26921129  0.76734127  1
  O2-  O194  1  0.14032746  0.78347928  0.27156389  1
  O2-  O195  1  0.14016168  0.76427601  0.77377554  1
  O2-  O196  1  0.63326055  0.26772025  0.27803363  1
  O2-  O197  1  0.63823079  0.26951670  0.77168990  1
  O2-  O198  1  0.63330668  0.77142763  0.26963137  1
  O2-  O199  1  0.63683918  0.76668254  0.77758380  1
  O2-  O200  1  0.36507731  0.22046851  0.22430146  1
  O2-  O201  1  0.36219879  0.23210329  0.72902281  1
  O2-  O202  1  0.36351985  0.73785549  0.22838923  1
  O2-  O203  1  0.36348487  0.71244481  0.74140066  1
  O2-  O204  1  0.86346427  0.22322062  0.23990055  1
  O2-  O205  1  0.87698952  0.23669062  0.72824674  1
  O2-  O206  1  0.87191073  0.73139507  0.23235938  1
  O2-  O207  1  0.86494762  0.72057699  0.72573834  1
  O2-  O208  1  0.27780941  0.36522871  0.23625414  1
  O2-  O209  1  0.26117840  0.38246274  0.72940433  1
  O2-  O210  1  0.26937122  0.87851484  0.23089127  1
  O2-  O211  1  0.28120421  0.86360202  0.73290541  1
  O2-  O212  1  0.77108697  0.36292503  0.23443871  1
  O2-  O213  1  0.76827271  0.37257325  0.73089236  1
  O2-  O214  1  0.76992595  0.86811641  0.22568622  1
  O2-  O215  1  0.77159504  0.87337501  0.72848629  1
  O2-  O216  1  0.22983176  0.11629425  0.25515203  1
  O2-  O217  1  0.22654580  0.13598077  0.77456123  1
  O2-  O218  1  0.22666523  0.63641687  0.27114034  1
  O2-  O219  1  0.22553664  0.61684497  0.76415301  1
  O2-  O220  1  0.72733717  0.13164077  0.27857284  1
  O2-  O221  1  0.73538143  0.12200093  0.76504730  1
  O2-  O222  1  0.73697611  0.63259326  0.27854451  1
  O2-  O223  1  0.72853813  0.61617542  0.76858469  1
  O2-  O224  1  0.11894699  0.47315995  0.22749362  1
  O2-  O225  1  0.12369142  0.47662898  0.73382411  1
  O2-  O226  1  0.12859780  0.98273518  0.22531763  1
  O2-  O227  1  0.11552887  0.98573557  0.73069343  1
  O2-  O228  1  0.61232502  0.46803871  0.23623149  1
  O2-  O229  1  0.62110787  0.47573130  0.74098819  1
  O2-  O230  1  0.61870298  0.97596959  0.22747781  1
  O2-  O231  1  0.63529772  0.98007541  0.73184080  1
  O2-  O232  1  0.36652450  0.01552552  0.26112621  1
  O2-  O233  1  0.38632420  0.03010285  0.77633577  1
  O2-  O234  1  0.38530184  0.53303764  0.26331723  1
  O2-  O235  1  0.37313270  0.51676293  0.76228900  1
  O2-  O236  1  0.88931388  0.02584933  0.26878821  1
  O2-  O237  1  0.87294933  0.01755792  0.76669729  1
  O2-  O238  1  0.88259246  0.52038270  0.27266998  1
  O2-  O239  1  0.86614159  0.51537041  0.76630890  1
  O2-  O240  1  0.47155691  0.38689621  0.27091882  1
  O2-  O241  1  0.47888804  0.38659651  0.77844829  1
  O2-  O242  1  0.47975569  0.88353229  0.27557496  1
  O2-  O243  1  0.48591569  0.88557187  0.77018845  1
  O2-  O244  1  0.98121886  0.38009162  0.27182261  1
  O2-  O245  1  0.98189547  0.37386475  0.76769091  1
  O2-  O246  1  0.98428285  0.88863651  0.26135958  1
  O2-  O247  1  0.98053446  0.88565102  0.77072540  1
  O2-  O248  1  0.02283486  0.11521746  0.21574044  1
  O2-  O249  1  0.01319394  0.13098470  0.73928960  1
  O2-  O250  1  0.02211052  0.61668811  0.23045266  1
  O2-  O251  1  0.02124524  0.61388488  0.72621368  1
  O2-  O252  1  0.51197524  0.11614792  0.22952195  1
  O2-  O253  1  0.52770941  0.11845909  0.72889670  1
  O2-  O254  1  0.53072772  0.61349089  0.23545256  1
  O2-  O255  1  0.51990155  0.61297291  0.73820973  1
  O2-  O256  1  0.13643790  0.48123160  0.00660665  1
  O2-  O257  1  0.13799513  0.48756156  0.52471822  1
  O2-  O258  1  0.12376257  0.98133575  0.01056124  1
  O2-  O259  1  0.13695912  0.96658168  0.51091427  1
  O2-  O260  1  0.61575736  0.48430971  0.01507437  1
  O2-  O261  1  0.61501394  0.47702497  0.52136741  1
  O2-  O262  1  0.63908764  0.97268757  0.02139466  1
  O2-  O263  1  0.63629812  0.98587771  0.52441190  1
  O2-  O264  1  0.36494449  0.01751944  -0.02018118  1
  O2-  O265  1  0.36128045  0.01727214  0.46870227  1
  O2-  O266  1  0.37536099  0.52028069  -0.01894882  1
  O2-  O267  1  0.37735867  0.52114369  0.49718372  1
  O2-  O268  1  0.88323827  0.01642580  -0.02150508  1
  O2-  O269  1  0.86543945  0.02863315  0.49047358  1
  O2-  O270  1  0.86276771  0.52573481  -0.02405486  1
  O2-  O271  1  0.85765878  0.51965430  0.48951217  1
  O2-  O272  1  0.47963223  0.38519980  -0.01612434  1
  O2-  O273  1  0.47591767  0.38295568  0.48664132  1
  O2-  O274  1  0.47364156  0.86592830  -0.02077314  1
  O2-  O275  1  0.47094909  0.86365550  0.47829054  1
  O2-  O276  1  0.96620278  0.36718835  -0.01927929  1
  O2-  O277  1  0.96483400  0.36322032  0.48571440  1
  O2-  O278  1  0.99094428  0.87893203  -0.02288143  1
  O2-  O279  1  0.98062301  0.86650020  0.47185805  1
  O2-  O280  1  0.02163489  0.11854482  0.01041701  1
  O2-  O281  1  0.01461005  0.13893813  0.53516155  1
  O2-  O282  1  0.03183658  0.63475261  0.01770798  1
  O2-  O283  1  0.02792569  0.63540617  0.52383040  1
  O2-  O284  1  0.52354052  0.13288531  0.02734749  1
  O2-  O285  1  0.52022553  0.13665425  0.52454855  1
  O2-  O286  1  0.50898599  0.62148120  0.01875904  1
  O2-  O287  1  0.51289220  0.61765202  0.52525992  1
  O2-  O288  1  0.10985261  0.26754556  -0.02309732  1
  O2-  O289  1  0.11211196  0.27987992  0.48472035  1
  O2-  O290  1  0.13423083  0.76674253  -0.02128328  1
  O2-  O291  1  0.13754011  0.76716622  0.48766642  1
  O2-  O292  1  0.61647549  0.27033231  -0.02518609  1
  O2-  O293  1  0.62725146  0.27013326  0.48959595  1
  O2-  O294  1  0.61464374  0.76755565  -0.01999140  1
  O2-  O295  1  0.61270247  0.76742103  0.47338651  1
  O2-  O296  1  0.38276404  0.23427811  0.01924231  1
  O2-  O297  1  0.38373966  0.23475759  0.52958231  1
  O2-  O298  1  0.36817613  0.73311602  0.01937457  1
  O2-  O299  1  0.37067322  0.73062705  0.52276298  1
  O2-  O300  1  0.88316801  0.21514712  0.01015267  1
  O2-  O301  1  0.86676320  0.23340260  0.52230617  1
  O2-  O302  1  0.88942045  0.73046156  0.02598953  1
  O2-  O303  1  0.88307435  0.72295365  0.52000328  1
  O2-  O304  1  0.27535321  0.38901183  0.01698885  1
  O2-  O305  1  0.27370979  0.38436817  0.52606943  1
  O2-  O306  1  0.26564056  0.86802646  0.02037903  1
  O2-  O307  1  0.27361326  0.86923887  0.51335043  1
  O2-  O308  1  0.76321174  0.38713486  0.01959623  1
  O2-  O309  1  0.75861137  0.37272111  0.52740665  1
  O2-  O310  1  0.78411296  0.88582796  0.01152569  1
  O2-  O311  1  0.77318039  0.88220775  0.52732781  1
  O2-  O312  1  0.22800543  0.11413328  -0.02398935  1
  O2-  O313  1  0.21429100  0.11489928  0.49004152  1
  O2-  O314  1  0.23618456  0.62866724  -0.02276927  1
  O2-  O315  1  0.23891103  0.62723859  0.48709154  1
  O2-  O316  1  0.73419939  0.10899388  -0.03764713  1
  O2-  O317  1  0.72813776  0.13160184  0.49050771  1
  O2-  O318  1  0.71903384  0.61400974  -0.03026946  1
  O2-  O319  1  0.71348805  0.60889372  0.49022580  1
