# generated using pymatgen
data_Sr64Ca21Nb43O192
_symmetry_space_group_name_H-M   'P 1'
_cell_length_a   16.55764533
_cell_length_b   16.57166730
_cell_length_c   16.69455707
_cell_angle_alpha   89.99129643
_cell_angle_beta   90.01431836
_cell_angle_gamma   90.09832539
_symmetry_Int_Tables_number   1
_chemical_formula_structural   Sr64Ca21Nb43O192
_chemical_formula_sum   'Sr64 Ca21 Nb43 O192'
_cell_volume   4580.77567128
_cell_formula_units_Z   1
loop_
 _symmetry_equiv_pos_site_id
 _symmetry_equiv_pos_as_xyz
  1  'x, y, z'
loop_
 _atom_type_symbol
 _atom_type_oxidation_number
  Sr2+  2.0
  Ca2+  2.0
  Nb5+  5.0
  O2-  -2.0
loop_
 _atom_site_type_symbol
 _atom_site_label
 _atom_site_symmetry_multiplicity
 _atom_site_fract_x
 _atom_site_fract_y
 _atom_site_fract_z
 _atom_site_occupancy
  Sr2+  Sr0  1  0.13101175  0.11178796  0.12212941  1
  Sr2+  Sr1  1  0.12656716  0.10788133  0.62371915  1
  Sr2+  Sr2  1  0.13488227  0.62058232  0.12248949  1
  Sr2+  Sr3  1  0.13432089  0.61510522  0.63001859  1
  Sr2+  Sr4  1  0.63107837  0.10901872  0.12369500  1
  Sr2+  Sr5  1  0.63709265  0.11347398  0.62856518  1
  Sr2+  Sr6  1  0.63067985  0.62060041  0.11611312  1
  Sr2+  Sr7  1  0.63268238  0.62053347  0.62897649  1
  Sr2+  Sr8  1  0.37844449  0.36766144  0.12779713  1
  Sr2+  Sr9  1  0.37733651  0.36768927  0.62449750  1
  Sr2+  Sr10  1  0.38975829  0.86501710  0.13318945  1
  Sr2+  Sr11  1  0.38416055  0.85988588  0.62974342  1
  Sr2+  Sr12  1  0.88421714  0.36526914  0.12874355  1
  Sr2+  Sr13  1  0.88006891  0.36124601  0.62922184  1
  Sr2+  Sr14  1  0.87949329  0.86556170  0.12921454  1
  Sr2+  Sr15  1  0.87991964  0.87202043  0.61448797  1
  Sr2+  Sr16  1  0.12058146  0.37932768  0.37499079  1
  Sr2+  Sr17  1  0.11832816  0.37775001  0.86947436  1
  Sr2+  Sr18  1  0.11142897  0.88569229  0.37800185  1
  Sr2+  Sr19  1  0.11901745  0.88537559  0.88273721  1
  Sr2+  Sr20  1  0.61349056  0.38439545  0.38135901  1
  Sr2+  Sr21  1  0.61948600  0.38543833  0.87564653  1
  Sr2+  Sr22  1  0.61693482  0.88263057  0.37926094  1
  Sr2+  Sr23  1  0.61296290  0.87480265  0.86722675  1
  Sr2+  Sr24  1  0.36300340  0.13486259  0.37584349  1
  Sr2+  Sr25  1  0.35703193  0.12965875  0.87365200  1
  Sr2+  Sr26  1  0.36743469  0.62686129  0.37287351  1
  Sr2+  Sr27  1  0.36583443  0.63802225  0.87283777  1
  Sr2+  Sr28  1  0.87176286  0.12594523  0.37229901  1
  Sr2+  Sr29  1  0.86043189  0.13582058  0.87787204  1
  Sr2+  Sr30  1  0.86297538  0.63539098  0.37318323  1
  Sr2+  Sr31  1  0.86670748  0.63147052  0.88048997  1
  Sr2+  Sr32  1  0.11910037  0.12567907  0.37869964  1
  Sr2+  Sr33  1  0.11859400  0.12447221  0.87689297  1
  Sr2+  Sr34  1  0.12411421  0.63942692  0.37165419  1
  Sr2+  Sr35  1  0.11504332  0.63573667  0.87792081  1
  Sr2+  Sr36  1  0.61963810  0.12753837  0.36441561  1
  Sr2+  Sr37  1  0.62109234  0.12738606  0.87568668  1
  Sr2+  Sr38  1  0.62067000  0.62683577  0.38568593  1
  Sr2+  Sr39  1  0.61829586  0.63518509  0.87477573  1
  Sr2+  Sr40  1  0.36933242  0.38247914  0.37697732  1
  Sr2+  Sr41  1  0.36890292  0.37442164  0.87537462  1
  Sr2+  Sr42  1  0.36780972  0.89010976  0.37466697  1
  Sr2+  Sr43  1  0.36962371  0.89082090  0.86528545  1
  Sr2+  Sr44  1  0.87374994  0.38373171  0.36990192  1
  Sr2+  Sr45  1  0.87539283  0.38384728  0.87210590  1
  Sr2+  Sr46  1  0.86312501  0.88392734  0.37392786  1
  Sr2+  Sr47  1  0.86632258  0.89423765  0.87801584  1
  Sr2+  Sr48  1  0.13342061  0.37173170  0.12659556  1
  Sr2+  Sr49  1  0.13124309  0.36811751  0.62795672  1
  Sr2+  Sr50  1  0.13207554  0.86306444  0.12340359  1
  Sr2+  Sr51  1  0.13511359  0.86739878  0.62468485  1
  Sr2+  Sr52  1  0.63768683  0.36732014  0.12302972  1
  Sr2+  Sr53  1  0.63805049  0.37181697  0.62434363  1
  Sr2+  Sr54  1  0.63352514  0.87354045  0.13396677  1
  Sr2+  Sr55  1  0.63737660  0.86361851  0.62374949  1
  Sr2+  Sr56  1  0.38937716  0.11872058  0.11979509  1
  Sr2+  Sr57  1  0.38618490  0.11900535  0.61872494  1
  Sr2+  Sr58  1  0.38361360  0.61587337  0.12629195  1
  Sr2+  Sr59  1  0.38271625  0.61995847  0.63319480  1
  Sr2+  Sr60  1  0.87308209  0.11893260  0.12635781  1
  Sr2+  Sr61  1  0.87454745  0.12092256  0.64102790  1
  Sr2+  Sr62  1  0.89094276  0.62081245  0.12567130  1
  Sr2+  Sr63  1  0.88287994  0.62309932  0.61522483  1
  Ca2+  Ca64  1  0.49988628  -0.00059136  0.50152194  1
  Ca2+  Ca65  1  0.50011011  -0.00212381  -0.00241333  1
  Ca2+  Ca66  1  -0.00323579  0.00073260  0.49995485  1
  Ca2+  Ca67  1  -0.00226224  0.00346546  0.00037451  1
  Ca2+  Ca68  1  0.00302270  0.50184680  0.49873552  1
  Ca2+  Ca69  1  0.74936666  0.75144046  -0.00035132  1
  Ca2+  Ca70  1  0.25365627  0.74759015  0.50142756  1
  Ca2+  Ca71  1  0.75334047  0.24788740  0.49826320  1
  Ca2+  Ca72  1  0.74982919  0.25157576  0.00168142  1
  Ca2+  Ca73  1  0.25337742  0.74990877  0.00099934  1
  Ca2+  Ca74  1  0.50175100  0.74643968  0.25291143  1
  Ca2+  Ca75  1  0.49950440  0.25199507  0.24968691  1
  Ca2+  Ca76  1  0.74928070  -0.00331609  0.74895622  1
  Ca2+  Ca77  1  0.00106680  0.74767767  0.25258955  1
  Ca2+  Ca78  1  -0.00279665  0.74971591  0.74926489  1
  Ca2+  Ca79  1  0.49631769  0.25260972  0.74989494  1
  Ca2+  Ca80  1  0.24920161  0.00192743  0.74749472  1
  Ca2+  Ca81  1  0.75186603  0.50195466  0.75126529  1
  Ca2+  Ca82  1  0.24713881  0.00399295  0.24998265  1
  Ca2+  Ca83  1  0.74839573  0.50054092  0.24858591  1
  Ca2+  Ca84  1  0.25058965  0.50049387  0.75474308  1
  Nb5+  Nb85  1  0.49786397  0.49863096  0.50896271  1
  Nb5+  Nb86  1  0.00951096  0.49734403  0.00196647  1
  Nb5+  Nb87  1  0.50416351  0.49708165  0.00571055  1
  Nb5+  Nb88  1  0.24793664  0.25151292  -0.00333040  1
  Nb5+  Nb89  1  0.75155039  0.74909359  0.49876173  1
  Nb5+  Nb90  1  0.24940846  0.25173708  0.49344141  1
  Nb5+  Nb91  1  0.00132510  0.24855156  0.75659454  1
  Nb5+  Nb92  1  0.50127468  0.74867710  0.74861261  1
  Nb5+  Nb93  1  0.24975232  0.50092306  0.25072762  1
  Nb5+  Nb94  1  0.75032589  -0.00055904  0.24961236  1
  Nb5+  Nb95  1  0.00209401  0.24737766  0.25415366  1
  Nb5+  Nb96  1  -0.00146665  -0.00558908  0.24726197  1
  Nb5+  Nb97  1  -0.00468612  -0.00659615  0.75025420  1
  Nb5+  Nb98  1  0.00385621  0.50114877  0.25134067  1
  Nb5+  Nb99  1  -0.00091682  0.50104871  0.74549294  1
  Nb5+  Nb100  1  0.49391195  0.00302635  0.25356263  1
  Nb5+  Nb101  1  0.50221949  0.00566850  0.74611244  1
  Nb5+  Nb102  1  0.50253108  0.49746720  0.25388967  1
  Nb5+  Nb103  1  0.49862619  0.50077358  0.75869780  1
  Nb5+  Nb104  1  0.24720959  0.24913925  0.24275321  1
  Nb5+  Nb105  1  0.24858612  0.24623065  0.73846073  1
  Nb5+  Nb106  1  0.25511548  0.75758561  0.25100991  1
  Nb5+  Nb107  1  0.24328835  0.75452040  0.75467130  1
  Nb5+  Nb108  1  0.74882027  0.25236596  0.25426960  1
  Nb5+  Nb109  1  0.74359882  0.25427214  0.75348670  1
  Nb5+  Nb110  1  0.74337202  0.74536328  0.24949765  1
  Nb5+  Nb111  1  0.75644011  0.74808813  0.75105489  1
  Nb5+  Nb112  1  0.00004628  0.24904853  0.50796695  1
  Nb5+  Nb113  1  0.00412844  0.25129955  1.00756911  1
  Nb5+  Nb114  1  0.00620981  0.75095147  0.49833843  1
  Nb5+  Nb115  1  -0.00374851  0.75538057  0.99735146  1
  Nb5+  Nb116  1  0.50563032  0.25035566  0.50262288  1
  Nb5+  Nb117  1  0.50247823  0.25110666  0.99787826  1
  Nb5+  Nb118  1  0.49806759  0.74720132  0.49842361  1
  Nb5+  Nb119  1  0.49838711  0.75280399  0.99916478  1
  Nb5+  Nb120  1  0.25441072  -0.00563125  0.00725512  1
  Nb5+  Nb121  1  0.25202218  -0.00445287  0.50315830  1
  Nb5+  Nb122  1  0.25531623  0.49768477  -0.00078196  1
  Nb5+  Nb123  1  0.24962314  0.49974612  0.50290955  1
  Nb5+  Nb124  1  0.74582677  -0.00253981  -0.00365219  1
  Nb5+  Nb125  1  0.74654123  0.00456888  0.49765653  1
  Nb5+  Nb126  1  0.76105016  0.50023974  0.00134077  1
  Nb5+  Nb127  1  0.75692242  0.49895482  0.49875761  1
  O2-  O128  1  -0.03313367  -0.00129480  0.13349827  1
  O2-  O129  1  -0.03405709  0.00040620  0.63354365  1
  O2-  O130  1  -0.01258127  0.47831359  0.12331096  1
  O2-  O131  1  -0.03067907  0.48627335  0.63517693  1
  O2-  O132  1  0.48094310  -0.01537722  0.13520058  1
  O2-  O133  1  0.46553490  -0.01436946  0.63403626  1
  O2-  O134  1  0.47963120  0.48479593  0.11819508  1
  O2-  O135  1  0.47489852  0.48854145  0.62091482  1
  O2-  O136  1  0.01538453  0.01977911  0.36172956  1
  O2-  O137  1  0.02762342  0.00793998  0.86531508  1
  O2-  O138  1  0.03339568  0.50937069  0.36272674  1
  O2-  O139  1  0.02544363  0.50443573  0.88447134  1
  O2-  O140  1  0.52787731  0.01195803  0.36733244  1
  O2-  O141  1  0.53288868  0.00341295  0.86332181  1
  O2-  O142  1  0.51311221  0.51347641  0.36953420  1
  O2-  O143  1  0.52009142  0.51270536  0.87328287  1
  O2-  O144  1  0.22348883  0.24142237  0.12823364  1
  O2-  O145  1  0.22657677  0.23956961  0.62372503  1
  O2-  O146  1  0.22425503  0.73896750  0.13625315  1
  O2-  O147  1  0.23004463  0.73047666  0.63707113  1
  O2-  O148  1  0.73076208  0.22936634  0.13902538  1
  O2-  O149  1  0.73942502  0.22885364  0.63545018  1
  O2-  O150  1  0.72136202  0.74148041  0.13510739  1
  O2-  O151  1  0.73492832  0.73352349  0.61624498  1
  O2-  O152  1  0.26306683  0.26886382  0.37664270  1
  O2-  O153  1  0.26209150  0.26638821  0.88182820  1
  O2-  O154  1  0.28322017  0.75331842  0.36728106  1
  O2-  O155  1  0.28103032  0.76925919  0.86702975  1
  O2-  O156  1  0.79133580  0.25745190  0.36553882  1
  O2-  O157  1  0.77775740  0.26739953  0.86674158  1
  O2-  O158  1  0.76647338  0.76254334  0.37655977  1
  O2-  O159  1  0.77321399  0.77077033  0.86266943  1
  O2-  O160  1  0.01721972  0.27024667  0.12231037  1
  O2-  O161  1  0.01336616  0.26958673  0.62305756  1
  O2-  O162  1  0.01366671  0.76677620  0.11588858  1
  O2-  O163  1  0.00427181  0.78220247  0.61441580  1
  O2-  O164  1  0.50691618  0.28290620  0.11213380  1
  O2-  O165  1  0.50412144  0.28765290  0.61493746  1
  O2-  O166  1  0.51651883  0.76837315  0.11214257  1
  O2-  O167  1  0.51911823  0.76013139  0.62310908  1
  O2-  O168  1  0.22502229  -0.01262860  0.38571986  1
  O2-  O169  1  0.23380259  -0.01436880  0.88870574  1
  O2-  O170  1  0.24336133  0.47832016  0.36943649  1
  O2-  O171  1  0.24087098  0.46873274  0.88889700  1
  O2-  O172  1  0.73382266  -0.01963101  0.36971007  1
  O2-  O173  1  0.72897921  -0.02722380  0.88407739  1
  O2-  O174  1  0.72604694  0.48322260  0.38490881  1
  O2-  O175  1  0.74221198  0.46690127  0.88844501  1
  O2-  O176  1  -0.00619081  0.23247824  0.36927425  1
  O2-  O177  1  -0.00341473  0.23931161  0.87389376  1
  O2-  O178  1  -0.01049364  0.71104124  0.38559297  1
  O2-  O179  1  -0.01321826  0.71779324  0.88453889  1
  O2-  O180  1  0.47898617  0.23506302  0.38796539  1
  O2-  O181  1  0.46548943  0.23967679  0.88600523  1
  O2-  O182  1  0.49264483  0.71389624  0.38689375  1
  O2-  O183  1  0.49003922  0.72693266  0.86518420  1
  O2-  O184  1  0.26381668  0.03748051  0.11832516  1
  O2-  O185  1  0.26297882  0.03750218  0.61377970  1
  O2-  O186  1  0.26197228  0.51187751  0.12706870  1
  O2-  O187  1  0.26702177  0.51660824  0.61548387  1
  O2-  O188  1  0.76153294  0.02117011  0.13230212  1
  O2-  O189  1  0.76482831  0.02019000  0.61173916  1
  O2-  O190  1  0.75734834  0.53531712  0.11635514  1
  O2-  O191  1  0.75870344  0.52898214  0.61291179  1
  O2-  O192  1  0.12210865  0.27520450  0.26128359  1
  O2-  O193  1  0.12266330  0.27252218  0.75768811  1
  O2-  O194  1  0.13744225  0.76901622  0.27896034  1
  O2-  O195  1  0.13183174  0.77854554  0.77401338  1
  O2-  O196  1  0.63730568  0.26714077  0.28266535  1
  O2-  O197  1  0.63116018  0.27701136  0.76930627  1
  O2-  O198  1  0.63338982  0.78352290  0.27016552  1
  O2-  O199  1  0.62298859  0.76753117  0.75842999  1
  O2-  O200  1  0.36107267  0.23115427  0.23145500  1
  O2-  O201  1  0.36198048  0.22279793  0.72940554  1
  O2-  O202  1  0.36741466  0.72247376  0.22638365  1
  O2-  O203  1  0.38324391  0.73302463  0.73019731  1
  O2-  O204  1  0.88627540  0.23608979  0.22716725  1
  O2-  O205  1  0.88428603  0.23702321  0.73701943  1
  O2-  O206  1  0.86232626  0.73162278  0.23515890  1
  O2-  O207  1  0.86507914  0.71434811  0.73096292  1
  O2-  O208  1  0.26399738  0.37399237  0.23637207  1
  O2-  O209  1  0.26927934  0.36305686  0.73917541  1
  O2-  O210  1  0.27851018  0.86996100  0.23784383  1
  O2-  O211  1  0.27245115  0.86816322  0.72757616  1
  O2-  O212  1  0.77250603  0.36514136  0.23282150  1
  O2-  O213  1  0.76994131  0.36809327  0.72505700  1
  O2-  O214  1  0.77072379  0.88123020  0.23479022  1
  O2-  O215  1  0.76649102  0.86219158  0.71811661  1
  O2-  O216  1  0.22383430  0.13992162  0.27149930  1
  O2-  O217  1  0.22547589  0.13712711  0.77534667  1
  O2-  O218  1  0.22844144  0.61590040  0.26275015  1
  O2-  O219  1  0.23252807  0.63537228  0.77713197  1
  O2-  O220  1  0.74149717  0.12372895  0.27092906  1
  O2-  O221  1  0.73195292  0.13414460  0.77152650  1
  O2-  O222  1  0.72188343  0.63418774  0.27200812  1
  O2-  O223  1  0.72020601  0.63482107  0.76411903  1
  O2-  O224  1  0.13034299  0.47819963  0.23230769  1
  O2-  O225  1  0.11588285  0.47337899  0.73582295  1
  O2-  O226  1  0.11226044  0.97960815  0.22375094  1
  O2-  O227  1  0.11171103  0.98333440  0.72076477  1
  O2-  O228  1  0.61223181  0.46641914  0.23456709  1
  O2-  O229  1  0.61185849  0.48102004  0.72803319  1
  O2-  O230  1  0.63131550  0.98829227  0.23426367  1
  O2-  O231  1  0.61596371  0.97804867  0.71776526  1
  O2-  O232  1  0.38197290  0.02645186  0.27429226  1
  O2-  O233  1  0.38574426  0.01672104  0.77867105  1
  O2-  O234  1  0.36963768  0.51911979  0.25903738  1
  O2-  O235  1  0.38476598  0.53274495  0.76297007  1
  O2-  O236  1  0.87152452  0.01943111  0.26731607  1
  O2-  O237  1  0.88258592  0.03026586  0.77656954  1
  O2-  O238  1  0.88840089  0.51431345  0.26869067  1
  O2-  O239  1  0.88832375  0.51457002  0.78534082  1
  O2-  O240  1  0.46543179  0.38524444  0.26048626  1
  O2-  O241  1  0.47024219  0.38825180  0.76498438  1
  O2-  O242  1  0.47849215  0.88311215  0.26873963  1
  O2-  O243  1  0.48459113  0.86669932  0.76176707  1
  O2-  O244  1  0.98595904  0.37286651  0.26193641  1
  O2-  O245  1  0.98415240  0.37165416  0.76348349  1
  O2-  O246  1  0.97664137  0.88281720  0.26538880  1
  O2-  O247  1  0.96752575  0.88288947  0.76466298  1
  O2-  O248  1  0.02087310  0.13271880  0.23220968  1
  O2-  O249  1  0.02087427  0.13431918  0.73663247  1
  O2-  O250  1  0.02144534  0.61206316  0.22290230  1
  O2-  O251  1  0.02763170  0.61350979  0.73834020  1
  O2-  O252  1  0.52196640  0.11904140  0.23031477  1
  O2-  O253  1  0.52330714  0.11906994  0.73102850  1
  O2-  O254  1  0.51534703  0.61001990  0.22067355  1
  O2-  O255  1  0.51963120  0.62566548  0.73166196  1
  O2-  O256  1  0.12495569  0.47921010  0.01985156  1
  O2-  O257  1  0.13693198  0.47363311  0.51616483  1
  O2-  O258  1  0.13412892  0.98167676  0.02443041  1
  O2-  O259  1  0.13257806  0.98189601  0.52336022  1
  O2-  O260  1  0.61925401  0.47875549  0.01592893  1
  O2-  O261  1  0.61741012  0.48099796  0.51480091  1
  O2-  O262  1  0.63241505  0.98177060  0.02969276  1
  O2-  O263  1  0.63377963  0.96925144  0.51285288  1
  O2-  O264  1  0.36630997  0.03024648  -0.01598852  1
  O2-  O265  1  0.36572500  0.02314994  0.47348731  1
  O2-  O266  1  0.37251996  0.51448994  -0.01233220  1
  O2-  O267  1  0.37772908  0.51523340  0.48070101  1
  O2-  O268  1  0.86310735  0.02646205  -0.01785612  1
  O2-  O269  1  0.86205852  0.00901866  0.47096583  1
  O2-  O270  1  0.87869606  0.51243126  -0.01129925  1
  O2-  O271  1  0.86819388  0.51847971  0.47320077  1
  O2-  O272  1  0.48069237  0.38338422  -0.02384010  1
  O2-  O273  1  0.48270434  0.38316369  0.47784634  1
  O2-  O274  1  0.47251876  0.86222958  -0.02457480  1
  O2-  O275  1  0.48193460  0.85984360  0.47921547  1
  O2-  O276  1  0.98488555  0.37462662  -0.01448140  1
  O2-  O277  1  0.98272787  0.36251197  0.47654020  1
  O2-  O278  1  0.97577723  0.86703507  -0.02187648  1
  O2-  O279  1  0.97752789  0.86428536  0.46954250  1
  O2-  O280  1  0.03224863  0.13920021  0.00841238  1
  O2-  O281  1  0.03610105  0.13776513  0.50519653  1
  O2-  O282  1  0.01784398  0.61306170  0.01991942  1
  O2-  O283  1  0.01900534  0.63451224  0.53450988  1
  O2-  O284  1  0.51626301  0.13806426  0.01806790  1
  O2-  O285  1  0.51833276  0.13823449  0.52931203  1
  O2-  O286  1  0.51926316  0.61541679  0.00870342  1
  O2-  O287  1  0.52052802  0.61601814  0.51664138  1
  O2-  O288  1  0.12752016  0.27995521  -0.01104528  1
  O2-  O289  1  0.13157102  0.27789064  0.49008205  1
  O2-  O290  1  0.11645950  0.76378733  -0.01900591  1
  O2-  O291  1  0.11947437  0.77222306  0.48165363  1
  O2-  O292  1  0.61358646  0.27318394  -0.02549223  1
  O2-  O293  1  0.61713737  0.27559251  0.48542940  1
  O2-  O294  1  0.61373509  0.75705180  -0.02960810  1
  O2-  O295  1  0.62682988  0.75881424  0.48565291  1
  O2-  O296  1  0.36438785  0.24083576  0.02296756  1
  O2-  O297  1  0.36762873  0.23912300  0.51868837  1
  O2-  O298  1  0.38700331  0.71371804  0.00917820  1
  O2-  O299  1  0.38759026  0.72439388  0.52459595  1
  O2-  O300  1  0.88916515  0.23371414  0.01576518  1
  O2-  O301  1  0.88883822  0.22126622  0.51992460  1
  O2-  O302  1  0.88294316  0.72141205  0.01853209  1
  O2-  O303  1  0.86986592  0.73045821  0.50998280  1
  O2-  O304  1  0.26332174  0.37531095  0.02588364  1
  O2-  O305  1  0.27359557  0.37595545  0.51071575  1
  O2-  O306  1  0.27772109  0.88447067  0.03053395  1
  O2-  O307  1  0.27669961  0.88436812  0.52202298  1
  O2-  O308  1  0.76358093  0.38557724  0.03707096  1
  O2-  O309  1  0.76934559  0.38494407  0.52172518  1
  O2-  O310  1  0.77555054  0.88497711  0.02418830  1
  O2-  O311  1  0.76569529  0.86798124  0.50995604  1
  O2-  O312  1  0.22641868  0.13757299  -0.01342743  1
  O2-  O313  1  0.23367252  0.13706648  0.47938446  1
  O2-  O314  1  0.22708836  0.60997745  -0.01202725  1
  O2-  O315  1  0.23106761  0.61142088  0.47685957  1
  O2-  O316  1  0.72427568  0.11755573  -0.01553227  1
  O2-  O317  1  0.72055563  0.11532208  0.47712892  1
  O2-  O318  1  0.73173416  0.61262104  -0.02756919  1
  O2-  O319  1  0.73630154  0.62702066  0.47886992  1
