# generated using pymatgen
data_Sr64Ca21Nb43O192
_symmetry_space_group_name_H-M   'P 1'
_cell_length_a   16.52357592
_cell_length_b   16.52364220
_cell_length_c   16.68479455
_cell_angle_alpha   89.99318418
_cell_angle_beta   90.00329840
_cell_angle_gamma   89.99973898
_symmetry_Int_Tables_number   1
_chemical_formula_structural   Sr64Ca21Nb43O192
_chemical_formula_sum   'Sr64 Ca21 Nb43 O192'
_cell_volume   4555.44368201
_cell_formula_units_Z   1
loop_
 _symmetry_equiv_pos_site_id
 _symmetry_equiv_pos_as_xyz
  1  'x, y, z'
loop_
 _atom_type_symbol
 _atom_type_oxidation_number
  Sr2+  2.0
  Ca2+  2.0
  Nb5+  5.0
  O2-  -2.0
loop_
 _atom_site_type_symbol
 _atom_site_label
 _atom_site_symmetry_multiplicity
 _atom_site_fract_x
 _atom_site_fract_y
 _atom_site_fract_z
 _atom_site_occupancy
  Sr2+  Sr0  1  0.11822947  0.11188581  0.12729902  1
  Sr2+  Sr1  1  0.12132265  0.11980057  0.62422332  1
  Sr2+  Sr2  1  0.12321970  0.61918453  0.12938917  1
  Sr2+  Sr3  1  0.12341676  0.61150593  0.62228440  1
  Sr2+  Sr4  1  0.62811935  0.13355849  0.12926282  1
  Sr2+  Sr5  1  0.63693441  0.10958002  0.62011066  1
  Sr2+  Sr6  1  0.63827113  0.62045143  0.12053708  1
  Sr2+  Sr7  1  0.62366145  0.60509719  0.62579152  1
  Sr2+  Sr8  1  0.37811001  0.37225078  0.12866552  1
  Sr2+  Sr9  1  0.37821229  0.37890357  0.62101722  1
  Sr2+  Sr10  1  0.37442576  0.87037363  0.12834371  1
  Sr2+  Sr11  1  0.37834364  0.86224891  0.62453996  1
  Sr2+  Sr12  1  0.86390768  0.39161884  0.13093807  1
  Sr2+  Sr13  1  0.87309935  0.38764697  0.62429470  1
  Sr2+  Sr14  1  0.87196297  0.86223423  0.12031233  1
  Sr2+  Sr15  1  0.86717450  0.87116243  0.62774868  1
  Sr2+  Sr16  1  0.11758038  0.37369110  0.37665905  1
  Sr2+  Sr17  1  0.12471325  0.37031220  0.87384561  1
  Sr2+  Sr18  1  0.12593673  0.86954788  0.37313574  1
  Sr2+  Sr19  1  0.12062144  0.88575241  0.87608393  1
  Sr2+  Sr20  1  0.63242809  0.37697314  0.37326498  1
  Sr2+  Sr21  1  0.61385104  0.38491160  0.88352284  1
  Sr2+  Sr22  1  0.62248863  0.87853943  0.37767346  1
  Sr2+  Sr23  1  0.61785283  0.87980024  0.87469406  1
  Sr2+  Sr24  1  0.36970934  0.12941157  0.37207719  1
  Sr2+  Sr25  1  0.36283363  0.13116137  0.87594596  1
  Sr2+  Sr26  1  0.37105202  0.62111509  0.37099888  1
  Sr2+  Sr27  1  0.37190728  0.62712789  0.88043684  1
  Sr2+  Sr28  1  0.84964867  0.12595328  0.37550009  1
  Sr2+  Sr29  1  0.86017288  0.12851121  0.87257927  1
  Sr2+  Sr30  1  0.89542256  0.62521729  0.36660637  1
  Sr2+  Sr31  1  0.87056444  0.63395517  0.87671999  1
  Sr2+  Sr32  1  0.12348294  0.11523758  0.37877478  1
  Sr2+  Sr33  1  0.12355395  0.13935774  0.87306267  1
  Sr2+  Sr34  1  0.13590847  0.63011424  0.36951353  1
  Sr2+  Sr35  1  0.13391503  0.59931431  0.88154154  1
  Sr2+  Sr36  1  0.62564170  0.13732910  0.36903915  1
  Sr2+  Sr37  1  0.62440919  0.12452792  0.87812403  1
  Sr2+  Sr38  1  0.62620587  0.61924249  0.37885660  1
  Sr2+  Sr39  1  0.62332337  0.63342134  0.87357971  1
  Sr2+  Sr40  1  0.36911504  0.36691309  0.37291063  1
  Sr2+  Sr41  1  0.35839263  0.38026926  0.87840657  1
  Sr2+  Sr42  1  0.37014031  0.85867131  0.37359806  1
  Sr2+  Sr43  1  0.37115903  0.88237778  0.87288423  1
  Sr2+  Sr44  1  0.87335640  0.37323437  0.37024534  1
  Sr2+  Sr45  1  0.88614916  0.37173409  0.87019005  1
  Sr2+  Sr46  1  0.87396522  0.87870977  0.36626739  1
  Sr2+  Sr47  1  0.87130882  0.87865899  0.87811615  1
  Sr2+  Sr48  1  0.11571031  0.38661567  0.12570191  1
  Sr2+  Sr49  1  0.10634495  0.36830411  0.62917136  1
  Sr2+  Sr50  1  0.10615436  0.86686808  0.12547189  1
  Sr2+  Sr51  1  0.11697751  0.86443706  0.62354912  1
  Sr2+  Sr52  1  0.62401993  0.37164154  0.12961851  1
  Sr2+  Sr53  1  0.62180114  0.38071576  0.61874075  1
  Sr2+  Sr54  1  0.62658409  0.86981120  0.12478177  1
  Sr2+  Sr55  1  0.61667286  0.86843624  0.62971549  1
  Sr2+  Sr56  1  0.38662925  0.12603025  0.13154852  1
  Sr2+  Sr57  1  0.37479090  0.12603081  0.61864184  1
  Sr2+  Sr58  1  0.35298939  0.61967148  0.12990562  1
  Sr2+  Sr59  1  0.38526347  0.62169463  0.62282575  1
  Sr2+  Sr60  1  0.87647787  0.12354601  0.13110880  1
  Sr2+  Sr61  1  0.87059565  0.12412199  0.62098250  1
  Sr2+  Sr62  1  0.88165482  0.62109939  0.12213682  1
  Sr2+  Sr63  1  0.87149725  0.61596264  0.63249696  1
  Ca2+  Ca64  1  -0.00331332  0.49664000  -0.00245487  1
  Ca2+  Ca65  1  -0.00145237  -0.00210064  0.50427176  1
  Ca2+  Ca66  1  0.49966387  0.50470992  0.00297104  1
  Ca2+  Ca67  1  0.49996118  -0.00186688  0.49971599  1
  Ca2+  Ca68  1  0.00031020  0.50104967  0.49961151  1
  Ca2+  Ca69  1  0.75130379  0.74939329  0.50334121  1
  Ca2+  Ca70  1  0.74695539  0.25175321  0.50308176  1
  Ca2+  Ca71  1  0.24805257  0.75240500  -0.00481169  1
  Ca2+  Ca72  1  0.75255446  0.25184140  -0.00102369  1
  Ca2+  Ca73  1  0.24953659  0.24687196  0.00440309  1
  Ca2+  Ca74  1  0.24841803  0.49356327  0.25483647  1
  Ca2+  Ca75  1  0.25214103  0.50094254  0.74647340  1
  Ca2+  Ca76  1  0.50471441  0.74692383  0.24861433  1
  Ca2+  Ca77  1  0.25168084  0.00135018  0.24980230  1
  Ca2+  Ca78  1  -0.00249332  0.74995588  0.25151066  1
  Ca2+  Ca79  1  0.00106326  0.24766304  0.25037790  1
  Ca2+  Ca80  1  0.00304777  0.74876660  0.75177392  1
  Ca2+  Ca81  1  0.49906561  0.24867968  0.74821518  1
  Ca2+  Ca82  1  0.74741641  0.50712449  0.25068149  1
  Ca2+  Ca83  1  0.74941271  -0.00173371  0.24263049  1
  Ca2+  Ca84  1  0.74746231  0.49744085  0.75336584  1
  Nb5+  Nb85  1  -0.00698377  0.00400672  -0.00258803  1
  Nb5+  Nb86  1  0.49663835  0.49876282  0.49584156  1
  Nb5+  Nb87  1  0.49531558  0.00008706  -0.00104025  1
  Nb5+  Nb88  1  0.74723943  0.75047702  -0.00071968  1
  Nb5+  Nb89  1  0.24842071  0.74412906  0.50334464  1
  Nb5+  Nb90  1  0.24588051  0.24705835  0.49854948  1
  Nb5+  Nb91  1  0.74479796  -0.00206921  0.75086004  1
  Nb5+  Nb92  1  0.49904215  0.74856575  0.75137472  1
  Nb5+  Nb93  1  0.24390695  -0.00204271  0.74772466  1
  Nb5+  Nb94  1  0.49848941  0.25257470  0.25104909  1
  Nb5+  Nb95  1  -0.00522237  0.24566793  0.74859983  1
  Nb5+  Nb96  1  0.00280379  -0.00107325  0.25503822  1
  Nb5+  Nb97  1  -0.00842686  0.00276122  0.75072416  1
  Nb5+  Nb98  1  -0.00102955  0.49627114  0.25213646  1
  Nb5+  Nb99  1  0.00135191  0.50481815  0.75470917  1
  Nb5+  Nb100  1  0.50379634  -0.00068826  0.25422820  1
  Nb5+  Nb101  1  0.49454477  0.00179246  0.75070546  1
  Nb5+  Nb102  1  0.50186708  0.50169282  0.24410086  1
  Nb5+  Nb103  1  0.49579701  0.49731179  0.75473202  1
  Nb5+  Nb104  1  0.24527697  0.24794801  0.24685296  1
  Nb5+  Nb105  1  0.25331097  0.25062457  0.74627297  1
  Nb5+  Nb106  1  0.24968793  0.75200140  0.24361908  1
  Nb5+  Nb107  1  0.24669689  0.75261392  0.75128594  1
  Nb5+  Nb108  1  0.75412304  0.25127348  0.24979141  1
  Nb5+  Nb109  1  0.74349680  0.25511967  0.74957786  1
  Nb5+  Nb110  1  0.74971551  0.75193481  0.25687530  1
  Nb5+  Nb111  1  0.74815751  0.74917853  0.74831590  1
  Nb5+  Nb112  1  -0.00407534  0.24601435  0.49923680  1
  Nb5+  Nb113  1  -0.00239980  0.24861660  1.00665838  1
  Nb5+  Nb114  1  -0.00383298  0.74675580  0.50620668  1
  Nb5+  Nb115  1  0.00397110  0.74693366  0.99308212  1
  Nb5+  Nb116  1  0.49987948  0.24972231  0.50180390  1
  Nb5+  Nb117  1  0.49767038  0.25235384  0.99401101  1
  Nb5+  Nb118  1  0.50171223  0.74810813  0.49707139  1
  Nb5+  Nb119  1  0.49907079  0.75064751  1.00273808  1
  Nb5+  Nb120  1  0.24650689  0.00031088  0.00218257  1
  Nb5+  Nb121  1  0.25288017  -0.00760947  0.50110311  1
  Nb5+  Nb122  1  0.24971981  0.49640814  0.00438767  1
  Nb5+  Nb123  1  0.25008131  0.49320089  0.50453102  1
  Nb5+  Nb124  1  0.74401209  -0.00111441  0.00047326  1
  Nb5+  Nb125  1  0.75016418  -0.00441666  0.49322968  1
  Nb5+  Nb126  1  0.75025096  0.49653682  -0.00562885  1
  Nb5+  Nb127  1  0.75589967  0.50675445  0.49806646  1
  O2-  O128  1  -0.01256759  0.01909769  0.11352152  1
  O2-  O129  1  -0.01154246  0.02612378  0.63885581  1
  O2-  O130  1  0.00977414  0.51539721  0.13113752  1
  O2-  O131  1  -0.01421915  0.51293702  0.63592547  1
  O2-  O132  1  0.47750710  -0.01680596  0.11303896  1
  O2-  O133  1  0.48539609  -0.02043366  0.63721802  1
  O2-  O134  1  0.49419712  0.47000397  0.13385597  1
  O2-  O135  1  0.48757500  0.48974382  0.62151059  1
  O2-  O136  1  0.02039594  -0.02022449  0.36813620  1
  O2-  O137  1  0.01739711  -0.00710645  0.87341102  1
  O2-  O138  1  -0.01290782  0.47331230  0.37009544  1
  O2-  O139  1  0.00592417  0.46449092  0.86574840  1
  O2-  O140  1  0.53412997  0.01293593  0.36470367  1
  O2-  O141  1  0.52310400  0.00765078  0.87365201  1
  O2-  O142  1  0.50594304  0.52057596  0.37930697  1
  O2-  O143  1  0.51576319  0.51796515  0.86672090  1
  O2-  O144  1  0.25103005  0.21606999  0.13701521  1
  O2-  O145  1  0.25555827  0.23441500  0.62034807  1
  O2-  O146  1  0.24054631  0.75681024  0.12962719  1
  O2-  O147  1  0.24483020  0.75427431  0.62504822  1
  O2-  O148  1  0.74424812  0.25698924  0.13221729  1
  O2-  O149  1  0.75001124  0.22706449  0.63599610  1
  O2-  O150  1  0.73427689  0.75478772  0.11646922  1
  O2-  O151  1  0.73529023  0.77475018  0.63665297  1
  O2-  O152  1  0.24426553  0.27224590  0.38295255  1
  O2-  O153  1  0.25269781  0.26249290  0.86321674  1
  O2-  O154  1  0.25979525  0.74876093  0.38299725  1
  O2-  O155  1  0.27783587  0.75806644  0.86218762  1
  O2-  O156  1  0.74233052  0.25335097  0.36909376  1
  O2-  O157  1  0.74667525  0.23593051  0.86458676  1
  O2-  O158  1  0.76513986  0.75614507  0.36974445  1
  O2-  O159  1  0.75861600  0.75042582  0.87336090  1
  O2-  O160  1  0.00444691  0.22033190  0.11641955  1
  O2-  O161  1  0.00356662  0.22866386  0.63024520  1
  O2-  O162  1  0.00554791  0.74010339  0.11222073  1
  O2-  O163  1  0.03092628  0.72685715  0.62051670  1
  O2-  O164  1  0.49435313  0.26453882  0.12989142  1
  O2-  O165  1  0.48704327  0.27595340  0.61450515  1
  O2-  O166  1  0.50587594  0.77918843  0.11371324  1
  O2-  O167  1  0.50557119  0.76396100  0.62792371  1
  O2-  O168  1  0.22949679  -0.01295371  0.38855340  1
  O2-  O169  1  0.24236381  -0.02164146  0.86644436  1
  O2-  O170  1  0.24621048  0.51117247  0.38922908  1
  O2-  O171  1  0.25229751  0.49195868  0.88068194  1
  O2-  O172  1  0.73468888  -0.01164563  0.37910679  1
  O2-  O173  1  0.74067657  -0.00060816  0.87493546  1
  O2-  O174  1  0.73207709  0.50105945  0.38387968  1
  O2-  O175  1  0.72182057  0.51398285  0.88203662  1
  O2-  O176  1  0.00798142  0.26675785  0.38637975  1
  O2-  O177  1  0.00138573  0.26135599  0.86859428  1
  O2-  O178  1  -0.01371074  0.77570165  0.38911303  1
  O2-  O179  1  -0.03213632  0.76416271  0.88297892  1
  O2-  O180  1  0.50001888  0.23510749  0.37597155  1
  O2-  O181  1  0.50562369  0.22412779  0.88274522  1
  O2-  O182  1  0.49221401  0.72286982  0.38494070  1
  O2-  O183  1  0.48901093  0.73577187  0.87074761  1
  O2-  O184  1  0.26806016  0.02427733  0.11172918  1
  O2-  O185  1  0.27200716  0.01469078  0.63217811  1
  O2-  O186  1  0.23898253  0.50331987  0.12173821  1
  O2-  O187  1  0.27050829  0.51954134  0.61584828  1
  O2-  O188  1  0.78109156  -0.00135615  0.10901927  1
  O2-  O189  1  0.76700267  0.00260970  0.63455532  1
  O2-  O190  1  0.75364152  0.51159796  0.11376484  1
  O2-  O191  1  0.75430978  0.50000721  0.61880731  1
  O2-  O192  1  0.13497769  0.28006737  0.24593516  1
  O2-  O193  1  0.12791590  0.25828710  0.74468107  1
  O2-  O194  1  0.13349902  0.77384037  0.26316425  1
  O2-  O195  1  0.13826300  0.79044186  0.76152501  1
  O2-  O196  1  0.61847280  0.27067513  0.25240348  1
  O2-  O197  1  0.63268512  0.28717213  0.74756170  1
  O2-  O198  1  0.63447048  0.79282292  0.25729800  1
  O2-  O199  1  0.62124888  0.77322832  0.76421064  1
  O2-  O200  1  0.37958724  0.22830885  0.25618828  1
  O2-  O201  1  0.36540660  0.21513032  0.74558874  1
  O2-  O202  1  0.36797475  0.72421574  0.24750529  1
  O2-  O203  1  0.38018082  0.73836559  0.73346212  1
  O2-  O204  1  0.86654175  0.22108128  0.25373728  1
  O2-  O205  1  0.87962370  0.22160924  0.75121791  1
  O2-  O206  1  0.86336787  0.71786302  0.23551701  1
  O2-  O207  1  0.86384362  0.73014665  0.73643828  1
  O2-  O208  1  0.28444979  0.36040593  0.24399988  1
  O2-  O209  1  0.27409561  0.36361352  0.73167068  1
  O2-  O210  1  0.28173554  0.86815174  0.25279419  1
  O2-  O211  1  0.27849132  0.88134198  0.73651440  1
  O2-  O212  1  0.77252389  0.36983007  0.25315732  1
  O2-  O213  1  0.78629533  0.36246320  0.74942356  1
  O2-  O214  1  0.78405073  0.86715676  0.24056441  1
  O2-  O215  1  0.77219220  0.87992421  0.76067621  1
  O2-  O216  1  0.23941537  0.13649017  0.28749251  1
  O2-  O217  1  0.23209544  0.11765875  0.76153857  1
  O2-  O218  1  0.22772124  0.63274491  0.24601517  1
  O2-  O219  1  0.22112450  0.63987548  0.75279615  1
  O2-  O220  1  0.72337887  0.13314120  0.25217298  1
  O2-  O221  1  0.72804737  0.11670149  0.75571624  1
  O2-  O222  1  0.70811644  0.63994393  0.25103896  1
  O2-  O223  1  0.72231881  0.63689547  0.74405930  1
  O2-  O224  1  0.11579939  0.46631899  0.25715031  1
  O2-  O225  1  0.11750135  0.47429363  0.73806679  1
  O2-  O226  1  0.11919744  0.97789066  0.22099186  1
  O2-  O227  1  0.12845020  0.98246312  0.73520120  1
  O2-  O228  1  0.61412970  0.46674190  0.25427464  1
  O2-  O229  1  0.61136721  0.48151425  0.73089539  1
  O2-  O230  1  0.61326053  0.99309890  0.20895493  1
  O2-  O231  1  0.62994568  0.97552930  0.74025854  1
  O2-  O232  1  0.38978757  0.03034089  0.25530652  1
  O2-  O233  1  0.38094140  0.01814558  0.77043405  1
  O2-  O234  1  0.38448763  0.51964681  0.25752473  1
  O2-  O235  1  0.38546489  0.53959420  0.75412487  1
  O2-  O236  1  0.88732627  0.02914161  0.26356613  1
  O2-  O237  1  0.87586398  0.01867849  0.76805847  1
  O2-  O238  1  0.88124846  0.52730607  0.24552941  1
  O2-  O239  1  0.88195606  0.52200405  0.76555626  1
  O2-  O240  1  0.47723391  0.36942393  0.26882843  1
  O2-  O241  1  0.46697521  0.38583544  0.76828712  1
  O2-  O242  1  0.48049664  0.88610239  0.26694076  1
  O2-  O243  1  0.48842550  0.87470282  0.76691463  1
  O2-  O244  1  0.96951435  0.37979474  0.23046448  1
  O2-  O245  1  0.98134681  0.36352236  0.73222094  1
  O2-  O246  1  0.97779497  0.88536317  0.22592307  1
  O2-  O247  1  0.98155546  0.88751273  0.73956058  1
  O2-  O248  1  0.03652529  0.11437384  0.25491433  1
  O2-  O249  1  0.02060970  0.12474911  0.76571160  1
  O2-  O250  1  0.02369657  0.61526957  0.27274806  1
  O2-  O251  1  0.02702437  0.61499368  0.77573823  1
  O2-  O252  1  0.51913095  0.13157496  0.23555139  1
  O2-  O253  1  0.52932883  0.11176659  0.73445220  1
  O2-  O254  1  0.52702001  0.61289104  0.22661327  1
  O2-  O255  1  0.52282384  0.63342707  0.73751113  1
  O2-  O256  1  0.13185975  0.46838637  -0.00684637  1
  O2-  O257  1  0.13567887  0.47724887  0.51814140  1
  O2-  O258  1  0.13068724  0.97968030  0.01234420  1
  O2-  O259  1  0.13979122  0.99080158  0.53387038  1
  O2-  O260  1  0.63238740  0.46748247  0.01096579  1
  O2-  O261  1  0.61464703  0.48089897  0.50722526  1
  O2-  O262  1  0.62933305  0.97471583  0.00985067  1
  O2-  O263  1  0.63665819  0.97205303  0.52568823  1
  O2-  O264  1  0.38339521  0.01755073  -0.02484649  1
  O2-  O265  1  0.36510097  0.03135871  0.49253280  1
  O2-  O266  1  0.36687139  0.53235560  0.00226558  1
  O2-  O267  1  0.37706480  0.52335998  0.49256470  1
  O2-  O268  1  0.87908798  0.01499618  -0.02569014  1
  O2-  O269  1  0.86507663  0.03318015  0.49394005  1
  O2-  O270  1  0.86474783  0.53450229  -0.01108336  1
  O2-  O271  1  0.86653921  0.53799740  0.49283196  1
  O2-  O272  1  0.47526698  0.36451670  -0.02446999  1
  O2-  O273  1  0.47348138  0.38250563  0.48361397  1
  O2-  O274  1  0.48983191  0.87680811  -0.02478312  1
  O2-  O275  1  0.47250661  0.86272883  0.48582260  1
  O2-  O276  1  0.96809295  0.36014830  0.01895385  1
  O2-  O277  1  0.98612369  0.36204035  0.52780507  1
  O2-  O278  1  0.98497160  0.88355968  0.00747908  1
  O2-  O279  1  0.98882178  0.86457248  0.53637624  1
  O2-  O280  1  0.02958130  0.11734220  -0.01361915  1
  O2-  O281  1  0.03555204  0.13436614  0.49787878  1
  O2-  O282  1  0.02153861  0.63388037  -0.02047354  1
  O2-  O283  1  0.03319831  0.63565704  0.47839331  1
  O2-  O284  1  0.52658237  0.11375461  0.01325208  1
  O2-  O285  1  0.51698587  0.13691514  0.52030342  1
  O2-  O286  1  0.53493031  0.64027484  0.00796208  1
  O2-  O287  1  0.51184285  0.62527630  0.52117304  1
  O2-  O288  1  0.11462411  0.26835563  -0.00867033  1
  O2-  O289  1  0.13213521  0.27521219  0.50972523  1
  O2-  O290  1  0.11399580  0.78128350  -0.01758650  1
  O2-  O291  1  0.13640687  0.78107795  0.49355469  1
  O2-  O292  1  0.61415051  0.26788031  0.00932235  1
  O2-  O293  1  0.61108543  0.28286242  0.49830812  1
  O2-  O294  1  0.62779082  0.77704297  -0.01525863  1
  O2-  O295  1  0.61396063  0.77475559  0.49210947  1
  O2-  O296  1  0.38631519  0.21550777  0.00749107  1
  O2-  O297  1  0.37271232  0.23817487  0.49045772  1
  O2-  O298  1  0.38615727  0.72763147  0.00861939  1
  O2-  O299  1  0.37111962  0.73193698  0.51226706  1
  O2-  O300  1  0.88601381  0.20997211  -0.00734997  1
  O2-  O301  1  0.88358620  0.22187166  0.49689628  1
  O2-  O302  1  0.86795537  0.73648052  0.01091583  1
  O2-  O303  1  0.88587863  0.71996743  0.52327305  1
  O2-  O304  1  0.28328152  0.38006219  0.01162479  1
  O2-  O305  1  0.27585900  0.37851969  0.50899267  1
  O2-  O306  1  0.28384442  0.88819405  0.00380270  1
  O2-  O307  1  0.27753345  0.87803241  0.50858441  1
  O2-  O308  1  0.78405599  0.38563519  -0.01467120  1
  O2-  O309  1  0.77531795  0.38653691  0.50047340  1
  O2-  O310  1  0.76959110  0.87537076  -0.00787977  1
  O2-  O311  1  0.78889849  0.88364828  0.49941325  1
  O2-  O312  1  0.23959492  0.11204983  -0.03400089  1
  O2-  O313  1  0.23256063  0.13182891  0.48869344  1
  O2-  O314  1  0.22077004  0.61796486  0.00124539  1
  O2-  O315  1  0.22588514  0.63068857  0.50384321  1
  O2-  O316  1  0.72710227  0.11366067  -0.00227465  1
  O2-  O317  1  0.71888939  0.11524948  0.49160813  1
  O2-  O318  1  0.72513566  0.63474867  -0.00515429  1
  O2-  O319  1  0.71215124  0.61858636  0.50558174  1
