# generated using pymatgen
data_Sr64Ca21Nb43O192
_symmetry_space_group_name_H-M   'P 1'
_cell_length_a   16.55007708
_cell_length_b   16.54148462
_cell_length_c   16.69106799
_cell_angle_alpha   90.01221563
_cell_angle_beta   90.05084896
_cell_angle_gamma   89.98320016
_symmetry_Int_Tables_number   1
_chemical_formula_structural   Sr64Ca21Nb43O192
_chemical_formula_sum   'Sr64 Ca21 Nb43 O192'
_cell_volume   4569.39216733
_cell_formula_units_Z   1
loop_
 _symmetry_equiv_pos_site_id
 _symmetry_equiv_pos_as_xyz
  1  'x, y, z'
loop_
 _atom_type_symbol
 _atom_type_oxidation_number
  Sr2+  2.0
  Ca2+  2.0
  Nb5+  5.0
  O2-  -2.0
loop_
 _atom_site_type_symbol
 _atom_site_label
 _atom_site_symmetry_multiplicity
 _atom_site_fract_x
 _atom_site_fract_y
 _atom_site_fract_z
 _atom_site_occupancy
  Sr2+  Sr0  1  0.13940317  0.12148052  0.11978173  1
  Sr2+  Sr1  1  0.12453283  0.11414664  0.62156772  1
  Sr2+  Sr2  1  0.12585727  0.61226273  0.13371153  1
  Sr2+  Sr3  1  0.13476924  0.61416463  0.62805781  1
  Sr2+  Sr4  1  0.62655149  0.11087524  0.12950124  1
  Sr2+  Sr5  1  0.63110658  0.11808099  0.62756369  1
  Sr2+  Sr6  1  0.63894287  0.62562957  0.12162694  1
  Sr2+  Sr7  1  0.62692659  0.61466865  0.62398257  1
  Sr2+  Sr8  1  0.37951421  0.35906220  0.12258357  1
  Sr2+  Sr9  1  0.37967946  0.36839408  0.63219745  1
  Sr2+  Sr10  1  0.38687339  0.86926198  0.12054132  1
  Sr2+  Sr11  1  0.38472995  0.86383121  0.63136423  1
  Sr2+  Sr12  1  0.89072942  0.36726059  0.12642174  1
  Sr2+  Sr13  1  0.88107144  0.36259938  0.62630544  1
  Sr2+  Sr14  1  0.87634418  0.86168994  0.12380865  1
  Sr2+  Sr15  1  0.88457087  0.86763640  0.62999655  1
  Sr2+  Sr16  1  0.11978405  0.38549943  0.37285202  1
  Sr2+  Sr17  1  0.10993856  0.38341582  0.88315088  1
  Sr2+  Sr18  1  0.11183223  0.87842299  0.37380223  1
  Sr2+  Sr19  1  0.12079164  0.88469405  0.87215599  1
  Sr2+  Sr20  1  0.61716413  0.37605161  0.37663991  1
  Sr2+  Sr21  1  0.62072554  0.38797626  0.87479473  1
  Sr2+  Sr22  1  0.62091483  0.88549442  0.37304851  1
  Sr2+  Sr23  1  0.61028422  0.87151058  0.87842796  1
  Sr2+  Sr24  1  0.36559763  0.13850964  0.37769155  1
  Sr2+  Sr25  1  0.35578423  0.12698053  0.87364454  1
  Sr2+  Sr26  1  0.36364307  0.62841174  0.37987592  1
  Sr2+  Sr27  1  0.37108999  0.63223944  0.86703676  1
  Sr2+  Sr28  1  0.85892093  0.12895065  0.37460673  1
  Sr2+  Sr29  1  0.86784325  0.12907059  0.87559596  1
  Sr2+  Sr30  1  0.86996484  0.64125824  0.37628951  1
  Sr2+  Sr31  1  0.85520899  0.63190459  0.87586243  1
  Sr2+  Sr32  1  0.11359006  0.12755206  0.37574705  1
  Sr2+  Sr33  1  0.11938717  0.13450766  0.88544335  1
  Sr2+  Sr34  1  0.12611117  0.64260795  0.37472515  1
  Sr2+  Sr35  1  0.12139639  0.63453966  0.86547131  1
  Sr2+  Sr36  1  0.62195488  0.13530255  0.37357107  1
  Sr2+  Sr37  1  0.62067049  0.14289037  0.86845394  1
  Sr2+  Sr38  1  0.60979144  0.63548474  0.37491935  1
  Sr2+  Sr39  1  0.61993928  0.62748332  0.89081753  1
  Sr2+  Sr40  1  0.37411204  0.38748301  0.37626011  1
  Sr2+  Sr41  1  0.36767180  0.38675901  0.87807188  1
  Sr2+  Sr42  1  0.36175403  0.88334857  0.37759798  1
  Sr2+  Sr43  1  0.36674392  0.88707704  0.87089096  1
  Sr2+  Sr44  1  0.85937905  0.37769765  0.37622481  1
  Sr2+  Sr45  1  0.87400392  0.39135303  0.87649988  1
  Sr2+  Sr46  1  0.87100197  0.88581643  0.37382797  1
  Sr2+  Sr47  1  0.86501327  0.88316282  0.86868942  1
  Sr2+  Sr48  1  0.13642854  0.36791069  0.12499562  1
  Sr2+  Sr49  1  0.11609042  0.37019444  0.63689985  1
  Sr2+  Sr50  1  0.13250556  0.86488349  0.12137363  1
  Sr2+  Sr51  1  0.13124597  0.86656447  0.62263951  1
  Sr2+  Sr52  1  0.62861170  0.36809340  0.11855195  1
  Sr2+  Sr53  1  0.64009872  0.37171662  0.62720198  1
  Sr2+  Sr54  1  0.63744750  0.86939750  0.12810489  1
  Sr2+  Sr55  1  0.62617396  0.86856189  0.62596963  1
  Sr2+  Sr56  1  0.38358738  0.12329484  0.12098236  1
  Sr2+  Sr57  1  0.38871019  0.11740814  0.62995335  1
  Sr2+  Sr58  1  0.38944730  0.61185522  0.12559814  1
  Sr2+  Sr59  1  0.38303297  0.61940415  0.62558617  1
  Sr2+  Sr60  1  0.88554137  0.11087583  0.12441201  1
  Sr2+  Sr61  1  0.89011831  0.12241700  0.62710405  1
  Sr2+  Sr62  1  0.88422553  0.62293344  0.12363353  1
  Sr2+  Sr63  1  0.88400621  0.61897339  0.62781249  1
  Ca2+  Ca64  1  0.49784282  0.49957580  0.00238921  1
  Ca2+  Ca65  1  0.50159233  0.00134363  -0.00030949  1
  Ca2+  Ca66  1  0.00240977  0.50494059  0.00157733  1
  Ca2+  Ca67  1  0.00190721  0.49958404  0.49742879  1
  Ca2+  Ca68  1  -0.00114482  -0.00299566  0.00235308  1
  Ca2+  Ca69  1  0.24790689  0.74630655  -0.00024786  1
  Ca2+  Ca70  1  0.24968456  0.25025760  0.49998019  1
  Ca2+  Ca71  1  0.74836087  0.24892587  0.00266270  1
  Ca2+  Ca72  1  0.25074514  0.75096871  0.50198081  1
  Ca2+  Ca73  1  0.74958419  0.75144675  0.49887684  1
  Ca2+  Ca74  1  0.25015464  0.00008737  0.25056318  1
  Ca2+  Ca75  1  0.49968506  0.75063439  0.24893829  1
  Ca2+  Ca76  1  -0.00119640  0.74908273  0.75198240  1
  Ca2+  Ca77  1  0.74914497  0.49984206  0.25162271  1
  Ca2+  Ca78  1  0.00053059  0.24755090  0.25047988  1
  Ca2+  Ca79  1  0.49846031  0.25168172  0.74843047  1
  Ca2+  Ca80  1  0.50201376  0.74703995  0.74992291  1
  Ca2+  Ca81  1  0.74907384  0.00017212  0.74719251  1
  Ca2+  Ca82  1  0.24799692  0.00415493  0.74590763  1
  Ca2+  Ca83  1  -0.00006639  0.24840932  0.75385478  1
  Ca2+  Ca84  1  0.74815056  0.50322576  0.75061586  1
  Nb5+  Nb85  1  0.49524914  0.00590193  0.49664415  1
  Nb5+  Nb86  1  -0.00752939  -0.00091393  0.49853535  1
  Nb5+  Nb87  1  0.50166822  0.50231081  0.50059961  1
  Nb5+  Nb88  1  0.25167707  0.25323144  -0.00393763  1
  Nb5+  Nb89  1  0.74898254  0.24842082  0.50235247  1
  Nb5+  Nb90  1  0.75083099  0.75365983  -0.00115966  1
  Nb5+  Nb91  1  0.24791294  0.49820878  0.75654047  1
  Nb5+  Nb92  1  0.75153318  0.00118927  0.24962544  1
  Nb5+  Nb93  1  0.00126147  0.75169529  0.24972003  1
  Nb5+  Nb94  1  0.50155405  0.25034853  0.25004818  1
  Nb5+  Nb95  1  0.25154274  0.49805963  0.25479132  1
  Nb5+  Nb96  1  0.00337341  -0.00360855  0.24667559  1
  Nb5+  Nb97  1  0.00240819  0.00202406  0.75570768  1
  Nb5+  Nb98  1  -0.00555905  0.49963068  0.25848945  1
  Nb5+  Nb99  1  -0.00455500  0.50395215  0.75101149  1
  Nb5+  Nb100  1  0.49484427  0.00052432  0.25540589  1
  Nb5+  Nb101  1  0.50533545  0.00259114  0.75577075  1
  Nb5+  Nb102  1  0.50422679  0.49623992  0.24793513  1
  Nb5+  Nb103  1  0.50041494  0.49938154  0.75176882  1
  Nb5+  Nb104  1  0.24925044  0.25200935  0.25259907  1
  Nb5+  Nb105  1  0.24277437  0.24964870  0.74503267  1
  Nb5+  Nb106  1  0.25710663  0.75029003  0.24315166  1
  Nb5+  Nb107  1  0.25174169  0.75462738  0.74946395  1
  Nb5+  Nb108  1  0.75144998  0.24954011  0.24536656  1
  Nb5+  Nb109  1  0.75409326  0.25459775  0.75789206  1
  Nb5+  Nb110  1  0.74884765  0.75023402  0.25441495  1
  Nb5+  Nb111  1  0.74581601  0.74819172  0.74328388  1
  Nb5+  Nb112  1  0.00072636  0.25320454  0.49139561  1
  Nb5+  Nb113  1  -0.00605342  0.24710520  1.00484556  1
  Nb5+  Nb114  1  0.00362310  0.74670296  0.50325708  1
  Nb5+  Nb115  1  -0.00078098  0.74960207  0.99483081  1
  Nb5+  Nb116  1  0.50065670  0.25447503  0.50005331  1
  Nb5+  Nb117  1  0.49815104  0.24765326  0.99173659  1
  Nb5+  Nb118  1  0.49752449  0.75952916  0.49407705  1
  Nb5+  Nb119  1  0.49450103  0.74792418  1.00336257  1
  Nb5+  Nb120  1  0.25291511  -0.00544281  0.00396707  1
  Nb5+  Nb121  1  0.24151361  -0.00004793  0.49928649  1
  Nb5+  Nb122  1  0.24808495  0.50411495  0.00626114  1
  Nb5+  Nb123  1  0.25105695  0.49392694  0.50801271  1
  Nb5+  Nb124  1  0.74350170  0.00078460  -0.00704603  1
  Nb5+  Nb125  1  0.74683073  0.00039578  0.50250671  1
  Nb5+  Nb126  1  0.75464943  0.49492368  0.00662399  1
  Nb5+  Nb127  1  0.75019763  0.50631125  0.49409163  1
  O2-  O128  1  -0.02979470  -0.01939340  0.13785634  1
  O2-  O129  1  -0.02172545  -0.01286430  0.61464286  1
  O2-  O130  1  -0.01363352  0.49041575  0.14108698  1
  O2-  O131  1  -0.01519394  0.47879875  0.63195186  1
  O2-  O132  1  0.47920010  -0.00778504  0.14102199  1
  O2-  O133  1  0.48168711  -0.01840645  0.60957086  1
  O2-  O134  1  0.47383385  0.47817326  0.13773619  1
  O2-  O135  1  0.48121527  0.48102493  0.61497793  1
  O2-  O136  1  0.01698576  0.00731324  0.37567171  1
  O2-  O137  1  0.02764899  0.01376795  0.86741270  1
  O2-  O138  1  0.04112226  0.51853023  0.36511939  1
  O2-  O139  1  0.02919249  0.51585607  0.86475256  1
  O2-  O140  1  0.52989598  0.01245371  0.37903543  1
  O2-  O141  1  0.53591165  0.01661772  0.86526612  1
  O2-  O142  1  0.51483113  0.50511465  0.37529121  1
  O2-  O143  1  0.51341100  0.51704614  0.86479899  1
  O2-  O144  1  0.24085950  0.24521169  0.12592962  1
  O2-  O145  1  0.21162894  0.24320232  0.63373009  1
  O2-  O146  1  0.21438099  0.73293413  0.13491200  1
  O2-  O147  1  0.21953780  0.73685375  0.63497983  1
  O2-  O148  1  0.71398325  0.23539559  0.13647764  1
  O2-  O149  1  0.72467054  0.23760100  0.61504101  1
  O2-  O150  1  0.73863001  0.74558966  0.13045115  1
  O2-  O151  1  0.72744376  0.72870401  0.63139470  1
  O2-  O152  1  0.27906404  0.27047521  0.36277097  1
  O2-  O153  1  0.27515761  0.26502678  0.88062363  1
  O2-  O154  1  0.26602285  0.75483415  0.36158468  1
  O2-  O155  1  0.28040726  0.75552905  0.86707148  1
  O2-  O156  1  0.76174046  0.25882546  0.37159932  1
  O2-  O157  1  0.78329624  0.26622368  0.86878096  1
  O2-  O158  1  0.77704226  0.76927576  0.36564578  1
  O2-  O159  1  0.76727955  0.76710095  0.88430999  1
  O2-  O160  1  0.01750185  0.27793530  0.11894911  1
  O2-  O161  1  0.00766652  0.26347558  0.60947324  1
  O2-  O162  1  0.00772022  0.77734475  0.13431359  1
  O2-  O163  1  0.00976981  0.77616535  0.61505747  1
  O2-  O164  1  0.51238619  0.27065343  0.13425277  1
  O2-  O165  1  0.52177745  0.27099051  0.61169324  1
  O2-  O166  1  0.51476171  0.78310521  0.11683312  1
  O2-  O167  1  0.51474235  0.76963649  0.61093282  1
  O2-  O168  1  0.23621581  -0.03218773  0.38353720  1
  O2-  O169  1  0.23478938  -0.01530110  0.88486500  1
  O2-  O170  1  0.24357286  0.47791944  0.36948368  1
  O2-  O171  1  0.23583980  0.48033714  0.87072830  1
  O2-  O172  1  0.74118749  -0.01381453  0.37631984  1
  O2-  O173  1  0.73046645  -0.02995997  0.88394230  1
  O2-  O174  1  0.73387679  0.46693804  0.38379427  1
  O2-  O175  1  0.74137886  0.47884157  0.88646230  1
  O2-  O176  1  -0.02093804  0.21545943  0.38160723  1
  O2-  O177  1  -0.00984029  0.21924920  0.88792233  1
  O2-  O178  1  -0.01222772  0.73638253  0.37324010  1
  O2-  O179  1  -0.01593144  0.71591692  0.88698090  1
  O2-  O180  1  0.49005021  0.23083869  0.37515588  1
  O2-  O181  1  0.47936094  0.21915000  0.88270708  1
  O2-  O182  1  0.48236441  0.72190878  0.38125085  1
  O2-  O183  1  0.49850243  0.71922001  0.88624354  1
  O2-  O184  1  0.26684049  0.02936138  0.11797121  1
  O2-  O185  1  0.26134588  0.03745610  0.61082970  1
  O2-  O186  1  0.26626086  0.51754042  0.12211676  1
  O2-  O187  1  0.26570426  0.51443017  0.62179237  1
  O2-  O188  1  0.76359248  0.01940082  0.13421380  1
  O2-  O189  1  0.76645854  0.03151109  0.61124492  1
  O2-  O190  1  0.76055815  0.53108233  0.12003049  1
  O2-  O191  1  0.75469460  0.52012632  0.61216302  1
  O2-  O192  1  0.13720479  0.27928413  0.26453405  1
  O2-  O193  1  0.13401248  0.28376474  0.77628373  1
  O2-  O194  1  0.11977088  0.76602533  0.26756251  1
  O2-  O195  1  0.13476466  0.76518443  0.78060200  1
  O2-  O196  1  0.62127784  0.26393095  0.27048003  1
  O2-  O197  1  0.63402032  0.27565333  0.77303496  1
  O2-  O198  1  0.63557772  0.77656093  0.26615046  1
  O2-  O199  1  0.63344166  0.78409131  0.76302558  1
  O2-  O200  1  0.38067259  0.23165075  0.23391708  1
  O2-  O201  1  0.36029849  0.23777962  0.72284164  1
  O2-  O202  1  0.36662455  0.72167115  0.22199433  1
  O2-  O203  1  0.36641686  0.72641830  0.72685488  1
  O2-  O204  1  0.86301375  0.22134702  0.22872545  1
  O2-  O205  1  0.86539250  0.23298574  0.72160859  1
  O2-  O206  1  0.87675252  0.73538215  0.23542154  1
  O2-  O207  1  0.86380760  0.72021953  0.73942134  1
  O2-  O208  1  0.27290954  0.38024575  0.22921952  1
  O2-  O209  1  0.26842828  0.38008372  0.73498363  1
  O2-  O210  1  0.27599368  0.86402137  0.22802153  1
  O2-  O211  1  0.27116338  0.86856473  0.73421098  1
  O2-  O212  1  0.77505809  0.36296479  0.23410353  1
  O2-  O213  1  0.76642908  0.36853381  0.72314895  1
  O2-  O214  1  0.76815059  0.88172809  0.23779620  1
  O2-  O215  1  0.77785381  0.86479282  0.73437505  1
  O2-  O216  1  0.23021011  0.13808532  0.26510415  1
  O2-  O217  1  0.22708375  0.13889276  0.77531519  1
  O2-  O218  1  0.23401215  0.61719543  0.26310454  1
  O2-  O219  1  0.23320748  0.61806374  0.76268591  1
  O2-  O220  1  0.73207543  0.12148342  0.26828646  1
  O2-  O221  1  0.72748967  0.13726275  0.76373251  1
  O2-  O222  1  0.72990040  0.63687915  0.26982069  1
  O2-  O223  1  0.71992584  0.63658697  0.78010273  1
  O2-  O224  1  0.13498205  0.48202803  0.23125224  1
  O2-  O225  1  0.13264712  0.48590911  0.72886088  1
  O2-  O226  1  0.11473890  0.96780799  0.23422519  1
  O2-  O227  1  0.11501975  0.97531719  0.72252462  1
  O2-  O228  1  0.61492406  0.46496972  0.23606739  1
  O2-  O229  1  0.61277977  0.47667768  0.73307770  1
  O2-  O230  1  0.62889542  0.98583006  0.24049841  1
  O2-  O231  1  0.61585166  0.98385145  0.71508091  1
  O2-  O232  1  0.38553502  0.02466339  0.28154673  1
  O2-  O233  1  0.38553927  0.02424391  0.76287260  1
  O2-  O234  1  0.37453926  0.51602648  0.26745891  1
  O2-  O235  1  0.36932105  0.51885488  0.75952454  1
  O2-  O236  1  0.87205162  0.01594363  0.27091027  1
  O2-  O237  1  0.88388925  0.02566881  0.76698178  1
  O2-  O238  1  0.88460356  0.52504042  0.27974314  1
  O2-  O239  1  0.88299874  0.52719722  0.76800025  1
  O2-  O240  1  0.48206971  0.36812519  0.27226446  1
  O2-  O241  1  0.46900467  0.38516763  0.76151654  1
  O2-  O242  1  0.48316385  0.88660248  0.27588876  1
  O2-  O243  1  0.47856362  0.88555654  0.76355208  1
  O2-  O244  1  0.98051444  0.38502771  0.27625920  1
  O2-  O245  1  0.98311230  0.38450316  0.76861549  1
  O2-  O246  1  0.97996640  0.87265488  0.27267187  1
  O2-  O247  1  0.97509464  0.88442857  0.76282350  1
  O2-  O248  1  0.02369038  0.11056755  0.23453051  1
  O2-  O249  1  0.01937801  0.11596222  0.72318806  1
  O2-  O250  1  0.01499050  0.63198593  0.23733385  1
  O2-  O251  1  0.02338391  0.61697294  0.72264449  1
  O2-  O252  1  0.52058329  0.12760829  0.24153392  1
  O2-  O253  1  0.51591788  0.11801742  0.72087212  1
  O2-  O254  1  0.52454983  0.61032187  0.23457096  1
  O2-  O255  1  0.50787880  0.61223069  0.71645706  1
  O2-  O256  1  0.13548763  0.46980291  0.01607067  1
  O2-  O257  1  0.13933838  0.46429937  0.51444992  1
  O2-  O258  1  0.13441984  0.98490543  0.02333835  1
  O2-  O259  1  0.12452614  0.98307995  0.51529600  1
  O2-  O260  1  0.63368965  0.48346722  0.01267089  1
  O2-  O261  1  0.61981037  0.47608505  0.51275596  1
  O2-  O262  1  0.63389722  0.98214136  0.03339474  1
  O2-  O263  1  0.62963336  0.98414079  0.51240986  1
  O2-  O264  1  0.36823577  0.02144741  -0.02017763  1
  O2-  O265  1  0.38258689  0.01888743  0.47500381  1
  O2-  O266  1  0.36225915  0.51970513  -0.02367392  1
  O2-  O267  1  0.38218819  0.51585329  0.48179264  1
  O2-  O268  1  0.86113872  0.02243335  -0.01114029  1
  O2-  O269  1  0.87724487  0.01815428  0.47857652  1
  O2-  O270  1  0.86819605  0.52449902  -0.01548592  1
  O2-  O271  1  0.86503303  0.52068838  0.47986438  1
  O2-  O272  1  0.47309789  0.36423677  -0.01120185  1
  O2-  O273  1  0.48775222  0.36983550  0.47831144  1
  O2-  O274  1  0.47988763  0.86483257  -0.02744005  1
  O2-  O275  1  0.48353025  0.87626588  0.47453538  1
  O2-  O276  1  0.98140444  0.36526012  -0.02093866  1
  O2-  O277  1  0.97442806  0.36419517  0.47284932  1
  O2-  O278  1  0.96586394  0.86359699  -0.01521727  1
  O2-  O279  1  0.98221640  0.87988990  0.48176730  1
  O2-  O280  1  0.02513755  0.13269916  0.02675625  1
  O2-  O281  1  0.01721146  0.11796686  0.51220817  1
  O2-  O282  1  0.01377899  0.63970672  0.03769194  1
  O2-  O283  1  0.03070353  0.63410098  0.51500441  1
  O2-  O284  1  0.51527489  0.13744370  0.03114591  1
  O2-  O285  1  0.52057327  0.12061051  0.51317908  1
  O2-  O286  1  0.52373748  0.63291773  0.03007734  1
  O2-  O287  1  0.52172520  0.61646475  0.51185259  1
  O2-  O288  1  0.13356140  0.26859341  -0.01212151  1
  O2-  O289  1  0.11425811  0.26380368  0.46992322  1
  O2-  O290  1  0.11186302  0.77918303  -0.01524291  1
  O2-  O291  1  0.11718355  0.77488129  0.47852327  1
  O2-  O292  1  0.61291168  0.27316568  -0.02305263  1
  O2-  O293  1  0.62588494  0.25813085  0.47682911  1
  O2-  O294  1  0.63118372  0.76843160  -0.00769214  1
  O2-  O295  1  0.61538443  0.76534367  0.47355391  1
  O2-  O296  1  0.37297035  0.23355698  0.01956431  1
  O2-  O297  1  0.38898906  0.22525727  0.51513598  1
  O2-  O298  1  0.38261546  0.72588064  0.02333576  1
  O2-  O299  1  0.38472315  0.72776637  0.51608392  1
  O2-  O300  1  0.88203504  0.22776340  0.02761016  1
  O2-  O301  1  0.86694110  0.22983640  0.51162048  1
  O2-  O302  1  0.86955679  0.73326000  0.02102164  1
  O2-  O303  1  0.88548554  0.72568491  0.51129063  1
  O2-  O304  1  0.27220483  0.37418958  0.01240001  1
  O2-  O305  1  0.28960869  0.38252846  0.50866941  1
  O2-  O306  1  0.27336270  0.88172512  0.02266878  1
  O2-  O307  1  0.27743678  0.88859785  0.52511878  1
  O2-  O308  1  0.77441697  0.38299487  0.03089190  1
  O2-  O309  1  0.76454739  0.36742953  0.51410608  1
  O2-  O310  1  0.76550376  0.87432093  0.02081735  1
  O2-  O311  1  0.77147345  0.88791416  0.51897664  1
  O2-  O312  1  0.23470793  0.13401814  -0.01390604  1
  O2-  O313  1  0.23524974  0.11541987  0.46518359  1
  O2-  O314  1  0.21646954  0.61279111  -0.01640365  1
  O2-  O315  1  0.23692049  0.60906664  0.47990355  1
  O2-  O316  1  0.72196310  0.11537756  -0.02173865  1
  O2-  O317  1  0.73507539  0.12625131  0.47783217  1
  O2-  O318  1  0.73303094  0.63378315  -0.01031040  1
  O2-  O319  1  0.72209977  0.61541146  0.47254472  1
