# generated using pymatgen
data_Sr64Ca21Nb43O192
_symmetry_space_group_name_H-M   'P 1'
_cell_length_a   16.54426944
_cell_length_b   16.58342455
_cell_length_c   16.75454486
_cell_angle_alpha   90.00695579
_cell_angle_beta   89.94325932
_cell_angle_gamma   90.03697749
_symmetry_Int_Tables_number   1
_chemical_formula_structural   Sr64Ca21Nb43O192
_chemical_formula_sum   'Sr64 Ca21 Nb43 O192'
_cell_volume   4596.78447199
_cell_formula_units_Z   1
loop_
 _symmetry_equiv_pos_site_id
 _symmetry_equiv_pos_as_xyz
  1  'x, y, z'
loop_
 _atom_type_symbol
 _atom_type_oxidation_number
  Sr2+  2.0
  Ca2+  2.0
  Nb5+  5.0
  O2-  -2.0
loop_
 _atom_site_type_symbol
 _atom_site_label
 _atom_site_symmetry_multiplicity
 _atom_site_fract_x
 _atom_site_fract_y
 _atom_site_fract_z
 _atom_site_occupancy
  Sr2+  Sr0  1  0.12493401  0.14569361  0.12390483  1
  Sr2+  Sr1  1  0.12838236  0.13975740  0.63136878  1
  Sr2+  Sr2  1  0.12673502  0.62456082  0.12618301  1
  Sr2+  Sr3  1  0.12860859  0.62449795  0.62302361  1
  Sr2+  Sr4  1  0.61685818  0.12834859  0.11181249  1
  Sr2+  Sr5  1  0.62063746  0.14659077  0.62606672  1
  Sr2+  Sr6  1  0.62021529  0.62564010  0.11804184  1
  Sr2+  Sr7  1  0.62702038  0.62543863  0.63745509  1
  Sr2+  Sr8  1  0.36344236  0.38026762  0.12992682  1
  Sr2+  Sr9  1  0.37311197  0.36072199  0.61452255  1
  Sr2+  Sr10  1  0.37377825  0.86834460  0.12435496  1
  Sr2+  Sr11  1  0.36515587  0.87275268  0.62838035  1
  Sr2+  Sr12  1  0.86887268  0.37451584  0.12082560  1
  Sr2+  Sr13  1  0.87978914  0.37499033  0.63223787  1
  Sr2+  Sr14  1  0.88109311  0.87579376  0.12659822  1
  Sr2+  Sr15  1  0.87638172  0.87286889  0.62245949  1
  Sr2+  Sr16  1  0.11907078  0.37478767  0.36957705  1
  Sr2+  Sr17  1  0.11550646  0.36501060  0.87150424  1
  Sr2+  Sr18  1  0.12486965  0.88412534  0.37196937  1
  Sr2+  Sr19  1  0.12820613  0.88078141  0.87465062  1
  Sr2+  Sr20  1  0.63385233  0.37819387  0.37832125  1
  Sr2+  Sr21  1  0.63005579  0.37836274  0.87291181  1
  Sr2+  Sr22  1  0.62107839  0.88419956  0.37953857  1
  Sr2+  Sr23  1  0.63955075  0.88094671  0.87637778  1
  Sr2+  Sr24  1  0.38306118  0.10753303  0.37855745  1
  Sr2+  Sr25  1  0.38575280  0.11791098  0.87440887  1
  Sr2+  Sr26  1  0.37938913  0.62349582  0.37495828  1
  Sr2+  Sr27  1  0.38285172  0.61853059  0.87707386  1
  Sr2+  Sr28  1  0.87714143  0.12152072  0.37262667  1
  Sr2+  Sr29  1  0.87351125  0.11809961  0.87904778  1
  Sr2+  Sr30  1  0.86779455  0.63150522  0.37175769  1
  Sr2+  Sr31  1  0.87406036  0.61402863  0.86680573  1
  Sr2+  Sr32  1  0.11743847  0.13554470  0.37150509  1
  Sr2+  Sr33  1  0.12894955  0.12084083  0.87473385  1
  Sr2+  Sr34  1  0.12865704  0.62767835  0.37733129  1
  Sr2+  Sr35  1  0.12222542  0.59812102  0.87277292  1
  Sr2+  Sr36  1  0.63742338  0.13885770  0.37684527  1
  Sr2+  Sr37  1  0.62075186  0.13734223  0.87449656  1
  Sr2+  Sr38  1  0.62144931  0.62494098  0.37363872  1
  Sr2+  Sr39  1  0.63698097  0.62122058  0.87471214  1
  Sr2+  Sr40  1  0.37675289  0.37412442  0.37303541  1
  Sr2+  Sr41  1  0.37356203  0.35843941  0.87521424  1
  Sr2+  Sr42  1  0.37792994  0.87117040  0.37782845  1
  Sr2+  Sr43  1  0.37581919  0.87951460  0.86736531  1
  Sr2+  Sr44  1  0.87477483  0.36693701  0.37455758  1
  Sr2+  Sr45  1  0.87116257  0.39024525  0.87028114  1
  Sr2+  Sr46  1  0.86714035  0.88734742  0.37368921  1
  Sr2+  Sr47  1  0.87925993  0.87690918  0.87937118  1
  Sr2+  Sr48  1  0.13195020  0.38186591  0.12267949  1
  Sr2+  Sr49  1  0.13132294  0.38381333  0.63236562  1
  Sr2+  Sr50  1  0.12253362  0.87448339  0.11981514  1
  Sr2+  Sr51  1  0.12959875  0.87766275  0.63341068  1
  Sr2+  Sr52  1  0.61688372  0.38631943  0.11876648  1
  Sr2+  Sr53  1  0.61109952  0.38396410  0.62479991  1
  Sr2+  Sr54  1  0.62176780  0.87313843  0.11555939  1
  Sr2+  Sr55  1  0.64426173  0.87578654  0.63643760  1
  Sr2+  Sr56  1  0.37136266  0.12248962  0.11491921  1
  Sr2+  Sr57  1  0.37389099  0.12396241  0.63714358  1
  Sr2+  Sr58  1  0.36914085  0.62298822  0.12985669  1
  Sr2+  Sr59  1  0.38650706  0.62554023  0.61903571  1
  Sr2+  Sr60  1  0.88200797  0.12600523  0.12803058  1
  Sr2+  Sr61  1  0.85868518  0.12679131  0.63020954  1
  Sr2+  Sr62  1  0.84652865  0.62770146  0.12442121  1
  Sr2+  Sr63  1  0.90565059  0.62752724  0.62691291  1
  Ca2+  Ca64  1  -0.00115032  0.50020718  0.00420845  1
  Ca2+  Ca65  1  0.00104153  -0.00129159  0.49881148  1
  Ca2+  Ca66  1  0.00003119  0.49627390  0.49676076  1
  Ca2+  Ca67  1  0.50074080  -0.00244206  0.50702437  1
  Ca2+  Ca68  1  0.49648731  0.50057387  0.00061290  1
  Ca2+  Ca69  1  0.24698059  0.24823017  0.49666908  1
  Ca2+  Ca70  1  0.24759601  0.74789848  -0.00219678  1
  Ca2+  Ca71  1  0.75095972  0.75346920  0.00369889  1
  Ca2+  Ca72  1  0.24866625  0.25090787  -0.00110953  1
  Ca2+  Ca73  1  0.75093382  0.24887115  0.00050826  1
  Ca2+  Ca74  1  0.75033816  0.49674309  0.25238371  1
  Ca2+  Ca75  1  0.00448693  0.75289687  0.75357795  1
  Ca2+  Ca76  1  0.50158985  0.75157040  0.74925024  1
  Ca2+  Ca77  1  0.49881023  0.25525635  0.75132347  1
  Ca2+  Ca78  1  0.74512888  0.00034748  0.24785222  1
  Ca2+  Ca79  1  0.25642474  0.50133314  0.74630117  1
  Ca2+  Ca80  1  -0.00328612  0.24403981  0.75129011  1
  Ca2+  Ca81  1  0.74830494  0.49994399  0.74159236  1
  Ca2+  Ca82  1  0.50109233  0.24802824  0.24894614  1
  Ca2+  Ca83  1  0.75291617  0.00283853  0.75188774  1
  Ca2+  Ca84  1  0.25274711  -0.00156126  0.24671717  1
  Nb5+  Nb85  1  0.49847043  0.50171755  0.49756229  1
  Nb5+  Nb86  1  0.50467081  -0.00306564  -0.00239260  1
  Nb5+  Nb87  1  0.00558258  0.00075300  0.00199450  1
  Nb5+  Nb88  1  0.75179510  0.26032969  0.50269291  1
  Nb5+  Nb89  1  0.75670447  0.75103577  0.50149271  1
  Nb5+  Nb90  1  0.25557894  0.74914768  0.49930770  1
  Nb5+  Nb91  1  0.25023765  0.50039812  0.25310780  1
  Nb5+  Nb92  1  -0.00102361  0.26116643  0.24721970  1
  Nb5+  Nb93  1  0.49367030  0.75072494  0.24986607  1
  Nb5+  Nb94  1  -0.00439171  0.74997828  0.25193875  1
  Nb5+  Nb95  1  0.25017532  0.00112870  0.75092067  1
  Nb5+  Nb96  1  0.00655766  0.00489397  0.24869364  1
  Nb5+  Nb97  1  -0.00041982  0.00234601  0.74729705  1
  Nb5+  Nb98  1  -0.00126856  0.51009518  0.24758887  1
  Nb5+  Nb99  1  0.00285754  0.49753171  0.74847777  1
  Nb5+  Nb100  1  0.50479405  0.00289723  0.24946443  1
  Nb5+  Nb101  1  0.50516131  0.00165354  0.74737477  1
  Nb5+  Nb102  1  0.49890459  0.49809125  0.25115935  1
  Nb5+  Nb103  1  0.49538004  0.49869191  0.75711571  1
  Nb5+  Nb104  1  0.25247567  0.24449084  0.25533751  1
  Nb5+  Nb105  1  0.25042810  0.25240212  0.74848850  1
  Nb5+  Nb106  1  0.24512065  0.75164445  0.25378509  1
  Nb5+  Nb107  1  0.25111290  0.74476497  0.75479268  1
  Nb5+  Nb108  1  0.75153717  0.25103506  0.24606868  1
  Nb5+  Nb109  1  0.74763418  0.25163791  0.75357422  1
  Nb5+  Nb110  1  0.73810998  0.75213749  0.25416980  1
  Nb5+  Nb111  1  0.75629813  0.75147447  0.75505499  1
  Nb5+  Nb112  1  -0.00245526  0.24963957  0.50542201  1
  Nb5+  Nb113  1  -0.00398238  0.25089537  0.99890868  1
  Nb5+  Nb114  1  0.01078002  0.75249611  0.49627016  1
  Nb5+  Nb115  1  -0.00029530  0.74560258  0.99852705  1
  Nb5+  Nb116  1  0.49880921  0.24420381  0.49122706  1
  Nb5+  Nb117  1  0.49662613  0.25670308  1.00640582  1
  Nb5+  Nb118  1  0.50751269  0.75021953  0.49910904  1
  Nb5+  Nb119  1  0.49678559  0.75103802  0.99382912  1
  Nb5+  Nb120  1  0.25478069  -0.00369753  0.00029667  1
  Nb5+  Nb121  1  0.24556462  0.00321648  0.49969700  1
  Nb5+  Nb122  1  0.25232946  0.50097451  -0.00754255  1
  Nb5+  Nb123  1  0.25027113  0.49863513  0.49701978  1
  Nb5+  Nb124  1  0.75720790  0.00478946  0.00475015  1
  Nb5+  Nb125  1  0.74610393  0.00599953  0.50108928  1
  Nb5+  Nb126  1  0.74879531  0.50006998  -0.00061463  1
  Nb5+  Nb127  1  0.75238131  0.50997179  0.50174245  1
  O2-  O128  1  0.00153465  -0.01375781  0.12454855  1
  O2-  O129  1  0.00185875  -0.01803876  0.63454708  1
  O2-  O130  1  0.03269321  0.49489131  0.13649806  1
  O2-  O131  1  0.02172735  0.48807989  0.63032025  1
  O2-  O132  1  0.50485748  0.00764294  0.11961333  1
  O2-  O133  1  0.50831015  0.03352763  0.63761227  1
  O2-  O134  1  0.51288274  0.51708513  0.13747334  1
  O2-  O135  1  0.51127804  0.52042555  0.61220861  1
  O2-  O136  1  0.01363788  0.00083265  0.36323398  1
  O2-  O137  1  -0.00494240  0.01527520  0.88560213  1
  O2-  O138  1  -0.01371052  0.48928822  0.36170285  1
  O2-  O139  1  -0.01493195  0.51048933  0.86845510  1
  O2-  O140  1  0.48896583  -0.01537104  0.36487827  1
  O2-  O141  1  0.49071904  -0.01773821  0.88006631  1
  O2-  O142  1  0.47549210  0.49544469  0.37409415  1
  O2-  O143  1  0.47623690  0.47577870  0.86763733  1
  O2-  O144  1  0.26845640  0.25627188  0.13879521  1
  O2-  O145  1  0.27386497  0.23937983  0.62921508  1
  O2-  O146  1  0.23466061  0.75504886  0.13855187  1
  O2-  O147  1  0.22733882  0.75503965  0.61275525  1
  O2-  O148  1  0.77846458  0.23789460  0.13584827  1
  O2-  O149  1  0.77143704  0.24883792  0.61795419  1
  O2-  O150  1  0.72670292  0.73983198  0.14018137  1
  O2-  O151  1  0.72638192  0.74554565  0.61392623  1
  O2-  O152  1  0.21325077  0.25724314  0.36567103  1
  O2-  O153  1  0.21852408  0.24868853  0.86379301  1
  O2-  O154  1  0.26506721  0.73703070  0.37641625  1
  O2-  O155  1  0.28111520  0.73636737  0.86394189  1
  O2-  O156  1  0.73400084  0.26309018  0.38158155  1
  O2-  O157  1  0.72277156  0.25638239  0.86536276  1
  O2-  O158  1  0.76563771  0.75349816  0.37887186  1
  O2-  O159  1  0.77694396  0.75613958  0.86860375  1
  O2-  O160  1  -0.02125891  0.24754374  0.13047809  1
  O2-  O161  1  -0.03035719  0.23499230  0.61501525  1
  O2-  O162  1  0.02673370  0.75240327  0.13937399  1
  O2-  O163  1  0.01558408  0.76538291  0.61179684  1
  O2-  O164  1  0.48001979  0.21800734  0.11894343  1
  O2-  O165  1  0.48543482  0.23765371  0.60965188  1
  O2-  O166  1  0.52354183  0.74550283  0.13603375  1
  O2-  O167  1  0.51641691  0.72983239  0.61133326  1
  O2-  O168  1  0.26131186  -0.00102382  0.38482810  1
  O2-  O169  1  0.25060115  0.01719241  0.87199089  1
  O2-  O170  1  0.27183123  0.50911637  0.37258063  1
  O2-  O171  1  0.26887356  0.51041541  0.88040775  1
  O2-  O172  1  0.73155849  -0.01046405  0.38335189  1
  O2-  O173  1  0.76445986  -0.02107139  0.88624212  1
  O2-  O174  1  0.76534955  0.48726374  0.38778446  1
  O2-  O175  1  0.75898277  0.50596736  0.87871411  1
  O2-  O176  1  0.01801500  0.25805109  0.36692214  1
  O2-  O177  1  0.02014074  0.23839747  0.88733533  1
  O2-  O178  1  -0.00992217  0.72961247  0.37253639  1
  O2-  O179  1  -0.02902237  0.74190218  0.88835329  1
  O2-  O180  1  0.52801907  0.27385111  0.38150419  1
  O2-  O181  1  0.51980413  0.27383150  0.88856254  1
  O2-  O182  1  0.48597351  0.75910757  0.37206652  1
  O2-  O183  1  0.46830328  0.75881430  0.88406305  1
  O2-  O184  1  0.25287576  -0.03156771  0.11182835  1
  O2-  O185  1  0.24636870  -0.01087457  0.62910924  1
  O2-  O186  1  0.24180333  0.49649180  0.13361895  1
  O2-  O187  1  0.23366711  0.50183769  0.61147877  1
  O2-  O188  1  0.73711516  0.03104585  0.11757567  1
  O2-  O189  1  0.76742569  -0.00593070  0.61547500  1
  O2-  O190  1  0.73289820  0.49637792  0.11943089  1
  O2-  O191  1  0.71120132  0.49882546  0.60938853  1
  O2-  O192  1  0.11897243  0.26915260  0.22853371  1
  O2-  O193  1  0.13260576  0.26558322  0.72037314  1
  O2-  O194  1  0.12968070  0.76234377  0.27532828  1
  O2-  O195  1  0.13981621  0.78441743  0.75866437  1
  O2-  O196  1  0.63920650  0.27376607  0.23062947  1
  O2-  O197  1  0.63220850  0.27295814  0.72050262  1
  O2-  O198  1  0.62351573  0.76641082  0.27523489  1
  O2-  O199  1  0.63660773  0.77774448  0.76338547  1
  O2-  O200  1  0.36370124  0.23093291  0.28355384  1
  O2-  O201  1  0.36517188  0.22801965  0.77410723  1
  O2-  O202  1  0.37714702  0.72763987  0.24109819  1
  O2-  O203  1  0.36168888  0.74288291  0.71212292  1
  O2-  O204  1  0.88579158  0.23219626  0.27074054  1
  O2-  O205  1  0.86220657  0.21678682  0.76425031  1
  O2-  O206  1  0.88305647  0.72442354  0.24072498  1
  O2-  O207  1  0.86899230  0.73446767  0.72058659  1
  O2-  O208  1  0.26698775  0.37987944  0.25733510  1
  O2-  O209  1  0.27461773  0.36607866  0.74375820  1
  O2-  O210  1  0.27569864  0.86208023  0.26386868  1
  O2-  O211  1  0.27232578  0.88116718  0.75640242  1
  O2-  O212  1  0.78659879  0.36449895  0.25190327  1
  O2-  O213  1  0.77968702  0.36614181  0.74564548  1
  O2-  O214  1  0.77908163  0.86142916  0.24723262  1
  O2-  O215  1  0.77190861  0.86794670  0.73139195  1
  O2-  O216  1  0.22154408  0.13303480  0.24775678  1
  O2-  O217  1  0.23133638  0.12005843  0.73957521  1
  O2-  O218  1  0.23617730  0.62421821  0.24985828  1
  O2-  O219  1  0.21891855  0.63519615  0.74436127  1
  O2-  O220  1  0.74866419  0.13698531  0.27657457  1
  O2-  O221  1  0.71964565  0.13395147  0.73759362  1
  O2-  O222  1  0.74195784  0.63364106  0.26773489  1
  O2-  O223  1  0.72814601  0.63591512  0.75155692  1
  O2-  O224  1  0.13283143  0.48728428  0.27004244  1
  O2-  O225  1  0.12075653  0.47409054  0.77040418  1
  O2-  O226  1  0.11871556  0.96585217  0.24138429  1
  O2-  O227  1  0.13093020  0.97811720  0.75724064  1
  O2-  O228  1  0.61308935  0.48403046  0.27204267  1
  O2-  O229  1  0.61249001  0.47058863  0.75496863  1
  O2-  O230  1  0.61223634  0.95448866  0.24313805  1
  O2-  O231  1  0.61711431  0.97601677  0.75949835  1
  O2-  O232  1  0.38777597  0.03100790  0.23751660  1
  O2-  O233  1  0.37088054  0.02008935  0.74981710  1
  O2-  O234  1  0.37291712  0.51952758  0.24077216  1
  O2-  O235  1  0.38575286  0.54327765  0.73955453  1
  O2-  O236  1  0.88748793  0.00884298  0.24745364  1
  O2-  O237  1  0.88815118  0.03253892  0.75084063  1
  O2-  O238  1  0.88753163  0.52691792  0.22839071  1
  O2-  O239  1  0.88422642  0.52072728  0.73178411  1
  O2-  O240  1  0.47433305  0.38476934  0.23897595  1
  O2-  O241  1  0.46937295  0.38860500  0.72002167  1
  O2-  O242  1  0.47016192  0.86764984  0.24132534  1
  O2-  O243  1  0.47302570  0.88840127  0.73409360  1
  O2-  O244  1  0.98350872  0.37558609  0.24319937  1
  O2-  O245  1  0.97732496  0.37886976  0.75727666  1
  O2-  O246  1  0.98281675  0.86527941  0.26022309  1
  O2-  O247  1  0.98753688  0.88821821  0.77716936  1
  O2-  O248  1  0.02220003  0.12177813  0.24263021  1
  O2-  O249  1  0.03972656  0.11285609  0.75170210  1
  O2-  O250  1  0.02975154  0.62330254  0.25318951  1
  O2-  O251  1  0.02625432  0.61809263  0.74056678  1
  O2-  O252  1  0.54344362  0.11156728  0.25934888  1
  O2-  O253  1  0.50857349  0.11753022  0.77913219  1
  O2-  O254  1  0.51209945  0.62864338  0.26394610  1
  O2-  O255  1  0.53113413  0.61555637  0.76643191  1
  O2-  O256  1  0.13580275  0.46622168  -0.01636117  1
  O2-  O257  1  0.13696786  0.48420387  0.47251822  1
  O2-  O258  1  0.12221505  0.98106118  -0.00449353  1
  O2-  O259  1  0.13591757  0.95831799  0.50281986  1
  O2-  O260  1  0.62986592  0.47189495  -0.01219613  1
  O2-  O261  1  0.61469708  0.49358330  0.47328755  1
  O2-  O262  1  0.62037889  0.97922657  -0.00464778  1
  O2-  O263  1  0.63353268  0.96569877  0.51380990  1
  O2-  O264  1  0.37257275  0.01562746  0.00070246  1
  O2-  O265  1  0.36328670  0.02485526  0.51599824  1
  O2-  O266  1  0.36578791  0.53681926  0.01313257  1
  O2-  O267  1  0.37532897  0.52316297  0.50613996  1
  O2-  O268  1  0.87489142  0.02183456  0.01166938  1
  O2-  O269  1  0.86400985  0.01154761  0.47992386  1
  O2-  O270  1  0.86539829  0.53240007  0.01059330  1
  O2-  O271  1  0.86282476  0.52353774  0.52456002  1
  O2-  O272  1  0.48019975  0.36707549  0.03423761  1
  O2-  O273  1  0.48486967  0.38301399  0.50846354  1
  O2-  O274  1  0.47800131  0.87886321  0.01484775  1
  O2-  O275  1  0.47341749  0.86065769  0.50694962  1
  O2-  O276  1  0.96925904  0.36334506  -0.00288449  1
  O2-  O277  1  0.96421985  0.36264447  0.49591106  1
  O2-  O278  1  0.97547383  0.88375395  -0.00237739  1
  O2-  O279  1  0.97076604  0.86098568  0.48048152  1
  O2-  O280  1  0.02011475  0.11870109  0.01850914  1
  O2-  O281  1  0.01027142  0.13524075  0.47944244  1
  O2-  O282  1  0.02946457  0.63560274  0.00522710  1
  O2-  O283  1  0.01672885  0.63339669  0.50785907  1
  O2-  O284  1  0.51452448  0.11606911  -0.01455133  1
  O2-  O285  1  0.51927357  0.13232412  0.47421526  1
  O2-  O286  1  0.52221596  0.63744877  -0.01076477  1
  O2-  O287  1  0.50507936  0.62760723  0.47631441  1
  O2-  O288  1  0.11242070  0.26530456  0.02838942  1
  O2-  O289  1  0.10999107  0.27315478  0.52393593  1
  O2-  O290  1  0.11045209  0.78622547  -0.00574639  1
  O2-  O291  1  0.12561794  0.76629366  0.47441482  1
  O2-  O292  1  0.61551660  0.25781669  0.02859870  1
  O2-  O293  1  0.62941372  0.26355158  0.51710994  1
  O2-  O294  1  0.61223302  0.78159173  -0.01075331  1
  O2-  O295  1  0.62217881  0.76292574  0.47800242  1
  O2-  O296  1  0.38338313  0.22951155  -0.02290944  1
  O2-  O297  1  0.38473001  0.23891117  0.47059288  1
  O2-  O298  1  0.38546713  0.74076779  0.03586353  1
  O2-  O299  1  0.37112610  0.72835926  0.50766740  1
  O2-  O300  1  0.88464724  0.21243233  -0.00557518  1
  O2-  O301  1  0.86483500  0.22950224  0.47753551  1
  O2-  O302  1  0.88876193  0.74577326  0.04177385  1
  O2-  O303  1  0.86956502  0.72421796  0.51069921  1
  O2-  O304  1  0.28446520  0.38529294  0.00193013  1
  O2-  O305  1  0.27652376  0.38502488  0.49472680  1
  O2-  O306  1  0.26031087  0.88329961  -0.03335991  1
  O2-  O307  1  0.27509909  0.86656092  0.49408674  1
  O2-  O308  1  0.77968154  0.38298799  -0.00297959  1
  O2-  O309  1  0.76355719  0.37573492  0.50689877  1
  O2-  O310  1  0.76092123  0.88747798  0.02868226  1
  O2-  O311  1  0.77100311  0.86610620  0.50377379  1
  O2-  O312  1  0.23004260  0.11217076  0.01446900  1
  O2-  O313  1  0.21021276  0.11314626  0.50083909  1
  O2-  O314  1  0.21444210  0.61485880  0.00564797  1
  O2-  O315  1  0.23080555  0.62739137  0.49791150  1
  O2-  O316  1  0.72524329  0.11475905  -0.02356783  1
  O2-  O317  1  0.72704036  0.12315343  0.50393454  1
  O2-  O318  1  0.72037949  0.62013871  0.00312025  1
  O2-  O319  1  0.72733136  0.62506207  0.48735386  1
