# generated using pymatgen
data_Sr64Ca21Nb43O192
_symmetry_space_group_name_H-M   'P 1'
_cell_length_a   16.58515346
_cell_length_b   16.60262204
_cell_length_c   16.73397951
_cell_angle_alpha   90.01063119
_cell_angle_beta   90.00781133
_cell_angle_gamma   89.99984406
_symmetry_Int_Tables_number   1
_chemical_formula_structural   Sr64Ca21Nb43O192
_chemical_formula_sum   'Sr64 Ca21 Nb43 O192'
_cell_volume   4607.81885222
_cell_formula_units_Z   1
loop_
 _symmetry_equiv_pos_site_id
 _symmetry_equiv_pos_as_xyz
  1  'x, y, z'
loop_
 _atom_type_symbol
 _atom_type_oxidation_number
  Sr2+  2.0
  Ca2+  2.0
  Nb5+  5.0
  O2-  -2.0
loop_
 _atom_site_type_symbol
 _atom_site_label
 _atom_site_symmetry_multiplicity
 _atom_site_fract_x
 _atom_site_fract_y
 _atom_site_fract_z
 _atom_site_occupancy
  Sr2+  Sr0  1  0.12436964  0.13388639  0.13534511  1
  Sr2+  Sr1  1  0.13076431  0.13850800  0.62745151  1
  Sr2+  Sr2  1  0.12415527  0.63371118  0.12792101  1
  Sr2+  Sr3  1  0.12783069  0.63001212  0.60334491  1
  Sr2+  Sr4  1  0.63120615  0.14343466  0.13089485  1
  Sr2+  Sr5  1  0.62806460  0.13305783  0.62687629  1
  Sr2+  Sr6  1  0.62760660  0.62304174  0.12877140  1
  Sr2+  Sr7  1  0.63776355  0.63342617  0.62579088  1
  Sr2+  Sr8  1  0.39264388  0.39306703  0.12947178  1
  Sr2+  Sr9  1  0.38873952  0.38953831  0.62426741  1
  Sr2+  Sr10  1  0.37401307  0.88176286  0.12580839  1
  Sr2+  Sr11  1  0.38357148  0.88506467  0.62505393  1
  Sr2+  Sr12  1  0.86506211  0.38904445  0.12359653  1
  Sr2+  Sr13  1  0.86718090  0.39579240  0.62902895  1
  Sr2+  Sr14  1  0.87652535  0.87327922  0.13016443  1
  Sr2+  Sr15  1  0.87214594  0.86091468  0.62935679  1
  Sr2+  Sr16  1  0.12656001  0.37436472  0.37129744  1
  Sr2+  Sr17  1  0.12334738  0.37273995  0.87730175  1
  Sr2+  Sr18  1  0.11902180  0.87317513  0.37629848  1
  Sr2+  Sr19  1  0.12628991  0.87421967  0.87599728  1
  Sr2+  Sr20  1  0.61230652  0.36793655  0.37277341  1
  Sr2+  Sr21  1  0.61057466  0.36222880  0.87473798  1
  Sr2+  Sr22  1  0.62097613  0.87024053  0.38992036  1
  Sr2+  Sr23  1  0.61226285  0.86649338  0.86944794  1
  Sr2+  Sr24  1  0.36323552  0.11480903  0.37381124  1
  Sr2+  Sr25  1  0.35917829  0.12148827  0.87195962  1
  Sr2+  Sr26  1  0.36311085  0.61397221  0.37332090  1
  Sr2+  Sr27  1  0.36956753  0.62462896  0.87820273  1
  Sr2+  Sr28  1  0.88513665  0.11869243  0.38370428  1
  Sr2+  Sr29  1  0.88793836  0.11915497  0.88024429  1
  Sr2+  Sr30  1  0.88032622  0.61732320  0.36808202  1
  Sr2+  Sr31  1  0.88563254  0.61780006  0.87118241  1
  Sr2+  Sr32  1  0.12591102  0.15038229  0.37135424  1
  Sr2+  Sr33  1  0.12388587  0.13955445  0.87459066  1
  Sr2+  Sr34  1  0.12406722  0.60414211  0.37265578  1
  Sr2+  Sr35  1  0.12845677  0.60946538  0.87899783  1
  Sr2+  Sr36  1  0.62541616  0.11215525  0.38027897  1
  Sr2+  Sr37  1  0.62685054  0.12185320  0.88113968  1
  Sr2+  Sr38  1  0.62362974  0.62523569  0.36551604  1
  Sr2+  Sr39  1  0.61414898  0.62242043  0.87921034  1
  Sr2+  Sr40  1  0.36908486  0.37226001  0.37352503  1
  Sr2+  Sr41  1  0.37331160  0.38444591  0.86933195  1
  Sr2+  Sr42  1  0.37084939  0.86290281  0.38445269  1
  Sr2+  Sr43  1  0.36575906  0.86014892  0.87636914  1
  Sr2+  Sr44  1  0.87434170  0.36984087  0.39151152  1
  Sr2+  Sr45  1  0.87906814  0.37343155  0.87603113  1
  Sr2+  Sr46  1  0.87515992  0.85533025  0.37219080  1
  Sr2+  Sr47  1  0.87482575  0.87037877  0.87012204  1
  Sr2+  Sr48  1  0.12276966  0.38783207  0.12615383  1
  Sr2+  Sr49  1  0.12561513  0.39042798  0.61691605  1
  Sr2+  Sr50  1  0.12404366  0.87885076  0.12815891  1
  Sr2+  Sr51  1  0.13817403  0.87791824  0.62421150  1
  Sr2+  Sr52  1  0.62766335  0.37970794  0.12637274  1
  Sr2+  Sr53  1  0.63214647  0.37897956  0.62821789  1
  Sr2+  Sr54  1  0.63291825  0.88451530  0.12391458  1
  Sr2+  Sr55  1  0.63356602  0.88923919  0.62705302  1
  Sr2+  Sr56  1  0.38320559  0.12754668  0.13505091  1
  Sr2+  Sr57  1  0.38871136  0.12999681  0.62357115  1
  Sr2+  Sr58  1  0.38732561  0.63806597  0.12441810  1
  Sr2+  Sr59  1  0.37582456  0.63132463  0.61997324  1
  Sr2+  Sr60  1  0.86730240  0.12786864  0.12408460  1
  Sr2+  Sr61  1  0.87294749  0.13193272  0.62621763  1
  Sr2+  Sr62  1  0.87701840  0.63238336  0.12649233  1
  Sr2+  Sr63  1  0.86989680  0.62429911  0.62457668  1
  Ca2+  Ca64  1  0.50372201  0.49968435  0.49909897  1
  Ca2+  Ca65  1  0.49943573  0.00235129  -0.00258833  1
  Ca2+  Ca66  1  0.50212581  0.50030801  -0.00183863  1
  Ca2+  Ca67  1  -0.00270858  0.49793430  0.49896417  1
  Ca2+  Ca68  1  0.00006340  -0.00146805  0.49971250  1
  Ca2+  Ca69  1  0.75207941  0.75164972  -0.00015091  1
  Ca2+  Ca70  1  0.74819219  0.75160437  0.49939279  1
  Ca2+  Ca71  1  0.25335496  0.24826598  0.00368644  1
  Ca2+  Ca72  1  0.25645338  0.25008464  0.50101414  1
  Ca2+  Ca73  1  0.25163691  0.75023513  0.49564038  1
  Ca2+  Ca74  1  0.75214440  0.00127237  0.25128167  1
  Ca2+  Ca75  1  -0.00252462  0.25216623  0.74766466  1
  Ca2+  Ca76  1  0.49988607  0.75469944  0.25119195  1
  Ca2+  Ca77  1  0.00120728  0.74918856  0.75341000  1
  Ca2+  Ca78  1  0.25228601  0.50169323  0.24412153  1
  Ca2+  Ca79  1  0.24835564  0.50181783  0.74583615  1
  Ca2+  Ca80  1  0.75310382  0.49522759  0.25464006  1
  Ca2+  Ca81  1  0.49672619  0.75336264  0.74669976  1
  Ca2+  Ca82  1  0.74688395  0.49982393  0.75712587  1
  Ca2+  Ca83  1  0.50052377  0.24841122  0.25350946  1
  Ca2+  Ca84  1  -0.00726821  0.24918634  0.24824685  1
  Nb5+  Nb85  1  0.00033318  0.50648272  0.00172415  1
  Nb5+  Nb86  1  0.00366735  0.00496593  0.00141629  1
  Nb5+  Nb87  1  0.49848080  0.00223472  0.49989467  1
  Nb5+  Nb88  1  0.24840865  0.74844552  0.00069286  1
  Nb5+  Nb89  1  0.74899799  0.24959117  0.50845309  1
  Nb5+  Nb90  1  0.75278186  0.25294095  0.00279180  1
  Nb5+  Nb91  1  0.75869376  0.00658677  0.75075715  1
  Nb5+  Nb92  1  0.49701329  0.24923954  0.74967153  1
  Nb5+  Nb93  1  0.25484400  0.00052163  0.75357245  1
  Nb5+  Nb94  1  0.00368578  0.74713532  0.25085112  1
  Nb5+  Nb95  1  0.24762643  -0.00405169  0.25691844  1
  Nb5+  Nb96  1  -0.00049462  -0.00219648  0.24967774  1
  Nb5+  Nb97  1  0.00949094  -0.00019252  0.74710622  1
  Nb5+  Nb98  1  -0.00247731  0.49277877  0.24735540  1
  Nb5+  Nb99  1  0.00155724  0.50217117  0.74661252  1
  Nb5+  Nb100  1  0.50389760  -0.00671869  0.24792388  1
  Nb5+  Nb101  1  0.50409161  0.00511140  0.75376160  1
  Nb5+  Nb102  1  0.50149958  0.50280727  0.25229658  1
  Nb5+  Nb103  1  0.50330899  0.50863296  0.74721508  1
  Nb5+  Nb104  1  0.25350045  0.25467340  0.24366787  1
  Nb5+  Nb105  1  0.25129955  0.25540837  0.74432125  1
  Nb5+  Nb106  1  0.24934986  0.75052113  0.25138996  1
  Nb5+  Nb107  1  0.24450394  0.74622860  0.74715190  1
  Nb5+  Nb108  1  0.75047972  0.24830521  0.26533985  1
  Nb5+  Nb109  1  0.74882744  0.24772319  0.75698312  1
  Nb5+  Nb110  1  0.74429793  0.75342421  0.24604900  1
  Nb5+  Nb111  1  0.74382017  0.74707633  0.75646231  1
  Nb5+  Nb112  1  0.00442671  0.24960107  0.50341681  1
  Nb5+  Nb113  1  0.00075478  0.25847641  1.00494036  1
  Nb5+  Nb114  1  -0.00360796  0.74827771  0.50360562  1
  Nb5+  Nb115  1  0.00008541  0.75702168  1.00133090  1
  Nb5+  Nb116  1  0.50055167  0.24692068  0.49665465  1
  Nb5+  Nb117  1  0.49577529  0.24479050  1.00063840  1
  Nb5+  Nb118  1  0.50414174  0.74325350  0.50149452  1
  Nb5+  Nb119  1  0.50540544  0.75620743  1.00179552  1
  Nb5+  Nb120  1  0.24628454  0.00132856  0.00930692  1
  Nb5+  Nb121  1  0.24662359  -0.00049290  0.50617451  1
  Nb5+  Nb122  1  0.25509496  0.49813902  0.00454337  1
  Nb5+  Nb123  1  0.25220348  0.49750453  0.50019571  1
  Nb5+  Nb124  1  0.75018577  0.00014034  -0.00221935  1
  Nb5+  Nb125  1  0.75452784  0.00376279  0.50284298  1
  Nb5+  Nb126  1  0.74700188  0.50152050  -0.00449725  1
  Nb5+  Nb127  1  0.74599153  0.50492028  0.49867364  1
  O2-  O128  1  0.02638250  0.00630590  0.11947411  1
  O2-  O129  1  0.02232054  0.01800348  0.63582575  1
  O2-  O130  1  0.02355138  0.51303686  0.12068049  1
  O2-  O131  1  0.02434626  0.51717479  0.63521440  1
  O2-  O132  1  0.50887906  -0.02887581  0.13411449  1
  O2-  O133  1  0.50632924  -0.01364311  0.62552613  1
  O2-  O134  1  0.52081770  0.48070361  0.13087256  1
  O2-  O135  1  0.51722616  0.47267846  0.63493515  1
  O2-  O136  1  -0.02308489  -0.02288963  0.36049827  1
  O2-  O137  1  -0.01250126  -0.02056950  0.88527723  1
  O2-  O138  1  -0.02086579  0.48393064  0.36198539  1
  O2-  O139  1  -0.01847536  0.48491475  0.88699502  1
  O2-  O140  1  0.49147135  0.02458045  0.38174424  1
  O2-  O141  1  0.48475539  0.03574332  0.86252104  1
  O2-  O142  1  0.48049349  0.52053070  0.36724592  1
  O2-  O143  1  0.47277770  0.51308468  0.86394767  1
  O2-  O144  1  0.26059792  0.21166740  0.13382709  1
  O2-  O145  1  0.26601885  0.21629347  0.63465422  1
  O2-  O146  1  0.26220515  0.74164714  0.12037394  1
  O2-  O147  1  0.25954143  0.73489239  0.63343989  1
  O2-  O148  1  0.76485191  0.24550124  0.11805338  1
  O2-  O149  1  0.75750340  0.23579802  0.62682583  1
  O2-  O150  1  0.77970884  0.74675728  0.13201455  1
  O2-  O151  1  0.76966847  0.74062201  0.63705955  1
  O2-  O152  1  0.23658088  0.26719436  0.36373240  1
  O2-  O153  1  0.23769848  0.25587354  0.86306353  1
  O2-  O154  1  0.23497433  0.77950947  0.36159913  1
  O2-  O155  1  0.23188959  0.76621463  0.88143844  1
  O2-  O156  1  0.73355917  0.25644436  0.38087327  1
  O2-  O157  1  0.72934305  0.25388879  0.87229443  1
  O2-  O158  1  0.72977326  0.76380587  0.36461356  1
  O2-  O159  1  0.72607632  0.77150882  0.86981397  1
  O2-  O160  1  -0.01649842  0.21955479  0.11292705  1
  O2-  O161  1  -0.00746818  0.21461887  0.61650209  1
  O2-  O162  1  -0.00789466  0.73210387  0.12467235  1
  O2-  O163  1  -0.02218705  0.73110824  0.61699577  1
  O2-  O164  1  0.48773974  0.26404094  0.11371498  1
  O2-  O165  1  0.48393937  0.26104523  0.62657213  1
  O2-  O166  1  0.47003853  0.76785293  0.11386895  1
  O2-  O167  1  0.46394383  0.76082101  0.61360833  1
  O2-  O168  1  0.26563330  -0.02125874  0.36985387  1
  O2-  O169  1  0.26520307  -0.01535754  0.86825611  1
  O2-  O170  1  0.26845436  0.48435620  0.37986723  1
  O2-  O171  1  0.26117912  0.50005506  0.88512937  1
  O2-  O172  1  0.76330704  0.00120550  0.38846739  1
  O2-  O173  1  0.77483652  0.00908201  0.87132596  1
  O2-  O174  1  0.78407968  0.49441757  0.38741655  1
  O2-  O175  1  0.78982005  0.49639708  0.88740173  1
  O2-  O176  1  0.00710577  0.27526303  0.38330215  1
  O2-  O177  1  0.01509229  0.26108032  0.88611484  1
  O2-  O178  1  0.01668535  0.76589018  0.36586145  1
  O2-  O179  1  0.01702073  0.77115799  0.88889326  1
  O2-  O180  1  0.53344600  0.23094057  0.38689057  1
  O2-  O181  1  0.51929548  0.23092252  0.86640528  1
  O2-  O182  1  0.53341044  0.74852331  0.38481851  1
  O2-  O183  1  0.51320408  0.73293827  0.88307524  1
  O2-  O184  1  0.22505468  0.00899813  0.12196369  1
  O2-  O185  1  0.23335890  0.01436954  0.62193128  1
  O2-  O186  1  0.21634154  0.51244360  0.11289125  1
  O2-  O187  1  0.22085417  0.51401525  0.61529356  1
  O2-  O188  1  0.72735666  0.01169357  0.11116241  1
  O2-  O189  1  0.73246678  0.01576592  0.63218721  1
  O2-  O190  1  0.73888429  0.48553308  0.11366416  1
  O2-  O191  1  0.72694263  0.50309122  0.62005827  1
  O2-  O192  1  0.13266464  0.25911874  0.23401323  1
  O2-  O193  1  0.13596132  0.26834862  0.72716694  1
  O2-  O194  1  0.12398304  0.76452777  0.22784647  1
  O2-  O195  1  0.13297699  0.78552819  0.74109107  1
  O2-  O196  1  0.63845398  0.27720272  0.23220173  1
  O2-  O197  1  0.62013141  0.26097365  0.73417475  1
  O2-  O198  1  0.63403231  0.77013255  0.21672830  1
  O2-  O199  1  0.63177890  0.78393250  0.73237924  1
  O2-  O200  1  0.36562130  0.22030972  0.26695263  1
  O2-  O201  1  0.37848894  0.22427311  0.76372486  1
  O2-  O202  1  0.36306285  0.73080228  0.26113250  1
  O2-  O203  1  0.35967743  0.74139601  0.77597465  1
  O2-  O204  1  0.86142825  0.20487493  0.26203007  1
  O2-  O205  1  0.86065164  0.22168529  0.76486127  1
  O2-  O206  1  0.88549524  0.73392315  0.26532856  1
  O2-  O207  1  0.86261341  0.74383398  0.77712195  1
  O2-  O208  1  0.27408984  0.36476907  0.22103137  1
  O2-  O209  1  0.28184940  0.36496048  0.73470648  1
  O2-  O210  1  0.25943935  0.87623840  0.22470228  1
  O2-  O211  1  0.26583851  0.88411668  0.72951900  1
  O2-  O212  1  0.79093098  0.35874522  0.25402760  1
  O2-  O213  1  0.76284011  0.36145817  0.74196477  1
  O2-  O214  1  0.77924348  0.86864590  0.24576324  1
  O2-  O215  1  0.76533859  0.89022506  0.74432048  1
  O2-  O216  1  0.22621685  0.11090255  0.26565764  1
  O2-  O217  1  0.22542615  0.11604101  0.76275075  1
  O2-  O218  1  0.22502987  0.63718390  0.26066573  1
  O2-  O219  1  0.22134772  0.63611305  0.76420095  1
  O2-  O220  1  0.71351216  0.13282910  0.25569026  1
  O2-  O221  1  0.72074136  0.12452915  0.75652753  1
  O2-  O222  1  0.73574260  0.63387431  0.25507199  1
  O2-  O223  1  0.71866448  0.63532319  0.76472370  1
  O2-  O224  1  0.11616677  0.48289032  0.26407254  1
  O2-  O225  1  0.11457295  0.47271639  0.77203995  1
  O2-  O226  1  0.12608694  0.97142052  0.25890313  1
  O2-  O227  1  0.12442795  0.97829787  0.76183562  1
  O2-  O228  1  0.61894809  0.47800919  0.27126400  1
  O2-  O229  1  0.61314829  0.47403094  0.77718728  1
  O2-  O230  1  0.61435604  0.97034145  0.26940174  1
  O2-  O231  1  0.61974787  0.98929729  0.76577154  1
  O2-  O232  1  0.36336760  0.01527015  0.23256322  1
  O2-  O233  1  0.36820058  0.02303503  0.73399358  1
  O2-  O234  1  0.38456047  0.52400100  0.22264117  1
  O2-  O235  1  0.38401332  0.51869890  0.72447266  1
  O2-  O236  1  0.88874277  0.01059162  0.21711536  1
  O2-  O237  1  0.87121723  0.02669266  0.73619377  1
  O2-  O238  1  0.88665410  0.52588231  0.22673693  1
  O2-  O239  1  0.88181596  0.52622666  0.73521679  1
  O2-  O240  1  0.47423324  0.38226920  0.26622979  1
  O2-  O241  1  0.47939357  0.36379474  0.76445363  1
  O2-  O242  1  0.46242058  0.88731374  0.27310077  1
  O2-  O243  1  0.47570862  0.89280124  0.76641306  1
  O2-  O244  1  0.98543809  0.38233277  0.21719399  1
  O2-  O245  1  0.96932265  0.38555797  0.74430254  1
  O2-  O246  1  0.99218957  0.86939186  0.22902560  1
  O2-  O247  1  0.96907906  0.88994927  0.74407946  1
  O2-  O248  1  0.02514840  0.10983030  0.26211149  1
  O2-  O249  1  0.00915680  0.11207611  0.78088462  1
  O2-  O250  1  0.02057997  0.62782928  0.25831292  1
  O2-  O251  1  0.01382050  0.61528498  0.78380624  1
  O2-  O252  1  0.51021364  0.11106489  0.22897571  1
  O2-  O253  1  0.51002044  0.12495596  0.72303180  1
  O2-  O254  1  0.52738937  0.62010655  0.23640991  1
  O2-  O255  1  0.52944678  0.61912122  0.73274552  1
  O2-  O256  1  0.11940049  0.47896713  -0.01670008  1
  O2-  O257  1  0.13132242  0.47153167  0.48169105  1
  O2-  O258  1  0.12341734  0.97645530  -0.01357792  1
  O2-  O259  1  0.13595164  0.97095276  0.49052026  1
  O2-  O260  1  0.63757182  0.47432611  -0.02753610  1
  O2-  O261  1  0.63697577  0.46609447  0.47905605  1
  O2-  O262  1  0.63970180  0.98255526  -0.03103416  1
  O2-  O263  1  0.62184624  0.98898024  0.49288936  1
  O2-  O264  1  0.36161640  0.01534475  0.02008733  1
  O2-  O265  1  0.37872404  0.02234344  0.51304321  1
  O2-  O266  1  0.36585897  0.52557561  0.02187709  1
  O2-  O267  1  0.36800744  0.52465742  0.51868920  1
  O2-  O268  1  0.88418639  0.02098902  0.01480969  1
  O2-  O269  1  0.86528174  0.03010144  0.51935426  1
  O2-  O270  1  0.88251797  0.51544752  0.02430578  1
  O2-  O271  1  0.86460957  0.51133334  0.52906992  1
  O2-  O272  1  0.48537001  0.36010750  -0.02780878  1
  O2-  O273  1  0.48174613  0.36093109  0.48257636  1
  O2-  O274  1  0.47963611  0.86977430  -0.02823160  1
  O2-  O275  1  0.48206677  0.88671103  0.48676238  1
  O2-  O276  1  0.98121398  0.37289288  0.01895081  1
  O2-  O277  1  0.97191574  0.36147301  0.52500168  1
  O2-  O278  1  0.98791843  0.87158624  0.02235532  1
  O2-  O279  1  0.96967099  0.86510172  0.50654111  1
  O2-  O280  1  0.01920655  0.11902628  -0.01575769  1
  O2-  O281  1  0.01058621  0.13309759  0.46858107  1
  O2-  O282  1  0.01808133  0.62164353  -0.01181091  1
  O2-  O283  1  0.02160142  0.63267009  0.47970320  1
  O2-  O284  1  0.53909963  0.13496032  0.01103113  1
  O2-  O285  1  0.51995630  0.12342449  0.52245715  1
  O2-  O286  1  0.51942006  0.63593163  0.01745435  1
  O2-  O287  1  0.53084332  0.63340604  0.51799876  1
  O2-  O288  1  0.11626244  0.26852819  0.01923462  1
  O2-  O289  1  0.11868510  0.26481019  0.51671544  1
  O2-  O290  1  0.12502651  0.76059441  0.02027038  1
  O2-  O291  1  0.11417755  0.77326384  0.51582259  1
  O2-  O292  1  0.63487090  0.27138992  0.01036157  1
  O2-  O293  1  0.62708371  0.26472105  0.52269814  1
  O2-  O294  1  0.61695935  0.78036633  0.01927101  1
  O2-  O295  1  0.61413182  0.78368151  0.52647481  1
  O2-  O296  1  0.38711335  0.21315915  -0.01431876  1
  O2-  O297  1  0.38928919  0.21900973  0.48241828  1
  O2-  O298  1  0.36570890  0.73638138  -0.01709048  1
  O2-  O299  1  0.38799876  0.73080296  0.46774479  1
  O2-  O300  1  0.87522312  0.23591059  -0.02047416  1
  O2-  O301  1  0.86509021  0.22706514  0.48913258  1
  O2-  O302  1  0.88865220  0.72845196  -0.01343394  1
  O2-  O303  1  0.88180078  0.72923296  0.46976421  1
  O2-  O304  1  0.27519005  0.38409405  0.01191331  1
  O2-  O305  1  0.27720834  0.38161390  0.52079962  1
  O2-  O306  1  0.25994503  0.87594277  0.00763134  1
  O2-  O307  1  0.28107780  0.88620349  0.51376589  1
  O2-  O308  1  0.77688681  0.36868135  -0.00363048  1
  O2-  O309  1  0.76866034  0.36520314  0.51207806  1
  O2-  O310  1  0.78236226  0.89007832  0.00251747  1
  O2-  O311  1  0.76346071  0.88961305  0.52080255  1
  O2-  O312  1  0.22764939  0.11058230  -0.02210688  1
  O2-  O313  1  0.23652952  0.11141718  0.47226010  1
  O2-  O314  1  0.23174038  0.63081546  -0.00999974  1
  O2-  O315  1  0.22856779  0.61735931  0.48058692  1
  O2-  O316  1  0.74417402  0.12965205  -0.00809067  1
  O2-  O317  1  0.72440405  0.12725446  0.49881458  1
  O2-  O318  1  0.72593638  0.61512521  -0.00258130  1
  O2-  O319  1  0.72127154  0.61733826  0.49243042  1
