# generated using pymatgen
data_Sr64Ca21Nb43O192
_symmetry_space_group_name_H-M   'P 1'
_cell_length_a   16.57911030
_cell_length_b   16.57014521
_cell_length_c   16.76540036
_cell_angle_alpha   89.98902607
_cell_angle_beta   90.00252051
_cell_angle_gamma   90.06865663
_symmetry_Int_Tables_number   1
_chemical_formula_structural   Sr64Ca21Nb43O192
_chemical_formula_sum   'Sr64 Ca21 Nb43 O192'
_cell_volume   4605.75830417
_cell_formula_units_Z   1
loop_
 _symmetry_equiv_pos_site_id
 _symmetry_equiv_pos_as_xyz
  1  'x, y, z'
loop_
 _atom_type_symbol
 _atom_type_oxidation_number
  Sr2+  2.0
  Ca2+  2.0
  Nb5+  5.0
  O2-  -2.0
loop_
 _atom_site_type_symbol
 _atom_site_label
 _atom_site_symmetry_multiplicity
 _atom_site_fract_x
 _atom_site_fract_y
 _atom_site_fract_z
 _atom_site_occupancy
  Sr2+  Sr0  1  0.11718469  0.12685898  0.12806079  1
  Sr2+  Sr1  1  0.13653513  0.11781389  0.62477334  1
  Sr2+  Sr2  1  0.13202387  0.61241829  0.12318984  1
  Sr2+  Sr3  1  0.11405303  0.62344318  0.63010532  1
  Sr2+  Sr4  1  0.62750261  0.11387936  0.12104656  1
  Sr2+  Sr5  1  0.63000456  0.11405702  0.62817008  1
  Sr2+  Sr6  1  0.63241200  0.61944861  0.11490683  1
  Sr2+  Sr7  1  0.63663867  0.62501615  0.61997849  1
  Sr2+  Sr8  1  0.38125839  0.37186379  0.12989629  1
  Sr2+  Sr9  1  0.37605933  0.36448402  0.62054632  1
  Sr2+  Sr10  1  0.37327577  0.87064531  0.12643463  1
  Sr2+  Sr11  1  0.37299551  0.86835330  0.61341153  1
  Sr2+  Sr12  1  0.87638460  0.36539741  0.12829345  1
  Sr2+  Sr13  1  0.87456234  0.39881447  0.61727717  1
  Sr2+  Sr14  1  0.88043082  0.86073483  0.12252768  1
  Sr2+  Sr15  1  0.87805038  0.86979839  0.63111471  1
  Sr2+  Sr16  1  0.13493704  0.38392232  0.37649657  1
  Sr2+  Sr17  1  0.12767888  0.37946093  0.87981531  1
  Sr2+  Sr18  1  0.14136366  0.87814377  0.37186259  1
  Sr2+  Sr19  1  0.12304959  0.87840511  0.87457836  1
  Sr2+  Sr20  1  0.62590621  0.38048025  0.38028483  1
  Sr2+  Sr21  1  0.61241235  0.37731891  0.87056420  1
  Sr2+  Sr22  1  0.60649908  0.87870738  0.38080835  1
  Sr2+  Sr23  1  0.61824292  0.88511520  0.87328152  1
  Sr2+  Sr24  1  0.37042299  0.12697976  0.37018446  1
  Sr2+  Sr25  1  0.36829565  0.13717988  0.87914387  1
  Sr2+  Sr26  1  0.36892956  0.63005003  0.37901418  1
  Sr2+  Sr27  1  0.36239788  0.62966038  0.87393759  1
  Sr2+  Sr28  1  0.87504801  0.13643549  0.37698748  1
  Sr2+  Sr29  1  0.86570586  0.12933749  0.87365958  1
  Sr2+  Sr30  1  0.86175409  0.63136464  0.37260330  1
  Sr2+  Sr31  1  0.86737802  0.63654842  0.87149593  1
  Sr2+  Sr32  1  0.13012434  0.12644726  0.37567925  1
  Sr2+  Sr33  1  0.11875028  0.12427535  0.87900370  1
  Sr2+  Sr34  1  0.12216671  0.61737977  0.36750866  1
  Sr2+  Sr35  1  0.12765323  0.62099583  0.87192029  1
  Sr2+  Sr36  1  0.63113342  0.13816477  0.37938303  1
  Sr2+  Sr37  1  0.62020224  0.13553555  0.87234917  1
  Sr2+  Sr38  1  0.61829760  0.63996050  0.37606927  1
  Sr2+  Sr39  1  0.61331778  0.63521060  0.87203570  1
  Sr2+  Sr40  1  0.37026353  0.39810804  0.37741124  1
  Sr2+  Sr41  1  0.37126142  0.39004072  0.86951182  1
  Sr2+  Sr42  1  0.36933857  0.88689446  0.37060810  1
  Sr2+  Sr43  1  0.36167647  0.88323874  0.87593750  1
  Sr2+  Sr44  1  0.86987562  0.38320226  0.37647272  1
  Sr2+  Sr45  1  0.87205672  0.38945182  0.87162936  1
  Sr2+  Sr46  1  0.87638504  0.88228323  0.36556588  1
  Sr2+  Sr47  1  0.87365764  0.88502481  0.87434729  1
  Sr2+  Sr48  1  0.11396781  0.36753031  0.12993977  1
  Sr2+  Sr49  1  0.13952199  0.37201835  0.62290069  1
  Sr2+  Sr50  1  0.13008372  0.86671516  0.12448172  1
  Sr2+  Sr51  1  0.11780274  0.87096302  0.61897645  1
  Sr2+  Sr52  1  0.63256454  0.37333986  0.11620230  1
  Sr2+  Sr53  1  0.63339414  0.36544748  0.62616879  1
  Sr2+  Sr54  1  0.62029657  0.87044936  0.12781635  1
  Sr2+  Sr55  1  0.63761478  0.87263941  0.62554195  1
  Sr2+  Sr56  1  0.38893736  0.11497349  0.12544867  1
  Sr2+  Sr57  1  0.38091407  0.12060333  0.62395807  1
  Sr2+  Sr58  1  0.39193119  0.61914273  0.12473870  1
  Sr2+  Sr59  1  0.37961814  0.61478222  0.61331629  1
  Sr2+  Sr60  1  0.88124258  0.12315651  0.13749323  1
  Sr2+  Sr61  1  0.87590588  0.11640839  0.61973755  1
  Sr2+  Sr62  1  0.87176663  0.61811454  0.13269610  1
  Sr2+  Sr63  1  0.86968134  0.62747918  0.63619946  1
  Ca2+  Ca64  1  0.49844250  0.00111314  0.50213084  1
  Ca2+  Ca65  1  0.00089193  0.50104357  -0.00080660  1
  Ca2+  Ca66  1  0.50178684  0.49944238  0.50330133  1
  Ca2+  Ca67  1  0.00166132  0.50479568  0.49967971  1
  Ca2+  Ca68  1  -0.00148205  -0.00239715  0.49588717  1
  Ca2+  Ca69  1  0.24268454  0.74970616  0.49978823  1
  Ca2+  Ca70  1  0.75622445  0.75385221  0.49779495  1
  Ca2+  Ca71  1  0.75248060  0.24956909  -0.00086013  1
  Ca2+  Ca72  1  0.75123327  0.75009855  -0.00032581  1
  Ca2+  Ca73  1  0.25026246  0.25109763  0.00522683  1
  Ca2+  Ca74  1  0.25149865  0.49925976  0.74650646  1
  Ca2+  Ca75  1  0.25257617  -0.00098600  0.74874580  1
  Ca2+  Ca76  1  0.25233048  0.50297938  0.24757926  1
  Ca2+  Ca77  1  0.49894865  0.74707595  0.25030793  1
  Ca2+  Ca78  1  0.74608256  0.49886924  0.75491899  1
  Ca2+  Ca79  1  0.74590927  0.50061093  0.25001327  1
  Ca2+  Ca80  1  0.75117287  0.00070498  0.25061794  1
  Ca2+  Ca81  1  0.49480262  0.75307964  0.74556033  1
  Ca2+  Ca82  1  -0.00185126  0.24879743  0.74547911  1
  Ca2+  Ca83  1  0.50020756  0.25204548  0.24914963  1
  Ca2+  Ca84  1  0.24815667  0.00625498  0.24378471  1
  Nb5+  Nb85  1  0.50085420  0.50612491  -0.00291384  1
  Nb5+  Nb86  1  -0.00564656  0.00033714  0.00111597  1
  Nb5+  Nb87  1  0.49524402  0.00418884  -0.00336639  1
  Nb5+  Nb88  1  0.75745483  0.24746355  0.50609368  1
  Nb5+  Nb89  1  0.25591019  0.24678996  0.49740924  1
  Nb5+  Nb90  1  0.24962395  0.74911600  -0.00107343  1
  Nb5+  Nb91  1  0.74928980  0.00061963  0.75295762  1
  Nb5+  Nb92  1  0.00156617  0.75157514  0.74931720  1
  Nb5+  Nb93  1  0.49868050  0.24840935  0.75003015  1
  Nb5+  Nb94  1  0.00479902  0.74389619  0.24223393  1
  Nb5+  Nb95  1  -0.00057938  0.24876376  0.25585490  1
  Nb5+  Nb96  1  0.00364903  -0.00766336  0.25071133  1
  Nb5+  Nb97  1  0.00224646  -0.00049613  0.74871373  1
  Nb5+  Nb98  1  -0.00241209  0.49360633  0.24840617  1
  Nb5+  Nb99  1  -0.00096119  0.49574091  0.75021090  1
  Nb5+  Nb100  1  0.50537949  0.00429289  0.25461201  1
  Nb5+  Nb101  1  0.49524900  -0.00034410  0.75272333  1
  Nb5+  Nb102  1  0.50434680  0.49926546  0.25456036  1
  Nb5+  Nb103  1  0.50096789  0.50368309  0.74546860  1
  Nb5+  Nb104  1  0.25084499  0.25109832  0.24840360  1
  Nb5+  Nb105  1  0.24660845  0.25284321  0.75404784  1
  Nb5+  Nb106  1  0.25200020  0.74748092  0.24769804  1
  Nb5+  Nb107  1  0.24984421  0.74898647  0.74259271  1
  Nb5+  Nb108  1  0.74619415  0.24991026  0.25073721  1
  Nb5+  Nb109  1  0.75544152  0.25081260  0.74868085  1
  Nb5+  Nb110  1  0.74610782  0.75605074  0.25279726  1
  Nb5+  Nb111  1  0.74510457  0.75267128  0.75599817  1
  Nb5+  Nb112  1  0.00865308  0.24902797  0.50175088  1
  Nb5+  Nb113  1  -0.00564895  0.25144667  0.99678883  1
  Nb5+  Nb114  1  -0.00290681  0.75043362  0.48533427  1
  Nb5+  Nb115  1  0.00466372  0.74690031  0.99679896  1
  Nb5+  Nb116  1  0.50416286  0.24612991  0.49679853  1
  Nb5+  Nb117  1  0.49867366  0.25812259  0.99842336  1
  Nb5+  Nb118  1  0.49834524  0.75145039  0.50222385  1
  Nb5+  Nb119  1  0.49824999  0.75861762  0.99432394  1
  Nb5+  Nb120  1  0.24164317  0.00001002  0.00236144  1
  Nb5+  Nb121  1  0.25112439  0.00001062  0.50000666  1
  Nb5+  Nb122  1  0.25375582  0.49401327  0.00271127  1
  Nb5+  Nb123  1  0.24643244  0.50494379  0.50328608  1
  Nb5+  Nb124  1  0.74661675  0.00027007  0.00180407  1
  Nb5+  Nb125  1  0.74836568  -0.00424158  0.49782857  1
  Nb5+  Nb126  1  0.75363330  0.50020808  -0.00382328  1
  Nb5+  Nb127  1  0.74606259  0.50399315  0.49842939  1
  O2-  O128  1  -0.02449130  0.00390813  0.11850610  1
  O2-  O129  1  -0.02389441  -0.00139912  0.63647276  1
  O2-  O130  1  -0.02364335  0.50633531  0.13126713  1
  O2-  O131  1  -0.02185248  0.52339196  0.63573202  1
  O2-  O132  1  0.48588780  -0.02348870  0.11049462  1
  O2-  O133  1  0.47520612  -0.01301730  0.64099003  1
  O2-  O134  1  0.47851003  0.48449454  0.11174107  1
  O2-  O135  1  0.47218106  0.48117998  0.63730610  1
  O2-  O136  1  0.03128831  -0.01646874  0.36088685  1
  O2-  O137  1  0.01994661  -0.00506355  0.88117392  1
  O2-  O138  1  0.02413897  0.49695938  0.36381824  1
  O2-  O139  1  0.03074655  0.49438156  0.86560916  1
  O2-  O140  1  0.52992190  0.02430273  0.36437560  1
  O2-  O141  1  0.53038507  0.01220221  0.88280894  1
  O2-  O142  1  0.52845491  0.50844180  0.36651616  1
  O2-  O143  1  0.52155409  0.50929249  0.87766921  1
  O2-  O144  1  0.23012549  0.27105394  0.13740845  1
  O2-  O145  1  0.23917126  0.25203715  0.61874646  1
  O2-  O146  1  0.22826111  0.74700208  0.11803674  1
  O2-  O147  1  0.21578296  0.75589425  0.63450818  1
  O2-  O148  1  0.72843328  0.23026210  0.13919248  1
  O2-  O149  1  0.72857462  0.22899416  0.62514505  1
  O2-  O150  1  0.73313692  0.73592766  0.13538424  1
  O2-  O151  1  0.74208648  0.73869625  0.63732421  1
  O2-  O152  1  0.25667473  0.23203650  0.37862764  1
  O2-  O153  1  0.26147030  0.25323681  0.86788142  1
  O2-  O154  1  0.26569623  0.75009593  0.36331536  1
  O2-  O155  1  0.26126347  0.75630307  0.87860204  1
  O2-  O156  1  0.76612644  0.26294712  0.38919547  1
  O2-  O157  1  0.77318795  0.26456224  0.86227013  1
  O2-  O158  1  0.78677953  0.76728311  0.36544073  1
  O2-  O159  1  0.77922079  0.76852530  0.86732872  1
  O2-  O160  1  0.01037746  0.25068363  0.13146166  1
  O2-  O161  1  0.02194041  0.22446262  0.61233449  1
  O2-  O162  1  0.02468820  0.75298025  0.12566695  1
  O2-  O163  1  0.01301582  0.75513666  0.63420975  1
  O2-  O164  1  0.51007637  0.27660122  0.11223135  1
  O2-  O165  1  0.50807125  0.26785709  0.63394125  1
  O2-  O166  1  0.50462093  0.76693383  0.11168444  1
  O2-  O167  1  0.51078165  0.79032363  0.61571984  1
  O2-  O168  1  0.22709781  0.00549006  0.38056218  1
  O2-  O169  1  0.23795019  -0.01549499  0.88548924  1
  O2-  O170  1  0.23105186  0.50876311  0.38375879  1
  O2-  O171  1  0.23328708  0.49373663  0.88457706  1
  O2-  O172  1  0.73098138  -0.02688100  0.38729610  1
  O2-  O173  1  0.74116491  -0.02443684  0.87192175  1
  O2-  O174  1  0.73868967  0.47181331  0.38493526  1
  O2-  O175  1  0.73673125  0.45882687  0.88607011  1
  O2-  O176  1  -0.02132700  0.26342940  0.37074499  1
  O2-  O177  1  -0.01479708  0.23754306  0.88352986  1
  O2-  O178  1  -0.01653384  0.74968792  0.36928745  1
  O2-  O179  1  -0.01357282  0.75511802  0.88213657  1
  O2-  O180  1  0.49229181  0.21931281  0.38630652  1
  O2-  O181  1  0.49032503  0.22872758  0.87370222  1
  O2-  O182  1  0.48756514  0.71808033  0.38371893  1
  O2-  O183  1  0.47984752  0.72442628  0.88340307  1
  O2-  O184  1  0.28292640  0.00294380  0.11096064  1
  O2-  O185  1  0.27870727  0.00772817  0.61584307  1
  O2-  O186  1  0.27775175  0.52040919  0.11383433  1
  O2-  O187  1  0.27442480  0.47919969  0.61442272  1
  O2-  O188  1  0.76417895  0.03054809  0.11151137  1
  O2-  O189  1  0.76319628  0.01910171  0.63635328  1
  O2-  O190  1  0.75328860  0.52889204  0.11408594  1
  O2-  O191  1  0.76322558  0.51837081  0.61846418  1
  O2-  O192  1  0.11453395  0.27632250  0.26673682  1
  O2-  O193  1  0.13448447  0.28274905  0.75795605  1
  O2-  O194  1  0.11860649  0.77539532  0.26447751  1
  O2-  O195  1  0.11902813  0.77291899  0.77005520  1
  O2-  O196  1  0.63455009  0.26567301  0.27986608  1
  O2-  O197  1  0.62526735  0.25892035  0.76389188  1
  O2-  O198  1  0.63456950  0.77756859  0.27312892  1
  O2-  O199  1  0.63223861  0.77163301  0.77181465  1
  O2-  O200  1  0.36223149  0.22466074  0.23510134  1
  O2-  O201  1  0.38164645  0.22161866  0.74006005  1
  O2-  O202  1  0.36337989  0.73126762  0.22407402  1
  O2-  O203  1  0.36128869  0.71840444  0.72686893  1
  O2-  O204  1  0.87781612  0.23412594  0.24021895  1
  O2-  O205  1  0.86403989  0.21514151  0.73111018  1
  O2-  O206  1  0.88730563  0.73570392  0.22737827  1
  O2-  O207  1  0.88086644  0.73801458  0.74098427  1
  O2-  O208  1  0.26111876  0.36630924  0.27581064  1
  O2-  O209  1  0.28555172  0.36318732  0.74243442  1
  O2-  O210  1  0.25615261  0.86787475  0.24028672  1
  O2-  O211  1  0.27922386  0.86442028  0.74834014  1
  O2-  O212  1  0.77654554  0.36332246  0.24343723  1
  O2-  O213  1  0.76836888  0.36175341  0.72306451  1
  O2-  O214  1  0.77935366  0.86914127  0.23070959  1
  O2-  O215  1  0.76395553  0.87834532  0.73411903  1
  O2-  O216  1  0.21211259  0.13940338  0.24705929  1
  O2-  O217  1  0.22762673  0.13511075  0.74766561  1
  O2-  O218  1  0.21418285  0.63687344  0.24712674  1
  O2-  O219  1  0.22167584  0.63401525  0.75849707  1
  O2-  O220  1  0.74685274  0.13485377  0.28330581  1
  O2-  O221  1  0.73242531  0.11864360  0.76998981  1
  O2-  O222  1  0.73893447  0.63749277  0.27542663  1
  O2-  O223  1  0.73465585  0.63590500  0.77048761  1
  O2-  O224  1  0.11529779  0.48584890  0.22352516  1
  O2-  O225  1  0.11533226  0.48380905  0.72224759  1
  O2-  O226  1  0.11312353  0.99493313  0.20877194  1
  O2-  O227  1  0.11461208  0.97359413  0.73487979  1
  O2-  O228  1  0.61427848  0.46243552  0.22920953  1
  O2-  O229  1  0.61297651  0.46482757  0.74075173  1
  O2-  O230  1  0.61842470  0.98641161  0.21898320  1
  O2-  O231  1  0.62799993  0.98411465  0.73945166  1
  O2-  O232  1  0.38528531  0.02042654  0.26221296  1
  O2-  O233  1  0.38738516  0.02565488  0.78173678  1
  O2-  O234  1  0.38644069  0.53161824  0.26700167  1
  O2-  O235  1  0.38765932  0.51531602  0.77902384  1
  O2-  O236  1  0.89038331  0.02144202  0.26771413  1
  O2-  O237  1  0.87325508  0.01122418  0.77213582  1
  O2-  O238  1  0.88464963  0.52576525  0.26802840  1
  O2-  O239  1  0.88299211  0.52197511  0.77770487  1
  O2-  O240  1  0.46360822  0.38481402  0.25763797  1
  O2-  O241  1  0.48331587  0.36351930  0.77145313  1
  O2-  O242  1  0.48500174  0.88608697  0.26543759  1
  O2-  O243  1  0.48755633  0.88747310  0.78179404  1
  O2-  O244  1  0.97740667  0.37693015  0.24423950  1
  O2-  O245  1  0.96954855  0.38333781  0.74379569  1
  O2-  O246  1  0.98374631  0.87691237  0.23992552  1
  O2-  O247  1  0.97951847  0.87430555  0.75996172  1
  O2-  O248  1  0.01685020  0.13110946  0.25439702  1
  O2-  O249  1  0.02224156  0.11254601  0.75913792  1
  O2-  O250  1  0.02262242  0.62991188  0.24779173  1
  O2-  O251  1  0.01749978  0.63479952  0.76115238  1
  O2-  O252  1  0.51297621  0.11745786  0.21355331  1
  O2-  O253  1  0.52411151  0.12343028  0.74213982  1
  O2-  O254  1  0.52786152  0.61238298  0.22158154  1
  O2-  O255  1  0.52864473  0.61511526  0.73168136  1
  O2-  O256  1  0.13948994  0.47633219  0.02391514  1
  O2-  O257  1  0.13386823  0.46915180  0.51431221  1
  O2-  O258  1  0.12789029  0.98045063  0.01977515  1
  O2-  O259  1  0.13282825  0.99116686  0.52780758  1
  O2-  O260  1  0.61671678  0.48297618  0.01305171  1
  O2-  O261  1  0.63312627  0.47114591  0.51948286  1
  O2-  O262  1  0.63035253  0.97990749  0.01450719  1
  O2-  O263  1  0.63260360  0.99052957  0.52905653  1
  O2-  O264  1  0.38199316  0.01620258  -0.02334408  1
  O2-  O265  1  0.36632194  0.02495676  0.47400361  1
  O2-  O266  1  0.38001376  0.51993796  -0.02448999  1
  O2-  O267  1  0.36643908  0.51707642  0.47868380  1
  O2-  O268  1  0.88200555  0.01482595  -0.02281089  1
  O2-  O269  1  0.86199366  0.02701580  0.48668943  1
  O2-  O270  1  0.86606595  0.52076410  -0.02320050  1
  O2-  O271  1  0.86494170  0.50030888  0.48521130  1
  O2-  O272  1  0.48323296  0.37256393  -0.02473896  1
  O2-  O273  1  0.47372270  0.35956805  0.49166840  1
  O2-  O274  1  0.48074640  0.87412667  -0.02333167  1
  O2-  O275  1  0.47855724  0.86859954  0.46793876  1
  O2-  O276  1  0.96797900  0.36428634  -0.00155767  1
  O2-  O277  1  0.97640229  0.36115842  0.50947245  1
  O2-  O278  1  0.99142176  0.87798612  0.00493123  1
  O2-  O279  1  0.95765656  0.86327010  0.50073337  1
  O2-  O280  1  0.02641461  0.11698562  0.00221943  1
  O2-  O281  1  0.00622494  0.13514057  0.46791009  1
  O2-  O282  1  0.03520409  0.63622692  -0.00209089  1
  O2-  O283  1  0.04224423  0.63997746  0.49614112  1
  O2-  O284  1  0.51740101  0.11762846  0.01656069  1
  O2-  O285  1  0.50874035  0.13547622  0.53638150  1
  O2-  O286  1  0.51371219  0.62282061  0.01277035  1
  O2-  O287  1  0.51659221  0.63434459  0.53328198  1
  O2-  O288  1  0.11283711  0.27129823  -0.00615207  1
  O2-  O289  1  0.12300210  0.26765566  0.48278808  1
  O2-  O290  1  0.12803113  0.77638744  -0.01289838  1
  O2-  O291  1  0.10954516  0.79326704  0.48824309  1
  O2-  O292  1  0.61574642  0.25621272  -0.01926867  1
  O2-  O293  1  0.62057767  0.26367606  0.48983826  1
  O2-  O294  1  0.61344430  0.76862843  -0.01864910  1
  O2-  O295  1  0.61868419  0.76634697  0.48177950  1
  O2-  O296  1  0.38671817  0.22106333  0.01119776  1
  O2-  O297  1  0.37044290  0.22729738  0.51103715  1
  O2-  O298  1  0.36944342  0.73597550  0.01397602  1
  O2-  O299  1  0.37914413  0.73393251  0.52108720  1
  O2-  O300  1  0.88447006  0.21632516  0.02279917  1
  O2-  O301  1  0.87094508  0.22789593  0.51722776  1
  O2-  O302  1  0.89194947  0.73121797  0.02274530  1
  O2-  O303  1  0.88918284  0.70841802  0.51337342  1
  O2-  O304  1  0.28648519  0.38408771  0.00527674  1
  O2-  O305  1  0.26556603  0.36476555  0.48721373  1
  O2-  O306  1  0.26949245  0.87262466  0.00724056  1
  O2-  O307  1  0.26959759  0.88482012  0.49420401  1
  O2-  O308  1  0.76199104  0.38365721  0.03358152  1
  O2-  O309  1  0.76016784  0.36331135  0.52551531  1
  O2-  O310  1  0.77875437  0.88699014  0.01253093  1
  O2-  O311  1  0.76693486  0.88665456  0.53106536  1
  O2-  O312  1  0.22868666  0.11511906  -0.00658667  1
  O2-  O313  1  0.22508178  0.12951494  0.50337651  1
  O2-  O314  1  0.23340962  0.63053583  -0.01063247  1
  O2-  O315  1  0.22912980  0.61631540  0.52322770  1
  O2-  O316  1  0.73970566  0.11247790  -0.03406224  1
  O2-  O317  1  0.72805031  0.12726997  0.49284638  1
  O2-  O318  1  0.72342950  0.61430492  -0.02929245  1
  O2-  O319  1  0.72644468  0.61643223  0.48089747  1
