# generated using pymatgen
data_Sr64Ca21Nb43O192
_symmetry_space_group_name_H-M   'P 1'
_cell_length_a   16.57186418
_cell_length_b   16.60988601
_cell_length_c   16.73671612
_cell_angle_alpha   89.98164076
_cell_angle_beta   90.04287815
_cell_angle_gamma   90.13034040
_symmetry_Int_Tables_number   1
_chemical_formula_structural   Sr64Ca21Nb43O192
_chemical_formula_sum   'Sr64 Ca21 Nb43 O192'
_cell_volume   4606.88105756
_cell_formula_units_Z   1
loop_
 _symmetry_equiv_pos_site_id
 _symmetry_equiv_pos_as_xyz
  1  'x, y, z'
loop_
 _atom_type_symbol
 _atom_type_oxidation_number
  Sr2+  2.0
  Ca2+  2.0
  Nb5+  5.0
  O2-  -2.0
loop_
 _atom_site_type_symbol
 _atom_site_label
 _atom_site_symmetry_multiplicity
 _atom_site_fract_x
 _atom_site_fract_y
 _atom_site_fract_z
 _atom_site_occupancy
  Sr2+  Sr0  1  0.12481765  0.13292517  0.12429245  1
  Sr2+  Sr1  1  0.12915980  0.11566784  0.62274768  1
  Sr2+  Sr2  1  0.13256293  0.61392891  0.13192262  1
  Sr2+  Sr3  1  0.13052503  0.62145842  0.62081883  1
  Sr2+  Sr4  1  0.62911045  0.11116525  0.12098176  1
  Sr2+  Sr5  1  0.62866935  0.12750569  0.62190887  1
  Sr2+  Sr6  1  0.63252033  0.62166441  0.11660990  1
  Sr2+  Sr7  1  0.62177971  0.62326878  0.62434545  1
  Sr2+  Sr8  1  0.38208557  0.36178442  0.12134912  1
  Sr2+  Sr9  1  0.38254808  0.36608802  0.62726488  1
  Sr2+  Sr10  1  0.38774456  0.88470920  0.12809846  1
  Sr2+  Sr11  1  0.37765072  0.89965425  0.62302885  1
  Sr2+  Sr12  1  0.87542358  0.36323070  0.13139734  1
  Sr2+  Sr13  1  0.88183785  0.37211408  0.62071956  1
  Sr2+  Sr14  1  0.87864901  0.88803932  0.13387953  1
  Sr2+  Sr15  1  0.88848663  0.87496932  0.62808875  1
  Sr2+  Sr16  1  0.10764835  0.38283824  0.37007581  1
  Sr2+  Sr17  1  0.12246486  0.38330439  0.88153024  1
  Sr2+  Sr18  1  0.13125685  0.87044249  0.37749223  1
  Sr2+  Sr19  1  0.11181168  0.87245399  0.87995331  1
  Sr2+  Sr20  1  0.62941293  0.37320256  0.38476916  1
  Sr2+  Sr21  1  0.61086732  0.38546817  0.87279305  1
  Sr2+  Sr22  1  0.61955513  0.87742619  0.36734259  1
  Sr2+  Sr23  1  0.61458487  0.87016961  0.87311137  1
  Sr2+  Sr24  1  0.38044494  0.12998805  0.38717250  1
  Sr2+  Sr25  1  0.36391927  0.13243352  0.87824431  1
  Sr2+  Sr26  1  0.35992334  0.63090923  0.37579228  1
  Sr2+  Sr27  1  0.36470312  0.62181504  0.87452461  1
  Sr2+  Sr28  1  0.86664090  0.12775686  0.37250673  1
  Sr2+  Sr29  1  0.87370780  0.11795747  0.86980092  1
  Sr2+  Sr30  1  0.86096278  0.61999824  0.37952202  1
  Sr2+  Sr31  1  0.85424253  0.63055526  0.87213640  1
  Sr2+  Sr32  1  0.11597877  0.14429862  0.36515325  1
  Sr2+  Sr33  1  0.11505011  0.12361119  0.88558354  1
  Sr2+  Sr34  1  0.12460354  0.62140279  0.37920207  1
  Sr2+  Sr35  1  0.12349360  0.62766041  0.86496745  1
  Sr2+  Sr36  1  0.62515438  0.12684681  0.37629202  1
  Sr2+  Sr37  1  0.62864524  0.14763911  0.87315049  1
  Sr2+  Sr38  1  0.61634414  0.63656360  0.37491174  1
  Sr2+  Sr39  1  0.61455796  0.62300475  0.87678354  1
  Sr2+  Sr40  1  0.38540083  0.37532507  0.37930848  1
  Sr2+  Sr41  1  0.37064313  0.38009982  0.87689937  1
  Sr2+  Sr42  1  0.37587877  0.86933711  0.37091592  1
  Sr2+  Sr43  1  0.37232563  0.87593777  0.86186645  1
  Sr2+  Sr44  1  0.86994028  0.37799172  0.38048663  1
  Sr2+  Sr45  1  0.86620034  0.38357692  0.86914942  1
  Sr2+  Sr46  1  0.86295546  0.86871251  0.37370374  1
  Sr2+  Sr47  1  0.87275285  0.86612664  0.87558259  1
  Sr2+  Sr48  1  0.14120951  0.36702414  0.13188025  1
  Sr2+  Sr49  1  0.13053065  0.37644319  0.62734591  1
  Sr2+  Sr50  1  0.12876052  0.88738094  0.12199207  1
  Sr2+  Sr51  1  0.12902700  0.87778790  0.62207668  1
  Sr2+  Sr52  1  0.62960172  0.37451871  0.11393130  1
  Sr2+  Sr53  1  0.64032903  0.35975954  0.62863430  1
  Sr2+  Sr54  1  0.64032245  0.87556470  0.12696141  1
  Sr2+  Sr55  1  0.62103787  0.88824473  0.62884644  1
  Sr2+  Sr56  1  0.35161611  0.12847696  0.12239755  1
  Sr2+  Sr57  1  0.38943578  0.12125056  0.62793301  1
  Sr2+  Sr58  1  0.38482171  0.62401059  0.12790875  1
  Sr2+  Sr59  1  0.37201299  0.62485161  0.62219386  1
  Sr2+  Sr60  1  0.88529623  0.11812734  0.12801673  1
  Sr2+  Sr61  1  0.87116176  0.12135223  0.62247845  1
  Sr2+  Sr62  1  0.87887163  0.62866930  0.14208660  1
  Sr2+  Sr63  1  0.88271522  0.62205686  0.62460414  1
  Ca2+  Ca64  1  0.50087831  -0.00169732  -0.00094726  1
  Ca2+  Ca65  1  0.50184316  -0.00136673  0.49620528  1
  Ca2+  Ca66  1  0.50174523  0.50214466  0.50029757  1
  Ca2+  Ca67  1  0.00035226  0.50051509  -0.00047150  1
  Ca2+  Ca68  1  0.00003619  0.00018748  0.49605522  1
  Ca2+  Ca69  1  0.74998369  0.25054746  0.00232223  1
  Ca2+  Ca70  1  0.74981811  0.75147975  -0.00006280  1
  Ca2+  Ca71  1  0.24818166  0.75020017  0.00131523  1
  Ca2+  Ca72  1  0.74757266  0.75116050  0.50586208  1
  Ca2+  Ca73  1  0.24833167  0.25144672  0.50308462  1
  Ca2+  Ca74  1  -0.00207350  0.25219103  0.24874531  1
  Ca2+  Ca75  1  0.74607183  0.50090352  0.24819956  1
  Ca2+  Ca76  1  0.25165533  0.00051699  0.25215166  1
  Ca2+  Ca77  1  0.25516366  0.49865309  0.25223444  1
  Ca2+  Ca78  1  0.00211678  0.75301041  0.25292693  1
  Ca2+  Ca79  1  0.74909278  0.49965956  0.74882934  1
  Ca2+  Ca80  1  0.24690979  -0.00214331  0.75242822  1
  Ca2+  Ca81  1  0.49973246  0.25319615  0.75272772  1
  Ca2+  Ca82  1  0.50390107  0.24963940  0.24784893  1
  Ca2+  Ca83  1  0.74964582  -0.00430263  0.74981161  1
  Ca2+  Ca84  1  0.00336310  0.24987849  0.75083845  1
  Nb5+  Nb85  1  0.00028453  0.50118105  0.49903009  1
  Nb5+  Nb86  1  -0.00109250  -0.00019935  0.00019679  1
  Nb5+  Nb87  1  0.49609777  0.49991771  0.00128722  1
  Nb5+  Nb88  1  0.75309632  0.24807968  0.50074296  1
  Nb5+  Nb89  1  0.24906292  0.25154629  -0.00443292  1
  Nb5+  Nb90  1  0.25204474  0.75151266  0.50420043  1
  Nb5+  Nb91  1  -0.00514317  0.74727975  0.75031341  1
  Nb5+  Nb92  1  0.49069890  0.74729837  0.74283571  1
  Nb5+  Nb93  1  0.75177264  0.00097824  0.25161822  1
  Nb5+  Nb94  1  0.49936928  0.75140815  0.24327915  1
  Nb5+  Nb95  1  0.25046152  0.49934330  0.74645723  1
  Nb5+  Nb96  1  0.00454648  0.00090723  0.25681578  1
  Nb5+  Nb97  1  0.00489893  0.00162294  0.74786197  1
  Nb5+  Nb98  1  -0.00432850  0.49977037  0.24231333  1
  Nb5+  Nb99  1  -0.00138968  0.50120588  0.75133063  1
  Nb5+  Nb100  1  0.50020465  0.00496347  0.24504578  1
  Nb5+  Nb101  1  0.50371991  0.00507640  0.75515558  1
  Nb5+  Nb102  1  0.50437420  0.49918706  0.25291553  1
  Nb5+  Nb103  1  0.49666922  0.50076758  0.74646793  1
  Nb5+  Nb104  1  0.25743962  0.25301548  0.25951337  1
  Nb5+  Nb105  1  0.24351302  0.24503923  0.74933487  1
  Nb5+  Nb106  1  0.24973563  0.74993331  0.24464707  1
  Nb5+  Nb107  1  0.24384321  0.75137240  0.74770811  1
  Nb5+  Nb108  1  0.74495682  0.24989297  0.24695656  1
  Nb5+  Nb109  1  0.75708574  0.24808528  0.75454170  1
  Nb5+  Nb110  1  0.74857064  0.74715071  0.25524309  1
  Nb5+  Nb111  1  0.73708241  0.74957952  0.74610375  1
  Nb5+  Nb112  1  0.00388273  0.24775290  0.50249937  1
  Nb5+  Nb113  1  -0.00509007  0.25236578  0.99810518  1
  Nb5+  Nb114  1  -0.00085308  0.74830586  0.49777113  1
  Nb5+  Nb115  1  -0.00181890  0.74879295  1.00863250  1
  Nb5+  Nb116  1  0.49997526  0.24919665  0.50172852  1
  Nb5+  Nb117  1  0.50259799  0.24774389  0.99758516  1
  Nb5+  Nb118  1  0.50081894  0.75363767  0.49858598  1
  Nb5+  Nb119  1  0.49266151  0.75099540  0.99447525  1
  Nb5+  Nb120  1  0.25348101  -0.00455283  0.00272907  1
  Nb5+  Nb121  1  0.24593644  0.00652790  0.49493777  1
  Nb5+  Nb122  1  0.24879051  0.50296577  0.00245225  1
  Nb5+  Nb123  1  0.25111592  0.49671253  0.49826732  1
  Nb5+  Nb124  1  0.74949953  -0.00548889  -0.00529832  1
  Nb5+  Nb125  1  0.75439529  -0.00442693  0.50160386  1
  Nb5+  Nb126  1  0.75674258  0.50140852  -0.00179433  1
  Nb5+  Nb127  1  0.74565332  0.50030864  0.50393489  1
  O2-  O128  1  0.00450790  -0.02013508  0.11932772  1
  O2-  O129  1  0.00468746  -0.02069517  0.63325285  1
  O2-  O130  1  -0.02912513  0.48179623  0.13181055  1
  O2-  O131  1  -0.01027569  0.49281258  0.62478887  1
  O2-  O132  1  0.52411184  -0.02397212  0.13231907  1
  O2-  O133  1  0.51156558  -0.00016372  0.63354027  1
  O2-  O134  1  0.47095231  0.49499613  0.11520985  1
  O2-  O135  1  0.47147775  0.50650439  0.63425188  1
  O2-  O136  1  0.00115796  0.03569856  0.36501310  1
  O2-  O137  1  -0.00312502  0.01367299  0.87727268  1
  O2-  O138  1  0.01790418  0.51480399  0.38224724  1
  O2-  O139  1  0.02869451  0.51409447  0.86295354  1
  O2-  O140  1  0.48694725  -0.00222877  0.36130879  1
  O2-  O141  1  0.48659458  -0.02051946  0.86750922  1
  O2-  O142  1  0.53818145  0.50407814  0.36278794  1
  O2-  O143  1  0.50405980  0.51321617  0.87245517  1
  O2-  O144  1  0.23466155  0.23946262  0.11326346  1
  O2-  O145  1  0.21702177  0.23546817  0.63603135  1
  O2-  O146  1  0.25703805  0.71704983  0.13596314  1
  O2-  O147  1  0.25573921  0.72355420  0.62500584  1
  O2-  O148  1  0.71267220  0.23489927  0.13775488  1
  O2-  O149  1  0.73474837  0.23527424  0.62112361  1
  O2-  O150  1  0.75250846  0.73343945  0.13821712  1
  O2-  O151  1  0.75057574  0.70891951  0.63551811  1
  O2-  O152  1  0.28382896  0.26401376  0.36996220  1
  O2-  O153  1  0.27286015  0.26497656  0.87524572  1
  O2-  O154  1  0.24804225  0.76631541  0.38529691  1
  O2-  O155  1  0.24344368  0.76819777  0.86296328  1
  O2-  O156  1  0.77384595  0.25824584  0.38278211  1
  O2-  O157  1  0.78049547  0.25444794  0.86858132  1
  O2-  O158  1  0.73241618  0.77721439  0.37065941  1
  O2-  O159  1  0.74139663  0.78002183  0.86252714  1
  O2-  O160  1  0.02680074  0.26882470  0.11173816  1
  O2-  O161  1  0.01239869  0.28182046  0.61519510  1
  O2-  O162  1  -0.02678738  0.77076032  0.11745201  1
  O2-  O163  1  -0.00477520  0.76191546  0.62649864  1
  O2-  O164  1  0.51159490  0.27609250  0.11175523  1
  O2-  O165  1  0.52388297  0.25187228  0.61933376  1
  O2-  O166  1  0.48227138  0.75456280  0.12807655  1
  O2-  O167  1  0.48543367  0.74261995  0.62749934  1
  O2-  O168  1  0.26305786  -0.03243896  0.38513631  1
  O2-  O169  1  0.25886796  -0.02390933  0.88690453  1
  O2-  O170  1  0.23152077  0.47454891  0.38685903  1
  O2-  O171  1  0.23946418  0.48439652  0.86648744  1
  O2-  O172  1  0.76416695  -0.01255882  0.37096903  1
  O2-  O173  1  0.77026221  -0.02032830  0.88403410  1
  O2-  O174  1  0.74658507  0.47296383  0.38711504  1
  O2-  O175  1  0.73444367  0.46603141  0.88383430  1
  O2-  O176  1  -0.02279433  0.23443084  0.38675670  1
  O2-  O177  1  -0.00936211  0.21489038  0.88610624  1
  O2-  O178  1  0.02652794  0.73559835  0.38687187  1
  O2-  O179  1  0.01975744  0.73889431  0.86562831  1
  O2-  O180  1  0.47885285  0.24695535  0.38310407  1
  O2-  O181  1  0.47059821  0.24482463  0.88436501  1
  O2-  O182  1  0.50902192  0.75248737  0.37941248  1
  O2-  O183  1  0.50743012  0.74636338  0.87492306  1
  O2-  O184  1  0.22788199  0.02451383  0.11566690  1
  O2-  O185  1  0.23764964  0.01100024  0.61574399  1
  O2-  O186  1  0.26548073  0.52375425  0.11382187  1
  O2-  O187  1  0.25709271  0.52468566  0.62716992  1
  O2-  O188  1  0.74544411  0.01450517  0.13115416  1
  O2-  O189  1  0.73865233  0.01692581  0.61394074  1
  O2-  O190  1  0.76332370  0.53519513  0.11291394  1
  O2-  O191  1  0.77907433  0.51179546  0.61526369  1
  O2-  O192  1  0.13601515  0.27199383  0.26847399  1
  O2-  O193  1  0.13643148  0.28812103  0.77124453  1
  O2-  O194  1  0.13790486  0.77931296  0.24126068  1
  O2-  O195  1  0.12838628  0.76453269  0.73569548  1
  O2-  O196  1  0.63588529  0.25715600  0.29113063  1
  O2-  O197  1  0.63678955  0.27482542  0.77103972  1
  O2-  O198  1  0.61978294  0.77271147  0.24360299  1
  O2-  O199  1  0.62000416  0.76773452  0.73718543  1
  O2-  O200  1  0.36882638  0.22941455  0.22626981  1
  O2-  O201  1  0.36130347  0.23873033  0.72689931  1
  O2-  O202  1  0.38213812  0.73107668  0.26504265  1
  O2-  O203  1  0.37668412  0.72534090  0.75910817  1
  O2-  O204  1  0.86232471  0.23037453  0.23133173  1
  O2-  O205  1  0.87059613  0.21950985  0.73194308  1
  O2-  O206  1  0.86404399  0.73454133  0.27099059  1
  O2-  O207  1  0.87998218  0.72801668  0.75515094  1
  O2-  O208  1  0.27055654  0.36643821  0.22353193  1
  O2-  O209  1  0.26923557  0.38522967  0.72925293  1
  O2-  O210  1  0.28521562  0.86222197  0.23783387  1
  O2-  O211  1  0.27583333  0.86047385  0.72618463  1
  O2-  O212  1  0.76127733  0.36474537  0.23607950  1
  O2-  O213  1  0.77553696  0.36394410  0.72883019  1
  O2-  O214  1  0.76500792  0.87839694  0.23737192  1
  O2-  O215  1  0.76899249  0.85935834  0.71531592  1
  O2-  O216  1  0.22935896  0.13623005  0.26053861  1
  O2-  O217  1  0.22717181  0.13460832  0.77604479  1
  O2-  O218  1  0.23621876  0.63583332  0.28044110  1
  O2-  O219  1  0.23595563  0.62747581  0.76432276  1
  O2-  O220  1  0.73774916  0.12029226  0.26867426  1
  O2-  O221  1  0.72447121  0.13158436  0.75868897  1
  O2-  O222  1  0.72629765  0.63530574  0.27605639  1
  O2-  O223  1  0.73047290  0.63389304  0.78071752  1
  O2-  O224  1  0.11602112  0.48278698  0.23312362  1
  O2-  O225  1  0.12909623  0.49233196  0.73133869  1
  O2-  O226  1  0.11646448  0.97130254  0.25500429  1
  O2-  O227  1  0.11587069  0.96116349  0.75954147  1
  O2-  O228  1  0.61212039  0.49313008  0.20567393  1
  O2-  O229  1  0.61120286  0.48388814  0.73241018  1
  O2-  O230  1  0.63241412  0.98203195  0.25937855  1
  O2-  O231  1  0.61600968  0.96426468  0.75907781  1
  O2-  O232  1  0.38730254  0.01800304  0.22267712  1
  O2-  O233  1  0.38378831  0.01442002  0.73918258  1
  O2-  O234  1  0.39107295  0.53251912  0.26333309  1
  O2-  O235  1  0.36840489  0.52506575  0.76026825  1
  O2-  O236  1  0.87359622  0.01628191  0.24130809  1
  O2-  O237  1  0.88674368  0.01676994  0.74722244  1
  O2-  O238  1  0.88171851  0.52904461  0.26692380  1
  O2-  O239  1  0.88729080  0.52945734  0.76337775  1
  O2-  O240  1  0.47876686  0.38710982  0.25656181  1
  O2-  O241  1  0.47242216  0.38812335  0.76010007  1
  O2-  O242  1  0.48443874  0.86995108  0.25659891  1
  O2-  O243  1  0.47778398  0.86352400  0.74560998  1
  O2-  O244  1  0.97796819  0.38590103  0.27445270  1
  O2-  O245  1  0.97863750  0.38797122  0.76179611  1
  O2-  O246  1  0.97124790  0.88775984  0.27043205  1
  O2-  O247  1  0.97855441  0.86590985  0.76269675  1
  O2-  O248  1  0.01392507  0.11554537  0.22204279  1
  O2-  O249  1  0.03560918  0.11268985  0.73867851  1
  O2-  O250  1  0.01973894  0.61836575  0.23026747  1
  O2-  O251  1  0.02193494  0.62975352  0.73190593  1
  O2-  O252  1  0.53212675  0.11505195  0.24085035  1
  O2-  O253  1  0.52485941  0.11727828  0.76248547  1
  O2-  O254  1  0.52431076  0.63379069  0.24245765  1
  O2-  O255  1  0.52017028  0.62839335  0.74764407  1
  O2-  O256  1  0.13601454  0.47336204  0.01706408  1
  O2-  O257  1  0.12299634  0.48825390  0.51678176  1
  O2-  O258  1  0.12228398  0.98742878  -0.01061524  1
  O2-  O259  1  0.13309917  0.96583223  0.49434474  1
  O2-  O260  1  0.61379962  0.48495112  0.00917653  1
  O2-  O261  1  0.63527599  0.47937815  0.52971830  1
  O2-  O262  1  0.63646745  0.96685068  -0.00744742  1
  O2-  O263  1  0.63792959  0.97837116  0.48222021  1
  O2-  O264  1  0.36582653  0.02437708  0.01257419  1
  O2-  O265  1  0.36485859  0.02603685  0.50992079  1
  O2-  O266  1  0.37077530  0.51107906  -0.02162256  1
  O2-  O267  1  0.36494893  0.51510438  0.47979166  1
  O2-  O268  1  0.88006795  0.02217683  0.00662818  1
  O2-  O269  1  0.86683726  0.03377889  0.49652147  1
  O2-  O270  1  0.86753525  0.51224775  -0.03009927  1
  O2-  O271  1  0.88188557  0.51614368  0.48793198  1
  O2-  O272  1  0.48034397  0.38225007  -0.01586444  1
  O2-  O273  1  0.48527037  0.36827337  0.49486801  1
  O2-  O274  1  0.46248438  0.86131607  -0.00620161  1
  O2-  O275  1  0.46420486  0.86517987  0.50335354  1
  O2-  O276  1  0.98531751  0.36337072  -0.03224700  1
  O2-  O277  1  0.98488922  0.38290849  0.48548592  1
  O2-  O278  1  0.98289378  0.88189423  -0.01850928  1
  O2-  O279  1  0.98009064  0.86223153  0.48694531  1
  O2-  O280  1  0.01850505  0.12035031  0.01729198  1
  O2-  O281  1  0.01703586  0.13613808  0.52722564  1
  O2-  O282  1  0.01969310  0.63642121  0.02507183  1
  O2-  O283  1  0.01821617  0.62270949  0.51733702  1
  O2-  O284  1  0.52645485  0.13481755  0.00637868  1
  O2-  O285  1  0.52525934  0.13252046  0.49532754  1
  O2-  O286  1  0.51448643  0.62053695  0.00755687  1
  O2-  O287  1  0.52334031  0.63641990  0.50362093  1
  O2-  O288  1  0.13129901  0.26221242  -0.02193691  1
  O2-  O289  1  0.11495577  0.26902578  0.47296724  1
  O2-  O290  1  0.11229172  0.78093484  0.00677698  1
  O2-  O291  1  0.13046587  0.75982708  0.51596092  1
  O2-  O292  1  0.61495548  0.27452271  -0.02703501  1
  O2-  O293  1  0.63161801  0.26885434  0.48864760  1
  O2-  O294  1  0.60908805  0.76429997  0.01460911  1
  O2-  O295  1  0.61180390  0.78076114  0.51878415  1
  O2-  O296  1  0.37301621  0.23639915  0.01535712  1
  O2-  O297  1  0.38454934  0.22984057  0.52390218  1
  O2-  O298  1  0.38096041  0.71263868  -0.00400114  1
  O2-  O299  1  0.37125927  0.72328526  0.49682454  1
  O2-  O300  1  0.88462255  0.23654460  0.02912941  1
  O2-  O301  1  0.87319828  0.23900297  0.52177213  1
  O2-  O302  1  0.88708049  0.73963872  -0.03055177  1
  O2-  O303  1  0.88590692  0.72202069  0.49358035  1
  O2-  O304  1  0.26812458  0.37356774  0.00698283  1
  O2-  O305  1  0.26357249  0.38589626  0.53297266  1
  O2-  O306  1  0.26463188  0.88438998  0.03348707  1
  O2-  O307  1  0.26830691  0.86392722  0.52450031  1
  O2-  O308  1  0.76084635  0.38619980  0.03513453  1
  O2-  O309  1  0.76629128  0.37024672  0.51613701  1
  O2-  O310  1  0.77604705  0.88416899  0.02905474  1
  O2-  O311  1  0.78491193  0.88487334  0.51402331  1
  O2-  O312  1  0.24043588  0.13096803  -0.02241101  1
  O2-  O313  1  0.22050318  0.11607179  0.47221042  1
  O2-  O314  1  0.22646303  0.61290983  -0.02545918  1
  O2-  O315  1  0.23277605  0.62163765  0.48717911  1
  O2-  O316  1  0.72873460  0.11239636  -0.00930145  1
  O2-  O317  1  0.73209317  0.13015129  0.48644638  1
  O2-  O318  1  0.72687497  0.61549234  -0.02611124  1
  O2-  O319  1  0.72965401  0.61359532  0.47891620  1
