# generated using pymatgen
data_Sr64Ca21Nb43O192
_symmetry_space_group_name_H-M   'P 1'
_cell_length_a   16.57316967
_cell_length_b   16.57565404
_cell_length_c   16.73153320
_cell_angle_alpha   89.99934096
_cell_angle_beta   90.03274638
_cell_angle_gamma   89.98618012
_symmetry_Int_Tables_number   1
_chemical_formula_structural   Sr64Ca21Nb43O192
_chemical_formula_sum   'Sr64 Ca21 Nb43 O192'
_cell_volume   4596.33745510
_cell_formula_units_Z   1
loop_
 _symmetry_equiv_pos_site_id
 _symmetry_equiv_pos_as_xyz
  1  'x, y, z'
loop_
 _atom_type_symbol
 _atom_type_oxidation_number
  Sr2+  2.0
  Ca2+  2.0
  Nb5+  5.0
  O2-  -2.0
loop_
 _atom_site_type_symbol
 _atom_site_label
 _atom_site_symmetry_multiplicity
 _atom_site_fract_x
 _atom_site_fract_y
 _atom_site_fract_z
 _atom_site_occupancy
  Sr2+  Sr0  1  0.13246174  0.11491901  0.12925393  1
  Sr2+  Sr1  1  0.11851538  0.13409056  0.62500462  1
  Sr2+  Sr2  1  0.12261235  0.63159607  0.12278591  1
  Sr2+  Sr3  1  0.12094950  0.63776246  0.62237594  1
  Sr2+  Sr4  1  0.61008101  0.14371840  0.12299543  1
  Sr2+  Sr5  1  0.61645639  0.13133052  0.62566327  1
  Sr2+  Sr6  1  0.63098291  0.63490961  0.12455525  1
  Sr2+  Sr7  1  0.62591164  0.64800169  0.62656923  1
  Sr2+  Sr8  1  0.38537909  0.38002832  0.13429303  1
  Sr2+  Sr9  1  0.38041343  0.37830823  0.62124642  1
  Sr2+  Sr10  1  0.38241300  0.88150747  0.12314295  1
  Sr2+  Sr11  1  0.38146129  0.88270285  0.61901704  1
  Sr2+  Sr12  1  0.87828106  0.38091563  0.12251956  1
  Sr2+  Sr13  1  0.87567730  0.38057664  0.61251558  1
  Sr2+  Sr14  1  0.87132090  0.87552311  0.12664526  1
  Sr2+  Sr15  1  0.88099386  0.88440171  0.62846100  1
  Sr2+  Sr16  1  0.12479410  0.36224785  0.37417885  1
  Sr2+  Sr17  1  0.11308437  0.37541803  0.88075732  1
  Sr2+  Sr18  1  0.11343877  0.87217423  0.36828150  1
  Sr2+  Sr19  1  0.11799946  0.86360388  0.87083092  1
  Sr2+  Sr20  1  0.64436542  0.37056062  0.36968074  1
  Sr2+  Sr21  1  0.63221923  0.35870398  0.87158387  1
  Sr2+  Sr22  1  0.62943668  0.86795160  0.38623576  1
  Sr2+  Sr23  1  0.63849061  0.86996134  0.87205838  1
  Sr2+  Sr24  1  0.37111752  0.12165091  0.37592004  1
  Sr2+  Sr25  1  0.37417068  0.12134534  0.86352485  1
  Sr2+  Sr26  1  0.37038766  0.61997110  0.36833381  1
  Sr2+  Sr27  1  0.36434363  0.61362044  0.87455002  1
  Sr2+  Sr28  1  0.87776293  0.11941110  0.37117972  1
  Sr2+  Sr29  1  0.87272949  0.11505779  0.87143605  1
  Sr2+  Sr30  1  0.88019725  0.62012447  0.38010552  1
  Sr2+  Sr31  1  0.88423998  0.62228049  0.87713015  1
  Sr2+  Sr32  1  0.12077441  0.11623435  0.37482536  1
  Sr2+  Sr33  1  0.11370506  0.11092460  0.87300258  1
  Sr2+  Sr34  1  0.11409943  0.63313388  0.37273309  1
  Sr2+  Sr35  1  0.12152172  0.61866025  0.87641338  1
  Sr2+  Sr36  1  0.62829465  0.11597550  0.37880508  1
  Sr2+  Sr37  1  0.62362533  0.11787736  0.86678855  1
  Sr2+  Sr38  1  0.62931903  0.61441442  0.38478857  1
  Sr2+  Sr39  1  0.63027440  0.62094743  0.86827434  1
  Sr2+  Sr40  1  0.36565223  0.36182297  0.37503784  1
  Sr2+  Sr41  1  0.37148279  0.37685218  0.86163696  1
  Sr2+  Sr42  1  0.37250399  0.86305512  0.37593723  1
  Sr2+  Sr43  1  0.37681814  0.85923672  0.87790856  1
  Sr2+  Sr44  1  0.88307977  0.36634398  0.36852802  1
  Sr2+  Sr45  1  0.88095605  0.35645160  0.88103274  1
  Sr2+  Sr46  1  0.88522450  0.86728572  0.37876658  1
  Sr2+  Sr47  1  0.88226495  0.86937379  0.87069649  1
  Sr2+  Sr48  1  0.12387303  0.38183167  0.12636151  1
  Sr2+  Sr49  1  0.13318890  0.37882205  0.61725710  1
  Sr2+  Sr50  1  0.14081199  0.88142537  0.12625353  1
  Sr2+  Sr51  1  0.12133176  0.88181326  0.63675626  1
  Sr2+  Sr52  1  0.64015816  0.38019034  0.12232070  1
  Sr2+  Sr53  1  0.62310923  0.37561173  0.62952341  1
  Sr2+  Sr54  1  0.62093556  0.87658324  0.12068473  1
  Sr2+  Sr55  1  0.61995044  0.88224627  0.62503893  1
  Sr2+  Sr56  1  0.37873552  0.12284097  0.11747187  1
  Sr2+  Sr57  1  0.37851245  0.13379571  0.61954450  1
  Sr2+  Sr58  1  0.38719654  0.63698922  0.12730076  1
  Sr2+  Sr59  1  0.39037127  0.62127952  0.62455011  1
  Sr2+  Sr60  1  0.86304194  0.14315227  0.11924033  1
  Sr2+  Sr61  1  0.87869466  0.13307092  0.63016542  1
  Sr2+  Sr62  1  0.86911700  0.63244900  0.12553565  1
  Sr2+  Sr63  1  0.86518126  0.63587205  0.61490488  1
  Ca2+  Ca64  1  0.49987766  0.49621836  0.49450192  1
  Ca2+  Ca65  1  0.49795642  0.49683687  0.00028486  1
  Ca2+  Ca66  1  0.00394371  0.00113635  0.49941983  1
  Ca2+  Ca67  1  0.00253059  0.49880188  0.49999996  1
  Ca2+  Ca68  1  0.00110356  -0.00253382  0.00388100  1
  Ca2+  Ca69  1  0.75030190  0.75513798  0.49915199  1
  Ca2+  Ca70  1  0.74838481  0.24910593  -0.00220070  1
  Ca2+  Ca71  1  0.74765697  0.24833283  0.50012726  1
  Ca2+  Ca72  1  0.24964718  0.25061049  -0.00094377  1
  Ca2+  Ca73  1  0.24872454  0.75050494  0.50113152  1
  Ca2+  Ca74  1  0.49713412  0.75201272  0.75028262  1
  Ca2+  Ca75  1  0.74875235  0.00037908  0.74733391  1
  Ca2+  Ca76  1  0.25039489  -0.00036475  0.75061984  1
  Ca2+  Ca77  1  -0.00161191  0.74457309  0.75057235  1
  Ca2+  Ca78  1  0.74930519  -0.00193685  0.24842690  1
  Ca2+  Ca79  1  0.75361501  0.49912199  0.75211492  1
  Ca2+  Ca80  1  0.00100351  0.24776108  0.24562600  1
  Ca2+  Ca81  1  -0.00318655  0.75025108  0.24655135  1
  Ca2+  Ca82  1  0.00294572  0.25372083  0.75114490  1
  Ca2+  Ca83  1  0.50347481  0.75064909  0.25049495  1
  Ca2+  Ca84  1  0.50026887  0.25361396  0.25333498  1
  Nb5+  Nb85  1  -0.00111359  0.50256683  0.00186779  1
  Nb5+  Nb86  1  0.49693063  0.00118509  0.49326257  1
  Nb5+  Nb87  1  0.50046310  -0.00110307  -0.00788585  1
  Nb5+  Nb88  1  0.24880192  0.24843012  0.50148269  1
  Nb5+  Nb89  1  0.25564499  0.74720179  0.00107563  1
  Nb5+  Nb90  1  0.75806518  0.75084084  -0.00332893  1
  Nb5+  Nb91  1  0.25769127  -0.00757181  0.25290100  1
  Nb5+  Nb92  1  0.25181673  0.49836191  0.24427487  1
  Nb5+  Nb93  1  0.24622882  0.50204059  0.73951242  1
  Nb5+  Nb94  1  0.76015926  0.50475669  0.25018002  1
  Nb5+  Nb95  1  0.49841387  0.25143391  0.74989348  1
  Nb5+  Nb96  1  -0.00516163  0.00407456  0.24281407  1
  Nb5+  Nb97  1  0.00174523  0.00177816  0.75031807  1
  Nb5+  Nb98  1  0.00722141  0.49961543  0.25196391  1
  Nb5+  Nb99  1  0.00003460  0.50135327  0.74521198  1
  Nb5+  Nb100  1  0.50341292  -0.00183477  0.24609032  1
  Nb5+  Nb101  1  0.49439464  -0.00123798  0.74522862  1
  Nb5+  Nb102  1  0.51158355  0.49967479  0.24946325  1
  Nb5+  Nb103  1  0.50327709  0.49953383  0.75087566  1
  Nb5+  Nb104  1  0.25021490  0.24025577  0.24736337  1
  Nb5+  Nb105  1  0.24616895  0.25370269  0.75344282  1
  Nb5+  Nb106  1  0.24714762  0.74361951  0.25175193  1
  Nb5+  Nb107  1  0.25544645  0.74820149  0.74378644  1
  Nb5+  Nb108  1  0.74603280  0.24484499  0.24760466  1
  Nb5+  Nb109  1  0.75463563  0.24891017  0.75117578  1
  Nb5+  Nb110  1  0.74991461  0.75066308  0.25486786  1
  Nb5+  Nb111  1  0.75194297  0.75263962  0.74802467  1
  Nb5+  Nb112  1  -0.00640926  0.24559278  0.49766883  1
  Nb5+  Nb113  1  0.00623654  0.24111819  1.00248144  1
  Nb5+  Nb114  1  -0.00017710  0.75131928  0.50390662  1
  Nb5+  Nb115  1  0.00637175  0.75285921  1.00380538  1
  Nb5+  Nb116  1  0.49975518  0.25092154  0.49661949  1
  Nb5+  Nb117  1  0.48910182  0.25468876  0.99841655  1
  Nb5+  Nb118  1  0.49893594  0.74514333  0.49912176  1
  Nb5+  Nb119  1  0.51044977  0.74887905  1.00030420  1
  Nb5+  Nb120  1  0.25259616  -0.00375153  -0.00517189  1
  Nb5+  Nb121  1  0.24915051  -0.00171427  0.50236027  1
  Nb5+  Nb122  1  0.25117730  0.49776141  0.00139061  1
  Nb5+  Nb123  1  0.24786097  0.50232263  0.48886653  1
  Nb5+  Nb124  1  0.75063506  0.00485469  0.00625278  1
  Nb5+  Nb125  1  0.75627629  0.00403657  0.50079748  1
  Nb5+  Nb126  1  0.75075937  0.50198185  -0.00391718  1
  Nb5+  Nb127  1  0.74897544  0.49698203  0.50514024  1
  O2-  O128  1  0.03855840  -0.00808109  0.13370606  1
  O2-  O129  1  0.02650758  -0.00099360  0.63274951  1
  O2-  O130  1  0.01785365  0.49890214  0.12244845  1
  O2-  O131  1  0.02405241  0.48363630  0.63551371  1
  O2-  O132  1  0.51081325  -0.00834415  0.12774825  1
  O2-  O133  1  0.50867554  -0.00555095  0.62718087  1
  O2-  O134  1  0.51122628  0.46642083  0.13319536  1
  O2-  O135  1  0.50290729  0.47730952  0.63414706  1
  O2-  O136  1  -0.01462435  0.00520847  0.36278534  1
  O2-  O137  1  -0.01938726  0.00843756  0.87000942  1
  O2-  O138  1  -0.01853630  0.50115690  0.36392251  1
  O2-  O139  1  -0.00417888  0.51457877  0.88294786  1
  O2-  O140  1  0.48373089  0.01436080  0.37856749  1
  O2-  O141  1  0.48234519  0.00869989  0.87735081  1
  O2-  O142  1  0.49112125  0.53497502  0.36143798  1
  O2-  O143  1  0.47087547  0.50441704  0.86456464  1
  O2-  O144  1  0.26830605  0.22907181  0.13549854  1
  O2-  O145  1  0.26237597  0.23570665  0.62320392  1
  O2-  O146  1  0.26415746  0.73387986  0.12357855  1
  O2-  O147  1  0.26955607  0.71474085  0.63567791  1
  O2-  O148  1  0.77064613  0.27282757  0.13263696  1
  O2-  O149  1  0.76345604  0.27787980  0.63611195  1
  O2-  O150  1  0.77079045  0.75929589  0.11588465  1
  O2-  O151  1  0.77671176  0.76471589  0.63575190  1
  O2-  O152  1  0.23829148  0.25987291  0.38092123  1
  O2-  O153  1  0.24309198  0.28664763  0.86429022  1
  O2-  O154  1  0.22703873  0.76669190  0.36329578  1
  O2-  O155  1  0.23294450  0.76444805  0.88658802  1
  O2-  O156  1  0.72045766  0.23863117  0.36441420  1
  O2-  O157  1  0.72194995  0.22974325  0.86703714  1
  O2-  O158  1  0.72190025  0.73626319  0.36439571  1
  O2-  O159  1  0.72267104  0.73500024  0.88408899  1
  O2-  O160  1  -0.03060185  0.25488162  0.11380494  1
  O2-  O161  1  -0.01321055  0.24651071  0.61715599  1
  O2-  O162  1  -0.03010667  0.74593150  0.11410938  1
  O2-  O163  1  -0.02586511  0.73940448  0.61938569  1
  O2-  O164  1  0.47573997  0.24620364  0.11502713  1
  O2-  O165  1  0.48271419  0.25079210  0.62903730  1
  O2-  O166  1  0.47935494  0.76606715  0.11311004  1
  O2-  O167  1  0.46784265  0.76003147  0.61541279  1
  O2-  O168  1  0.28122569  -0.00641392  0.36927330  1
  O2-  O169  1  0.28459698  -0.01696351  0.88583292  1
  O2-  O170  1  0.26892308  0.48837929  0.37382915  1
  O2-  O171  1  0.26500287  0.48914898  0.88624610  1
  O2-  O172  1  0.75689855  0.03146655  0.38096541  1
  O2-  O173  1  0.75137919  0.01948828  0.88848006  1
  O2-  O174  1  0.76202294  0.52454749  0.36629285  1
  O2-  O175  1  0.76705294  0.52851832  0.88591197  1
  O2-  O176  1  0.01813988  0.25551516  0.38135681  1
  O2-  O177  1  0.02507415  0.25146154  0.88560217  1
  O2-  O178  1  0.02028947  0.75554851  0.38217919  1
  O2-  O179  1  0.01767402  0.74097544  0.88685893  1
  O2-  O180  1  0.51526512  0.23017864  0.38677461  1
  O2-  O181  1  0.51031659  0.24647139  0.87140678  1
  O2-  O182  1  0.52927682  0.74963265  0.38418865  1
  O2-  O183  1  0.51953390  0.75557449  0.88469036  1
  O2-  O184  1  0.24424700  0.00582028  0.12843873  1
  O2-  O185  1  0.22489896  0.01128636  0.61349493  1
  O2-  O186  1  0.22156017  0.51383922  0.13331542  1
  O2-  O187  1  0.22544576  0.51401249  0.62720264  1
  O2-  O188  1  0.73813535  -0.03822740  0.11511568  1
  O2-  O189  1  0.73886816  -0.03142674  0.61318343  1
  O2-  O190  1  0.74443127  0.49235872  0.12562557  1
  O2-  O191  1  0.73931567  0.47181199  0.61693580  1
  O2-  O192  1  0.13923965  0.27687517  0.24058921  1
  O2-  O193  1  0.13715989  0.27651091  0.72796652  1
  O2-  O194  1  0.13478309  0.76688345  0.22245545  1
  O2-  O195  1  0.13833030  0.76545395  0.74147479  1
  O2-  O196  1  0.63174048  0.28107686  0.22961095  1
  O2-  O197  1  0.61544718  0.27176774  0.73704236  1
  O2-  O198  1  0.63756412  0.76308769  0.21711332  1
  O2-  O199  1  0.63144610  0.77493546  0.73234744  1
  O2-  O200  1  0.36415323  0.24319231  0.27705427  1
  O2-  O201  1  0.37445956  0.23781243  0.75918855  1
  O2-  O202  1  0.36444531  0.72934018  0.26317425  1
  O2-  O203  1  0.36426929  0.73017899  0.78622195  1
  O2-  O204  1  0.86300575  0.23580354  0.27339722  1
  O2-  O205  1  0.86692105  0.22566116  0.76728605  1
  O2-  O206  1  0.86286156  0.71408250  0.26053871  1
  O2-  O207  1  0.86411231  0.73101905  0.78048216  1
  O2-  O208  1  0.26732988  0.38230261  0.23959912  1
  O2-  O209  1  0.27365064  0.38234632  0.73089734  1
  O2-  O210  1  0.27290247  0.87607780  0.23800040  1
  O2-  O211  1  0.27431768  0.86223033  0.72883397  1
  O2-  O212  1  0.76564036  0.38632798  0.26518999  1
  O2-  O213  1  0.76091752  0.36537063  0.78380359  1
  O2-  O214  1  0.78098573  0.86242056  0.26203607  1
  O2-  O215  1  0.76328531  0.86708113  0.78019035  1
  O2-  O216  1  0.23361950  0.12519067  0.26360289  1
  O2-  O217  1  0.23280819  0.14024807  0.77463378  1
  O2-  O218  1  0.22942275  0.62480014  0.26607500  1
  O2-  O219  1  0.23502503  0.61773829  0.77235885  1
  O2-  O220  1  0.72716533  0.13402488  0.22268102  1
  O2-  O221  1  0.72449266  0.13559116  0.72822816  1
  O2-  O222  1  0.72982253  0.62038319  0.23286909  1
  O2-  O223  1  0.72282955  0.63506596  0.74148171  1
  O2-  O224  1  0.12518673  0.48126430  0.27021306  1
  O2-  O225  1  0.13534177  0.47629990  0.77117395  1
  O2-  O226  1  0.14167814  0.98161521  0.26729843  1
  O2-  O227  1  0.12031805  0.97720763  0.77689791  1
  O2-  O228  1  0.62668110  0.48456723  0.26273816  1
  O2-  O229  1  0.61436631  0.47687682  0.77215004  1
  O2-  O230  1  0.61331912  0.96925915  0.26878460  1
  O2-  O231  1  0.61004802  0.98837142  0.76702171  1
  O2-  O232  1  0.37417227  0.02766191  0.23579428  1
  O2-  O233  1  0.38204331  0.03518339  0.73481048  1
  O2-  O234  1  0.36392350  0.52274154  0.23236865  1
  O2-  O235  1  0.36688804  0.51856476  0.73710987  1
  O2-  O236  1  0.88559394  0.03074445  0.21946828  1
  O2-  O237  1  0.88366031  0.02210913  0.73022478  1
  O2-  O238  1  0.87550607  0.51940616  0.23300555  1
  O2-  O239  1  0.88883816  0.52958711  0.73112767  1
  O2-  O240  1  0.47072411  0.39014686  0.27218811  1
  O2-  O241  1  0.47735841  0.37071475  0.75546711  1
  O2-  O242  1  0.46488524  0.88688644  0.25897029  1
  O2-  O243  1  0.46720858  0.88770674  0.75446769  1
  O2-  O244  1  0.98239355  0.38515766  0.23904948  1
  O2-  O245  1  0.98397577  0.38829096  0.77455623  1
  O2-  O246  1  0.98052433  0.88517635  0.25073628  1
  O2-  O247  1  0.98167642  0.88084036  0.74945640  1
  O2-  O248  1  0.03695172  0.11658154  0.24714012  1
  O2-  O249  1  0.02875983  0.11964006  0.74910483  1
  O2-  O250  1  0.02528736  0.61580325  0.24349450  1
  O2-  O251  1  0.03896080  0.61258438  0.75082775  1
  O2-  O252  1  0.52210714  0.11536438  0.24626203  1
  O2-  O253  1  0.51536281  0.13033765  0.74948737  1
  O2-  O254  1  0.51007181  0.61406865  0.21507980  1
  O2-  O255  1  0.51666733  0.61471893  0.73504993  1
  O2-  O256  1  0.12579169  0.48932878  -0.00868752  1
  O2-  O257  1  0.13763473  0.46314627  0.48790054  1
  O2-  O258  1  0.14104047  0.96730000  -0.01684735  1
  O2-  O259  1  0.14072234  0.98364711  0.46536105  1
  O2-  O260  1  0.63656216  0.48408345  -0.01554086  1
  O2-  O261  1  0.63424275  0.47873983  0.47378856  1
  O2-  O262  1  0.61768830  0.97655556  -0.01083835  1
  O2-  O263  1  0.61265986  0.98369387  0.48711144  1
  O2-  O264  1  0.38025051  0.00743184  0.02112584  1
  O2-  O265  1  0.37425666  0.02218929  0.51458107  1
  O2-  O266  1  0.36016167  0.53004862  0.02400476  1
  O2-  O267  1  0.36079145  0.51397368  0.52054629  1
  O2-  O268  1  0.86460667  0.02016439  0.01905287  1
  O2-  O269  1  0.86747220  0.02697581  0.51769581  1
  O2-  O270  1  0.88118553  0.52246525  0.01632600  1
  O2-  O271  1  0.86631769  0.52322126  0.51335721  1
  O2-  O272  1  0.45655411  0.36390754  -0.01033364  1
  O2-  O273  1  0.46931526  0.36214588  0.48896232  1
  O2-  O274  1  0.48187313  0.87755582  -0.00648865  1
  O2-  O275  1  0.47532571  0.88394725  0.49387919  1
  O2-  O276  1  0.98295815  0.38496084  -0.00404949  1
  O2-  O277  1  0.97523357  0.36429725  0.49936429  1
  O2-  O278  1  0.97615228  0.86448764  -0.00463288  1
  O2-  O279  1  0.97298531  0.86903461  0.50426664  1
  O2-  O280  1  0.03569580  0.13044036  0.00899912  1
  O2-  O281  1  0.03478423  0.13358090  0.49915357  1
  O2-  O282  1  0.01782073  0.62565756  0.00756539  1
  O2-  O283  1  0.02904099  0.63183460  0.49837642  1
  O2-  O284  1  0.51905283  0.11629754  0.00338371  1
  O2-  O285  1  0.50844678  0.12217749  0.51521847  1
  O2-  O286  1  0.51683696  0.63386830  0.00846957  1
  O2-  O287  1  0.51757116  0.63238957  0.51753698  1
  O2-  O288  1  0.11692729  0.27996728  0.02278329  1
  O2-  O289  1  0.13284367  0.26779955  0.51499579  1
  O2-  O290  1  0.12263228  0.76658820  0.02295098  1
  O2-  O291  1  0.11691738  0.77494572  0.53075198  1
  O2-  O292  1  0.60825579  0.27108504  0.01137128  1
  O2-  O293  1  0.61127713  0.26968038  0.52265459  1
  O2-  O294  1  0.62524637  0.76544320  0.01898421  1
  O2-  O295  1  0.61388394  0.77611520  0.52526841  1
  O2-  O296  1  0.38117923  0.21032964  -0.02009985  1
  O2-  O297  1  0.37272269  0.22783223  0.49111340  1
  O2-  O298  1  0.37066859  0.73135360  -0.01594485  1
  O2-  O299  1  0.38324022  0.73456388  0.46737461  1
  O2-  O300  1  0.88550211  0.22652294  -0.02527926  1
  O2-  O301  1  0.88186543  0.21637569  0.48523985  1
  O2-  O302  1  0.87138965  0.73234686  -0.02199542  1
  O2-  O303  1  0.88187253  0.72731362  0.47874075  1
  O2-  O304  1  0.26464633  0.38810263  0.03105237  1
  O2-  O305  1  0.27220432  0.36790749  0.51011986  1
  O2-  O306  1  0.26957827  0.86743009  0.01989738  1
  O2-  O307  1  0.27733056  0.88577277  0.50854563  1
  O2-  O308  1  0.77601077  0.38789383  -0.01007101  1
  O2-  O309  1  0.77520272  0.38389907  0.47222598  1
  O2-  O310  1  0.76445230  0.86884858  -0.02067920  1
  O2-  O311  1  0.76079985  0.88847820  0.46551540  1
  O2-  O312  1  0.23058531  0.10978893  -0.00944889  1
  O2-  O313  1  0.23859279  0.12614862  0.48638609  1
  O2-  O314  1  0.22666976  0.62939643  -0.00613491  1
  O2-  O315  1  0.22414739  0.61389068  0.47898173  1
  O2-  O316  1  0.72518835  0.11454354  0.03128217  1
  O2-  O317  1  0.71519523  0.11480562  0.51836530  1
  O2-  O318  1  0.73887904  0.62738511  0.01709814  1
  O2-  O319  1  0.72517151  0.61635450  0.51546416  1
