# generated using pymatgen
data_Sr64Ca21Nb43O192
_symmetry_space_group_name_H-M   'P 1'
_cell_length_a   16.58439671
_cell_length_b   16.64098824
_cell_length_c   16.75430639
_cell_angle_alpha   89.96524349
_cell_angle_beta   90.06568503
_cell_angle_gamma   90.13861932
_symmetry_Int_Tables_number   1
_chemical_formula_structural   Sr64Ca21Nb43O192
_chemical_formula_sum   'Sr64 Ca21 Nb43 O192'
_cell_volume   4623.84863799
_cell_formula_units_Z   1
loop_
 _symmetry_equiv_pos_site_id
 _symmetry_equiv_pos_as_xyz
  1  'x, y, z'
loop_
 _atom_type_symbol
 _atom_type_oxidation_number
  Sr2+  2.0
  Ca2+  2.0
  Nb5+  5.0
  O2-  -2.0
loop_
 _atom_site_type_symbol
 _atom_site_label
 _atom_site_symmetry_multiplicity
 _atom_site_fract_x
 _atom_site_fract_y
 _atom_site_fract_z
 _atom_site_occupancy
  Sr2+  Sr0  1  0.12318613  0.11604417  0.12158653  1
  Sr2+  Sr1  1  0.11773010  0.12008399  0.62922152  1
  Sr2+  Sr2  1  0.11767022  0.64106514  0.12950046  1
  Sr2+  Sr3  1  0.12097853  0.64432844  0.62337440  1
  Sr2+  Sr4  1  0.61996089  0.11859424  0.11872904  1
  Sr2+  Sr5  1  0.62607051  0.10707462  0.63372910  1
  Sr2+  Sr6  1  0.61894179  0.64183970  0.12246668  1
  Sr2+  Sr7  1  0.61714546  0.63929842  0.63235423  1
  Sr2+  Sr8  1  0.36404245  0.37792769  0.12212225  1
  Sr2+  Sr9  1  0.37048547  0.38580387  0.62239708  1
  Sr2+  Sr10  1  0.36960573  0.88041854  0.13312835  1
  Sr2+  Sr11  1  0.37197919  0.87223358  0.61666086  1
  Sr2+  Sr12  1  0.86580026  0.38058970  0.12597051  1
  Sr2+  Sr13  1  0.86851982  0.37945131  0.63119294  1
  Sr2+  Sr14  1  0.87318217  0.86778435  0.11847096  1
  Sr2+  Sr15  1  0.86850311  0.86805205  0.62331514  1
  Sr2+  Sr16  1  0.10334001  0.37563574  0.37218597  1
  Sr2+  Sr17  1  0.12988112  0.36744827  0.87488599  1
  Sr2+  Sr18  1  0.12874001  0.88597681  0.38067977  1
  Sr2+  Sr19  1  0.13607187  0.87130332  0.86522660  1
  Sr2+  Sr20  1  0.61868609  0.37154351  0.37269034  1
  Sr2+  Sr21  1  0.60193281  0.37716964  0.87944433  1
  Sr2+  Sr22  1  0.62806819  0.87343096  0.37538371  1
  Sr2+  Sr23  1  0.63451120  0.86646349  0.85881678  1
  Sr2+  Sr24  1  0.38739521  0.13008324  0.37252243  1
  Sr2+  Sr25  1  0.36679845  0.12741893  0.87429277  1
  Sr2+  Sr26  1  0.37205096  0.62659101  0.37812136  1
  Sr2+  Sr27  1  0.39395637  0.61497922  0.87307401  1
  Sr2+  Sr28  1  0.87885202  0.12904242  0.38491390  1
  Sr2+  Sr29  1  0.87981659  0.12611917  0.87726772  1
  Sr2+  Sr30  1  0.88491410  0.61485422  0.37851515  1
  Sr2+  Sr31  1  0.88705434  0.62188605  0.87489523  1
  Sr2+  Sr32  1  0.12500404  0.13271467  0.38713020  1
  Sr2+  Sr33  1  0.12781403  0.13199401  0.86998299  1
  Sr2+  Sr34  1  0.13312347  0.60688290  0.37557818  1
  Sr2+  Sr35  1  0.13617757  0.61275445  0.86904169  1
  Sr2+  Sr36  1  0.63273973  0.13600680  0.37724992  1
  Sr2+  Sr37  1  0.63052470  0.13387876  0.88189711  1
  Sr2+  Sr38  1  0.63044715  0.61076977  0.37269256  1
  Sr2+  Sr39  1  0.63133202  0.61168433  0.86763955  1
  Sr2+  Sr40  1  0.37554961  0.37708318  0.36993305  1
  Sr2+  Sr41  1  0.37295090  0.37651654  0.87333295  1
  Sr2+  Sr42  1  0.38670439  0.87501627  0.37678548  1
  Sr2+  Sr43  1  0.37958832  0.85977264  0.86959807  1
  Sr2+  Sr44  1  0.86811076  0.37950367  0.37365153  1
  Sr2+  Sr45  1  0.88211559  0.37034647  0.87563943  1
  Sr2+  Sr46  1  0.88816414  0.87022579  0.37675859  1
  Sr2+  Sr47  1  0.88219273  0.85986991  0.87114255  1
  Sr2+  Sr48  1  0.11685837  0.38034386  0.12398879  1
  Sr2+  Sr49  1  0.11325644  0.37898683  0.63798775  1
  Sr2+  Sr50  1  0.11497581  0.88222410  0.12241618  1
  Sr2+  Sr51  1  0.14664376  0.87861655  0.62357379  1
  Sr2+  Sr52  1  0.61796993  0.37911166  0.12489868  1
  Sr2+  Sr53  1  0.61196982  0.37903462  0.63273161  1
  Sr2+  Sr54  1  0.60895236  0.87570277  0.12781015  1
  Sr2+  Sr55  1  0.62935983  0.87813610  0.62590077  1
  Sr2+  Sr56  1  0.36414614  0.12013924  0.12708756  1
  Sr2+  Sr57  1  0.36606328  0.11476069  0.62887168  1
  Sr2+  Sr58  1  0.36498495  0.63337465  0.12219586  1
  Sr2+  Sr59  1  0.35530339  0.62970853  0.62609814  1
  Sr2+  Sr60  1  0.86738809  0.11754888  0.12217385  1
  Sr2+  Sr61  1  0.86965027  0.12513378  0.63049093  1
  Sr2+  Sr62  1  0.86179939  0.63276476  0.12635558  1
  Sr2+  Sr63  1  0.85953908  0.63361812  0.62627139  1
  Ca2+  Ca64  1  0.00185480  0.49899811  0.00029696  1
  Ca2+  Ca65  1  0.50266080  0.50075026  0.00472488  1
  Ca2+  Ca66  1  0.49887705  -0.00424052  0.00021273  1
  Ca2+  Ca67  1  0.50081427  0.50092974  0.49894443  1
  Ca2+  Ca68  1  0.00235638  0.50064274  0.50453538  1
  Ca2+  Ca69  1  0.25141336  0.25308045  0.49966286  1
  Ca2+  Ca70  1  0.74662361  0.74915359  0.49466821  1
  Ca2+  Ca71  1  0.74652916  0.74976956  -0.00244769  1
  Ca2+  Ca72  1  0.24980499  0.74839845  -0.00116358  1
  Ca2+  Ca73  1  0.24694836  0.75038236  0.49353714  1
  Ca2+  Ca74  1  0.24848126  0.49839963  0.75063509  1
  Ca2+  Ca75  1  0.24447590  0.00190797  0.25370498  1
  Ca2+  Ca76  1  -0.00192328  0.75275123  0.25338644  1
  Ca2+  Ca77  1  0.75405911  0.00262878  0.25213320  1
  Ca2+  Ca78  1  0.75215661  0.49623712  0.75076041  1
  Ca2+  Ca79  1  0.49977716  0.24463400  0.74822389  1
  Ca2+  Ca80  1  0.75292469  0.00159140  0.75509008  1
  Ca2+  Ca81  1  0.00002094  0.75400518  0.74722219  1
  Ca2+  Ca82  1  0.25202086  0.00096936  0.75282349  1
  Ca2+  Ca83  1  0.49581450  0.75095640  0.74520024  1
  Ca2+  Ca84  1  -0.00146793  0.24589440  0.24836165  1
  Nb5+  Nb85  1  0.00069749  -0.00085145  -0.00951120  1
  Nb5+  Nb86  1  0.50475053  0.00216626  0.49923135  1
  Nb5+  Nb87  1  0.00029119  -0.00024665  0.50016249  1
  Nb5+  Nb88  1  0.24356402  0.24977804  0.00291564  1
  Nb5+  Nb89  1  0.74646882  0.25330697  0.51105868  1
  Nb5+  Nb90  1  0.74650062  0.25371819  0.00631493  1
  Nb5+  Nb91  1  0.49970176  0.25565545  0.24599513  1
  Nb5+  Nb92  1  -0.00098584  0.24787192  0.75032759  1
  Nb5+  Nb93  1  0.49803395  0.75357192  0.24893740  1
  Nb5+  Nb94  1  0.74282101  0.49970407  0.24867738  1
  Nb5+  Nb95  1  0.24645252  0.49734969  0.24675195  1
  Nb5+  Nb96  1  -0.00262114  0.00507620  0.24438771  1
  Nb5+  Nb97  1  -0.00418866  -0.00152146  0.74326086  1
  Nb5+  Nb98  1  -0.00759963  0.50175860  0.24522847  1
  Nb5+  Nb99  1  0.00223078  0.50775146  0.74965171  1
  Nb5+  Nb100  1  0.50292891  0.00838190  0.25282690  1
  Nb5+  Nb101  1  0.50011551  -0.00292693  0.75923460  1
  Nb5+  Nb102  1  0.49542111  0.50781218  0.24806987  1
  Nb5+  Nb103  1  0.50124082  0.49923699  0.74497916  1
  Nb5+  Nb104  1  0.24759328  0.25129889  0.25010276  1
  Nb5+  Nb105  1  0.25028488  0.25158323  0.74354697  1
  Nb5+  Nb106  1  0.24872293  0.75472398  0.25145956  1
  Nb5+  Nb107  1  0.24806941  0.74831731  0.75220303  1
  Nb5+  Nb108  1  0.75045503  0.24877112  0.25172963  1
  Nb5+  Nb109  1  0.74844591  0.25196733  0.76205995  1
  Nb5+  Nb110  1  0.75169189  0.75296039  0.25587329  1
  Nb5+  Nb111  1  0.74849891  0.74703921  0.75084392  1
  Nb5+  Nb112  1  -0.00358186  0.25287960  0.50347437  1
  Nb5+  Nb113  1  -0.00415998  0.24525072  1.00433082  1
  Nb5+  Nb114  1  0.00003991  0.74720812  0.49519049  1
  Nb5+  Nb115  1  0.00397947  0.74505914  0.99610607  1
  Nb5+  Nb116  1  0.50099069  0.24459813  0.50567196  1
  Nb5+  Nb117  1  0.49096784  0.24634823  1.00213438  1
  Nb5+  Nb118  1  0.49996303  0.74537391  0.49556858  1
  Nb5+  Nb119  1  0.50130470  0.75118744  0.99380389  1
  Nb5+  Nb120  1  0.25303993  -0.00209110  -0.00232808  1
  Nb5+  Nb121  1  0.25790382  0.00756223  0.49718246  1
  Nb5+  Nb122  1  0.25030246  0.50219504  0.00287048  1
  Nb5+  Nb123  1  0.24945869  0.49542252  0.50440746  1
  Nb5+  Nb124  1  0.75160694  -0.00345379  -0.00031511  1
  Nb5+  Nb125  1  0.75549380  0.00180639  0.49735543  1
  Nb5+  Nb126  1  0.75336194  0.50192779  0.00039746  1
  Nb5+  Nb127  1  0.74554207  0.49967557  0.50571366  1
  O2-  O128  1  -0.00184954  0.02116832  0.12795662  1
  O2-  O129  1  -0.00864083  0.02181888  0.62719745  1
  O2-  O130  1  0.02811028  0.51992623  0.13504549  1
  O2-  O131  1  0.03850915  0.51275139  0.63508131  1
  O2-  O132  1  0.49610095  0.01750831  0.13716106  1
  O2-  O133  1  0.49272569  0.02628457  0.61244810  1
  O2-  O134  1  0.53310070  0.51083985  0.13891834  1
  O2-  O135  1  0.53244533  0.51376753  0.63055403  1
  O2-  O136  1  -0.00100279  -0.01007026  0.38457429  1
  O2-  O137  1  0.00489355  -0.01546928  0.87665072  1
  O2-  O138  1  -0.01391484  0.47546788  0.36394461  1
  O2-  O139  1  -0.03024514  0.48719045  0.86478049  1
  O2-  O140  1  0.50407611  -0.01755492  0.37549404  1
  O2-  O141  1  0.50370388  -0.03404600  0.86820330  1
  O2-  O142  1  0.49093670  0.47424225  0.36014854  1
  O2-  O143  1  0.48083884  0.47992999  0.86770740  1
  O2-  O144  1  0.24334401  0.27347948  0.12251705  1
  O2-  O145  1  0.24318077  0.28066011  0.63429972  1
  O2-  O146  1  0.27953297  0.75900742  0.13716324  1
  O2-  O147  1  0.27111684  0.76307440  0.63124658  1
  O2-  O148  1  0.73824949  0.27497661  0.12016983  1
  O2-  O149  1  0.73656024  0.27473593  0.62212488  1
  O2-  O150  1  0.76492233  0.75882419  0.13716663  1
  O2-  O151  1  0.76732960  0.76145363  0.62994434  1
  O2-  O152  1  0.26997905  0.23232198  0.36185685  1
  O2-  O153  1  0.25455566  0.22936071  0.88525126  1
  O2-  O154  1  0.23983212  0.71223022  0.35980057  1
  O2-  O155  1  0.21638063  0.73624950  0.86734623  1
  O2-  O156  1  0.76098290  0.23536868  0.36735832  1
  O2-  O157  1  0.76402077  0.23235261  0.87650829  1
  O2-  O158  1  0.71400054  0.72953909  0.36374757  1
  O2-  O159  1  0.71760387  0.73437996  0.86602196  1
  O2-  O160  1  0.01480692  0.22297008  0.11412763  1
  O2-  O161  1  0.00612759  0.22855192  0.62803935  1
  O2-  O162  1  -0.02237063  0.73608827  0.11513233  1
  O2-  O163  1  -0.02738405  0.73670400  0.61128524  1
  O2-  O164  1  0.51696044  0.22853902  0.13015601  1
  O2-  O165  1  0.53211409  0.22548387  0.61283498  1
  O2-  O166  1  0.48714108  0.72383314  0.13472034  1
  O2-  O167  1  0.47891276  0.72737479  0.60822448  1
  O2-  O168  1  0.23135822  0.03049093  0.38511793  1
  O2-  O169  1  0.23557718  0.03093499  0.88673974  1
  O2-  O170  1  0.27283076  0.51075635  0.36098477  1
  O2-  O171  1  0.26988142  0.51764879  0.88911371  1
  O2-  O172  1  0.74358198  0.03598360  0.38599383  1
  O2-  O173  1  0.74593108  0.03642813  0.88915331  1
  O2-  O174  1  0.76850056  0.51165422  0.36589267  1
  O2-  O175  1  0.77185712  0.51734921  0.88794221  1
  O2-  O176  1  -0.02534198  0.26395954  0.38799927  1
  O2-  O177  1  -0.00517882  0.25927514  0.87360210  1
  O2-  O178  1  0.01591760  0.78909375  0.38410899  1
  O2-  O179  1  0.01465430  0.78558557  0.88559709  1
  O2-  O180  1  0.49023620  0.26194144  0.36727755  1
  O2-  O181  1  0.48317678  0.26538915  0.88810184  1
  O2-  O182  1  0.51445044  0.77347905  0.36750746  1
  O2-  O183  1  0.51197629  0.77903769  0.88321120  1
  O2-  O184  1  0.24887668  -0.01842299  0.11643714  1
  O2-  O185  1  0.26572500  -0.01669733  0.61573141  1
  O2-  O186  1  0.23978757  0.47004117  0.12875063  1
  O2-  O187  1  0.23604905  0.47118272  0.61517238  1
  O2-  O188  1  0.77766467  -0.00847479  0.11568236  1
  O2-  O189  1  0.75144827  -0.01017985  0.61476543  1
  O2-  O190  1  0.74048130  0.47334305  0.13323960  1
  O2-  O191  1  0.73598420  0.46764149  0.61393592  1
  O2-  O192  1  0.13650264  0.27449937  0.26308887  1
  O2-  O193  1  0.12075801  0.26639858  0.75779939  1
  O2-  O194  1  0.13558974  0.76227413  0.22721253  1
  O2-  O195  1  0.13091791  0.77521148  0.72637462  1
  O2-  O196  1  0.62278851  0.26979643  0.25736003  1
  O2-  O197  1  0.63640975  0.27318167  0.77200816  1
  O2-  O198  1  0.61952834  0.75928533  0.23050703  1
  O2-  O199  1  0.62944825  0.77151343  0.72787840  1
  O2-  O200  1  0.38355323  0.23268979  0.23421421  1
  O2-  O201  1  0.36401076  0.22569025  0.74474105  1
  O2-  O202  1  0.38123536  0.73199609  0.26693830  1
  O2-  O203  1  0.36428723  0.72687340  0.77624868  1
  O2-  O204  1  0.86246897  0.23930504  0.22669740  1
  O2-  O205  1  0.88131654  0.22775176  0.74732903  1
  O2-  O206  1  0.86162788  0.72096816  0.27217503  1
  O2-  O207  1  0.86547520  0.72653263  0.77096869  1
  O2-  O208  1  0.28046613  0.37298191  0.25510130  1
  O2-  O209  1  0.25899715  0.36291293  0.78209333  1
  O2-  O210  1  0.26722742  0.86399098  0.27810173  1
  O2-  O211  1  0.26718658  0.86780923  0.77131342  1
  O2-  O212  1  0.76260016  0.37419009  0.26319891  1
  O2-  O213  1  0.78693565  0.36191019  0.75895797  1
  O2-  O214  1  0.76487286  0.86516820  0.27616411  1
  O2-  O215  1  0.76838314  0.86682377  0.76911741  1
  O2-  O216  1  0.23986206  0.13880077  0.22095814  1
  O2-  O217  1  0.22217337  0.13672579  0.73727991  1
  O2-  O218  1  0.24038377  0.61240597  0.22389090  1
  O2-  O219  1  0.22488451  0.63092565  0.73038576  1
  O2-  O220  1  0.72224874  0.13913382  0.22815367  1
  O2-  O221  1  0.73968721  0.14119713  0.72581496  1
  O2-  O222  1  0.73149579  0.61512482  0.23068218  1
  O2-  O223  1  0.72934407  0.62905021  0.72977879  1
  O2-  O224  1  0.13366044  0.48026427  0.26541180  1
  O2-  O225  1  0.11467071  0.47395999  0.77623900  1
  O2-  O226  1  0.11079684  0.96400684  0.25105358  1
  O2-  O227  1  0.11299948  0.98126108  0.74283341  1
  O2-  O228  1  0.62885335  0.48406187  0.26827227  1
  O2-  O229  1  0.61903723  0.47422108  0.77070430  1
  O2-  O230  1  0.61623097  0.97430551  0.24901281  1
  O2-  O231  1  0.61711539  0.97707241  0.73660244  1
  O2-  O232  1  0.38379483  0.00879918  0.26116517  1
  O2-  O233  1  0.38617215  0.03445365  0.75670327  1
  O2-  O234  1  0.38157707  0.51164189  0.22717109  1
  O2-  O235  1  0.38317701  0.51468976  0.72459554  1
  O2-  O236  1  0.88642025  0.04461790  0.26133352  1
  O2-  O237  1  0.88525537  0.03524221  0.75969736  1
  O2-  O238  1  0.87618985  0.51419680  0.23229461  1
  O2-  O239  1  0.88797173  0.51166510  0.71456274  1
  O2-  O240  1  0.48782481  0.37014584  0.22909847  1
  O2-  O241  1  0.48395730  0.37852877  0.72336931  1
  O2-  O242  1  0.48363459  0.86907756  0.23313753  1
  O2-  O243  1  0.47274211  0.88755130  0.72131696  1
  O2-  O244  1  0.99253139  0.38300608  0.22418615  1
  O2-  O245  1  0.98531521  0.36499556  0.73254418  1
  O2-  O246  1  0.95880990  0.89050525  0.23936885  1
  O2-  O247  1  0.96470352  0.88832617  0.73732510  1
  O2-  O248  1  0.03917303  0.11535183  0.26887424  1
  O2-  O249  1  0.02215359  0.12760491  0.76318018  1
  O2-  O250  1  0.01819607  0.61444771  0.27489662  1
  O2-  O251  1  0.01867105  0.61922298  0.77130440  1
  O2-  O252  1  0.51792534  0.12362147  0.27015911  1
  O2-  O253  1  0.53365195  0.11358261  0.76880992  1
  O2-  O254  1  0.51226113  0.62092556  0.27182075  1
  O2-  O255  1  0.51925177  0.61597766  0.76873679  1
  O2-  O256  1  0.13781569  0.46537919  -0.00994293  1
  O2-  O257  1  0.13771140  0.48031453  0.46719633  1
  O2-  O258  1  0.12065588  0.99393792  0.00982434  1
  O2-  O259  1  0.11637323  0.98987664  0.51129574  1
  O2-  O260  1  0.64121015  0.46587365  -0.00704513  1
  O2-  O261  1  0.63573970  0.47830221  0.47008277  1
  O2-  O262  1  0.63772129  0.98864609  0.01867777  1
  O2-  O263  1  0.62219683  0.99057405  0.50389413  1
  O2-  O264  1  0.36522329  0.02744547  -0.00208013  1
  O2-  O265  1  0.37438564  0.02379124  0.48600400  1
  O2-  O266  1  0.36726655  0.50628031  0.02881077  1
  O2-  O267  1  0.36707957  0.52783032  0.51008856  1
  O2-  O268  1  0.88397896  0.02495944  -0.00577451  1
  O2-  O269  1  0.87183013  0.02587072  0.50028521  1
  O2-  O270  1  0.86779388  0.50788507  0.03341126  1
  O2-  O271  1  0.86425642  0.51823789  0.50617092  1
  O2-  O272  1  0.49613396  0.36013885  0.02782809  1
  O2-  O273  1  0.48875687  0.35975072  0.51600277  1
  O2-  O274  1  0.47323288  0.86257693  0.03063046  1
  O2-  O275  1  0.47907371  0.88773185  0.50900120  1
  O2-  O276  1  0.98687368  0.35986805  0.01528668  1
  O2-  O277  1  0.98467239  0.36449992  0.52995524  1
  O2-  O278  1  0.98547947  0.88711729  0.02039925  1
  O2-  O279  1  0.97218418  0.88835971  0.51718271  1
  O2-  O280  1  0.01787347  0.12456019  -0.02164251  1
  O2-  O281  1  0.00669766  0.12547472  0.49093944  1
  O2-  O282  1  0.02315001  0.63417175  -0.02798956  1
  O2-  O283  1  0.02044897  0.63587756  0.47478593  1
  O2-  O284  1  0.52658785  0.13446914  -0.00954240  1
  O2-  O285  1  0.51581490  0.12330440  0.46925179  1
  O2-  O286  1  0.52890579  0.63335334  -0.01858714  1
  O2-  O287  1  0.51908586  0.63625190  0.46936812  1
  O2-  O288  1  0.12709835  0.26120135  -0.00728869  1
  O2-  O289  1  0.11166950  0.26057630  0.48452927  1
  O2-  O290  1  0.11609725  0.76935113  0.02797925  1
  O2-  O291  1  0.11298471  0.77632754  0.52128668  1
  O2-  O292  1  0.63331775  0.26391587  -0.01583306  1
  O2-  O293  1  0.62980871  0.26024785  0.47726850  1
  O2-  O294  1  0.61455310  0.77003459  0.02709515  1
  O2-  O295  1  0.61080907  0.78287845  0.51003666  1
  O2-  O296  1  0.37724095  0.22864584  0.01779419  1
  O2-  O297  1  0.38875429  0.22041834  0.51346144  1
  O2-  O298  1  0.38489457  0.71929283  -0.01410945  1
  O2-  O299  1  0.38403727  0.75147290  0.46995828  1
  O2-  O300  1  0.87899073  0.22810970  0.00608458  1
  O2-  O301  1  0.86738939  0.23229001  0.51484166  1
  O2-  O302  1  0.88321594  0.73779055  -0.02153295  1
  O2-  O303  1  0.88110314  0.74022098  0.46981772  1
  O2-  O304  1  0.27492810  0.36467786  -0.01276386  1
  O2-  O305  1  0.28448751  0.38346423  0.48227827  1
  O2-  O306  1  0.26488420  0.88618426  -0.02702855  1
  O2-  O307  1  0.25626219  0.89026578  0.47662023  1
  O2-  O308  1  0.78138040  0.36621679  -0.01165828  1
  O2-  O309  1  0.76774405  0.36754355  0.48148634  1
  O2-  O310  1  0.77182202  0.88721567  -0.02520169  1
  O2-  O311  1  0.76356253  0.88988453  0.47479850  1
  O2-  O312  1  0.23835348  0.13253891  0.02612751  1
  O2-  O313  1  0.22960987  0.11917243  0.52765989  1
  O2-  O314  1  0.22574645  0.61144021  0.02600902  1
  O2-  O315  1  0.22724753  0.61487143  0.51505298  1
  O2-  O316  1  0.74127007  0.13534046  0.02354623  1
  O2-  O317  1  0.73191179  0.13381216  0.51891866  1
  O2-  O318  1  0.73203324  0.61216024  0.02428745  1
  O2-  O319  1  0.72278216  0.61271444  0.51898571  1
