# generated using pymatgen
data_Sr64Ca21Nb43O192
_symmetry_space_group_name_H-M   'P 1'
_cell_length_a   16.61028162
_cell_length_b   16.61218164
_cell_length_c   16.77931768
_cell_angle_alpha   89.94815482
_cell_angle_beta   89.91156406
_cell_angle_gamma   90.13570518
_symmetry_Int_Tables_number   1
_chemical_formula_structural   Sr64Ca21Nb43O192
_chemical_formula_sum   'Sr64 Ca21 Nb43 O192'
_cell_volume   4629.94730832
_cell_formula_units_Z   1
loop_
 _symmetry_equiv_pos_site_id
 _symmetry_equiv_pos_as_xyz
  1  'x, y, z'
loop_
 _atom_type_symbol
 _atom_type_oxidation_number
  Sr2+  2.0
  Ca2+  2.0
  Nb5+  5.0
  O2-  -2.0
loop_
 _atom_site_type_symbol
 _atom_site_label
 _atom_site_symmetry_multiplicity
 _atom_site_fract_x
 _atom_site_fract_y
 _atom_site_fract_z
 _atom_site_occupancy
  Sr2+  Sr0  1  0.12067737  0.11978587  0.11708038  1
  Sr2+  Sr1  1  0.12370911  0.11954824  0.63651360  1
  Sr2+  Sr2  1  0.11634425  0.64117811  0.12021259  1
  Sr2+  Sr3  1  0.11803125  0.62384592  0.63231808  1
  Sr2+  Sr4  1  0.62555632  0.12625792  0.12826032  1
  Sr2+  Sr5  1  0.62667017  0.12052917  0.63001432  1
  Sr2+  Sr6  1  0.62730808  0.63294493  0.11215074  1
  Sr2+  Sr7  1  0.63138904  0.63257099  0.62401961  1
  Sr2+  Sr8  1  0.37931075  0.37505138  0.11929210  1
  Sr2+  Sr9  1  0.37629031  0.37526489  0.60298358  1
  Sr2+  Sr10  1  0.36095101  0.88999239  0.12994135  1
  Sr2+  Sr11  1  0.36643925  0.89039604  0.62294837  1
  Sr2+  Sr12  1  0.87344889  0.35372989  0.12502911  1
  Sr2+  Sr13  1  0.87331665  0.36719655  0.62242670  1
  Sr2+  Sr14  1  0.87663750  0.84939100  0.12868708  1
  Sr2+  Sr15  1  0.86962706  0.90660418  0.62506834  1
  Sr2+  Sr16  1  0.12603043  0.37487954  0.37353674  1
  Sr2+  Sr17  1  0.14190083  0.37784078  0.87231858  1
  Sr2+  Sr18  1  0.14041103  0.86484655  0.37497649  1
  Sr2+  Sr19  1  0.13912850  0.87207440  0.87263336  1
  Sr2+  Sr20  1  0.61928277  0.37871588  0.37982946  1
  Sr2+  Sr21  1  0.62939272  0.37425181  0.87054675  1
  Sr2+  Sr22  1  0.62494556  0.86865440  0.37088391  1
  Sr2+  Sr23  1  0.62189175  0.86777277  0.87484394  1
  Sr2+  Sr24  1  0.37683027  0.12455647  0.37615424  1
  Sr2+  Sr25  1  0.37475142  0.12842779  0.87482749  1
  Sr2+  Sr26  1  0.36877855  0.62319858  0.37792038  1
  Sr2+  Sr27  1  0.36521260  0.61972244  0.86928446  1
  Sr2+  Sr28  1  0.88299507  0.11037993  0.37379342  1
  Sr2+  Sr29  1  0.86767478  0.10807436  0.87465842  1
  Sr2+  Sr30  1  0.86723262  0.61966682  0.37226744  1
  Sr2+  Sr31  1  0.90092689  0.62094599  0.87632131  1
  Sr2+  Sr32  1  0.13196421  0.10285782  0.37820426  1
  Sr2+  Sr33  1  0.13522580  0.11404320  0.87606219  1
  Sr2+  Sr34  1  0.13034947  0.61823793  0.36855517  1
  Sr2+  Sr35  1  0.13507853  0.62184712  0.87265098  1
  Sr2+  Sr36  1  0.61329327  0.10704407  0.36614008  1
  Sr2+  Sr37  1  0.61828838  0.10303192  0.87815358  1
  Sr2+  Sr38  1  0.62522330  0.63112065  0.38028371  1
  Sr2+  Sr39  1  0.61609934  0.61849251  0.86807221  1
  Sr2+  Sr40  1  0.37609195  0.39242687  0.36815752  1
  Sr2+  Sr41  1  0.38403767  0.36847091  0.87771368  1
  Sr2+  Sr42  1  0.37065651  0.89894425  0.37611339  1
  Sr2+  Sr43  1  0.38167319  0.85582323  0.87183661  1
  Sr2+  Sr44  1  0.87683329  0.37159753  0.38818227  1
  Sr2+  Sr45  1  0.86592148  0.37059489  0.86577739  1
  Sr2+  Sr46  1  0.87043457  0.86590869  0.37422794  1
  Sr2+  Sr47  1  0.87925919  0.87306894  0.86748644  1
  Sr2+  Sr48  1  0.12395084  0.37399913  0.12870800  1
  Sr2+  Sr49  1  0.10688468  0.38150167  0.62165377  1
  Sr2+  Sr50  1  0.11671855  0.87495618  0.12874001  1
  Sr2+  Sr51  1  0.11097628  0.89129953  0.62422450  1
  Sr2+  Sr52  1  0.63910893  0.38065127  0.12138293  1
  Sr2+  Sr53  1  0.63744305  0.38207478  0.62956739  1
  Sr2+  Sr54  1  0.63075070  0.88748008  0.12117707  1
  Sr2+  Sr55  1  0.63672185  0.87816209  0.62152066  1
  Sr2+  Sr56  1  0.36290773  0.13179181  0.12499014  1
  Sr2+  Sr57  1  0.36208697  0.13389868  0.62104105  1
  Sr2+  Sr58  1  0.36792728  0.62320269  0.11393347  1
  Sr2+  Sr59  1  0.36397540  0.63060425  0.62506534  1
  Sr2+  Sr60  1  0.86974480  0.12592610  0.12407515  1
  Sr2+  Sr61  1  0.88498373  0.12635113  0.62635507  1
  Sr2+  Sr62  1  0.88122199  0.62127892  0.12566798  1
  Sr2+  Sr63  1  0.86953788  0.62100099  0.62629261  1
  Ca2+  Ca64  1  0.00418059  0.49567316  0.00424937  1
  Ca2+  Ca65  1  0.50170584  0.00027769  0.50460589  1
  Ca2+  Ca66  1  0.49597861  -0.00044003  0.00072389  1
  Ca2+  Ca67  1  -0.00227106  -0.00244353  0.49727169  1
  Ca2+  Ca68  1  -0.00144476  -0.00055583  0.00165151  1
  Ca2+  Ca69  1  0.24625653  0.25208507  0.49648581  1
  Ca2+  Ca70  1  0.74599682  0.24968562  0.49948934  1
  Ca2+  Ca71  1  0.25185078  0.75020033  0.50317711  1
  Ca2+  Ca72  1  0.25088727  0.74945735  0.00020628  1
  Ca2+  Ca73  1  0.75201067  0.74442140  -0.00414879  1
  Ca2+  Ca74  1  0.75154834  0.50511364  0.75198665  1
  Ca2+  Ca75  1  0.74576419  -0.00057436  0.75089596  1
  Ca2+  Ca76  1  0.00330945  0.25137780  0.75403352  1
  Ca2+  Ca77  1  0.25482252  0.00105900  0.75333989  1
  Ca2+  Ca78  1  0.49803887  0.74665292  0.24698608  1
  Ca2+  Ca79  1  0.25381465  0.49640497  0.74527186  1
  Ca2+  Ca80  1  0.24981627  0.50265293  0.24835756  1
  Ca2+  Ca81  1  0.24451280  0.00271787  0.24769972  1
  Ca2+  Ca82  1  0.74748832  0.49860673  0.24938332  1
  Ca2+  Ca83  1  0.75251152  0.00006716  0.24911679  1
  Ca2+  Ca84  1  -0.00020713  0.75149413  0.74251465  1
  Nb5+  Nb85  1  0.49876995  0.50324110  0.49606871  1
  Nb5+  Nb86  1  -0.00794015  0.50502127  0.49789268  1
  Nb5+  Nb87  1  0.50276703  0.49824821  -0.00742252  1
  Nb5+  Nb88  1  0.24582562  0.25256490  0.00237270  1
  Nb5+  Nb89  1  0.75295048  0.75092144  0.50110146  1
  Nb5+  Nb90  1  0.74470481  0.24964027  -0.00246031  1
  Nb5+  Nb91  1  0.00010256  0.74322252  0.25726019  1
  Nb5+  Nb92  1  0.50079892  0.24577308  0.74337415  1
  Nb5+  Nb93  1  0.50266979  0.74265900  0.74673005  1
  Nb5+  Nb94  1  0.00580544  0.24350706  0.25342139  1
  Nb5+  Nb95  1  0.50448238  0.25280647  0.24351553  1
  Nb5+  Nb96  1  -0.00472667  -0.01111633  0.25200691  1
  Nb5+  Nb97  1  -0.00053282  0.00223509  0.75502870  1
  Nb5+  Nb98  1  -0.00228757  0.49322602  0.24867187  1
  Nb5+  Nb99  1  0.00132767  0.49703721  0.75556500  1
  Nb5+  Nb100  1  0.49608190  -0.00499303  0.24689518  1
  Nb5+  Nb101  1  0.49762325  -0.01013817  0.74929811  1
  Nb5+  Nb102  1  0.50575226  0.50401908  0.24123938  1
  Nb5+  Nb103  1  0.49830211  0.49152533  0.74116134  1
  Nb5+  Nb104  1  0.25469421  0.24692739  0.25388188  1
  Nb5+  Nb105  1  0.25071757  0.25805007  0.74654004  1
  Nb5+  Nb106  1  0.25634264  0.74584093  0.24991932  1
  Nb5+  Nb107  1  0.24683280  0.75449201  0.74381340  1
  Nb5+  Nb108  1  0.75257990  0.25303535  0.25686137  1
  Nb5+  Nb109  1  0.75280486  0.24516357  0.74983360  1
  Nb5+  Nb110  1  0.74648945  0.74777174  0.24749083  1
  Nb5+  Nb111  1  0.75294614  0.75018098  0.75324944  1
  Nb5+  Nb112  1  0.00219150  0.24696877  0.49685021  1
  Nb5+  Nb113  1  -0.00302933  0.25530410  0.99474831  1
  Nb5+  Nb114  1  0.00012764  0.75064583  0.50271920  1
  Nb5+  Nb115  1  0.00255108  0.75268793  0.99164274  1
  Nb5+  Nb116  1  0.50491339  0.24850139  0.49243743  1
  Nb5+  Nb117  1  0.50088640  0.24966491  0.99634340  1
  Nb5+  Nb118  1  0.49838683  0.75062415  0.49954712  1
  Nb5+  Nb119  1  0.49698114  0.75008521  1.00279760  1
  Nb5+  Nb120  1  0.25208417  -0.00520315  -0.00300379  1
  Nb5+  Nb121  1  0.24796936  0.00163297  0.50380715  1
  Nb5+  Nb122  1  0.24916296  0.49727938  0.00293842  1
  Nb5+  Nb123  1  0.24014142  0.49880616  0.50028074  1
  Nb5+  Nb124  1  0.75439210  -0.00906149  0.00139771  1
  Nb5+  Nb125  1  0.74422548  0.00894850  0.49494142  1
  Nb5+  Nb126  1  0.75309617  0.50219686  -0.00227983  1
  Nb5+  Nb127  1  0.74465015  0.49948343  0.50057510  1
  O2-  O128  1  0.02340755  0.00784740  0.13802202  1
  O2-  O129  1  0.01591676  0.01648283  0.63200353  1
  O2-  O130  1  0.01235834  0.52516149  0.13866729  1
  O2-  O131  1  0.00567006  0.51955329  0.61434919  1
  O2-  O132  1  0.52814536  0.00137417  0.13424797  1
  O2-  O133  1  0.53540702  -0.00309961  0.63697229  1
  O2-  O134  1  0.49728290  0.49841212  0.12446926  1
  O2-  O135  1  0.50405973  0.48933723  0.62424025  1
  O2-  O136  1  -0.03148344  -0.01232389  0.36768188  1
  O2-  O137  1  -0.02993363  -0.00854107  0.86850463  1
  O2-  O138  1  -0.01237187  0.48297308  0.37747900  1
  O2-  O139  1  -0.00211475  0.47564409  0.86798841  1
  O2-  O140  1  0.47964985  0.01320893  0.36623766  1
  O2-  O141  1  0.47142827  0.00878961  0.86482651  1
  O2-  O142  1  0.50807763  0.50537767  0.37962736  1
  O2-  O143  1  0.49933272  0.49382686  0.87497068  1
  O2-  O144  1  0.26461275  0.27461988  0.12174443  1
  O2-  O145  1  0.27386049  0.27059759  0.63553189  1
  O2-  O146  1  0.26027601  0.77333856  0.13406568  1
  O2-  O147  1  0.28871435  0.76416888  0.63499020  1
  O2-  O148  1  0.75808084  0.23232178  0.11584030  1
  O2-  O149  1  0.75920374  0.22645849  0.63579062  1
  O2-  O150  1  0.76594692  0.72429458  0.13580054  1
  O2-  O151  1  0.75512621  0.72680243  0.61762736  1
  O2-  O152  1  0.23753631  0.21793677  0.36271452  1
  O2-  O153  1  0.24193695  0.23480837  0.88484047  1
  O2-  O154  1  0.23455059  0.73055444  0.36754160  1
  O2-  O155  1  0.23289044  0.73495371  0.86380130  1
  O2-  O156  1  0.73836411  0.28080468  0.36518380  1
  O2-  O157  1  0.74494443  0.27382514  0.87936531  1
  O2-  O158  1  0.73394297  0.76362960  0.38111307  1
  O2-  O159  1  0.74235199  0.77743869  0.86423013  1
  O2-  O160  1  -0.01439836  0.23019304  0.13786373  1
  O2-  O161  1  -0.00257898  0.23442140  0.61256177  1
  O2-  O162  1  -0.01265405  0.73304445  0.13778286  1
  O2-  O163  1  -0.01100352  0.71297034  0.61052355  1
  O2-  O164  1  0.49176954  0.25143784  0.12625416  1
  O2-  O165  1  0.48591461  0.25178777  0.62950455  1
  O2-  O166  1  0.48382016  0.72455813  0.11377096  1
  O2-  O167  1  0.49315087  0.74399449  0.62894943  1
  O2-  O168  1  0.26745724  0.02263231  0.38343650  1
  O2-  O169  1  0.26633914  0.03378559  0.88600877  1
  O2-  O170  1  0.25529799  0.52736404  0.38536126  1
  O2-  O171  1  0.24886249  0.51640909  0.88497666  1
  O2-  O172  1  0.77544544  -0.01152688  0.38352130  1
  O2-  O173  1  0.77406480  -0.01477469  0.88363760  1
  O2-  O174  1  0.75548251  0.48023458  0.38518963  1
  O2-  O175  1  0.75119265  0.47093065  0.88417781  1
  O2-  O176  1  0.00103991  0.27894368  0.36778137  1
  O2-  O177  1  0.01029159  0.28645683  0.88744404  1
  O2-  O178  1  0.00534047  0.76899865  0.37654465  1
  O2-  O179  1  0.01090791  0.77355039  0.87989672  1
  O2-  O180  1  0.51343558  0.25090634  0.37482229  1
  O2-  O181  1  0.50888086  0.25737546  0.87932339  1
  O2-  O182  1  0.51916911  0.74316859  0.38580055  1
  O2-  O183  1  0.51910758  0.74806377  0.87376176  1
  O2-  O184  1  0.22366167  -0.01876329  0.11316080  1
  O2-  O185  1  0.23052462  -0.01984050  0.62015727  1
  O2-  O186  1  0.27212287  0.47844968  0.11693899  1
  O2-  O187  1  0.25700046  0.46869845  0.61255173  1
  O2-  O188  1  0.72633044  0.01751823  0.11460065  1
  O2-  O189  1  0.72716962  0.00612683  0.61432187  1
  O2-  O190  1  0.73091682  0.51495716  0.11357802  1
  O2-  O191  1  0.74442950  0.52211981  0.61706003  1
  O2-  O192  1  0.11942531  0.26903623  0.24134941  1
  O2-  O193  1  0.13762743  0.28066794  0.74084545  1
  O2-  O194  1  0.11476853  0.77314729  0.24471849  1
  O2-  O195  1  0.13587446  0.77554024  0.72054518  1
  O2-  O196  1  0.61848633  0.27096925  0.23797816  1
  O2-  O197  1  0.61681548  0.27747994  0.74394445  1
  O2-  O198  1  0.63417418  0.77469820  0.23336267  1
  O2-  O199  1  0.61799213  0.77615962  0.73984981  1
  O2-  O200  1  0.37215696  0.23130846  0.25758571  1
  O2-  O201  1  0.38328150  0.23606641  0.76774889  1
  O2-  O202  1  0.36597905  0.71101019  0.25555124  1
  O2-  O203  1  0.38663675  0.73273614  0.77006965  1
  O2-  O204  1  0.87003828  0.23671480  0.26115287  1
  O2-  O205  1  0.86534618  0.22899389  0.76943569  1
  O2-  O206  1  0.87782938  0.73607727  0.26841805  1
  O2-  O207  1  0.86460933  0.72307253  0.76217938  1
  O2-  O208  1  0.25671201  0.36387621  0.27138975  1
  O2-  O209  1  0.27324166  0.36644335  0.78538800  1
  O2-  O210  1  0.26754967  0.86540064  0.27063361  1
  O2-  O211  1  0.27568715  0.86727445  0.77155362  1
  O2-  O212  1  0.75930067  0.36320472  0.21756611  1
  O2-  O213  1  0.76328785  0.36482283  0.73443673  1
  O2-  O214  1  0.77609435  0.86382286  0.24446924  1
  O2-  O215  1  0.76171327  0.86301606  0.71908252  1
  O2-  O216  1  0.23078998  0.13831755  0.21489315  1
  O2-  O217  1  0.23753929  0.13986702  0.74036254  1
  O2-  O218  1  0.21612549  0.63528410  0.22797241  1
  O2-  O219  1  0.23858774  0.63431622  0.73122168  1
  O2-  O220  1  0.72099502  0.14000619  0.25776337  1
  O2-  O221  1  0.71561695  0.13651305  0.77139124  1
  O2-  O222  1  0.73624978  0.63447003  0.27851222  1
  O2-  O223  1  0.71372141  0.63924683  0.75619193  1
  O2-  O224  1  0.11397842  0.48547936  0.26918069  1
  O2-  O225  1  0.11802950  0.47782529  0.74026938  1
  O2-  O226  1  0.11129203  0.98520963  0.27960381  1
  O2-  O227  1  0.11667289  0.97788615  0.76976461  1
  O2-  O228  1  0.61178637  0.45786898  0.25412136  1
  O2-  O229  1  0.61427426  0.48368976  0.75654461  1
  O2-  O230  1  0.61486030  0.98356199  0.27323625  1
  O2-  O231  1  0.61316813  0.98423204  0.78189410  1
  O2-  O232  1  0.38115280  0.02121473  0.22695897  1
  O2-  O233  1  0.38809548  0.02111289  0.71716291  1
  O2-  O234  1  0.39061522  0.51491688  0.26377414  1
  O2-  O235  1  0.38864053  0.52959720  0.74846314  1
  O2-  O236  1  0.88592399  0.03401698  0.23553100  1
  O2-  O237  1  0.87973067  0.02875512  0.73335390  1
  O2-  O238  1  0.88352461  0.52394582  0.24855788  1
  O2-  O239  1  0.88575216  0.52889251  0.74771373  1
  O2-  O240  1  0.47160214  0.36761073  0.25127068  1
  O2-  O241  1  0.47665469  0.37744627  0.74906910  1
  O2-  O242  1  0.47122492  0.88165765  0.24853062  1
  O2-  O243  1  0.47826925  0.87416177  0.75071080  1
  O2-  O244  1  0.98305566  0.37829683  0.23250049  1
  O2-  O245  1  0.97675394  0.38465356  0.72316719  1
  O2-  O246  1  0.97665732  0.87446255  0.23927570  1
  O2-  O247  1  0.97469960  0.88484311  0.73229606  1
  O2-  O248  1  0.01757589  0.13266040  0.27575334  1
  O2-  O249  1  0.02751971  0.12012031  0.76747730  1
  O2-  O250  1  0.01461225  0.62962292  0.27275743  1
  O2-  O251  1  0.02760931  0.61619269  0.76868538  1
  O2-  O252  1  0.51436391  0.13431112  0.24912915  1
  O2-  O253  1  0.52174686  0.13324697  0.74999373  1
  O2-  O254  1  0.54100336  0.61227030  0.24540826  1
  O2-  O255  1  0.52325257  0.62678820  0.74597110  1
  O2-  O256  1  0.13859403  0.46586537  0.00462152  1
  O2-  O257  1  0.12307514  0.48365808  0.49244812  1
  O2-  O258  1  0.13355380  0.99176486  -0.02709743  1
  O2-  O259  1  0.13155488  0.97797729  0.47925883  1
  O2-  O260  1  0.61860260  0.47049940  -0.00449344  1
  O2-  O261  1  0.62624241  0.48050828  0.50058711  1
  O2-  O262  1  0.63506461  0.98092248  -0.02140598  1
  O2-  O263  1  0.63349614  0.96731131  0.47788675  1
  O2-  O264  1  0.36445061  0.01844361  0.03019116  1
  O2-  O265  1  0.36758832  0.02271463  0.52123257  1
  O2-  O266  1  0.38276067  0.51240844  -0.00472491  1
  O2-  O267  1  0.38349209  0.51952232  0.50171120  1
  O2-  O268  1  0.86457892  0.03373594  0.01303177  1
  O2-  O269  1  0.86245940  0.02592909  0.51977231  1
  O2-  O270  1  0.86682706  0.52316424  0.00275668  1
  O2-  O271  1  0.87525353  0.52255877  0.50224383  1
  O2-  O272  1  0.48444141  0.37306473  0.00508386  1
  O2-  O273  1  0.48107115  0.38128653  0.49082347  1
  O2-  O274  1  0.47220836  0.86209632  0.00437109  1
  O2-  O275  1  0.47403855  0.86215138  0.50178096  1
  O2-  O276  1  0.99555729  0.36274603  0.04174314  1
  O2-  O277  1  0.97876806  0.38531989  0.51315269  1
  O2-  O278  1  0.97649729  0.86441813  0.02040632  1
  O2-  O279  1  0.97027952  0.86048254  0.52053595  1
  O2-  O280  1  0.02631114  0.14284492  -0.00631638  1
  O2-  O281  1  0.01738345  0.13660786  0.47199698  1
  O2-  O282  1  0.02742303  0.63174662  -0.01847101  1
  O2-  O283  1  0.01490535  0.62172732  0.47246504  1
  O2-  O284  1  0.52536101  0.13748624  0.00285459  1
  O2-  O285  1  0.53002033  0.13715463  0.50274490  1
  O2-  O286  1  0.52580207  0.61340265  -0.00461880  1
  O2-  O287  1  0.52839410  0.61713904  0.50898079  1
  O2-  O288  1  0.13154458  0.27200888  0.01367087  1
  O2-  O289  1  0.11306309  0.28685086  0.49789455  1
  O2-  O290  1  0.11619362  0.76842087  0.02219068  1
  O2-  O291  1  0.11292801  0.77111635  0.51115438  1
  O2-  O292  1  0.62749368  0.27185040  0.00807589  1
  O2-  O293  1  0.61300375  0.28588141  0.51813852  1
  O2-  O294  1  0.61552730  0.76578877  0.01676462  1
  O2-  O295  1  0.62542375  0.75913687  0.51554105  1
  O2-  O296  1  0.38256432  0.23526574  -0.00603357  1
  O2-  O297  1  0.38715518  0.23531582  0.49536452  1
  O2-  O298  1  0.38503540  0.71634232  -0.02074899  1
  O2-  O299  1  0.39002188  0.71195922  0.49536480  1
  O2-  O300  1  0.87836757  0.24207051  -0.00934292  1
  O2-  O301  1  0.88346561  0.24568272  0.48499268  1
  O2-  O302  1  0.88691863  0.72013675  -0.00496167  1
  O2-  O303  1  0.86862334  0.72767575  0.48309185  1
  O2-  O304  1  0.27624436  0.37067098  -0.01751283  1
  O2-  O305  1  0.27099540  0.38582584  0.47204374  1
  O2-  O306  1  0.27137190  0.88370643  -0.02622689  1
  O2-  O307  1  0.27434871  0.88379497  0.48550127  1
  O2-  O308  1  0.76661649  0.37255922  0.01807420  1
  O2-  O309  1  0.76755987  0.38601077  0.52249242  1
  O2-  O310  1  0.77198553  0.87994839  0.02387464  1
  O2-  O311  1  0.76802437  0.86565683  0.51359108  1
  O2-  O312  1  0.23960739  0.13630773  0.02211167  1
  O2-  O313  1  0.22463889  0.11949673  0.52431132  1
  O2-  O314  1  0.23510923  0.61189083  0.02257439  1
  O2-  O315  1  0.23443393  0.61363982  0.53031535  1
  O2-  O316  1  0.73349944  0.13524944  -0.02185050  1
  O2-  O317  1  0.71535996  0.11860895  0.48037390  1
  O2-  O318  1  0.71876871  0.61158280  -0.02230062  1
  O2-  O319  1  0.73438493  0.62265987  0.48238567  1
