# generated using pymatgen
data_Sr64Ca21Nb43O192
_symmetry_space_group_name_H-M   'P 1'
_cell_length_a   16.60083996
_cell_length_b   16.62398070
_cell_length_c   16.71671064
_cell_angle_alpha   89.89704363
_cell_angle_beta   89.96141176
_cell_angle_gamma   89.90676335
_symmetry_Int_Tables_number   1
_chemical_formula_structural   Sr64Ca21Nb43O192
_chemical_formula_sum   'Sr64 Ca21 Nb43 O192'
_cell_volume   4613.33019759
_cell_formula_units_Z   1
loop_
 _symmetry_equiv_pos_site_id
 _symmetry_equiv_pos_as_xyz
  1  'x, y, z'
loop_
 _atom_type_symbol
 _atom_type_oxidation_number
  Sr2+  2.0
  Ca2+  2.0
  Nb5+  5.0
  O2-  -2.0
loop_
 _atom_site_type_symbol
 _atom_site_label
 _atom_site_symmetry_multiplicity
 _atom_site_fract_x
 _atom_site_fract_y
 _atom_site_fract_z
 _atom_site_occupancy
  Sr2+  Sr0  1  0.11286661  0.11498960  0.12789885  1
  Sr2+  Sr1  1  0.11514436  0.10743800  0.62427782  1
  Sr2+  Sr2  1  0.12381423  0.61517882  0.13017950  1
  Sr2+  Sr3  1  0.12408765  0.62734717  0.63570582  1
  Sr2+  Sr4  1  0.61525797  0.11279960  0.12805633  1
  Sr2+  Sr5  1  0.62266298  0.11682328  0.63132954  1
  Sr2+  Sr6  1  0.62000131  0.61736760  0.12214243  1
  Sr2+  Sr7  1  0.61577908  0.61414559  0.61365433  1
  Sr2+  Sr8  1  0.36979313  0.36855328  0.12660036  1
  Sr2+  Sr9  1  0.36852662  0.36171568  0.62866647  1
  Sr2+  Sr10  1  0.36365013  0.86288402  0.12706626  1
  Sr2+  Sr11  1  0.36686120  0.86020281  0.62668467  1
  Sr2+  Sr12  1  0.87349433  0.36701093  0.12837207  1
  Sr2+  Sr13  1  0.86453528  0.36482799  0.62183478  1
  Sr2+  Sr14  1  0.86279404  0.85898569  0.12859830  1
  Sr2+  Sr15  1  0.86624075  0.86869062  0.62054375  1
  Sr2+  Sr16  1  0.13441789  0.37935410  0.37866009  1
  Sr2+  Sr17  1  0.13285367  0.38192214  0.87442816  1
  Sr2+  Sr18  1  0.12135297  0.88094027  0.38108625  1
  Sr2+  Sr19  1  0.13167282  0.87815563  0.88337752  1
  Sr2+  Sr20  1  0.63677157  0.38422898  0.37807292  1
  Sr2+  Sr21  1  0.62272457  0.37486829  0.87525699  1
  Sr2+  Sr22  1  0.63410476  0.88785594  0.36220733  1
  Sr2+  Sr23  1  0.63783984  0.88532506  0.87544855  1
  Sr2+  Sr24  1  0.39244737  0.13248869  0.37969557  1
  Sr2+  Sr25  1  0.38682211  0.13269206  0.87251769  1
  Sr2+  Sr26  1  0.38600035  0.63004289  0.37987024  1
  Sr2+  Sr27  1  0.38558315  0.62570139  0.87599220  1
  Sr2+  Sr28  1  0.88727699  0.13465485  0.38104846  1
  Sr2+  Sr29  1  0.88169335  0.12514000  0.86448913  1
  Sr2+  Sr30  1  0.87193542  0.62082502  0.37866623  1
  Sr2+  Sr31  1  0.87885350  0.63508450  0.87528858  1
  Sr2+  Sr32  1  0.12496552  0.12344365  0.37830547  1
  Sr2+  Sr33  1  0.13266695  0.13463324  0.87255608  1
  Sr2+  Sr34  1  0.13401910  0.63301571  0.38089208  1
  Sr2+  Sr35  1  0.12652855  0.63101860  0.88129165  1
  Sr2+  Sr36  1  0.62927188  0.13804625  0.37333273  1
  Sr2+  Sr37  1  0.63997321  0.13101393  0.87039818  1
  Sr2+  Sr38  1  0.63396292  0.63083936  0.37475904  1
  Sr2+  Sr39  1  0.62535389  0.63967690  0.87468081  1
  Sr2+  Sr40  1  0.38021485  0.37108860  0.37591375  1
  Sr2+  Sr41  1  0.37728875  0.37752526  0.87089742  1
  Sr2+  Sr42  1  0.37886489  0.88652114  0.38402748  1
  Sr2+  Sr43  1  0.38100334  0.88811512  0.87796663  1
  Sr2+  Sr44  1  0.88096915  0.37707465  0.38150419  1
  Sr2+  Sr45  1  0.88666132  0.38851164  0.87361290  1
  Sr2+  Sr46  1  0.88028559  0.89176338  0.37365681  1
  Sr2+  Sr47  1  0.87426176  0.88130366  0.87242031  1
  Sr2+  Sr48  1  0.11423209  0.37085242  0.12171136  1
  Sr2+  Sr49  1  0.11880634  0.37463048  0.63823183  1
  Sr2+  Sr50  1  0.11458383  0.86646803  0.13285160  1
  Sr2+  Sr51  1  0.11324387  0.86971510  0.62132036  1
  Sr2+  Sr52  1  0.61134309  0.36656944  0.12129605  1
  Sr2+  Sr53  1  0.63069902  0.36778708  0.62021943  1
  Sr2+  Sr54  1  0.61381031  0.86701847  0.12743968  1
  Sr2+  Sr55  1  0.60459099  0.87153594  0.62950344  1
  Sr2+  Sr56  1  0.36749378  0.11554652  0.12903831  1
  Sr2+  Sr57  1  0.36706235  0.11624087  0.62377274  1
  Sr2+  Sr58  1  0.36988717  0.61538749  0.12790796  1
  Sr2+  Sr59  1  0.37188698  0.62065747  0.62478133  1
  Sr2+  Sr60  1  0.86298397  0.12547805  0.13023607  1
  Sr2+  Sr61  1  0.86060851  0.11715328  0.62345207  1
  Sr2+  Sr62  1  0.86408811  0.61669652  0.12290067  1
  Sr2+  Sr63  1  0.85498272  0.61661709  0.62291516  1
  Ca2+  Ca64  1  -0.00141620  -0.00254860  0.00169145  1
  Ca2+  Ca65  1  0.50063931  0.00076753  0.50126331  1
  Ca2+  Ca66  1  0.50065393  -0.00107041  -0.00156607  1
  Ca2+  Ca67  1  0.49659158  0.49649871  0.49770159  1
  Ca2+  Ca68  1  0.00066002  0.50161574  0.50291318  1
  Ca2+  Ca69  1  0.74660719  0.75454524  0.49895045  1
  Ca2+  Ca70  1  0.75079732  0.24609362  0.49763931  1
  Ca2+  Ca71  1  0.25124096  0.25198850  0.00148240  1
  Ca2+  Ca72  1  0.75227580  0.25324486  0.00042225  1
  Ca2+  Ca73  1  0.25095106  0.24952050  0.49954777  1
  Ca2+  Ca74  1  0.24652152  -0.00379558  0.75086998  1
  Ca2+  Ca75  1  0.50176885  0.24954658  0.75109991  1
  Ca2+  Ca76  1  0.49846476  0.74938402  0.75032277  1
  Ca2+  Ca77  1  0.25063271  -0.00067687  0.25127951  1
  Ca2+  Ca78  1  0.74739443  0.50182192  0.75344688  1
  Ca2+  Ca79  1  -0.00179694  0.74527679  0.25201876  1
  Ca2+  Ca80  1  0.49735404  0.74759481  0.25127168  1
  Ca2+  Ca81  1  0.75162711  0.00398918  0.24824245  1
  Ca2+  Ca82  1  0.75105414  0.49799991  0.24600179  1
  Ca2+  Ca83  1  -0.00240428  0.75160969  0.74923766  1
  Ca2+  Ca84  1  0.00095624  0.24909582  0.75044283  1
  Nb5+  Nb85  1  -0.00400109  0.00130086  0.50235036  1
  Nb5+  Nb86  1  0.49467477  0.49902974  0.00012492  1
  Nb5+  Nb87  1  -0.00427246  0.50196381  -0.00046197  1
  Nb5+  Nb88  1  0.24620918  0.74910422  0.50811124  1
  Nb5+  Nb89  1  0.24594759  0.75030135  0.00546670  1
  Nb5+  Nb90  1  0.74177727  0.75134446  -0.00049276  1
  Nb5+  Nb91  1  0.25091446  0.50334000  0.75733965  1
  Nb5+  Nb92  1  0.74915194  -0.00177723  0.74800687  1
  Nb5+  Nb93  1  0.49532807  0.24758047  0.24717469  1
  Nb5+  Nb94  1  0.25068282  0.49966155  0.25710390  1
  Nb5+  Nb95  1  -0.00165864  0.25023092  0.24888840  1
  Nb5+  Nb96  1  -0.00458491  -0.00052096  0.24652345  1
  Nb5+  Nb97  1  0.00069892  -0.00620658  0.75362464  1
  Nb5+  Nb98  1  0.00309822  0.49903977  0.25386125  1
  Nb5+  Nb99  1  -0.00291241  0.50834612  0.74891629  1
  Nb5+  Nb100  1  0.49577024  -0.00555380  0.24723767  1
  Nb5+  Nb101  1  0.49480483  0.00188313  0.75220630  1
  Nb5+  Nb102  1  0.50335338  0.49503189  0.25030314  1
  Nb5+  Nb103  1  0.50114854  0.49734994  0.74718453  1
  Nb5+  Nb104  1  0.24301881  0.24945437  0.24840776  1
  Nb5+  Nb105  1  0.24812616  0.24407185  0.74582922  1
  Nb5+  Nb106  1  0.25368017  0.74934319  0.26131634  1
  Nb5+  Nb107  1  0.25260336  0.74960163  0.76269684  1
  Nb5+  Nb108  1  0.74186848  0.25551892  0.24883204  1
  Nb5+  Nb109  1  0.75642331  0.25517082  0.75331102  1
  Nb5+  Nb110  1  0.74996556  0.74753382  0.25308477  1
  Nb5+  Nb111  1  0.74294739  0.74973251  0.74406883  1
  Nb5+  Nb112  1  0.00706624  0.25095154  0.50654121  1
  Nb5+  Nb113  1  0.00053768  0.24758661  0.99719648  1
  Nb5+  Nb114  1  -0.00498334  0.74544568  0.49722362  1
  Nb5+  Nb115  1  -0.00792824  0.75009826  1.00621577  1
  Nb5+  Nb116  1  0.50389977  0.24889626  0.50603068  1
  Nb5+  Nb117  1  0.50198511  0.24489211  0.99932339  1
  Nb5+  Nb118  1  0.50441267  0.75347462  0.49354899  1
  Nb5+  Nb119  1  0.49045152  0.74972169  1.00355615  1
  Nb5+  Nb120  1  0.24548348  0.00622927  0.00197066  1
  Nb5+  Nb121  1  0.24802946  0.00253095  0.50039036  1
  Nb5+  Nb122  1  0.24877356  0.50069152  0.00407558  1
  Nb5+  Nb123  1  0.25184596  0.49885630  0.51009371  1
  Nb5+  Nb124  1  0.75371058  0.00216326  0.00390785  1
  Nb5+  Nb125  1  0.74331887  -0.00250541  0.49921662  1
  Nb5+  Nb126  1  0.74412116  0.49908850  -0.00494659  1
  Nb5+  Nb127  1  0.74965643  0.49888029  0.50042040  1
  O2-  O128  1  -0.01673055  0.03151422  0.13571066  1
  O2-  O129  1  -0.01543351  0.02422217  0.61898077  1
  O2-  O130  1  -0.00253866  0.51644485  0.11991436  1
  O2-  O131  1  -0.00740970  0.53474936  0.63712618  1
  O2-  O132  1  0.48826911  0.02786796  0.13178651  1
  O2-  O133  1  0.49374592  0.03322228  0.63557464  1
  O2-  O134  1  0.49032580  0.51630115  0.12127565  1
  O2-  O135  1  0.48968520  0.52071894  0.63547752  1
  O2-  O136  1  0.01237174  -0.00959553  0.37773566  1
  O2-  O137  1  0.00983691  -0.03306769  0.86502804  1
  O2-  O138  1  0.01265362  0.47036536  0.36429391  1
  O2-  O139  1  0.01797063  0.48237485  0.88229552  1
  O2-  O140  1  0.51347395  -0.01918287  0.36454689  1
  O2-  O141  1  0.51306709  -0.03323958  0.86525860  1
  O2-  O142  1  0.50266918  0.46756655  0.36172643  1
  O2-  O143  1  0.50348994  0.47701010  0.88364394  1
  O2-  O144  1  0.24329833  0.28628386  0.13638274  1
  O2-  O145  1  0.23653125  0.28355940  0.63358106  1
  O2-  O146  1  0.23267373  0.76365557  0.11907191  1
  O2-  O147  1  0.22899610  0.76291883  0.62171473  1
  O2-  O148  1  0.74259204  0.28780828  0.13397762  1
  O2-  O149  1  0.73990268  0.26765486  0.63408583  1
  O2-  O150  1  0.73424606  0.77276008  0.11751626  1
  O2-  O151  1  0.72780414  0.78040104  0.63485025  1
  O2-  O152  1  0.27714603  0.23917988  0.36005247  1
  O2-  O153  1  0.27111987  0.23418543  0.86420908  1
  O2-  O154  1  0.26418345  0.72413770  0.37355495  1
  O2-  O155  1  0.26622299  0.72488777  0.87614489  1
  O2-  O156  1  0.76388792  0.22097022  0.36146010  1
  O2-  O157  1  0.76676838  0.22007694  0.86713898  1
  O2-  O158  1  0.76317351  0.72275341  0.36528366  1
  O2-  O159  1  0.76516263  0.73375104  0.88283904  1
  O2-  O160  1  0.02936503  0.24253705  0.13001839  1
  O2-  O161  1  0.03669708  0.23703770  0.61577441  1
  O2-  O162  1  0.02956395  0.72838555  0.11601894  1
  O2-  O163  1  0.03072143  0.74291606  0.61018236  1
  O2-  O164  1  0.52589163  0.23856252  0.12765720  1
  O2-  O165  1  0.53149118  0.24146231  0.61701434  1
  O2-  O166  1  0.52016436  0.72650916  0.11499857  1
  O2-  O167  1  0.52074505  0.73245571  0.61165563  1
  O2-  O168  1  0.22024068  -0.00042601  0.38535745  1
  O2-  O169  1  0.21602240  0.00569876  0.88463431  1
  O2-  O170  1  0.23616446  0.51556847  0.37039017  1
  O2-  O171  1  0.23721281  0.51760509  0.87523760  1
  O2-  O172  1  0.72651803  0.01463871  0.38579327  1
  O2-  O173  1  0.73266866  0.00891501  0.86926191  1
  O2-  O174  1  0.73374300  0.51715394  0.38130457  1
  O2-  O175  1  0.73943071  0.53937088  0.88599372  1
  O2-  O176  1  -0.01701876  0.26584701  0.36532502  1
  O2-  O177  1  -0.02871929  0.26431797  0.88706885  1
  O2-  O178  1  -0.01715388  0.78114354  0.38501710  1
  O2-  O179  1  -0.01567778  0.76555250  0.88945577  1
  O2-  O180  1  0.48249684  0.26209832  0.36321205  1
  O2-  O181  1  0.47713291  0.26722318  0.88810470  1
  O2-  O182  1  0.46081218  0.76191965  0.38258285  1
  O2-  O183  1  0.47133358  0.75626838  0.88745065  1
  O2-  O184  1  0.27710179  -0.01698846  0.11471389  1
  O2-  O185  1  0.26448812  -0.02424204  0.61440582  1
  O2-  O186  1  0.26402607  0.49276552  0.11994512  1
  O2-  O187  1  0.26612839  0.49269839  0.62661952  1
  O2-  O188  1  0.78277747  -0.01464858  0.11389706  1
  O2-  O189  1  0.77063897  -0.01521256  0.62993731  1
  O2-  O190  1  0.77578631  0.48974935  0.10801760  1
  O2-  O191  1  0.76773694  0.48332625  0.62017128  1
  O2-  O192  1  0.13026854  0.27210010  0.26807586  1
  O2-  O193  1  0.13488309  0.27338427  0.77314395  1
  O2-  O194  1  0.13686307  0.76619743  0.26325389  1
  O2-  O195  1  0.13629054  0.76526809  0.76609050  1
  O2-  O196  1  0.62689428  0.27314121  0.26518172  1
  O2-  O197  1  0.63718752  0.26697508  0.77058224  1
  O2-  O198  1  0.63245362  0.77446371  0.26112170  1
  O2-  O199  1  0.63216350  0.76760185  0.78345907  1
  O2-  O200  1  0.38109067  0.23375897  0.22749353  1
  O2-  O201  1  0.36672647  0.23224049  0.72506594  1
  O2-  O202  1  0.36271470  0.72614875  0.22257200  1
  O2-  O203  1  0.36295466  0.73127848  0.72299496  1
  O2-  O204  1  0.88527028  0.23804739  0.22959913  1
  O2-  O205  1  0.86957501  0.22426768  0.72843031  1
  O2-  O206  1  0.86527951  0.72824903  0.22195642  1
  O2-  O207  1  0.86039885  0.72719307  0.73840843  1
  O2-  O208  1  0.26830430  0.38188396  0.26855230  1
  O2-  O209  1  0.26573760  0.38615109  0.76639193  1
  O2-  O210  1  0.27701374  0.86215430  0.26515600  1
  O2-  O211  1  0.27368950  0.86300792  0.77243553  1
  O2-  O212  1  0.77757823  0.36624599  0.27542500  1
  O2-  O213  1  0.78091282  0.36678765  0.76982786  1
  O2-  O214  1  0.77408487  0.86623620  0.26531121  1
  O2-  O215  1  0.76619409  0.87661781  0.76777971  1
  O2-  O216  1  0.23098649  0.13792818  0.22428154  1
  O2-  O217  1  0.22487841  0.13303656  0.72717870  1
  O2-  O218  1  0.23509215  0.61946323  0.23559313  1
  O2-  O219  1  0.23357979  0.62405756  0.73869553  1
  O2-  O220  1  0.73592382  0.13995614  0.21697438  1
  O2-  O221  1  0.73424264  0.11697465  0.73456224  1
  O2-  O222  1  0.72450525  0.63310983  0.22648451  1
  O2-  O223  1  0.71967347  0.63608925  0.72601110  1
  O2-  O224  1  0.13436448  0.47896610  0.23158278  1
  O2-  O225  1  0.13093915  0.48934900  0.73873674  1
  O2-  O226  1  0.11378119  0.98797611  0.23552758  1
  O2-  O227  1  0.11231581  0.97934001  0.72442981  1
  O2-  O228  1  0.61532130  0.47533000  0.22982129  1
  O2-  O229  1  0.61304170  0.46759558  0.74422126  1
  O2-  O230  1  0.61635489  0.98271498  0.22969274  1
  O2-  O231  1  0.63086534  0.98161978  0.73342320  1
  O2-  O232  1  0.38409117  0.03171282  0.26759017  1
  O2-  O233  1  0.38113372  0.02168616  0.76864427  1
  O2-  O234  1  0.37194520  0.51108570  0.25124245  1
  O2-  O235  1  0.36843391  0.52306195  0.76351933  1
  O2-  O236  1  0.88470357  0.02981430  0.27523924  1
  O2-  O237  1  0.87259980  0.01533242  0.76194366  1
  O2-  O238  1  0.88983651  0.52143157  0.25759979  1
  O2-  O239  1  0.88498055  0.52113144  0.77338136  1
  O2-  O240  1  0.48303965  0.37038443  0.22518096  1
  O2-  O241  1  0.46338649  0.38565831  0.74467309  1
  O2-  O242  1  0.47292563  0.88325108  0.22768523  1
  O2-  O243  1  0.48269128  0.88523994  0.72149501  1
  O2-  O244  1  0.99425073  0.37564821  0.22644459  1
  O2-  O245  1  0.99026087  0.38956715  0.73518651  1
  O2-  O246  1  0.97684411  0.88661893  0.23260044  1
  O2-  O247  1  0.97311525  0.88354955  0.72179154  1
  O2-  O248  1  0.02412383  0.13554745  0.26452376  1
  O2-  O249  1  0.01677095  0.11211417  0.77224010  1
  O2-  O250  1  0.03505571  0.60981898  0.26442157  1
  O2-  O251  1  0.02464776  0.61916448  0.77833832  1
  O2-  O252  1  0.52449256  0.13377719  0.26275691  1
  O2-  O253  1  0.52270300  0.11571056  0.78025223  1
  O2-  O254  1  0.51474754  0.60911424  0.26846545  1
  O2-  O255  1  0.51092814  0.61092757  0.77922325  1
  O2-  O256  1  0.13034422  0.49270564  0.01126243  1
  O2-  O257  1  0.13523090  0.48106726  0.51123011  1
  O2-  O258  1  0.13406955  0.96672651  0.02358165  1
  O2-  O259  1  0.11837299  0.98173229  0.51712277  1
  O2-  O260  1  0.62600819  0.48880735  0.01236660  1
  O2-  O261  1  0.63091566  0.47667976  0.51518638  1
  O2-  O262  1  0.63934373  0.97018590  0.01197428  1
  O2-  O263  1  0.63447659  0.97075169  0.52214943  1
  O2-  O264  1  0.36234067  0.01694614  -0.02848887  1
  O2-  O265  1  0.36188173  0.01731859  0.47960987  1
  O2-  O266  1  0.37593396  0.51960516  -0.00932918  1
  O2-  O267  1  0.36238741  0.53312200  0.48906835  1
  O2-  O268  1  0.86615593  0.00999436  -0.03380920  1
  O2-  O269  1  0.87911216  0.02061820  0.48489543  1
  O2-  O270  1  0.88077244  0.51675117  -0.01865158  1
  O2-  O271  1  0.86793578  0.52347452  0.48800652  1
  O2-  O272  1  0.48271650  0.38240421  0.02098312  1
  O2-  O273  1  0.46815514  0.36296293  0.50988403  1
  O2-  O274  1  0.48231310  0.86252917  0.02371389  1
  O2-  O275  1  0.46997554  0.86530462  0.51854010  1
  O2-  O276  1  0.98498424  0.38411555  0.01672713  1
  O2-  O277  1  0.98467787  0.36476973  0.51967196  1
  O2-  O278  1  0.98776208  0.86267037  0.03149051  1
  O2-  O279  1  0.98435514  0.88261376  0.51593316  1
  O2-  O280  1  0.02355277  0.13497494  -0.01571628  1
  O2-  O281  1  0.02012210  0.12200633  0.48413756  1
  O2-  O282  1  0.01247575  0.62247314  -0.01585352  1
  O2-  O283  1  0.01063867  0.63564672  0.46684930  1
  O2-  O284  1  0.52639360  0.13424557  -0.01810882  1
  O2-  O285  1  0.52195590  0.13435306  0.47437846  1
  O2-  O286  1  0.51401075  0.61946983  -0.01668198  1
  O2-  O287  1  0.51721148  0.63354919  0.47571580  1
  O2-  O288  1  0.11468480  0.28074554  -0.01430709  1
  O2-  O289  1  0.11720742  0.25953808  0.46342231  1
  O2-  O290  1  0.13146518  0.75764528  -0.01994541  1
  O2-  O291  1  0.12890058  0.76192991  0.47492875  1
  O2-  O292  1  0.61540435  0.28108212  -0.00946599  1
  O2-  O293  1  0.61640861  0.27483835  0.47388937  1
  O2-  O294  1  0.62506272  0.76141367  -0.01794590  1
  O2-  O295  1  0.61334405  0.77835236  0.46712543  1
  O2-  O296  1  0.38729191  0.23396539  0.02948210  1
  O2-  O297  1  0.38554100  0.21961636  0.51535312  1
  O2-  O298  1  0.37364768  0.72928502  0.02202577  1
  O2-  O299  1  0.36214623  0.72751521  0.51738306  1
  O2-  O300  1  0.88855428  0.24252472  0.03546467  1
  O2-  O301  1  0.89067356  0.22639907  0.50970028  1
  O2-  O302  1  0.87719545  0.73178576  0.02131660  1
  O2-  O303  1  0.88335066  0.73310757  0.52532941  1
  O2-  O304  1  0.26784683  0.38971172  -0.01948702  1
  O2-  O305  1  0.27223639  0.38830840  0.48262433  1
  O2-  O306  1  0.27076969  0.86167586  -0.01810847  1
  O2-  O307  1  0.26136735  0.86518626  0.48426521  1
  O2-  O308  1  0.76145992  0.39022010  -0.03648638  1
  O2-  O309  1  0.77262033  0.38135109  0.48400268  1
  O2-  O310  1  0.77084689  0.86678797  -0.01601135  1
  O2-  O311  1  0.78242699  0.88621923  0.48657275  1
  O2-  O312  1  0.22239818  0.11758703  0.01868394  1
  O2-  O313  1  0.22509913  0.11418227  0.51810413  1
  O2-  O314  1  0.24070583  0.62545229  0.01175100  1
  O2-  O315  1  0.22251706  0.62638624  0.51480889  1
  O2-  O316  1  0.73280590  0.11509255  0.01818098  1
  O2-  O317  1  0.73611951  0.11231272  0.52732790  1
  O2-  O318  1  0.73846251  0.63173859  0.02207028  1
  O2-  O319  1  0.72889335  0.61917974  0.51911246  1
