# generated using pymatgen
data_Sr64Ca21Nb43O192
_symmetry_space_group_name_H-M   'P 1'
_cell_length_a   16.59053390
_cell_length_b   16.58171364
_cell_length_c   16.71470495
_cell_angle_alpha   90.03717815
_cell_angle_beta   90.07508360
_cell_angle_gamma   89.90301439
_symmetry_Int_Tables_number   1
_chemical_formula_structural   Sr64Ca21Nb43O192
_chemical_formula_sum   'Sr64 Ca21 Nb43 O192'
_cell_volume   4598.19518420
_cell_formula_units_Z   1
loop_
 _symmetry_equiv_pos_site_id
 _symmetry_equiv_pos_as_xyz
  1  'x, y, z'
loop_
 _atom_type_symbol
 _atom_type_oxidation_number
  Sr2+  2.0
  Ca2+  2.0
  Nb5+  5.0
  O2-  -2.0
loop_
 _atom_site_type_symbol
 _atom_site_label
 _atom_site_symmetry_multiplicity
 _atom_site_fract_x
 _atom_site_fract_y
 _atom_site_fract_z
 _atom_site_occupancy
  Sr2+  Sr0  1  0.11428336  0.11392554  0.12026813  1
  Sr2+  Sr1  1  0.11438361  0.11172387  0.62996703  1
  Sr2+  Sr2  1  0.12047566  0.62942912  0.12801467  1
  Sr2+  Sr3  1  0.11897598  0.61343732  0.62873978  1
  Sr2+  Sr4  1  0.61530838  0.11316080  0.12975871  1
  Sr2+  Sr5  1  0.62708875  0.10675605  0.61942328  1
  Sr2+  Sr6  1  0.61995124  0.61514401  0.12265068  1
  Sr2+  Sr7  1  0.61835896  0.61969977  0.62663465  1
  Sr2+  Sr8  1  0.36985969  0.36650245  0.12536266  1
  Sr2+  Sr9  1  0.36573576  0.35962318  0.62394955  1
  Sr2+  Sr10  1  0.36514928  0.85782852  0.11929921  1
  Sr2+  Sr11  1  0.36512550  0.85798014  0.62088930  1
  Sr2+  Sr12  1  0.86733314  0.36215577  0.12461918  1
  Sr2+  Sr13  1  0.87464194  0.36516419  0.61674845  1
  Sr2+  Sr14  1  0.86848352  0.87120058  0.13267448  1
  Sr2+  Sr15  1  0.86833792  0.87805189  0.63434155  1
  Sr2+  Sr16  1  0.13016004  0.38864374  0.37452290  1
  Sr2+  Sr17  1  0.14034584  0.37705786  0.86590320  1
  Sr2+  Sr18  1  0.13196617  0.87692911  0.36784826  1
  Sr2+  Sr19  1  0.13997753  0.88030319  0.87627927  1
  Sr2+  Sr20  1  0.63712836  0.37777752  0.37313459  1
  Sr2+  Sr21  1  0.62447266  0.37913676  0.87834288  1
  Sr2+  Sr22  1  0.62492451  0.88486250  0.38134149  1
  Sr2+  Sr23  1  0.62945532  0.87768208  0.87445385  1
  Sr2+  Sr24  1  0.39252662  0.13130278  0.37616748  1
  Sr2+  Sr25  1  0.37751473  0.12692109  0.87535138  1
  Sr2+  Sr26  1  0.38754301  0.63630444  0.37422631  1
  Sr2+  Sr27  1  0.38914653  0.62554483  0.87483707  1
  Sr2+  Sr28  1  0.87936683  0.13310499  0.37138253  1
  Sr2+  Sr29  1  0.88839642  0.13861261  0.87333043  1
  Sr2+  Sr30  1  0.89015754  0.62845494  0.37862985  1
  Sr2+  Sr31  1  0.88147130  0.64044926  0.87289575  1
  Sr2+  Sr32  1  0.13382793  0.13622751  0.37833071  1
  Sr2+  Sr33  1  0.13260986  0.12435359  0.87460335  1
  Sr2+  Sr34  1  0.12757273  0.63461850  0.37186590  1
  Sr2+  Sr35  1  0.13197992  0.63193848  0.87269753  1
  Sr2+  Sr36  1  0.63118719  0.13411769  0.36738171  1
  Sr2+  Sr37  1  0.62923499  0.13028114  0.87268946  1
  Sr2+  Sr38  1  0.63188063  0.63825369  0.38011059  1
  Sr2+  Sr39  1  0.63466748  0.63658594  0.86985919  1
  Sr2+  Sr40  1  0.37974440  0.37552324  0.37542666  1
  Sr2+  Sr41  1  0.38180016  0.37599464  0.86701258  1
  Sr2+  Sr42  1  0.38166871  0.88300760  0.38827912  1
  Sr2+  Sr43  1  0.38240114  0.87892951  0.87039527  1
  Sr2+  Sr44  1  0.87809218  0.38972100  0.37823804  1
  Sr2+  Sr45  1  0.87886973  0.38642842  0.88129416  1
  Sr2+  Sr46  1  0.88771032  0.88732690  0.37089474  1
  Sr2+  Sr47  1  0.88005884  0.88857289  0.87886935  1
  Sr2+  Sr48  1  0.11248805  0.37183264  0.12825410  1
  Sr2+  Sr49  1  0.11536683  0.36723952  0.62394543  1
  Sr2+  Sr50  1  0.10947426  0.86569556  0.12615675  1
  Sr2+  Sr51  1  0.11778208  0.87260492  0.63435398  1
  Sr2+  Sr52  1  0.61655423  0.37033399  0.12351942  1
  Sr2+  Sr53  1  0.61492475  0.36388695  0.62681356  1
  Sr2+  Sr54  1  0.62235115  0.87003458  0.12401522  1
  Sr2+  Sr55  1  0.61245939  0.86459270  0.62066144  1
  Sr2+  Sr56  1  0.36594943  0.11665397  0.12701516  1
  Sr2+  Sr57  1  0.35626694  0.11757500  0.62192676  1
  Sr2+  Sr58  1  0.36124133  0.61363710  0.12384186  1
  Sr2+  Sr59  1  0.36694082  0.62306660  0.61725915  1
  Sr2+  Sr60  1  0.86865898  0.11674530  0.12493899  1
  Sr2+  Sr61  1  0.87134174  0.12052063  0.61394130  1
  Sr2+  Sr62  1  0.87054646  0.62503386  0.12558311  1
  Sr2+  Sr63  1  0.86398052  0.61598568  0.62722204  1
  Ca2+  Ca64  1  0.49809022  0.00313428  0.50219997  1
  Ca2+  Ca65  1  0.00176834  0.50019588  -0.00065022  1
  Ca2+  Ca66  1  -0.00102565  -0.00057253  -0.00077933  1
  Ca2+  Ca67  1  0.49993234  0.49850834  0.49768943  1
  Ca2+  Ca68  1  0.00028265  -0.00128490  0.50023689  1
  Ca2+  Ca69  1  0.24401890  0.74821559  0.49979717  1
  Ca2+  Ca70  1  0.25016569  0.24924784  0.49835353  1
  Ca2+  Ca71  1  0.75566770  0.74923194  0.49839511  1
  Ca2+  Ca72  1  0.25107747  0.25232135  0.00232918  1
  Ca2+  Ca73  1  0.25131964  0.74813179  -0.00188434  1
  Ca2+  Ca74  1  0.75001288  0.50303755  0.24891731  1
  Ca2+  Ca75  1  0.25094365  -0.00033936  0.24948497  1
  Ca2+  Ca76  1  -0.00158071  0.25156713  0.25042060  1
  Ca2+  Ca77  1  -0.00380536  0.25074062  0.74855922  1
  Ca2+  Ca78  1  0.74734051  0.00201949  0.75202348  1
  Ca2+  Ca79  1  0.49901354  0.75066995  0.75030538  1
  Ca2+  Ca80  1  0.74857968  -0.00195707  0.25205047  1
  Ca2+  Ca81  1  0.50087763  0.75165712  0.24921979  1
  Ca2+  Ca82  1  0.75012189  0.49446109  0.75060786  1
  Ca2+  Ca83  1  0.50127937  0.24583928  0.75204900  1
  Ca2+  Ca84  1  0.00161263  0.75045588  0.75088717  1
  Nb5+  Nb85  1  0.49792475  -0.00769020  0.00231136  1
  Nb5+  Nb86  1  0.49697047  0.49353017  0.00309328  1
  Nb5+  Nb87  1  0.00128928  0.50256424  0.50118663  1
  Nb5+  Nb88  1  0.74975279  0.24987634  0.49355729  1
  Nb5+  Nb89  1  0.74993153  0.25220469  -0.00613584  1
  Nb5+  Nb90  1  0.75270705  0.75811835  -0.00074752  1
  Nb5+  Nb91  1  0.25258154  -0.00784985  0.75051002  1
  Nb5+  Nb92  1  0.25073884  0.49841076  0.24449682  1
  Nb5+  Nb93  1  0.49928358  0.25211870  0.24920055  1
  Nb5+  Nb94  1  0.25451385  0.49498467  0.74256009  1
  Nb5+  Nb95  1  -0.00255824  0.75063257  0.25024803  1
  Nb5+  Nb96  1  0.00542538  0.00677193  0.25296104  1
  Nb5+  Nb97  1  -0.00458015  0.00172132  0.75507054  1
  Nb5+  Nb98  1  -0.00177183  0.50345046  0.24771038  1
  Nb5+  Nb99  1  -0.00048915  0.49810210  0.75533736  1
  Nb5+  Nb100  1  0.49367084  -0.00578456  0.24708956  1
  Nb5+  Nb101  1  0.49747079  0.00258070  0.74554021  1
  Nb5+  Nb102  1  0.50275823  0.49937773  0.25140348  1
  Nb5+  Nb103  1  0.49913442  0.50014695  0.74464368  1
  Nb5+  Nb104  1  0.24482176  0.25026838  0.24953905  1
  Nb5+  Nb105  1  0.24729470  0.24132185  0.74689337  1
  Nb5+  Nb106  1  0.25412390  0.75084102  0.25144889  1
  Nb5+  Nb107  1  0.25011406  0.74019030  0.75029549  1
  Nb5+  Nb108  1  0.74815790  0.25133716  0.24108293  1
  Nb5+  Nb109  1  0.74828138  0.25038234  0.74003281  1
  Nb5+  Nb110  1  0.75011152  0.74872410  0.25375222  1
  Nb5+  Nb111  1  0.75047224  0.75271384  0.74469131  1
  Nb5+  Nb112  1  0.00336736  0.24964149  0.49173344  1
  Nb5+  Nb113  1  0.00627561  0.25535303  0.99698932  1
  Nb5+  Nb114  1  -0.00031120  0.75178641  0.50566678  1
  Nb5+  Nb115  1  0.00020991  0.75361496  0.99609099  1
  Nb5+  Nb116  1  0.50250692  0.24560138  0.50772833  1
  Nb5+  Nb117  1  0.50123917  0.24107850  1.00348238  1
  Nb5+  Nb118  1  0.50098147  0.74976967  0.49890640  1
  Nb5+  Nb119  1  0.50243080  0.74061471  1.00342698  1
  Nb5+  Nb120  1  0.25036614  -0.00368559  0.00465309  1
  Nb5+  Nb121  1  0.24439242  0.00064063  0.49655360  1
  Nb5+  Nb122  1  0.24765781  0.49648805  -0.00613228  1
  Nb5+  Nb123  1  0.25196414  0.50405140  0.48992437  1
  Nb5+  Nb124  1  0.74767537  0.00933128  -0.00082419  1
  Nb5+  Nb125  1  0.75335214  -0.00557290  0.49717354  1
  Nb5+  Nb126  1  0.75074814  0.50860057  -0.00205639  1
  Nb5+  Nb127  1  0.74438845  0.49946150  0.50521961  1
  O2-  O128  1  -0.01366529  0.02272757  0.13416402  1
  O2-  O129  1  -0.01260540  0.02631265  0.63629578  1
  O2-  O130  1  0.00022703  0.52969225  0.13418531  1
  O2-  O131  1  -0.00906612  0.52396587  0.61674768  1
  O2-  O132  1  0.48654214  0.02535424  0.12097219  1
  O2-  O133  1  0.48425533  0.03644760  0.63724501  1
  O2-  O134  1  0.48239371  0.51978066  0.12518103  1
  O2-  O135  1  0.48473581  0.52756136  0.63471552  1
  O2-  O136  1  0.01657774  -0.03015320  0.36578970  1
  O2-  O137  1  0.02114750  -0.02975460  0.86754977  1
  O2-  O138  1  0.01476269  0.48752365  0.37191248  1
  O2-  O139  1  0.02048761  0.46913605  0.86400358  1
  O2-  O140  1  0.50518130  -0.01969408  0.36265517  1
  O2-  O141  1  0.50968294  -0.02416131  0.88596056  1
  O2-  O142  1  0.50812106  0.46659031  0.36217574  1
  O2-  O143  1  0.50213256  0.47706825  0.88572082  1
  O2-  O144  1  0.23943675  0.28661902  0.13715055  1
  O2-  O145  1  0.23703160  0.27473028  0.63272034  1
  O2-  O146  1  0.22958581  0.76610654  0.13528456  1
  O2-  O147  1  0.22740906  0.76837450  0.63734461  1
  O2-  O148  1  0.73421258  0.27025876  0.12659612  1
  O2-  O149  1  0.73801180  0.27113770  0.62477950  1
  O2-  O150  1  0.74344547  0.77355169  0.11870099  1
  O2-  O151  1  0.74177529  0.77837425  0.63248736  1
  O2-  O152  1  0.27916345  0.23320173  0.36208024  1
  O2-  O153  1  0.26406418  0.23652097  0.86530063  1
  O2-  O154  1  0.25641796  0.71563171  0.36381110  1
  O2-  O155  1  0.27877096  0.72981222  0.86633673  1
  O2-  O156  1  0.75674617  0.23319642  0.37778689  1
  O2-  O157  1  0.75723936  0.22699423  0.88263649  1
  O2-  O158  1  0.76608919  0.71613407  0.36272850  1
  O2-  O159  1  0.76042442  0.73003606  0.88289136  1
  O2-  O160  1  0.01891016  0.23482770  0.11510844  1
  O2-  O161  1  0.01241763  0.23762926  0.60909926  1
  O2-  O162  1  0.01185119  0.73389238  0.12578963  1
  O2-  O163  1  0.02962605  0.73580367  0.61452858  1
  O2-  O164  1  0.52627767  0.24285429  0.12425893  1
  O2-  O165  1  0.53161490  0.22954277  0.61692813  1
  O2-  O166  1  0.53521651  0.74217318  0.11649797  1
  O2-  O167  1  0.52513110  0.73465624  0.61663029  1
  O2-  O168  1  0.21893167  0.01148886  0.38457420  1
  O2-  O169  1  0.23736716  0.01303506  0.87448645  1
  O2-  O170  1  0.22915040  0.51467306  0.37625107  1
  O2-  O171  1  0.23541848  0.51161893  0.87777222  1
  O2-  O172  1  0.71936005  0.01417664  0.38481525  1
  O2-  O173  1  0.71417784  0.00527574  0.88705263  1
  O2-  O174  1  0.73019046  0.51255800  0.38721184  1
  O2-  O175  1  0.71466810  0.50200882  0.88646850  1
  O2-  O176  1  -0.03844662  0.26705522  0.38190525  1
  O2-  O177  1  -0.03246619  0.26817256  0.88441060  1
  O2-  O178  1  -0.02311474  0.75951339  0.36658525  1
  O2-  O179  1  -0.02934686  0.76715123  0.88512578  1
  O2-  O180  1  0.48568728  0.26577306  0.36549075  1
  O2-  O181  1  0.48941315  0.26924264  0.89150072  1
  O2-  O182  1  0.47795159  0.76964486  0.38073984  1
  O2-  O183  1  0.48933887  0.76931848  0.89048729  1
  O2-  O184  1  0.28050441  -0.01726813  0.11556349  1
  O2-  O185  1  0.27436748  -0.01347178  0.63538852  1
  O2-  O186  1  0.26584627  0.48311169  0.12984993  1
  O2-  O187  1  0.27443132  0.48812267  0.62963527  1
  O2-  O188  1  0.76457391  -0.01395312  0.11372390  1
  O2-  O189  1  0.77559563  -0.00125933  0.61667921  1
  O2-  O190  1  0.76718887  0.47939805  0.11033994  1
  O2-  O191  1  0.78417757  0.48292256  0.61620607  1
  O2-  O192  1  0.13469682  0.27236783  0.27573813  1
  O2-  O193  1  0.13273797  0.27097354  0.76276266  1
  O2-  O194  1  0.12070459  0.76251133  0.26181337  1
  O2-  O195  1  0.13658660  0.76223981  0.78331003  1
  O2-  O196  1  0.62274261  0.27398717  0.26185209  1
  O2-  O197  1  0.63446619  0.28343544  0.76583619  1
  O2-  O198  1  0.63765450  0.77469588  0.26796799  1
  O2-  O199  1  0.63421712  0.77116061  0.76882357  1
  O2-  O200  1  0.38211750  0.23950611  0.22638879  1
  O2-  O201  1  0.36592547  0.23521301  0.72906424  1
  O2-  O202  1  0.36506436  0.72595229  0.22774954  1
  O2-  O203  1  0.36582666  0.73362867  0.72273973  1
  O2-  O204  1  0.86264042  0.22840129  0.22915510  1
  O2-  O205  1  0.86121866  0.21141650  0.73560962  1
  O2-  O206  1  0.88069872  0.72849411  0.23118517  1
  O2-  O207  1  0.86717384  0.72088639  0.73801874  1
  O2-  O208  1  0.26739246  0.38225849  0.27374526  1
  O2-  O209  1  0.26816821  0.38105060  0.76623674  1
  O2-  O210  1  0.27013694  0.86259406  0.27773128  1
  O2-  O211  1  0.26516203  0.87692233  0.76825203  1
  O2-  O212  1  0.76657027  0.36519377  0.27137966  1
  O2-  O213  1  0.78540974  0.35982571  0.76826360  1
  O2-  O214  1  0.78285444  0.86251464  0.26274631  1
  O2-  O215  1  0.77833340  0.86569603  0.77295157  1
  O2-  O216  1  0.22845834  0.13840762  0.22414237  1
  O2-  O217  1  0.23111920  0.12515730  0.73440393  1
  O2-  O218  1  0.23214436  0.61651070  0.23097751  1
  O2-  O219  1  0.23225085  0.62209715  0.73785052  1
  O2-  O220  1  0.72291684  0.13587351  0.23928912  1
  O2-  O221  1  0.70950955  0.13601613  0.74099415  1
  O2-  O222  1  0.73651706  0.63664263  0.21418664  1
  O2-  O223  1  0.72485489  0.63243914  0.73649537  1
  O2-  O224  1  0.12999439  0.48115986  0.24056830  1
  O2-  O225  1  0.13542933  0.48186102  0.73255199  1
  O2-  O226  1  0.11813477  0.97513295  0.22668288  1
  O2-  O227  1  0.13427739  0.98668861  0.73676458  1
  O2-  O228  1  0.61458565  0.48380190  0.22650810  1
  O2-  O229  1  0.61203935  0.47583799  0.73569146  1
  O2-  O230  1  0.61113838  0.98506688  0.22867137  1
  O2-  O231  1  0.61014786  0.97653646  0.73332174  1
  O2-  O232  1  0.38319756  0.03667668  0.25959391  1
  O2-  O233  1  0.36837177  0.02124409  0.77104381  1
  O2-  O234  1  0.37096343  0.51615945  0.26299739  1
  O2-  O235  1  0.36935780  0.52006938  0.76951359  1
  O2-  O236  1  0.88568644  0.01714858  0.26826688  1
  O2-  O237  1  0.88331941  0.01512565  0.77936400  1
  O2-  O238  1  0.88560443  0.52293333  0.26496367  1
  O2-  O239  1  0.88764263  0.52007175  0.77181968  1
  O2-  O240  1  0.48374957  0.37387223  0.22572980  1
  O2-  O241  1  0.46888609  0.38531683  0.73758398  1
  O2-  O242  1  0.46813751  0.88555774  0.22379378  1
  O2-  O243  1  0.46569695  0.88872165  0.73864205  1
  O2-  O244  1  0.98506212  0.38840391  0.22853626  1
  O2-  O245  1  0.99055944  0.38768186  0.71420289  1
  O2-  O246  1  0.98464521  0.86753783  0.23228292  1
  O2-  O247  1  0.99020079  0.88463432  0.72293573  1
  O2-  O248  1  0.02871349  0.11794106  0.27366468  1
  O2-  O249  1  0.02531482  0.11623768  0.77379732  1
  O2-  O250  1  0.02139539  0.62752692  0.26571408  1
  O2-  O251  1  0.03175783  0.61194284  0.76130903  1
  O2-  O252  1  0.52002920  0.13487843  0.25873398  1
  O2-  O253  1  0.50745712  0.11294288  0.79024877  1
  O2-  O254  1  0.51622645  0.61341383  0.27257141  1
  O2-  O255  1  0.51317870  0.61287357  0.78211513  1
  O2-  O256  1  0.13827858  0.46750025  0.01212088  1
  O2-  O257  1  0.12348378  0.47821963  0.51197091  1
  O2-  O258  1  0.13696817  0.97608468  0.01806983  1
  O2-  O259  1  0.13270713  0.97761682  0.53192371  1
  O2-  O260  1  0.61622334  0.48915992  0.02170306  1
  O2-  O261  1  0.63416158  0.47581969  0.52747142  1
  O2-  O262  1  0.61866578  0.98555977  0.02186719  1
  O2-  O263  1  0.63506822  0.98155400  0.52516396  1
  O2-  O264  1  0.38282277  0.02351980  -0.01393080  1
  O2-  O265  1  0.36236486  0.02731219  0.48563166  1
  O2-  O266  1  0.38051616  0.52685064  -0.00690526  1
  O2-  O267  1  0.36493372  0.52694924  0.47992881  1
  O2-  O268  1  0.86021492  0.02299575  -0.02347922  1
  O2-  O269  1  0.86523012  0.03079231  0.47761065  1
  O2-  O270  1  0.86254453  0.51845354  -0.02863435  1
  O2-  O271  1  0.88262458  0.51217466  0.47993425  1
  O2-  O272  1  0.48656569  0.37904262  0.02342822  1
  O2-  O273  1  0.48247933  0.36289211  0.51651293  1
  O2-  O274  1  0.48423688  0.87856360  0.02381995  1
  O2-  O275  1  0.48118958  0.86904633  0.52131163  1
  O2-  O276  1  0.96951476  0.36765386  0.02191518  1
  O2-  O277  1  0.98583754  0.37992752  0.51041053  1
  O2-  O278  1  0.97223094  0.86553153  0.02520625  1
  O2-  O279  1  0.96814553  0.86243002  0.51585034  1
  O2-  O280  1  0.01667931  0.13636102  -0.02215231  1
  O2-  O281  1  0.01351481  0.13529057  0.47277130  1
  O2-  O282  1  0.01627772  0.63506800  -0.02060924  1
  O2-  O283  1  0.02345178  0.61763770  0.47984138  1
  O2-  O284  1  0.52227444  0.12769694  -0.01154898  1
  O2-  O285  1  0.52377739  0.13617235  0.46868847  1
  O2-  O286  1  0.52134546  0.62611239  -0.01492612  1
  O2-  O287  1  0.52139945  0.63184355  0.47626235  1
  O2-  O288  1  0.11658464  0.28120985  -0.02021156  1
  O2-  O289  1  0.11497042  0.27085073  0.46940184  1
  O2-  O290  1  0.11422589  0.77427927  -0.01428709  1
  O2-  O291  1  0.11021879  0.76481691  0.46613343  1
  O2-  O292  1  0.62732032  0.26806242  -0.00767250  1
  O2-  O293  1  0.62931106  0.27432935  0.48564717  1
  O2-  O294  1  0.63143705  0.76543353  -0.01417322  1
  O2-  O295  1  0.62026627  0.77170034  0.47750341  1
  O2-  O296  1  0.38840443  0.23132773  0.02435836  1
  O2-  O297  1  0.38778929  0.22668178  0.51754680  1
  O2-  O298  1  0.38934644  0.73053873  0.02681289  1
  O2-  O299  1  0.38183332  0.72868431  0.51441245  1
  O2-  O300  1  0.86213580  0.22928422  0.02155803  1
  O2-  O301  1  0.86729504  0.24006092  0.51698836  1
  O2-  O302  1  0.86810084  0.72658708  0.01423042  1
  O2-  O303  1  0.88935531  0.70950798  0.50952550  1
  O2-  O304  1  0.28944418  0.38681254  -0.01362802  1
  O2-  O305  1  0.27042521  0.38687510  0.48906201  1
  O2-  O306  1  0.27803673  0.88319528  -0.02182774  1
  O2-  O307  1  0.27188809  0.88381884  0.49118865  1
  O2-  O308  1  0.76310413  0.36860014  -0.01652316  1
  O2-  O309  1  0.76741018  0.37329864  0.48238585  1
  O2-  O310  1  0.76573234  0.87342839  -0.01672874  1
  O2-  O311  1  0.77733426  0.88349845  0.47974687  1
  O2-  O312  1  0.23419345  0.11551522  0.01605485  1
  O2-  O313  1  0.22451450  0.11699159  0.52554453  1
  O2-  O314  1  0.23396687  0.61178938  0.02078622  1
  O2-  O315  1  0.22726231  0.61261245  0.52706904  1
  O2-  O316  1  0.72529450  0.12492877  0.01750590  1
  O2-  O317  1  0.73105541  0.13556567  0.51501417  1
  O2-  O318  1  0.73096667  0.62261908  0.01564907  1
  O2-  O319  1  0.73238128  0.61413537  0.52492904  1
