# generated using pymatgen
data_Sr64Ca21Nb43O192
_symmetry_space_group_name_H-M   'P 1'
_cell_length_a   16.59334556
_cell_length_b   16.58121110
_cell_length_c   16.74791690
_cell_angle_alpha   89.97582169
_cell_angle_beta   89.99391727
_cell_angle_gamma   89.92527139
_symmetry_Int_Tables_number   1
_chemical_formula_structural   Sr64Ca21Nb43O192
_chemical_formula_sum   'Sr64 Ca21 Nb43 O192'
_cell_volume   4607.98007925
_cell_formula_units_Z   1
loop_
 _symmetry_equiv_pos_site_id
 _symmetry_equiv_pos_as_xyz
  1  'x, y, z'
loop_
 _atom_type_symbol
 _atom_type_oxidation_number
  Sr2+  2.0
  Ca2+  2.0
  Nb5+  5.0
  O2-  -2.0
loop_
 _atom_site_type_symbol
 _atom_site_label
 _atom_site_symmetry_multiplicity
 _atom_site_fract_x
 _atom_site_fract_y
 _atom_site_fract_z
 _atom_site_occupancy
  Sr2+  Sr0  1  0.13020991  0.14490947  0.12901369  1
  Sr2+  Sr1  1  0.13275393  0.13014520  0.61920874  1
  Sr2+  Sr2  1  0.12615407  0.63182725  0.11871015  1
  Sr2+  Sr3  1  0.12641127  0.64448923  0.62611674  1
  Sr2+  Sr4  1  0.62312939  0.12198883  0.13105742  1
  Sr2+  Sr5  1  0.62429803  0.12925730  0.63405623  1
  Sr2+  Sr6  1  0.62648694  0.62918128  0.12319763  1
  Sr2+  Sr7  1  0.62388585  0.62930776  0.61722231  1
  Sr2+  Sr8  1  0.37735439  0.37873158  0.12928228  1
  Sr2+  Sr9  1  0.37793589  0.37019788  0.63463516  1
  Sr2+  Sr10  1  0.37457150  0.87466692  0.12223727  1
  Sr2+  Sr11  1  0.37065372  0.84982235  0.62443756  1
  Sr2+  Sr12  1  0.87816137  0.37745829  0.12335053  1
  Sr2+  Sr13  1  0.87338644  0.38014668  0.63527389  1
  Sr2+  Sr14  1  0.87821328  0.85891966  0.12370888  1
  Sr2+  Sr15  1  0.88168167  0.86920997  0.63082179  1
  Sr2+  Sr16  1  0.12839310  0.38606724  0.37369923  1
  Sr2+  Sr17  1  0.11193602  0.37855894  0.87786108  1
  Sr2+  Sr18  1  0.11248937  0.87763176  0.37620980  1
  Sr2+  Sr19  1  0.15052617  0.87671592  0.87391972  1
  Sr2+  Sr20  1  0.62395039  0.37094238  0.37972141  1
  Sr2+  Sr21  1  0.62124538  0.37034647  0.86655611  1
  Sr2+  Sr22  1  0.59529360  0.87760577  0.37366938  1
  Sr2+  Sr23  1  0.60307615  0.88149077  0.88190860  1
  Sr2+  Sr24  1  0.35485685  0.12009726  0.37243497  1
  Sr2+  Sr25  1  0.36731649  0.11895720  0.87522078  1
  Sr2+  Sr26  1  0.38003213  0.63042681  0.37544881  1
  Sr2+  Sr27  1  0.38054316  0.63556205  0.86770536  1
  Sr2+  Sr28  1  0.87351390  0.12386326  0.37955874  1
  Sr2+  Sr29  1  0.87308540  0.12427951  0.87872986  1
  Sr2+  Sr30  1  0.86603853  0.62999504  0.38821288  1
  Sr2+  Sr31  1  0.86581133  0.62174572  0.87774663  1
  Sr2+  Sr32  1  0.11910031  0.12063309  0.36986022  1
  Sr2+  Sr33  1  0.13182520  0.12788028  0.88149279  1
  Sr2+  Sr34  1  0.12504007  0.63974347  0.37750388  1
  Sr2+  Sr35  1  0.12459714  0.63726307  0.87264760  1
  Sr2+  Sr36  1  0.62034917  0.11909089  0.37673678  1
  Sr2+  Sr37  1  0.62157374  0.11654310  0.87769468  1
  Sr2+  Sr38  1  0.61073064  0.63622982  0.37671698  1
  Sr2+  Sr39  1  0.62755921  0.63849596  0.87713031  1
  Sr2+  Sr40  1  0.37680715  0.39635148  0.37117113  1
  Sr2+  Sr41  1  0.38459339  0.39421101  0.87030420  1
  Sr2+  Sr42  1  0.37285591  0.86915281  0.37715412  1
  Sr2+  Sr43  1  0.37725619  0.86916556  0.87565259  1
  Sr2+  Sr44  1  0.86839971  0.37832244  0.38151894  1
  Sr2+  Sr45  1  0.87354281  0.36763164  0.87968445  1
  Sr2+  Sr46  1  0.86896414  0.88517750  0.37528894  1
  Sr2+  Sr47  1  0.86532182  0.86528667  0.86887900  1
  Sr2+  Sr48  1  0.13928746  0.38103802  0.12382128  1
  Sr2+  Sr49  1  0.12003883  0.38240669  0.62533180  1
  Sr2+  Sr50  1  0.12439237  0.87639745  0.12128853  1
  Sr2+  Sr51  1  0.12619352  0.87713804  0.62222692  1
  Sr2+  Sr52  1  0.62122821  0.36207718  0.12541750  1
  Sr2+  Sr53  1  0.60337154  0.36423756  0.62559461  1
  Sr2+  Sr54  1  0.62537035  0.87348779  0.13405416  1
  Sr2+  Sr55  1  0.62376422  0.88173786  0.64238726  1
  Sr2+  Sr56  1  0.35759300  0.13045498  0.12820799  1
  Sr2+  Sr57  1  0.37388108  0.13645361  0.62591626  1
  Sr2+  Sr58  1  0.37358502  0.61380293  0.13090232  1
  Sr2+  Sr59  1  0.37048236  0.61259474  0.62607176  1
  Sr2+  Sr60  1  0.87442618  0.13339332  0.12657605  1
  Sr2+  Sr61  1  0.88362694  0.12797483  0.62641033  1
  Sr2+  Sr62  1  0.88731766  0.62410676  0.12338723  1
  Sr2+  Sr63  1  0.88983617  0.62104822  0.63402987  1
  Ca2+  Ca64  1  0.50467206  0.50099150  0.00097622  1
  Ca2+  Ca65  1  0.49936172  0.49737353  0.50286144  1
  Ca2+  Ca66  1  0.49861450  0.00274390  0.50503362  1
  Ca2+  Ca67  1  0.00102740  0.00063807  -0.00095244  1
  Ca2+  Ca68  1  0.49912957  0.00564698  0.00481329  1
  Ca2+  Ca69  1  0.74719047  0.75558441  0.49906441  1
  Ca2+  Ca70  1  0.25032415  0.74817674  0.49710551  1
  Ca2+  Ca71  1  0.24801659  0.25110936  0.49691888  1
  Ca2+  Ca72  1  0.25267832  0.74803366  0.00210618  1
  Ca2+  Ca73  1  0.25366627  0.25412693  -0.00053545  1
  Ca2+  Ca74  1  0.24978085  0.00127222  0.74608775  1
  Ca2+  Ca75  1  0.75357240  0.50073516  0.25077644  1
  Ca2+  Ca76  1  0.50312411  0.75048520  0.74749890  1
  Ca2+  Ca77  1  0.00014172  0.75384464  0.75268604  1
  Ca2+  Ca78  1  -0.00146349  0.24716079  0.74729741  1
  Ca2+  Ca79  1  -0.00078424  0.74867572  0.25128074  1
  Ca2+  Ca80  1  0.24947978  0.49544250  0.75140905  1
  Ca2+  Ca81  1  0.74858000  0.49891084  0.74882674  1
  Ca2+  Ca82  1  0.49690434  0.75041420  0.24546874  1
  Ca2+  Ca83  1  0.49701058  0.24788234  0.25228684  1
  Ca2+  Ca84  1  -0.00226594  0.25169648  0.25217734  1
  Nb5+  Nb85  1  0.00222072  0.50334309  0.50352594  1
  Nb5+  Nb86  1  -0.00087316  0.50095691  0.00686868  1
  Nb5+  Nb87  1  -0.00097887  0.00568887  0.50165215  1
  Nb5+  Nb88  1  0.75303799  0.24922960  0.50815274  1
  Nb5+  Nb89  1  0.74725436  0.24638606  0.00250550  1
  Nb5+  Nb90  1  0.74973361  0.74603436  0.00098379  1
  Nb5+  Nb91  1  0.75169541  0.00099723  0.75783572  1
  Nb5+  Nb92  1  0.49708897  0.24369968  0.75472814  1
  Nb5+  Nb93  1  0.24036043  -0.00104231  0.24920777  1
  Nb5+  Nb94  1  0.24494535  0.51221863  0.25157907  1
  Nb5+  Nb95  1  0.74537097  0.00005122  0.25598881  1
  Nb5+  Nb96  1  -0.00918399  -0.00180966  0.24542971  1
  Nb5+  Nb97  1  0.00204469  0.00107392  0.75280829  1
  Nb5+  Nb98  1  -0.00047247  0.50563813  0.26091504  1
  Nb5+  Nb99  1  0.00148944  0.50170158  0.76148147  1
  Nb5+  Nb100  1  0.48839785  0.00452430  0.24979505  1
  Nb5+  Nb101  1  0.49348914  0.00312562  0.74838593  1
  Nb5+  Nb102  1  0.50861777  0.49478023  0.24791518  1
  Nb5+  Nb103  1  0.50764240  0.50512926  0.75026096  1
  Nb5+  Nb104  1  0.24922245  0.25994918  0.25321898  1
  Nb5+  Nb105  1  0.24326164  0.25314423  0.75126574  1
  Nb5+  Nb106  1  0.24993885  0.75762817  0.24760549  1
  Nb5+  Nb107  1  0.25215419  0.74857445  0.74996269  1
  Nb5+  Nb108  1  0.75327329  0.25249133  0.25737500  1
  Nb5+  Nb109  1  0.75028302  0.24682329  0.75570101  1
  Nb5+  Nb110  1  0.75006976  0.74977696  0.25332986  1
  Nb5+  Nb111  1  0.74409934  0.74734899  0.74441432  1
  Nb5+  Nb112  1  0.00019017  0.25681855  0.49990714  1
  Nb5+  Nb113  1  0.00331730  0.25027334  1.00186290  1
  Nb5+  Nb114  1  -0.00514976  0.75736845  0.49762100  1
  Nb5+  Nb115  1  -0.00060260  0.75705746  0.99235424  1
  Nb5+  Nb116  1  0.49770232  0.24309657  0.49540275  1
  Nb5+  Nb117  1  0.49634243  0.24740587  1.00063120  1
  Nb5+  Nb118  1  0.50095999  0.75022053  0.50183382  1
  Nb5+  Nb119  1  0.49768256  0.74749602  1.00374133  1
  Nb5+  Nb120  1  0.25033731  0.00069250  0.00041016  1
  Nb5+  Nb121  1  0.25159235  0.00169345  0.50245492  1
  Nb5+  Nb122  1  0.25197037  0.50144550  -0.00599013  1
  Nb5+  Nb123  1  0.24947855  0.49876383  0.49907364  1
  Nb5+  Nb124  1  0.75374480  -0.00447093  0.00726404  1
  Nb5+  Nb125  1  0.74946522  0.00052064  0.50819723  1
  Nb5+  Nb126  1  0.74971699  0.49388276  0.00541809  1
  Nb5+  Nb127  1  0.74673092  0.49742925  0.50151844  1
  O2-  O128  1  -0.00379228  -0.03153290  0.13507647  1
  O2-  O129  1  -0.00334460  -0.02705323  0.61490989  1
  O2-  O130  1  -0.01588967  0.48828355  0.12131209  1
  O2-  O131  1  -0.01174248  0.47927121  0.61581414  1
  O2-  O132  1  0.52103032  -0.00885601  0.13700460  1
  O2-  O133  1  0.52977396  0.00639971  0.63682159  1
  O2-  O134  1  0.47134874  0.49831877  0.13412019  1
  O2-  O135  1  0.47376790  0.49379547  0.63649916  1
  O2-  O136  1  -0.00840891  0.01660408  0.37982183  1
  O2-  O137  1  -0.00235791  0.03345625  0.86251161  1
  O2-  O138  1  0.02623773  0.51566574  0.37359746  1
  O2-  O139  1  0.01844236  0.51507326  0.87548118  1
  O2-  O140  1  0.49458181  0.01053995  0.36814084  1
  O2-  O141  1  0.49014400  0.00659416  0.86724255  1
  O2-  O142  1  0.51410699  0.49200759  0.36744929  1
  O2-  O143  1  0.52341337  0.48752940  0.86663180  1
  O2-  O144  1  0.26239787  0.24542909  0.13466740  1
  O2-  O145  1  0.27143397  0.24785310  0.63304505  1
  O2-  O146  1  0.21586110  0.75677674  0.13308485  1
  O2-  O147  1  0.22861143  0.76253825  0.63239646  1
  O2-  O148  1  0.75516670  0.24538551  0.11939354  1
  O2-  O149  1  0.75789281  0.23427928  0.62403690  1
  O2-  O150  1  0.72963772  0.75497848  0.11846681  1
  O2-  O151  1  0.71789660  0.75403246  0.63288671  1
  O2-  O152  1  0.22422930  0.23874520  0.36390997  1
  O2-  O153  1  0.24504880  0.23664408  0.86774150  1
  O2-  O154  1  0.27942159  0.74196303  0.36235149  1
  O2-  O155  1  0.27812334  0.74643042  0.86860297  1
  O2-  O156  1  0.74464567  0.25722435  0.37361979  1
  O2-  O157  1  0.73985849  0.25106683  0.87303350  1
  O2-  O158  1  0.78026398  0.76084129  0.36314200  1
  O2-  O159  1  0.77235568  0.74718776  0.87961088  1
  O2-  O160  1  -0.02779860  0.26165041  0.11514740  1
  O2-  O161  1  -0.03249888  0.26275597  0.61302157  1
  O2-  O162  1  0.01386109  0.76470539  0.11095331  1
  O2-  O163  1  0.01842820  0.76569230  0.61494278  1
  O2-  O164  1  0.50090806  0.25855820  0.11548741  1
  O2-  O165  1  0.49463035  0.24078583  0.63136989  1
  O2-  O166  1  0.53479839  0.75530741  0.11513221  1
  O2-  O167  1  0.53377634  0.76103370  0.61559833  1
  O2-  O168  1  0.25808744  -0.00309044  0.36805923  1
  O2-  O169  1  0.25539423  0.00868935  0.88366087  1
  O2-  O170  1  0.22482852  0.51098369  0.36878495  1
  O2-  O171  1  0.22837019  0.47916298  0.88532348  1
  O2-  O172  1  0.76584541  0.00240885  0.37050622  1
  O2-  O173  1  0.76934266  -0.00250145  0.87291908  1
  O2-  O174  1  0.74455240  0.46896509  0.38596137  1
  O2-  O175  1  0.73277255  0.50449409  0.88937638  1
  O2-  O176  1  0.00839935  0.22320912  0.38778299  1
  O2-  O177  1  0.00394245  0.23800656  0.88363819  1
  O2-  O178  1  -0.01790018  0.72097557  0.38530607  1
  O2-  O179  1  -0.02511133  0.72115458  0.88310154  1
  O2-  O180  1  0.52311003  0.25141240  0.38487153  1
  O2-  O181  1  0.51794479  0.24782264  0.87243124  1
  O2-  O182  1  0.47661646  0.74273628  0.38062153  1
  O2-  O183  1  0.48417443  0.74684788  0.88275582  1
  O2-  O184  1  0.24424401  -0.00884433  0.13144639  1
  O2-  O185  1  0.22631500  0.00151329  0.61335016  1
  O2-  O186  1  0.25800957  0.50672913  0.13105267  1
  O2-  O187  1  0.26332435  0.48100478  0.61248861  1
  O2-  O188  1  0.73942623  0.00730261  0.12278862  1
  O2-  O189  1  0.73665139  0.01271606  0.62273245  1
  O2-  O190  1  0.78684985  0.51050619  0.11646595  1
  O2-  O191  1  0.78484742  0.50719514  0.61148960  1
  O2-  O192  1  0.13160005  0.26779085  0.22825742  1
  O2-  O193  1  0.13301854  0.28523530  0.74210145  1
  O2-  O194  1  0.13484020  0.76630386  0.27855682  1
  O2-  O195  1  0.13428292  0.76588460  0.77598286  1
  O2-  O196  1  0.63740835  0.26761616  0.24140340  1
  O2-  O197  1  0.62855188  0.26257052  0.73884507  1
  O2-  O198  1  0.63771001  0.78562342  0.26049086  1
  O2-  O199  1  0.63686735  0.78130168  0.77968186  1
  O2-  O200  1  0.36222007  0.22223695  0.26356093  1
  O2-  O201  1  0.38453872  0.21752648  0.76091311  1
  O2-  O202  1  0.36351292  0.73606943  0.21408125  1
  O2-  O203  1  0.37033348  0.72363936  0.72480538  1
  O2-  O204  1  0.86451952  0.21259289  0.25478998  1
  O2-  O205  1  0.86307345  0.21850414  0.75833574  1
  O2-  O206  1  0.86338679  0.73945678  0.21719740  1
  O2-  O207  1  0.86187071  0.74192983  0.72987851  1
  O2-  O208  1  0.26824393  0.37630827  0.25679762  1
  O2-  O209  1  0.29038071  0.36163600  0.75672237  1
  O2-  O210  1  0.27279173  0.87603939  0.24932289  1
  O2-  O211  1  0.27804540  0.86817607  0.75508250  1
  O2-  O212  1  0.78359358  0.36284397  0.24241730  1
  O2-  O213  1  0.77194497  0.36118341  0.74985318  1
  O2-  O214  1  0.77618054  0.88644031  0.23729310  1
  O2-  O215  1  0.76766833  0.88442900  0.73829085  1
  O2-  O216  1  0.22842576  0.11588561  0.24731648  1
  O2-  O217  1  0.21899081  0.13426096  0.74517845  1
  O2-  O218  1  0.22877883  0.62663677  0.24430249  1
  O2-  O219  1  0.22895653  0.62969394  0.74658798  1
  O2-  O220  1  0.72852831  0.12005032  0.24879002  1
  O2-  O221  1  0.72550854  0.12156194  0.75707023  1
  O2-  O222  1  0.72136326  0.63756869  0.25723805  1
  O2-  O223  1  0.72490395  0.63468161  0.75178356  1
  O2-  O224  1  0.12787245  0.47618918  0.23907017  1
  O2-  O225  1  0.11434010  0.47211731  0.74079158  1
  O2-  O226  1  0.12698065  0.97476265  0.25644454  1
  O2-  O227  1  0.11263752  0.96820078  0.75283325  1
  O2-  O228  1  0.61896934  0.46975721  0.23089494  1
  O2-  O229  1  0.61768991  0.46608512  0.72904009  1
  O2-  O230  1  0.63305825  0.97851795  0.26278097  1
  O2-  O231  1  0.63181205  0.98291991  0.76735308  1
  O2-  O232  1  0.37310800  0.02393634  0.23974701  1
  O2-  O233  1  0.38396796  0.03419953  0.73457786  1
  O2-  O234  1  0.36287114  0.51915908  0.26947981  1
  O2-  O235  1  0.38783072  0.51732523  0.77470588  1
  O2-  O236  1  0.87647325  0.02352182  0.24375303  1
  O2-  O237  1  0.86768991  0.02581964  0.73908693  1
  O2-  O238  1  0.88782910  0.53455459  0.27092438  1
  O2-  O239  1  0.88346383  0.52591814  0.76019786  1
  O2-  O240  1  0.46799183  0.38177318  0.25230782  1
  O2-  O241  1  0.48398539  0.36240323  0.75091113  1
  O2-  O242  1  0.47828882  0.88553789  0.25990360  1
  O2-  O243  1  0.47945461  0.88703196  0.74671369  1
  O2-  O244  1  0.97829148  0.38895167  0.26333826  1
  O2-  O245  1  0.97239742  0.38447759  0.76393003  1
  O2-  O246  1  0.98583132  0.88475099  0.28074706  1
  O2-  O247  1  0.96307593  0.88931518  0.75892383  1
  O2-  O248  1  0.02740306  0.10945048  0.23679682  1
  O2-  O249  1  0.01447897  0.11128218  0.71076609  1
  O2-  O250  1  0.02708896  0.61486796  0.22617363  1
  O2-  O251  1  0.01875405  0.61474674  0.72658862  1
  O2-  O252  1  0.52908833  0.11593638  0.24657549  1
  O2-  O253  1  0.52977608  0.12618549  0.75455986  1
  O2-  O254  1  0.51883254  0.61404517  0.24885923  1
  O2-  O255  1  0.53572471  0.61676068  0.74680407  1
  O2-  O256  1  0.11634657  0.48003742  0.01171364  1
  O2-  O257  1  0.11927875  0.47312875  0.50440396  1
  O2-  O258  1  0.13407964  0.96571437  -0.00126515  1
  O2-  O259  1  0.11473251  0.97780057  0.49004978  1
  O2-  O260  1  0.63972816  0.48653115  0.03748241  1
  O2-  O261  1  0.63742192  0.47375141  0.52357648  1
  O2-  O262  1  0.64037509  0.99103214  -0.01904165  1
  O2-  O263  1  0.63985256  0.98032362  0.48219573  1
  O2-  O264  1  0.36549610  0.02929109  0.01763533  1
  O2-  O265  1  0.36250342  0.03183373  0.51004118  1
  O2-  O266  1  0.36428956  0.52671323  -0.02048533  1
  O2-  O267  1  0.36238270  0.51828012  0.47671808  1
  O2-  O268  1  0.86440078  0.03466665  0.00536872  1
  O2-  O269  1  0.87561258  0.02435594  0.50272449  1
  O2-  O270  1  0.88054398  0.51243857  -0.01970009  1
  O2-  O271  1  0.88703271  0.50585166  0.47428550  1
  O2-  O272  1  0.47780394  0.36504544  -0.00917764  1
  O2-  O273  1  0.48487683  0.35971634  0.51379682  1
  O2-  O274  1  0.48731277  0.86725153  -0.00448759  1
  O2-  O275  1  0.47472605  0.86830512  0.49488768  1
  O2-  O276  1  0.98174727  0.37948222  -0.01636465  1
  O2-  O277  1  0.99008633  0.37066978  0.47499159  1
  O2-  O278  1  0.97055609  0.86718971  -0.02309988  1
  O2-  O279  1  0.97741299  0.87237131  0.48020668  1
  O2-  O280  1  0.02102363  0.13630208  0.01830250  1
  O2-  O281  1  0.01365907  0.11914147  0.52002156  1
  O2-  O282  1  0.01026101  0.62005089  0.01480362  1
  O2-  O283  1  0.01547054  0.61658337  0.51862227  1
  O2-  O284  1  0.54171801  0.13813327  0.00280491  1
  O2-  O285  1  0.54041323  0.13488687  0.50779411  1
  O2-  O286  1  0.53647610  0.63397800  -0.00260729  1
  O2-  O287  1  0.52382002  0.62927125  0.50454078  1
  O2-  O288  1  0.11516734  0.27825046  0.00992954  1
  O2-  O289  1  0.11218179  0.26169465  0.52837357  1
  O2-  O290  1  0.11366405  0.76427540  -0.02835835  1
  O2-  O291  1  0.11347848  0.76084611  0.47797326  1
  O2-  O292  1  0.63423458  0.28229723  -0.00173129  1
  O2-  O293  1  0.63723461  0.27344917  0.50615902  1
  O2-  O294  1  0.63694618  0.77020363  -0.02279331  1
  O2-  O295  1  0.61690823  0.76269164  0.46485046  1
  O2-  O296  1  0.38724024  0.21431619  -0.00772761  1
  O2-  O297  1  0.38619604  0.21647293  0.48783854  1
  O2-  O298  1  0.38748304  0.72404474  0.02643640  1
  O2-  O299  1  0.38428937  0.72572655  0.52822690  1
  O2-  O300  1  0.86673269  0.24008143  -0.01602425  1
  O2-  O301  1  0.87147036  0.23097910  0.48477831  1
  O2-  O302  1  0.87073723  0.73748857  0.01968034  1
  O2-  O303  1  0.88247146  0.72586746  0.52255462  1
  O2-  O304  1  0.26733551  0.38732314  0.02243225  1
  O2-  O305  1  0.25703471  0.38345711  0.46835891  1
  O2-  O306  1  0.28178386  0.88272658  -0.00098840  1
  O2-  O307  1  0.26849493  0.88481340  0.49431492  1
  O2-  O308  1  0.77211571  0.37753493  0.00276878  1
  O2-  O309  1  0.77937132  0.36599107  0.51185977  1
  O2-  O310  1  0.77426069  0.88027471  0.00510666  1
  O2-  O311  1  0.78230164  0.88966361  0.50917870  1
  O2-  O312  1  0.21825618  0.11662610  0.01004016  1
  O2-  O313  1  0.21696674  0.11421785  0.48496468  1
  O2-  O314  1  0.21714999  0.61436679  -0.00173433  1
  O2-  O315  1  0.21889872  0.61283506  0.50545461  1
  O2-  O316  1  0.73099345  0.13150662  -0.00404255  1
  O2-  O317  1  0.73752134  0.12718941  0.48915144  1
  O2-  O318  1  0.73812083  0.62921999  0.00108961  1
  O2-  O319  1  0.73339122  0.61172008  0.48186264  1
