# generated using pymatgen
data_Sr64Ca21Nb43O192
_symmetry_space_group_name_H-M   'P 1'
_cell_length_a   16.54580798
_cell_length_b   16.53547925
_cell_length_c   16.71215021
_cell_angle_alpha   90.00258454
_cell_angle_beta   90.00156882
_cell_angle_gamma   89.97882842
_symmetry_Int_Tables_number   1
_chemical_formula_structural   Sr64Ca21Nb43O192
_chemical_formula_sum   'Sr64 Ca21 Nb43 O192'
_cell_volume   4572.32473010
_cell_formula_units_Z   1
loop_
 _symmetry_equiv_pos_site_id
 _symmetry_equiv_pos_as_xyz
  1  'x, y, z'
loop_
 _atom_type_symbol
 _atom_type_oxidation_number
  Sr2+  2.0
  Ca2+  2.0
  Nb5+  5.0
  O2-  -2.0
loop_
 _atom_site_type_symbol
 _atom_site_label
 _atom_site_symmetry_multiplicity
 _atom_site_fract_x
 _atom_site_fract_y
 _atom_site_fract_z
 _atom_site_occupancy
  Sr2+  Sr0  1  0.12190998  0.12470456  0.12979702  1
  Sr2+  Sr1  1  0.12657953  0.13432399  0.62028091  1
  Sr2+  Sr2  1  0.13007643  0.63087109  0.11930489  1
  Sr2+  Sr3  1  0.12516449  0.62326034  0.62690910  1
  Sr2+  Sr4  1  0.61722956  0.13587731  0.11998594  1
  Sr2+  Sr5  1  0.62222293  0.12425715  0.63565974  1
  Sr2+  Sr6  1  0.61663083  0.62095366  0.11851900  1
  Sr2+  Sr7  1  0.61291833  0.62191085  0.62167582  1
  Sr2+  Sr8  1  0.37490739  0.40379733  0.13058618  1
  Sr2+  Sr9  1  0.37143922  0.38325460  0.62381949  1
  Sr2+  Sr10  1  0.37531850  0.89565426  0.12121025  1
  Sr2+  Sr11  1  0.38462792  0.86876020  0.62485867  1
  Sr2+  Sr12  1  0.87634090  0.37916045  0.13633176  1
  Sr2+  Sr13  1  0.87287378  0.37351403  0.61739717  1
  Sr2+  Sr14  1  0.87431724  0.86916130  0.11971807  1
  Sr2+  Sr15  1  0.87145736  0.88251144  0.62786910  1
  Sr2+  Sr16  1  0.12127075  0.37516813  0.37744499  1
  Sr2+  Sr17  1  0.12814260  0.37653713  0.87507176  1
  Sr2+  Sr18  1  0.11992549  0.88948154  0.37899283  1
  Sr2+  Sr19  1  0.10047772  0.86845854  0.87227172  1
  Sr2+  Sr20  1  0.62077882  0.37727071  0.37102954  1
  Sr2+  Sr21  1  0.63005129  0.36800942  0.87318471  1
  Sr2+  Sr22  1  0.61941982  0.87361650  0.36732097  1
  Sr2+  Sr23  1  0.62642627  0.87780789  0.87604401  1
  Sr2+  Sr24  1  0.36839123  0.12697309  0.38231235  1
  Sr2+  Sr25  1  0.36600971  0.11896315  0.87735680  1
  Sr2+  Sr26  1  0.38263185  0.63761134  0.37392640  1
  Sr2+  Sr27  1  0.36457884  0.61566289  0.87016723  1
  Sr2+  Sr28  1  0.87506120  0.12723091  0.37553186  1
  Sr2+  Sr29  1  0.86620905  0.12153139  0.87314857  1
  Sr2+  Sr30  1  0.87455013  0.62525871  0.38405099  1
  Sr2+  Sr31  1  0.86816324  0.62953612  0.87807844  1
  Sr2+  Sr32  1  0.12039645  0.12734278  0.37787111  1
  Sr2+  Sr33  1  0.11345129  0.12968954  0.87409776  1
  Sr2+  Sr34  1  0.11850318  0.64710107  0.37561176  1
  Sr2+  Sr35  1  0.11658401  0.62700980  0.87565992  1
  Sr2+  Sr36  1  0.62814224  0.12688738  0.37692828  1
  Sr2+  Sr37  1  0.63404046  0.12024154  0.87697118  1
  Sr2+  Sr38  1  0.63327199  0.63618877  0.37248351  1
  Sr2+  Sr39  1  0.62996333  0.63848139  0.87441497  1
  Sr2+  Sr40  1  0.37444547  0.37197678  0.37603351  1
  Sr2+  Sr41  1  0.37399827  0.37595365  0.86094565  1
  Sr2+  Sr42  1  0.37961373  0.87685083  0.36517559  1
  Sr2+  Sr43  1  0.37623873  0.87328515  0.87201682  1
  Sr2+  Sr44  1  0.87971166  0.39918280  0.37351485  1
  Sr2+  Sr45  1  0.89225013  0.36908305  0.87490436  1
  Sr2+  Sr46  1  0.87571664  0.89401349  0.37378309  1
  Sr2+  Sr47  1  0.87445364  0.85752503  0.87142839  1
  Sr2+  Sr48  1  0.11140636  0.37651541  0.12578697  1
  Sr2+  Sr49  1  0.13251425  0.37347947  0.62921757  1
  Sr2+  Sr50  1  0.13467149  0.87465785  0.12186742  1
  Sr2+  Sr51  1  0.12444062  0.87884605  0.62672854  1
  Sr2+  Sr52  1  0.61914007  0.38521145  0.12423280  1
  Sr2+  Sr53  1  0.62414586  0.36627807  0.63006873  1
  Sr2+  Sr54  1  0.61870820  0.87870650  0.12533279  1
  Sr2+  Sr55  1  0.62244707  0.87686032  0.62914466  1
  Sr2+  Sr56  1  0.37184044  0.12572429  0.12202911  1
  Sr2+  Sr57  1  0.36461818  0.13168284  0.62319835  1
  Sr2+  Sr58  1  0.36045254  0.62904893  0.12541844  1
  Sr2+  Sr59  1  0.37164245  0.61836695  0.62829231  1
  Sr2+  Sr60  1  0.86165097  0.13005989  0.12713058  1
  Sr2+  Sr61  1  0.85775827  0.12450521  0.62868308  1
  Sr2+  Sr62  1  0.85354505  0.61377201  0.12069982  1
  Sr2+  Sr63  1  0.85683975  0.61515505  0.62363025  1
  Ca2+  Ca64  1  0.49708944  0.49949540  0.49743824  1
  Ca2+  Ca65  1  -0.00275916  0.49955019  0.00143917  1
  Ca2+  Ca66  1  -0.00088732  0.00423795  -0.00247328  1
  Ca2+  Ca67  1  0.49739382  0.50318518  -0.00452770  1
  Ca2+  Ca68  1  0.49813420  -0.00001870  0.49694018  1
  Ca2+  Ca69  1  0.75153049  0.25018560  0.49675377  1
  Ca2+  Ca70  1  0.25061760  0.75160415  0.50097209  1
  Ca2+  Ca71  1  0.24999249  0.25155741  0.00468964  1
  Ca2+  Ca72  1  0.75269353  0.75243109  0.49998677  1
  Ca2+  Ca73  1  0.75266240  0.25132116  0.00197415  1
  Ca2+  Ca74  1  -0.00010818  0.74443228  0.74421678  1
  Ca2+  Ca75  1  0.49861680  0.24711814  0.75162055  1
  Ca2+  Ca76  1  0.49936487  0.74691872  0.75458510  1
  Ca2+  Ca77  1  0.74834861  0.50095117  0.25157503  1
  Ca2+  Ca78  1  0.24833365  -0.00105545  0.75005386  1
  Ca2+  Ca79  1  -0.00105927  0.75314607  0.24885780  1
  Ca2+  Ca80  1  -0.00141449  0.24901161  0.74416306  1
  Ca2+  Ca81  1  0.24657101  0.50024201  0.25407689  1
  Ca2+  Ca82  1  0.75026210  0.00214508  0.24810774  1
  Ca2+  Ca83  1  0.25123349  0.00146216  0.25340144  1
  Ca2+  Ca84  1  0.74973307  0.50027768  0.75266968  1
  Nb5+  Nb85  1  0.50321561  0.00330783  -0.00176837  1
  Nb5+  Nb86  1  -0.00108785  0.00786682  0.50333140  1
  Nb5+  Nb87  1  0.00436321  0.50792875  0.50210225  1
  Nb5+  Nb88  1  0.74242300  0.75382249  0.00341993  1
  Nb5+  Nb89  1  0.24874306  0.25064679  0.49848942  1
  Nb5+  Nb90  1  0.24561845  0.75354537  -0.00426172  1
  Nb5+  Nb91  1  0.49944817  0.75498909  0.24519459  1
  Nb5+  Nb92  1  -0.00594309  0.24768593  0.25210895  1
  Nb5+  Nb93  1  0.74821114  -0.00321130  0.75113127  1
  Nb5+  Nb94  1  0.49221620  0.25391650  0.24737772  1
  Nb5+  Nb95  1  0.24630491  0.49904917  0.74993339  1
  Nb5+  Nb96  1  -0.00058420  0.00043991  0.24494592  1
  Nb5+  Nb97  1  -0.00005189  -0.00052130  0.74946924  1
  Nb5+  Nb98  1  0.00818400  0.50750770  0.25066538  1
  Nb5+  Nb99  1  -0.00532678  0.49968412  0.75174824  1
  Nb5+  Nb100  1  0.50400182  0.01018399  0.24922781  1
  Nb5+  Nb101  1  0.49674299  0.00296262  0.74748063  1
  Nb5+  Nb102  1  0.50148218  0.50928430  0.25162770  1
  Nb5+  Nb103  1  0.50435241  0.49540374  0.74999267  1
  Nb5+  Nb104  1  0.24485851  0.24848699  0.25140338  1
  Nb5+  Nb105  1  0.24745767  0.24850204  0.75721006  1
  Nb5+  Nb106  1  0.24951175  0.75567664  0.25432044  1
  Nb5+  Nb107  1  0.25233415  0.74979375  0.74734438  1
  Nb5+  Nb108  1  0.74236387  0.25162924  0.24923439  1
  Nb5+  Nb109  1  0.75398636  0.25536232  0.75393602  1
  Nb5+  Nb110  1  0.75585619  0.74776793  0.24914572  1
  Nb5+  Nb111  1  0.74679599  0.75003893  0.74319787  1
  Nb5+  Nb112  1  -0.00135838  0.25612605  0.49905034  1
  Nb5+  Nb113  1  0.00121658  0.24887298  0.99943027  1
  Nb5+  Nb114  1  -0.00086057  0.75953499  0.49900531  1
  Nb5+  Nb115  1  -0.00633363  0.74905360  1.00417639  1
  Nb5+  Nb116  1  0.50245919  0.24956896  0.49979807  1
  Nb5+  Nb117  1  0.49524430  0.25746000  1.00052771  1
  Nb5+  Nb118  1  0.50108102  0.75004425  0.50069726  1
  Nb5+  Nb119  1  0.49339173  0.75189253  1.00037511  1
  Nb5+  Nb120  1  0.24418829  0.00018206  -0.00698954  1
  Nb5+  Nb121  1  0.25189480  -0.00245214  0.50765743  1
  Nb5+  Nb122  1  0.25030074  0.49701369  0.00153397  1
  Nb5+  Nb123  1  0.24535175  0.50098966  0.49703465  1
  Nb5+  Nb124  1  0.75122736  -0.00160126  0.00432005  1
  Nb5+  Nb125  1  0.74494223  -0.00214319  0.49961919  1
  Nb5+  Nb126  1  0.75120277  0.49278473  -0.00887032  1
  Nb5+  Nb127  1  0.74250058  0.49557780  0.50175432  1
  O2-  O128  1  0.00986481  0.00084990  0.13178321  1
  O2-  O129  1  -0.00119302  -0.01969058  0.61907015  1
  O2-  O130  1  -0.00224035  0.48920385  0.13727223  1
  O2-  O131  1  -0.00323923  0.49634911  0.62005772  1
  O2-  O132  1  0.51520269  0.01272727  0.12182070  1
  O2-  O133  1  0.51682551  0.00832138  0.63334918  1
  O2-  O134  1  0.50810612  0.50804999  0.13264608  1
  O2-  O135  1  0.49560383  0.52101139  0.63262625  1
  O2-  O136  1  -0.00207989  0.00449383  0.38286463  1
  O2-  O137  1  -0.00564095  0.02308763  0.86236809  1
  O2-  O138  1  0.01123205  0.50356874  0.37938807  1
  O2-  O139  1  0.00396302  0.48591905  0.86594020  1
  O2-  O140  1  0.49141392  -0.01671123  0.36073526  1
  O2-  O141  1  0.49438231  -0.01627949  0.88102428  1
  O2-  O142  1  0.48994932  0.47483912  0.36341580  1
  O2-  O143  1  0.47959084  0.48232080  0.86450313  1
  O2-  O144  1  0.24585400  0.21740205  0.13951914  1
  O2-  O145  1  0.24293676  0.23614582  0.61935457  1
  O2-  O146  1  0.23988647  0.74135197  0.11979316  1
  O2-  O147  1  0.23987619  0.72448338  0.63577797  1
  O2-  O148  1  0.76567969  0.27733267  0.13530089  1
  O2-  O149  1  0.75519376  0.26815944  0.63380989  1
  O2-  O150  1  0.74463124  0.77999645  0.12066172  1
  O2-  O151  1  0.74266471  0.78171850  0.63391228  1
  O2-  O152  1  0.25408763  0.27275245  0.37969620  1
  O2-  O153  1  0.25416156  0.27398152  0.86890922  1
  O2-  O154  1  0.27815689  0.76042842  0.36598636  1
  O2-  O155  1  0.26915804  0.75934513  0.88031245  1
  O2-  O156  1  0.74786343  0.21477177  0.36295695  1
  O2-  O157  1  0.74359854  0.22256540  0.86864762  1
  O2-  O158  1  0.75926002  0.72305619  0.36304978  1
  O2-  O159  1  0.75777695  0.73762745  0.88403948  1
  O2-  O160  1  0.00554640  0.24995714  0.13487625  1
  O2-  O161  1  0.01758222  0.26283630  0.61086149  1
  O2-  O162  1  0.02498766  0.76846537  0.11600355  1
  O2-  O163  1  0.03297769  0.75756834  0.61228681  1
  O2-  O164  1  0.49386618  0.22397309  0.13132369  1
  O2-  O165  1  0.50530199  0.22497468  0.61234112  1
  O2-  O166  1  0.51179381  0.73475366  0.12642722  1
  O2-  O167  1  0.51409586  0.74868148  0.61668910  1
  O2-  O168  1  0.25322826  -0.02747292  0.39093349  1
  O2-  O169  1  0.28056435  -0.01405590  0.88220838  1
  O2-  O170  1  0.24879042  0.47078150  0.38712301  1
  O2-  O171  1  0.25618143  0.48507895  0.87194462  1
  O2-  O172  1  0.75444180  0.02139868  0.38626935  1
  O2-  O173  1  0.74956122  0.01311546  0.87234135  1
  O2-  O174  1  0.74671978  0.52609644  0.38689193  1
  O2-  O175  1  0.74134846  0.53912999  0.88251818  1
  O2-  O176  1  0.00344972  0.23874694  0.37505294  1
  O2-  O177  1  0.00541249  0.25284141  0.88256361  1
  O2-  O178  1  -0.01892188  0.73435790  0.38253622  1
  O2-  O179  1  -0.00509306  0.74077408  0.88432633  1
  O2-  O180  1  0.50072929  0.26953472  0.36523425  1
  O2-  O181  1  0.50212481  0.27628795  0.88713454  1
  O2-  O182  1  0.48908973  0.76089203  0.36461262  1
  O2-  O183  1  0.49516567  0.77498758  0.88894805  1
  O2-  O184  1  0.24351076  0.01174411  0.11204733  1
  O2-  O185  1  0.23702310  0.03460422  0.61946844  1
  O2-  O186  1  0.23998263  0.51709670  0.11642302  1
  O2-  O187  1  0.24065654  0.51115128  0.62812759  1
  O2-  O188  1  0.75088403  -0.03086332  0.11503446  1
  O2-  O189  1  0.74588433  -0.02211463  0.62999809  1
  O2-  O190  1  0.75966420  0.48107536  0.11264559  1
  O2-  O191  1  0.76750420  0.47953796  0.61847938  1
  O2-  O192  1  0.12861193  0.26840023  0.25555267  1
  O2-  O193  1  0.13283489  0.27564370  0.74709080  1
  O2-  O194  1  0.13717824  0.78230736  0.26623684  1
  O2-  O195  1  0.13775639  0.76545464  0.77056276  1
  O2-  O196  1  0.62420892  0.26713943  0.24480868  1
  O2-  O197  1  0.63424952  0.26891053  0.74817889  1
  O2-  O198  1  0.62107770  0.76543235  0.25587826  1
  O2-  O199  1  0.63377457  0.77170545  0.77108032  1
  O2-  O200  1  0.37979609  0.22414904  0.25743067  1
  O2-  O201  1  0.36387005  0.22817220  0.74279068  1
  O2-  O202  1  0.38272704  0.72564559  0.23937475  1
  O2-  O203  1  0.36659753  0.71343583  0.75140147  1
  O2-  O204  1  0.88008596  0.22638523  0.25199262  1
  O2-  O205  1  0.86676370  0.21570635  0.75122656  1
  O2-  O206  1  0.86663068  0.72730360  0.22379012  1
  O2-  O207  1  0.86347732  0.72999961  0.75196193  1
  O2-  O208  1  0.28070609  0.35965514  0.23868201  1
  O2-  O209  1  0.26914294  0.37708922  0.73585646  1
  O2-  O210  1  0.28154288  0.86726844  0.23098457  1
  O2-  O211  1  0.27986452  0.86192920  0.73536584  1
  O2-  O212  1  0.76726863  0.36384964  0.27925163  1
  O2-  O213  1  0.77766083  0.36585566  0.77613522  1
  O2-  O214  1  0.76501241  0.86432556  0.27102330  1
  O2-  O215  1  0.76929881  0.87730874  0.76789324  1
  O2-  O216  1  0.24264934  0.13471571  0.28807417  1
  O2-  O217  1  0.22492767  0.13489132  0.77262992  1
  O2-  O218  1  0.23159329  0.63757836  0.25580271  1
  O2-  O219  1  0.22789659  0.61640564  0.76929116  1
  O2-  O220  1  0.73415036  0.13494257  0.21506096  1
  O2-  O221  1  0.73056254  0.11499426  0.73464860  1
  O2-  O222  1  0.72454483  0.63489687  0.22002973  1
  O2-  O223  1  0.72431308  0.63657915  0.72525023  1
  O2-  O224  1  0.11648941  0.46076073  0.25356414  1
  O2-  O225  1  0.12779796  0.47059059  0.74924550  1
  O2-  O226  1  0.11641624  0.98329566  0.26008139  1
  O2-  O227  1  0.11373354  0.96855367  0.75236984  1
  O2-  O228  1  0.61589467  0.47342288  0.25312789  1
  O2-  O229  1  0.61681255  0.46291572  0.75108731  1
  O2-  O230  1  0.61666196  0.97467230  0.25030488  1
  O2-  O231  1  0.62877430  0.97399001  0.75524151  1
  O2-  O232  1  0.38749955  0.01662238  0.23054843  1
  O2-  O233  1  0.38534509  0.03246490  0.74261087  1
  O2-  O234  1  0.38241786  0.51894884  0.24020046  1
  O2-  O235  1  0.36603500  0.51700426  0.74465992  1
  O2-  O236  1  0.88535003  0.03425341  0.25431630  1
  O2-  O237  1  0.86997880  0.01607616  0.73997705  1
  O2-  O238  1  0.88869543  0.51736597  0.26433566  1
  O2-  O239  1  0.88473705  0.53638666  0.75451658  1
  O2-  O240  1  0.48233751  0.36693585  0.22824535  1
  O2-  O241  1  0.47347176  0.38011614  0.72902744  1
  O2-  O242  1  0.48419758  0.87019257  0.23125092  1
  O2-  O243  1  0.47615114  0.88493311  0.74555363  1
  O2-  O244  1  0.98045345  0.36585033  0.26009006  1
  O2-  O245  1  0.96833215  0.38383749  0.73859103  1
  O2-  O246  1  0.96910348  0.88788251  0.25434955  1
  O2-  O247  1  0.97259138  0.88149349  0.75582940  1
  O2-  O248  1  0.02746095  0.12857784  0.25231700  1
  O2-  O249  1  0.01977778  0.11308710  0.72319534  1
  O2-  O250  1  0.03921817  0.61773957  0.24540885  1
  O2-  O251  1  0.03603552  0.61129980  0.74519363  1
  O2-  O252  1  0.52637602  0.12458589  0.26266701  1
  O2-  O253  1  0.53172039  0.11346953  0.77145011  1
  O2-  O254  1  0.52073598  0.62416611  0.26560080  1
  O2-  O255  1  0.52743029  0.61301931  0.76650902  1
  O2-  O256  1  0.13386495  0.48373271  -0.01030298  1
  O2-  O257  1  0.12123918  0.46989212  0.50765297  1
  O2-  O258  1  0.13474158  0.96846588  -0.01692136  1
  O2-  O259  1  0.12059182  0.98457855  0.50181527  1
  O2-  O260  1  0.63266659  0.48126743  0.00042120  1
  O2-  O261  1  0.63123715  0.46638240  0.50697680  1
  O2-  O262  1  0.62446904  0.97653912  -0.00697563  1
  O2-  O263  1  0.63319317  0.96977356  0.49423157  1
  O2-  O264  1  0.38444084  0.01468244  0.01115167  1
  O2-  O265  1  0.36470979  0.02414155  0.50934885  1
  O2-  O266  1  0.36392617  0.53652659  0.00306634  1
  O2-  O267  1  0.35953605  0.51489103  0.50908497  1
  O2-  O268  1  0.86461740  0.02052431  0.00167825  1
  O2-  O269  1  0.88009845  0.02462189  0.50629843  1
  O2-  O270  1  0.86533218  0.53157290  -0.00569486  1
  O2-  O271  1  0.88600030  0.51931286  0.49382369  1
  O2-  O272  1  0.47383118  0.36586888  0.02732145  1
  O2-  O273  1  0.46682029  0.36182710  0.50662511  1
  O2-  O274  1  0.49140622  0.87513894  0.02364393  1
  O2-  O275  1  0.46407386  0.86451839  0.49691054  1
  O2-  O276  1  0.96341520  0.36307242  0.01298032  1
  O2-  O277  1  0.98268543  0.37212095  0.48753930  1
  O2-  O278  1  0.97892766  0.86843400  -0.01226811  1
  O2-  O279  1  0.97939979  0.87537767  0.49038035  1
  O2-  O280  1  0.04194084  0.13581328  0.00758202  1
  O2-  O281  1  0.02232148  0.12286071  0.50648412  1
  O2-  O282  1  0.02654356  0.63518025  0.00822129  1
  O2-  O283  1  0.02932250  0.62029267  0.50353597  1
  O2-  O284  1  0.52471306  0.11812834  -0.01312807  1
  O2-  O285  1  0.50676125  0.13535603  0.46472585  1
  O2-  O286  1  0.52632168  0.64070852  -0.01253248  1
  O2-  O287  1  0.52753388  0.63365116  0.47777941  1
  O2-  O288  1  0.11712935  0.28730926  0.00635035  1
  O2-  O289  1  0.12569501  0.25892119  0.48713414  1
  O2-  O290  1  0.13131246  0.77467695  -0.01166677  1
  O2-  O291  1  0.11750562  0.76883169  0.46917642  1
  O2-  O292  1  0.61387409  0.26452941  0.01844079  1
  O2-  O293  1  0.61564380  0.27333170  0.49167811  1
  O2-  O294  1  0.62764526  0.77385538  -0.00196256  1
  O2-  O295  1  0.61708714  0.77751522  0.48294302  1
  O2-  O296  1  0.38552335  0.21285699  -0.00174917  1
  O2-  O297  1  0.36768498  0.23018277  0.49691996  1
  O2-  O298  1  0.37837763  0.73497850  0.01085537  1
  O2-  O299  1  0.38437625  0.71452405  0.50589312  1
  O2-  O300  1  0.88708597  0.21042711  0.00098249  1
  O2-  O301  1  0.88786370  0.22431477  0.50484351  1
  O2-  O302  1  0.87577959  0.73446463  0.01707760  1
  O2-  O303  1  0.88900650  0.72229421  0.52202888  1
  O2-  O304  1  0.28044134  0.38652805  0.01248324  1
  O2-  O305  1  0.25686829  0.36999686  0.52112377  1
  O2-  O306  1  0.27323608  0.87192069  0.01128662  1
  O2-  O307  1  0.25857169  0.88567323  0.54180188  1
  O2-  O308  1  0.76773187  0.38365167  -0.04004932  1
  O2-  O309  1  0.78080059  0.38390829  0.48100012  1
  O2-  O310  1  0.76745932  0.87416547  -0.02131132  1
  O2-  O311  1  0.78690412  0.88697241  0.49277512  1
  O2-  O312  1  0.23161308  0.11466719  -0.02557880  1
  O2-  O313  1  0.23245320  0.12915042  0.48083962  1
  O2-  O314  1  0.22982412  0.63403092  -0.01384006  1
  O2-  O315  1  0.21837619  0.61231225  0.48504944  1
  O2-  O316  1  0.72481980  0.11174327  0.01631794  1
  O2-  O317  1  0.73135540  0.11291471  0.53048653  1
  O2-  O318  1  0.73164771  0.63773188  0.02182367  1
  O2-  O319  1  0.73325356  0.61503352  0.52751257  1
