# generated using pymatgen
data_Sr64Ca21Nb43O192
_symmetry_space_group_name_H-M   'P 1'
_cell_length_a   16.57088935
_cell_length_b   16.57227094
_cell_length_c   16.78648413
_cell_angle_alpha   89.98360050
_cell_angle_beta   90.02650442
_cell_angle_gamma   90.02469357
_symmetry_Int_Tables_number   1
_chemical_formula_structural   Sr64Ca21Nb43O192
_chemical_formula_sum   'Sr64 Ca21 Nb43 O192'
_cell_volume   4609.85729859
_cell_formula_units_Z   1
loop_
 _symmetry_equiv_pos_site_id
 _symmetry_equiv_pos_as_xyz
  1  'x, y, z'
loop_
 _atom_type_symbol
 _atom_type_oxidation_number
  Sr2+  2.0
  Ca2+  2.0
  Nb5+  5.0
  O2-  -2.0
loop_
 _atom_site_type_symbol
 _atom_site_label
 _atom_site_symmetry_multiplicity
 _atom_site_fract_x
 _atom_site_fract_y
 _atom_site_fract_z
 _atom_site_occupancy
  Sr2+  Sr0  1  0.12459797  0.12719589  0.11682937  1
  Sr2+  Sr1  1  0.12329100  0.11553203  0.62479300  1
  Sr2+  Sr2  1  0.12242531  0.61329154  0.13349472  1
  Sr2+  Sr3  1  0.12246720  0.62162565  0.62590044  1
  Sr2+  Sr4  1  0.62805676  0.12261763  0.12097466  1
  Sr2+  Sr5  1  0.62565970  0.12877741  0.62595031  1
  Sr2+  Sr6  1  0.63328704  0.62720818  0.12746461  1
  Sr2+  Sr7  1  0.63028327  0.62896066  0.62272922  1
  Sr2+  Sr8  1  0.36801994  0.38355521  0.10595522  1
  Sr2+  Sr9  1  0.36335763  0.37936939  0.62833511  1
  Sr2+  Sr10  1  0.37403980  0.89447655  0.12276680  1
  Sr2+  Sr11  1  0.36573726  0.88493800  0.62546938  1
  Sr2+  Sr12  1  0.87497694  0.39751135  0.12635834  1
  Sr2+  Sr13  1  0.86940631  0.35104171  0.62727575  1
  Sr2+  Sr14  1  0.86902015  0.89901056  0.12789244  1
  Sr2+  Sr15  1  0.87112330  0.87648280  0.61995370  1
  Sr2+  Sr16  1  0.11916464  0.37042675  0.36960210  1
  Sr2+  Sr17  1  0.11685036  0.37982810  0.88015676  1
  Sr2+  Sr18  1  0.13216861  0.86769786  0.36993812  1
  Sr2+  Sr19  1  0.13756616  0.87101949  0.87807489  1
  Sr2+  Sr20  1  0.61964491  0.38189805  0.38254420  1
  Sr2+  Sr21  1  0.60146158  0.37909792  0.87211519  1
  Sr2+  Sr22  1  0.62322639  0.86632034  0.37323499  1
  Sr2+  Sr23  1  0.62653215  0.86770664  0.87470771  1
  Sr2+  Sr24  1  0.38223298  0.12507473  0.35965009  1
  Sr2+  Sr25  1  0.38154378  0.12656810  0.90399182  1
  Sr2+  Sr26  1  0.39193672  0.61898629  0.36851902  1
  Sr2+  Sr27  1  0.38801345  0.62194716  0.87554119  1
  Sr2+  Sr28  1  0.87252392  0.12257761  0.35644853  1
  Sr2+  Sr29  1  0.87227757  0.11820512  0.88273684  1
  Sr2+  Sr30  1  0.86910192  0.61601024  0.36880741  1
  Sr2+  Sr31  1  0.89187845  0.61403768  0.87551474  1
  Sr2+  Sr32  1  0.13041973  0.12539627  0.36838932  1
  Sr2+  Sr33  1  0.13790028  0.11139802  0.88114761  1
  Sr2+  Sr34  1  0.13966509  0.61263557  0.37232358  1
  Sr2+  Sr35  1  0.13154831  0.61267468  0.87307354  1
  Sr2+  Sr36  1  0.61888966  0.12362896  0.36707488  1
  Sr2+  Sr37  1  0.62654868  0.13864707  0.88123034  1
  Sr2+  Sr38  1  0.63166608  0.62487515  0.37980008  1
  Sr2+  Sr39  1  0.63541480  0.63026055  0.87048166  1
  Sr2+  Sr40  1  0.37634604  0.37019324  0.37171771  1
  Sr2+  Sr41  1  0.37713586  0.37512270  0.87337495  1
  Sr2+  Sr42  1  0.38182616  0.86379472  0.37077889  1
  Sr2+  Sr43  1  0.38201706  0.86418729  0.88053620  1
  Sr2+  Sr44  1  0.87488968  0.36797850  0.35562716  1
  Sr2+  Sr45  1  0.86672172  0.37410288  0.88139990  1
  Sr2+  Sr46  1  0.87896931  0.86950883  0.36762539  1
  Sr2+  Sr47  1  0.88027533  0.86801375  0.89715630  1
  Sr2+  Sr48  1  0.11661171  0.38092205  0.11532190  1
  Sr2+  Sr49  1  0.11886822  0.36835649  0.62373669  1
  Sr2+  Sr50  1  0.11837698  0.87854302  0.11488084  1
  Sr2+  Sr51  1  0.11916307  0.88395832  0.62534639  1
  Sr2+  Sr52  1  0.64182042  0.38469997  0.11683406  1
  Sr2+  Sr53  1  0.61692993  0.38444442  0.62660972  1
  Sr2+  Sr54  1  0.63663070  0.87747440  0.11136472  1
  Sr2+  Sr55  1  0.63033066  0.88528642  0.62734812  1
  Sr2+  Sr56  1  0.35174259  0.12641550  0.12781858  1
  Sr2+  Sr57  1  0.36337948  0.12710670  0.62246200  1
  Sr2+  Sr58  1  0.36034522  0.62829558  0.12153778  1
  Sr2+  Sr59  1  0.36504132  0.62417676  0.62481887  1
  Sr2+  Sr60  1  0.84974831  0.12938148  0.12555011  1
  Sr2+  Sr61  1  0.85194508  0.12099174  0.62969138  1
  Sr2+  Sr62  1  0.86494236  0.61886602  0.13881711  1
  Sr2+  Sr63  1  0.88304281  0.62801639  0.62589382  1
  Ca2+  Ca64  1  0.00001868  0.00132695  0.00222067  1
  Ca2+  Ca65  1  0.50430048  0.50522090  -0.00404044  1
  Ca2+  Ca66  1  -0.00126038  0.49596582  0.50038649  1
  Ca2+  Ca67  1  -0.00342582  0.50298051  0.00045191  1
  Ca2+  Ca68  1  0.50329008  -0.00274755  -0.00132104  1
  Ca2+  Ca69  1  0.75066139  0.24990339  0.49585418  1
  Ca2+  Ca70  1  0.24875949  0.25493886  -0.00146295  1
  Ca2+  Ca71  1  0.24932420  0.74827252  -0.00072866  1
  Ca2+  Ca72  1  0.75406775  0.74632611  -0.00248958  1
  Ca2+  Ca73  1  0.75108938  0.25395970  -0.00096081  1
  Ca2+  Ca74  1  0.50030618  0.74615083  0.24806481  1
  Ca2+  Ca75  1  0.74009712  0.49730019  0.25309133  1
  Ca2+  Ca76  1  0.75008094  -0.00338164  0.75420486  1
  Ca2+  Ca77  1  0.00041277  0.74954480  0.25033079  1
  Ca2+  Ca78  1  0.24996672  0.50081018  0.75059557  1
  Ca2+  Ca79  1  0.74540227  -0.00290578  0.25487407  1
  Ca2+  Ca80  1  0.25663585  0.00355769  0.75264039  1
  Ca2+  Ca81  1  0.24700791  -0.00085673  0.25373863  1
  Ca2+  Ca82  1  0.75276176  0.49962199  0.74877476  1
  Ca2+  Ca83  1  0.25605844  0.49778977  0.25058507  1
  Ca2+  Ca84  1  0.49844183  0.25752363  0.24673976  1
  Nb5+  Nb85  1  0.49281317  0.00496930  0.50163769  1
  Nb5+  Nb86  1  -0.00928518  0.00255422  0.50203974  1
  Nb5+  Nb87  1  0.49847310  0.50303674  0.50178415  1
  Nb5+  Nb88  1  0.24839678  0.24370793  0.50207219  1
  Nb5+  Nb89  1  0.25263576  0.74511216  0.50173149  1
  Nb5+  Nb90  1  0.75697550  0.74811228  0.49918340  1
  Nb5+  Nb91  1  0.50151059  0.75708952  0.74220788  1
  Nb5+  Nb92  1  0.00796054  0.75143571  0.74979597  1
  Nb5+  Nb93  1  0.00022100  0.23913029  0.74881568  1
  Nb5+  Nb94  1  0.49058261  0.25034650  0.74557006  1
  Nb5+  Nb95  1  -0.00038556  0.24578874  0.23811551  1
  Nb5+  Nb96  1  0.00276301  0.00145292  0.24877564  1
  Nb5+  Nb97  1  -0.00222266  -0.00853053  0.75438750  1
  Nb5+  Nb98  1  0.00238528  0.50181050  0.25850285  1
  Nb5+  Nb99  1  -0.00274045  0.48755137  0.74652776  1
  Nb5+  Nb100  1  0.50326836  -0.00157738  0.24430056  1
  Nb5+  Nb101  1  0.49999451  0.00616974  0.74974617  1
  Nb5+  Nb102  1  0.50016336  0.49901053  0.23771648  1
  Nb5+  Nb103  1  0.50065394  0.50890343  0.74593868  1
  Nb5+  Nb104  1  0.24743146  0.25447103  0.24712237  1
  Nb5+  Nb105  1  0.24439511  0.25038325  0.75322844  1
  Nb5+  Nb106  1  0.25192589  0.75593745  0.24397396  1
  Nb5+  Nb107  1  0.25409109  0.74945456  0.74929804  1
  Nb5+  Nb108  1  0.74106283  0.25149127  0.25458792  1
  Nb5+  Nb109  1  0.74050684  0.25162558  0.75252381  1
  Nb5+  Nb110  1  0.75013398  0.75125347  0.24613541  1
  Nb5+  Nb111  1  0.76073993  0.74831705  0.74718683  1
  Nb5+  Nb112  1  -0.00153855  0.24530497  0.49840398  1
  Nb5+  Nb113  1  -0.00131791  0.25038597  0.98992514  1
  Nb5+  Nb114  1  0.00919066  0.75152756  0.49980927  1
  Nb5+  Nb115  1  -0.00098264  0.74302472  1.00891071  1
  Nb5+  Nb116  1  0.49749386  0.25583229  0.50272851  1
  Nb5+  Nb117  1  0.50677673  0.25309669  1.00910346  1
  Nb5+  Nb118  1  0.50289374  0.75493833  0.50603397  1
  Nb5+  Nb119  1  0.49895147  0.74391465  1.00492068  1
  Nb5+  Nb120  1  0.25203371  -0.00229483  0.00015248  1
  Nb5+  Nb121  1  0.24318740  -0.00660558  0.49659138  1
  Nb5+  Nb122  1  0.25063338  0.50358581  -0.00088637  1
  Nb5+  Nb123  1  0.24998846  0.48937904  0.49745227  1
  Nb5+  Nb124  1  0.74930997  -0.00057678  -0.00250347  1
  Nb5+  Nb125  1  0.73792106  0.00043359  0.49624365  1
  Nb5+  Nb126  1  0.75015212  0.50563385  -0.00297751  1
  Nb5+  Nb127  1  0.75672098  0.49818189  0.50275704  1
  O2-  O128  1  0.03257583  0.00939438  0.13887348  1
  O2-  O129  1  0.01942108  0.00963945  0.62306963  1
  O2-  O130  1  0.01123367  0.50268871  0.13923591  1
  O2-  O131  1  0.01853922  0.51459114  0.63299653  1
  O2-  O132  1  0.53413081  -0.00391792  0.13477183  1
  O2-  O133  1  0.52996155  0.00725391  0.61628801  1
  O2-  O134  1  0.52610397  0.51235933  0.12895966  1
  O2-  O135  1  0.51890260  0.50805978  0.62298841  1
  O2-  O136  1  -0.02509925  -0.00257439  0.38713436  1
  O2-  O137  1  -0.02018159  -0.01924168  0.86640646  1
  O2-  O138  1  -0.01384654  0.46672454  0.37037888  1
  O2-  O139  1  -0.02129407  0.47943506  0.86435872  1
  O2-  O140  1  0.47639839  -0.00919188  0.38792516  1
  O2-  O141  1  0.47206205  -0.00683178  0.85924585  1
  O2-  O142  1  0.48472414  0.48053849  0.38840114  1
  O2-  O143  1  0.48107198  0.48614790  0.85788233  1
  O2-  O144  1  0.24204877  0.28058867  0.13685294  1
  O2-  O145  1  0.24138172  0.27603778  0.62022427  1
  O2-  O146  1  0.28243924  0.77189401  0.13573339  1
  O2-  O147  1  0.25870835  0.77597200  0.61876270  1
  O2-  O148  1  0.73125531  0.23962896  0.13578989  1
  O2-  O149  1  0.74689254  0.24988480  0.63296532  1
  O2-  O150  1  0.76234459  0.73611980  0.13360436  1
  O2-  O151  1  0.77137782  0.73876121  0.61869805  1
  O2-  O152  1  0.25648703  0.22818604  0.38694216  1
  O2-  O153  1  0.26322622  0.22507249  0.86270721  1
  O2-  O154  1  0.22069506  0.73917463  0.39160069  1
  O2-  O155  1  0.22700378  0.73319108  0.85849969  1
  O2-  O156  1  0.78156717  0.25138804  0.36717729  1
  O2-  O157  1  0.77388152  0.24000017  0.86315717  1
  O2-  O158  1  0.72962765  0.75497296  0.38476595  1
  O2-  O159  1  0.73325121  0.75977062  0.85818621  1
  O2-  O160  1  0.01490875  0.23401838  0.12671917  1
  O2-  O161  1  0.02485512  0.23232570  0.63511876  1
  O2-  O162  1  -0.00814832  0.70617170  0.11633192  1
  O2-  O163  1  -0.01813342  0.74561013  0.62231009  1
  O2-  O164  1  0.53905755  0.25772858  0.11693829  1
  O2-  O165  1  0.51130415  0.23129944  0.62506237  1
  O2-  O166  1  0.49303774  0.71228150  0.11403456  1
  O2-  O167  1  0.47885178  0.72663305  0.62151574  1
  O2-  O168  1  0.26692155  0.03335175  0.39142650  1
  O2-  O169  1  0.26936286  0.02874888  0.88407124  1
  O2-  O170  1  0.27399494  0.52838653  0.39001302  1
  O2-  O171  1  0.26420028  0.53481355  0.88314845  1
  O2-  O172  1  0.78109118  -0.00966590  0.39032101  1
  O2-  O173  1  0.78220465  -0.00981771  0.88370770  1
  O2-  O174  1  0.73831480  0.50610112  0.38772991  1
  O2-  O175  1  0.77324961  0.50983050  0.88145817  1
  O2-  O176  1  -0.01092246  0.25909784  0.38539163  1
  O2-  O177  1  -0.00888715  0.26997113  0.87165300  1
  O2-  O178  1  0.00950404  0.77700942  0.38890939  1
  O2-  O179  1  0.01095806  0.78249300  0.85797944  1
  O2-  O180  1  0.48056433  0.25788617  0.38913869  1
  O2-  O181  1  0.48108820  0.25157588  0.86054739  1
  O2-  O182  1  0.51125141  0.75846822  0.39131473  1
  O2-  O183  1  0.50828421  0.76968097  0.85551561  1
  O2-  O184  1  0.23563301  -0.02559151  0.11859496  1
  O2-  O185  1  0.23568779  -0.01260780  0.61382254  1
  O2-  O186  1  0.23916103  0.47177825  0.11774908  1
  O2-  O187  1  0.23361443  0.48312241  0.61325011  1
  O2-  O188  1  0.72738615  0.00454369  0.11996148  1
  O2-  O189  1  0.73976894  0.00194109  0.61375675  1
  O2-  O190  1  0.73479257  0.50855401  0.12005857  1
  O2-  O191  1  0.72763912  0.50213788  0.61434958  1
  O2-  O192  1  0.11921677  0.26104866  0.26682531  1
  O2-  O193  1  0.12813627  0.27184195  0.76181201  1
  O2-  O194  1  0.13341187  0.78019492  0.23184519  1
  O2-  O195  1  0.12254350  0.77049531  0.72756877  1
  O2-  O196  1  0.63163432  0.26630004  0.28536053  1
  O2-  O197  1  0.62412658  0.26822528  0.76071569  1
  O2-  O198  1  0.63417360  0.78320883  0.23980318  1
  O2-  O199  1  0.61561128  0.76299929  0.72221884  1
  O2-  O200  1  0.36160004  0.23005132  0.24928998  1
  O2-  O201  1  0.37777109  0.23365637  0.72947158  1
  O2-  O202  1  0.36371445  0.73418246  0.28249482  1
  O2-  O203  1  0.37280942  0.72963628  0.75563362  1
  O2-  O204  1  0.88329089  0.22890714  0.23998371  1
  O2-  O205  1  0.88656425  0.22971861  0.73470681  1
  O2-  O206  1  0.86542442  0.72663560  0.27499319  1
  O2-  O207  1  0.87648487  0.73388467  0.75767712  1
  O2-  O208  1  0.25306465  0.36403772  0.28981005  1
  O2-  O209  1  0.27600893  0.36433473  0.75968975  1
  O2-  O210  1  0.26204269  0.86770873  0.28690169  1
  O2-  O211  1  0.27016999  0.86625904  0.76297863  1
  O2-  O212  1  0.77487128  0.36463819  0.23940469  1
  O2-  O213  1  0.77946689  0.36414554  0.75019376  1
  O2-  O214  1  0.78092043  0.86655588  0.25143537  1
  O2-  O215  1  0.75724910  0.86261945  0.72377671  1
  O2-  O216  1  0.22400913  0.13650619  0.23491558  1
  O2-  O217  1  0.23917896  0.13844407  0.71790770  1
  O2-  O218  1  0.22458442  0.63889168  0.24182225  1
  O2-  O219  1  0.23702857  0.63680540  0.71603201  1
  O2-  O220  1  0.73623771  0.13146177  0.26151156  1
  O2-  O221  1  0.72866434  0.13149800  0.74515417  1
  O2-  O222  1  0.72335866  0.63429439  0.26074800  1
  O2-  O223  1  0.72341676  0.63683338  0.74158767  1
  O2-  O224  1  0.11956039  0.48460816  0.26802917  1
  O2-  O225  1  0.11443710  0.49132217  0.77015369  1
  O2-  O226  1  0.11289874  0.99344686  0.29083095  1
  O2-  O227  1  0.11689235  0.99064984  0.76515828  1
  O2-  O228  1  0.60887340  0.45358833  0.25904995  1
  O2-  O229  1  0.61420603  0.47506634  0.75429477  1
  O2-  O230  1  0.61279727  0.98604279  0.28999456  1
  O2-  O231  1  0.61135362  0.96845030  0.75841987  1
  O2-  O232  1  0.38419357  0.02299021  0.23519615  1
  O2-  O233  1  0.38981073  0.00988788  0.71038258  1
  O2-  O234  1  0.38588812  0.53931728  0.23757081  1
  O2-  O235  1  0.38523855  0.50916950  0.72160885  1
  O2-  O236  1  0.88608361  0.02702196  0.23639831  1
  O2-  O237  1  0.88796426  0.02660318  0.73390823  1
  O2-  O238  1  0.88009817  0.51349350  0.24803253  1
  O2-  O239  1  0.88774885  0.53031387  0.73595037  1
  O2-  O240  1  0.45168757  0.38876841  0.23851763  1
  O2-  O241  1  0.48648702  0.36616005  0.73092628  1
  O2-  O242  1  0.47297981  0.88288000  0.24817197  1
  O2-  O243  1  0.47901257  0.86956300  0.72463772  1
  O2-  O244  1  0.98590393  0.36438229  0.23946531  1
  O2-  O245  1  0.98765102  0.37176245  0.72832498  1
  O2-  O246  1  0.97912677  0.88745438  0.24570705  1
  O2-  O247  1  0.98410698  0.87877153  0.72463132  1
  O2-  O248  1  0.01431100  0.12946968  0.27119241  1
  O2-  O249  1  0.02186770  0.12887221  0.77340059  1
  O2-  O250  1  0.01542150  0.61486136  0.28091621  1
  O2-  O251  1  0.01988817  0.63698418  0.76071392  1
  O2-  O252  1  0.51619075  0.11893043  0.26069657  1
  O2-  O253  1  0.52252647  0.12260965  0.75255298  1
  O2-  O254  1  0.52906896  0.60952314  0.27612704  1
  O2-  O255  1  0.51480223  0.62464960  0.75686928  1
  O2-  O256  1  0.13133422  0.48506788  -0.01537654  1
  O2-  O257  1  0.13624462  0.48818990  0.47635116  1
  O2-  O258  1  0.13386620  0.98297554  -0.02086225  1
  O2-  O259  1  0.12736770  0.98500083  0.48461247  1
  O2-  O260  1  0.63600006  0.46627487  -0.01606559  1
  O2-  O261  1  0.61607603  0.47941470  0.49622905  1
  O2-  O262  1  0.63422233  0.97398290  -0.02624056  1
  O2-  O263  1  0.62309704  0.97875013  0.48054120  1
  O2-  O264  1  0.37025951  0.01832259  0.02514970  1
  O2-  O265  1  0.37822368  0.00761328  0.52372062  1
  O2-  O266  1  0.36999131  0.52010522  0.01902725  1
  O2-  O267  1  0.37795105  0.50912721  0.52329209  1
  O2-  O268  1  0.86792591  0.02168946  0.02442516  1
  O2-  O269  1  0.87804985  0.01485940  0.52433205  1
  O2-  O270  1  0.86664280  0.53670996  0.01876376  1
  O2-  O271  1  0.86537176  0.53715873  0.50580382  1
  O2-  O272  1  0.47915547  0.36692850  -0.00828883  1
  O2-  O273  1  0.48109687  0.37168514  0.52188625  1
  O2-  O274  1  0.47426059  0.86196491  0.00845425  1
  O2-  O275  1  0.48571390  0.87129767  0.51753251  1
  O2-  O276  1  0.97501802  0.36461681  0.01668663  1
  O2-  O277  1  0.99300407  0.35774957  0.52908857  1
  O2-  O278  1  0.97623034  0.86286390  0.02732494  1
  O2-  O279  1  0.98768780  0.88264932  0.51676605  1
  O2-  O280  1  0.03201205  0.13556109  -0.01692289  1
  O2-  O281  1  0.02698594  0.12244848  0.49556979  1
  O2-  O282  1  0.02010333  0.63610608  -0.03785539  1
  O2-  O283  1  0.02344499  0.63813247  0.49055243  1
  O2-  O284  1  0.51992740  0.13432744  -0.01266173  1
  O2-  O285  1  0.50908999  0.12226063  0.49171487  1
  O2-  O286  1  0.51879777  0.63570926  -0.04116916  1
  O2-  O287  1  0.50914998  0.62123314  0.49082695  1
  O2-  O288  1  0.11600604  0.28051314  -0.00441697  1
  O2-  O289  1  0.12922047  0.26440339  0.49464368  1
  O2-  O290  1  0.11333583  0.77623706  0.00237580  1
  O2-  O291  1  0.12280310  0.77249011  0.52108566  1
  O2-  O292  1  0.61710274  0.26730881  -0.03486016  1
  O2-  O293  1  0.61292462  0.27041065  0.49542767  1
  O2-  O294  1  0.61462949  0.77333045  0.00130454  1
  O2-  O295  1  0.61834635  0.76020122  0.52415306  1
  O2-  O296  1  0.38739410  0.23215108  0.02080613  1
  O2-  O297  1  0.37156819  0.23954315  0.51754209  1
  O2-  O298  1  0.38305294  0.72962723  -0.02670782  1
  O2-  O299  1  0.37024620  0.73963921  0.48904033  1
  O2-  O300  1  0.88651929  0.21702096  0.00438826  1
  O2-  O301  1  0.88884757  0.22362478  0.52424463  1
  O2-  O302  1  0.88759562  0.73499290  -0.03308883  1
  O2-  O303  1  0.87294311  0.73879740  0.48365056  1
  O2-  O304  1  0.27284908  0.38640855  -0.02658849  1
  O2-  O305  1  0.26843832  0.37501419  0.48288417  1
  O2-  O306  1  0.27031117  0.88262110  -0.02556308  1
  O2-  O307  1  0.26407506  0.87937003  0.48092522  1
  O2-  O308  1  0.78162456  0.38629184  0.00887299  1
  O2-  O309  1  0.78268220  0.38572013  0.50015216  1
  O2-  O310  1  0.77039678  0.88029358  0.01573215  1
  O2-  O311  1  0.75416873  0.86880707  0.50949988  1
  O2-  O312  1  0.23477634  0.11980432  0.02162005  1
  O2-  O313  1  0.23774534  0.12908999  0.52436360  1
  O2-  O314  1  0.22988629  0.61875551  0.03349207  1
  O2-  O315  1  0.23790607  0.63178895  0.52353272  1
  O2-  O316  1  0.72560938  0.11728127  -0.00601392  1
  O2-  O317  1  0.72179094  0.11507289  0.49302965  1
  O2-  O318  1  0.71036608  0.61879117  -0.00248830  1
  O2-  O319  1  0.72629505  0.63216754  0.50055052  1
