# generated using pymatgen
data_Sr64Ca21Nb43O192
_symmetry_space_group_name_H-M   'P 1'
_cell_length_a   16.52022781
_cell_length_b   16.54477188
_cell_length_c   16.68979058
_cell_angle_alpha   89.99498445
_cell_angle_beta   89.97574305
_cell_angle_gamma   90.04902988
_symmetry_Int_Tables_number   1
_chemical_formula_structural   Sr64Ca21Nb43O192
_chemical_formula_sum   'Sr64 Ca21 Nb43 O192'
_cell_volume   4561.70821933
_cell_formula_units_Z   1
loop_
 _symmetry_equiv_pos_site_id
 _symmetry_equiv_pos_as_xyz
  1  'x, y, z'
loop_
 _atom_type_symbol
 _atom_type_oxidation_number
  Sr2+  2.0
  Ca2+  2.0
  Nb5+  5.0
  O2-  -2.0
loop_
 _atom_site_type_symbol
 _atom_site_label
 _atom_site_symmetry_multiplicity
 _atom_site_fract_x
 _atom_site_fract_y
 _atom_site_fract_z
 _atom_site_occupancy
  Sr2+  Sr0  1  0.12510434  0.14398872  0.12686043  1
  Sr2+  Sr1  1  0.11357083  0.13726684  0.63567167  1
  Sr2+  Sr2  1  0.13039649  0.62392831  0.12151059  1
  Sr2+  Sr3  1  0.12706855  0.61841338  0.62649866  1
  Sr2+  Sr4  1  0.62948917  0.13504123  0.11879625  1
  Sr2+  Sr5  1  0.63558805  0.11829676  0.62754424  1
  Sr2+  Sr6  1  0.63312744  0.61989562  0.13190568  1
  Sr2+  Sr7  1  0.62764491  0.60863191  0.62492835  1
  Sr2+  Sr8  1  0.38122491  0.36472035  0.12724075  1
  Sr2+  Sr9  1  0.37456889  0.37099601  0.62542152  1
  Sr2+  Sr10  1  0.37639633  0.88306384  0.12305286  1
  Sr2+  Sr11  1  0.37402275  0.87593294  0.62505536  1
  Sr2+  Sr12  1  0.86746410  0.37074558  0.12102217  1
  Sr2+  Sr13  1  0.87793198  0.37896146  0.62376168  1
  Sr2+  Sr14  1  0.88369860  0.87662439  0.12627182  1
  Sr2+  Sr15  1  0.86615634  0.89130108  0.62406798  1
  Sr2+  Sr16  1  0.12238426  0.37264522  0.37427010  1
  Sr2+  Sr17  1  0.12398889  0.37439048  0.86984841  1
  Sr2+  Sr18  1  0.12757639  0.87304155  0.37273577  1
  Sr2+  Sr19  1  0.11141048  0.86939583  0.87741788  1
  Sr2+  Sr20  1  0.62691799  0.37315275  0.37710590  1
  Sr2+  Sr21  1  0.63020774  0.36753754  0.87707922  1
  Sr2+  Sr22  1  0.64659512  0.87123639  0.37701790  1
  Sr2+  Sr23  1  0.62462626  0.87348972  0.87239137  1
  Sr2+  Sr24  1  0.36942879  0.11947711  0.37669998  1
  Sr2+  Sr25  1  0.38267593  0.11722357  0.87356836  1
  Sr2+  Sr26  1  0.38307605  0.62681995  0.37928905  1
  Sr2+  Sr27  1  0.36581595  0.62463509  0.87163954  1
  Sr2+  Sr28  1  0.86408341  0.12602639  0.38139934  1
  Sr2+  Sr29  1  0.88867476  0.11715877  0.87325910  1
  Sr2+  Sr30  1  0.89640634  0.62667874  0.37210491  1
  Sr2+  Sr31  1  0.87379372  0.61205062  0.87701742  1
  Sr2+  Sr32  1  0.13605083  0.11234082  0.37211818  1
  Sr2+  Sr33  1  0.12343344  0.14295033  0.87279235  1
  Sr2+  Sr34  1  0.13238430  0.62506843  0.37530466  1
  Sr2+  Sr35  1  0.12883568  0.61570081  0.87703073  1
  Sr2+  Sr36  1  0.62722945  0.12694309  0.37618001  1
  Sr2+  Sr37  1  0.62312936  0.11864204  0.87588243  1
  Sr2+  Sr38  1  0.62728570  0.61364190  0.37116600  1
  Sr2+  Sr39  1  0.61582541  0.63333147  0.87382298  1
  Sr2+  Sr40  1  0.38012829  0.34322274  0.37864163  1
  Sr2+  Sr41  1  0.36535531  0.35450770  0.86989204  1
  Sr2+  Sr42  1  0.37093121  0.88335073  0.37340529  1
  Sr2+  Sr43  1  0.37513866  0.87196037  0.87765329  1
  Sr2+  Sr44  1  0.87656750  0.37361242  0.37917039  1
  Sr2+  Sr45  1  0.87468975  0.37027308  0.87775393  1
  Sr2+  Sr46  1  0.87979371  0.87388849  0.37249515  1
  Sr2+  Sr47  1  0.87090165  0.87526428  0.86731462  1
  Sr2+  Sr48  1  0.13132404  0.39072792  0.13042957  1
  Sr2+  Sr49  1  0.12556593  0.37807308  0.62762962  1
  Sr2+  Sr50  1  0.12498802  0.87869142  0.12145365  1
  Sr2+  Sr51  1  0.12167314  0.87450807  0.61749010  1
  Sr2+  Sr52  1  0.63327682  0.37581144  0.11754168  1
  Sr2+  Sr53  1  0.62568730  0.37373425  0.62664991  1
  Sr2+  Sr54  1  0.63293271  0.87552417  0.12561636  1
  Sr2+  Sr55  1  0.63404192  0.87503077  0.62919740  1
  Sr2+  Sr56  1  0.38345922  0.12989862  0.12755977  1
  Sr2+  Sr57  1  0.36264161  0.13392213  0.62424947  1
  Sr2+  Sr58  1  0.37904777  0.62466418  0.12197558  1
  Sr2+  Sr59  1  0.38542275  0.62834175  0.62678859  1
  Sr2+  Sr60  1  0.87045750  0.13367197  0.12507695  1
  Sr2+  Sr61  1  0.87792577  0.12924979  0.62703560  1
  Sr2+  Sr62  1  0.88892904  0.62069234  0.12671859  1
  Sr2+  Sr63  1  0.88213313  0.62241975  0.62504286  1
  Ca2+  Ca64  1  0.49892740  0.50009686  -0.00384282  1
  Ca2+  Ca65  1  0.50097409  -0.00425540  0.49908815  1
  Ca2+  Ca66  1  0.00323294  0.00093626  0.00078870  1
  Ca2+  Ca67  1  0.00071554  0.00240804  0.49879072  1
  Ca2+  Ca68  1  0.00178331  0.49765472  0.00330446  1
  Ca2+  Ca69  1  0.74949630  0.74963857  -0.00006727  1
  Ca2+  Ca70  1  0.24399560  0.24888119  0.49857068  1
  Ca2+  Ca71  1  0.75281459  0.74730583  0.50061298  1
  Ca2+  Ca72  1  0.25135602  0.24919250  0.00180504  1
  Ca2+  Ca73  1  0.74853514  0.25156628  0.50367098  1
  Ca2+  Ca74  1  -0.00015045  0.74769531  0.74716343  1
  Ca2+  Ca75  1  0.75085839  0.49985078  0.75015494  1
  Ca2+  Ca76  1  -0.00323070  0.24872277  0.25069989  1
  Ca2+  Ca77  1  0.24884098  -0.00177765  0.75373385  1
  Ca2+  Ca78  1  -0.00565852  0.25414399  0.75128743  1
  Ca2+  Ca79  1  0.74875710  0.00374705  0.24514885  1
  Ca2+  Ca80  1  0.25059531  0.50022741  0.74804010  1
  Ca2+  Ca81  1  0.75305161  0.49824286  0.25189124  1
  Ca2+  Ca82  1  0.50051509  0.24597976  0.74939871  1
  Ca2+  Ca83  1  0.50669956  0.24752836  0.24948632  1
  Ca2+  Ca84  1  0.25553856  0.50369942  0.25415589  1
  Nb5+  Nb85  1  0.50099905  -0.00325209  0.00163745  1
  Nb5+  Nb86  1  0.50041824  0.49800074  0.50058957  1
  Nb5+  Nb87  1  0.00628557  0.49890617  0.49791340  1
  Nb5+  Nb88  1  0.24962094  0.75263192  -0.00354794  1
  Nb5+  Nb89  1  0.75269907  0.24617130  -0.00369815  1
  Nb5+  Nb90  1  0.25181317  0.74945032  0.49706551  1
  Nb5+  Nb91  1  0.50612825  0.75388374  0.25473905  1
  Nb5+  Nb92  1  0.49930091  0.75030951  0.75312721  1
  Nb5+  Nb93  1  0.24906262  -0.00050025  0.24545934  1
  Nb5+  Nb94  1  0.74886014  0.00111212  0.75239547  1
  Nb5+  Nb95  1  0.00971174  0.75168209  0.24908898  1
  Nb5+  Nb96  1  0.00039623  0.00406716  0.24931794  1
  Nb5+  Nb97  1  0.00362197  -0.00473971  0.75084728  1
  Nb5+  Nb98  1  -0.00056461  0.49604327  0.24940094  1
  Nb5+  Nb99  1  -0.00072286  0.50260981  0.75476764  1
  Nb5+  Nb100  1  0.50295173  -0.00359109  0.24932808  1
  Nb5+  Nb101  1  0.49945451  -0.00194587  0.74441967  1
  Nb5+  Nb102  1  0.49446516  0.49587624  0.24888858  1
  Nb5+  Nb103  1  0.49602704  0.49877193  0.75299559  1
  Nb5+  Nb104  1  0.25412083  0.25299381  0.24927642  1
  Nb5+  Nb105  1  0.24763110  0.25027503  0.74858057  1
  Nb5+  Nb106  1  0.25766527  0.74967345  0.24644266  1
  Nb5+  Nb107  1  0.24652679  0.75682429  0.74497310  1
  Nb5+  Nb108  1  0.74885677  0.25026196  0.25437731  1
  Nb5+  Nb109  1  0.75046051  0.25030975  0.74879255  1
  Nb5+  Nb110  1  0.76125951  0.74769512  0.24884003  1
  Nb5+  Nb111  1  0.75064460  0.74530897  0.75156089  1
  Nb5+  Nb112  1  0.00280969  0.24772750  0.49539620  1
  Nb5+  Nb113  1  0.00567235  0.25508884  1.00478610  1
  Nb5+  Nb114  1  0.00018034  0.74915535  0.50185144  1
  Nb5+  Nb115  1  -0.00281802  0.74490454  0.99682365  1
  Nb5+  Nb116  1  0.50518689  0.24236831  0.50326404  1
  Nb5+  Nb117  1  0.49785439  0.25087975  0.99559083  1
  Nb5+  Nb118  1  0.50194357  0.75409576  0.50448635  1
  Nb5+  Nb119  1  0.50043575  0.75209897  1.00776372  1
  Nb5+  Nb120  1  0.24976665  -0.00014963  -0.00143406  1
  Nb5+  Nb121  1  0.24684857  -0.00073124  0.50753646  1
  Nb5+  Nb122  1  0.25694629  0.49506336  0.00046917  1
  Nb5+  Nb123  1  0.25848004  0.49974449  0.49845177  1
  Nb5+  Nb124  1  0.75348214  0.00038645  0.00127102  1
  Nb5+  Nb125  1  0.74949765  0.00070732  0.49533888  1
  Nb5+  Nb126  1  0.74558727  0.50322335  -0.00176253  1
  Nb5+  Nb127  1  0.75951013  0.50521414  0.49891387  1
  O2-  O128  1  0.01446810  -0.01520190  0.13464978  1
  O2-  O129  1  0.00259672  0.01854817  0.63398937  1
  O2-  O130  1  0.01380036  0.51941114  0.13644398  1
  O2-  O131  1  -0.00023085  0.51276373  0.61636555  1
  O2-  O132  1  0.50840639  -0.02510258  0.12231184  1
  O2-  O133  1  0.51016819  -0.02693394  0.63371177  1
  O2-  O134  1  0.49549243  0.48840908  0.13346875  1
  O2-  O135  1  0.48918878  0.50110107  0.62035936  1
  O2-  O136  1  -0.00326549  -0.02090753  0.36432371  1
  O2-  O137  1  -0.01966139  -0.01648332  0.86850702  1
  O2-  O138  1  -0.00712766  0.49129781  0.37648889  1
  O2-  O139  1  -0.00651901  0.50334744  0.86970059  1
  O2-  O140  1  0.48117192  0.01039476  0.36242365  1
  O2-  O141  1  0.48869980  0.00392416  0.87992153  1
  O2-  O142  1  0.49875075  0.51959822  0.38205299  1
  O2-  O143  1  0.50717860  0.52775108  0.86325461  1
  O2-  O144  1  0.27552421  0.24313633  0.13359106  1
  O2-  O145  1  0.26448371  0.25083735  0.62993909  1
  O2-  O146  1  0.25637379  0.75597264  0.12745591  1
  O2-  O147  1  0.24887288  0.76060109  0.62356454  1
  O2-  O148  1  0.75674755  0.24251402  0.11852860  1
  O2-  O149  1  0.75179429  0.22710989  0.63595343  1
  O2-  O150  1  0.73578372  0.74652448  0.13318985  1
  O2-  O151  1  0.74909765  0.76288648  0.63558744  1
  O2-  O152  1  0.23584391  0.22934316  0.36482404  1
  O2-  O153  1  0.23079185  0.26048812  0.86985732  1
  O2-  O154  1  0.25200195  0.74635081  0.37522330  1
  O2-  O155  1  0.25021018  0.75262517  0.87714555  1
  O2-  O156  1  0.73808204  0.24793136  0.36945749  1
  O2-  O157  1  0.73645613  0.25429873  0.87749315  1
  O2-  O158  1  0.74920922  0.75972336  0.36524322  1
  O2-  O159  1  0.73868095  0.76751827  0.86690113  1
  O2-  O160  1  -0.02575545  0.23884094  0.11768585  1
  O2-  O161  1  -0.00780030  0.24285513  0.61506842  1
  O2-  O162  1  0.00227640  0.74081310  0.13030360  1
  O2-  O163  1  0.01553328  0.72838327  0.61352290  1
  O2-  O164  1  0.49007735  0.25649884  0.11496609  1
  O2-  O165  1  0.48687413  0.27007409  0.61686765  1
  O2-  O166  1  0.49190548  0.76469365  0.12536578  1
  O2-  O167  1  0.49204369  0.76244911  0.62346438  1
  O2-  O168  1  0.25938118  0.00574741  0.36899076  1
  O2-  O169  1  0.27874029  0.00043260  0.88754810  1
  O2-  O170  1  0.24371890  0.52351148  0.38631707  1
  O2-  O171  1  0.24892087  0.51249685  0.88319938  1
  O2-  O172  1  0.75524438  0.00533658  0.37941244  1
  O2-  O173  1  0.75316581  -0.00358869  0.87668395  1
  O2-  O174  1  0.73657073  0.48738896  0.38499536  1
  O2-  O175  1  0.76541845  0.48304377  0.88268590  1
  O2-  O176  1  -0.00001627  0.28068408  0.38064154  1
  O2-  O177  1  0.01549445  0.26338190  0.88548780  1
  O2-  O178  1  0.00147309  0.75989801  0.37296401  1
  O2-  O179  1  0.00833502  0.75400956  0.88288304  1
  O2-  O180  1  0.51439517  0.24935256  0.38377694  1
  O2-  O181  1  0.51706690  0.22581523  0.88284083  1
  O2-  O182  1  0.49722504  0.74123471  0.37280606  1
  O2-  O183  1  0.49869844  0.74053093  0.87341679  1
  O2-  O184  1  0.24297233  -0.01731413  0.12645591  1
  O2-  O185  1  0.24297316  -0.02442451  0.61892763  1
  O2-  O186  1  0.24433002  0.50899382  0.11880499  1
  O2-  O187  1  0.23244138  0.49946031  0.61240305  1
  O2-  O188  1  0.72319711  0.00681160  0.11273399  1
  O2-  O189  1  0.74044935  -0.00023589  0.63120875  1
  O2-  O190  1  0.73797484  0.49225148  0.11729748  1
  O2-  O191  1  0.75464281  0.51507353  0.61684217  1
  O2-  O192  1  0.13626717  0.27057950  0.22957271  1
  O2-  O193  1  0.12964822  0.27417790  0.73641719  1
  O2-  O194  1  0.12454976  0.77687164  0.24746290  1
  O2-  O195  1  0.13557581  0.78690273  0.74805779  1
  O2-  O196  1  0.63532975  0.29139730  0.23989181  1
  O2-  O197  1  0.63336719  0.27647750  0.74836059  1
  O2-  O198  1  0.61790323  0.78031497  0.25218277  1
  O2-  O199  1  0.61673375  0.77638144  0.74814861  1
  O2-  O200  1  0.37067808  0.22040705  0.26614802  1
  O2-  O201  1  0.36565220  0.21945533  0.76618995  1
  O2-  O202  1  0.37222545  0.72986663  0.25147438  1
  O2-  O203  1  0.37960827  0.72923936  0.74744959  1
  O2-  O204  1  0.86275364  0.21007763  0.25688316  1
  O2-  O205  1  0.86287470  0.21604490  0.76645843  1
  O2-  O206  1  0.87730965  0.72582448  0.24709326  1
  O2-  O207  1  0.86387952  0.72074123  0.75831723  1
  O2-  O208  1  0.27910945  0.36648294  0.25672295  1
  O2-  O209  1  0.28013603  0.36775255  0.74701163  1
  O2-  O210  1  0.26662161  0.87148517  0.25826794  1
  O2-  O211  1  0.28977018  0.86577506  0.75404132  1
  O2-  O212  1  0.78810224  0.36354039  0.24887866  1
  O2-  O213  1  0.77775950  0.36291425  0.74146450  1
  O2-  O214  1  0.77646708  0.86811148  0.24271576  1
  O2-  O215  1  0.76885155  0.88071392  0.75087864  1
  O2-  O216  1  0.22905811  0.11475262  0.23852628  1
  O2-  O217  1  0.21832044  0.13099858  0.74631163  1
  O2-  O218  1  0.22000504  0.64080781  0.24737462  1
  O2-  O219  1  0.23078417  0.63996910  0.74961776  1
  O2-  O220  1  0.70769662  0.13521713  0.24761704  1
  O2-  O221  1  0.71989915  0.11786920  0.75962620  1
  O2-  O222  1  0.72207447  0.63537380  0.25451806  1
  O2-  O223  1  0.71390648  0.63584141  0.75654687  1
  O2-  O224  1  0.11731088  0.47887964  0.26267157  1
  O2-  O225  1  0.11468114  0.46757660  0.74938237  1
  O2-  O226  1  0.13197437  0.97241653  0.25713482  1
  O2-  O227  1  0.11473905  0.96479121  0.75665115  1
  O2-  O228  1  0.61104499  0.49106077  0.25980349  1
  O2-  O229  1  0.61309821  0.48314708  0.73224857  1
  O2-  O230  1  0.61264564  0.96450501  0.26082587  1
  O2-  O231  1  0.62599063  0.97407542  0.75992619  1
  O2-  O232  1  0.37066093  0.00987890  0.23349905  1
  O2-  O233  1  0.38639476  0.02442305  0.73725583  1
  O2-  O234  1  0.38605600  0.54432780  0.25371944  1
  O2-  O235  1  0.38396519  0.53600195  0.74423193  1
  O2-  O236  1  0.88647520  0.02537387  0.23922144  1
  O2-  O237  1  0.86544260  0.02316100  0.74529171  1
  O2-  O238  1  0.88615892  0.53527888  0.25244979  1
  O2-  O239  1  0.88433280  0.53831224  0.74450489  1
  O2-  O240  1  0.46684362  0.38571947  0.26360062  1
  O2-  O241  1  0.47103332  0.38647564  0.76296063  1
  O2-  O242  1  0.46767600  0.87037635  0.25389302  1
  O2-  O243  1  0.48067489  0.87307561  0.76481659  1
  O2-  O244  1  0.97283913  0.38568876  0.23666489  1
  O2-  O245  1  0.96486607  0.38758023  0.74438462  1
  O2-  O246  1  0.97638050  0.86668899  0.24587454  1
  O2-  O247  1  0.96415462  0.88173502  0.73683976  1
  O2-  O248  1  0.03692607  0.11360779  0.25467438  1
  O2-  O249  1  0.01823325  0.11466020  0.76854806  1
  O2-  O250  1  0.02263213  0.63343409  0.26558976  1
  O2-  O251  1  0.03826522  0.61670468  0.75077963  1
  O2-  O252  1  0.51826334  0.10904738  0.22759658  1
  O2-  O253  1  0.53128899  0.10982959  0.74214832  1
  O2-  O254  1  0.52162498  0.63848347  0.23636107  1
  O2-  O255  1  0.52266687  0.63540141  0.73444808  1
  O2-  O256  1  0.13719887  0.47086247  -0.00321657  1
  O2-  O257  1  0.12078212  0.47883007  0.49264366  1
  O2-  O258  1  0.13917412  0.96609933  -0.01147690  1
  O2-  O259  1  0.13438394  0.96674074  0.48633150  1
  O2-  O260  1  0.63138216  0.46480654  -0.00846970  1
  O2-  O261  1  0.61510033  0.48073275  0.50862709  1
  O2-  O262  1  0.61879048  0.97679321  -0.01301127  1
  O2-  O263  1  0.63455568  0.96509802  0.49852244  1
  O2-  O264  1  0.37799240  0.01592690  0.02079039  1
  O2-  O265  1  0.36414839  0.02263657  0.50579190  1
  O2-  O266  1  0.36795231  0.53982066  -0.00028602  1
  O2-  O267  1  0.37130270  0.53125560  0.50397670  1
  O2-  O268  1  0.86460240  0.03007181  0.01154537  1
  O2-  O269  1  0.86586892  0.03071947  0.51150202  1
  O2-  O270  1  0.86455160  0.52544847  0.01104029  1
  O2-  O271  1  0.87491266  0.53039917  0.49295896  1
  O2-  O272  1  0.47693342  0.36317032  -0.02069774  1
  O2-  O273  1  0.46932612  0.38712808  0.49171399  1
  O2-  O274  1  0.47303160  0.87526179  -0.00782744  1
  O2-  O275  1  0.46281777  0.86219293  0.49019200  1
  O2-  O276  1  0.96306467  0.36651923  0.00495295  1
  O2-  O277  1  0.97128378  0.38642531  0.50749950  1
  O2-  O278  1  0.98187682  0.86171506  0.01044262  1
  O2-  O279  1  0.98043644  0.86280243  0.51398276  1
  O2-  O280  1  0.02592060  0.13547058  -0.00671100  1
  O2-  O281  1  0.03413438  0.13730317  0.48116470  1
  O2-  O282  1  0.03785114  0.63398247  0.00141746  1
  O2-  O283  1  0.02357621  0.62122254  0.48180151  1
  O2-  O284  1  0.51872516  0.11374044  0.01394479  1
  O2-  O285  1  0.53151846  0.13143097  0.51373036  1
  O2-  O286  1  0.52395768  0.63884892  0.01474636  1
  O2-  O287  1  0.51177707  0.63084086  0.50888603  1
  O2-  O288  1  0.11714687  0.27907076  0.02843908  1
  O2-  O289  1  0.11476141  0.29101700  0.50476608  1
  O2-  O290  1  0.13317732  0.77707676  0.00488090  1
  O2-  O291  1  0.12885143  0.76955068  0.49265786  1
  O2-  O292  1  0.62441531  0.26368216  0.00886853  1
  O2-  O293  1  0.61507122  0.28832981  0.50647663  1
  O2-  O294  1  0.61163005  0.78349099  -0.00099206  1
  O2-  O295  1  0.61335431  0.77756323  0.49949059  1
  O2-  O296  1  0.38492563  0.21752966  -0.01316472  1
  O2-  O297  1  0.38450425  0.22704787  0.48736150  1
  O2-  O298  1  0.37504424  0.73280262  -0.00304034  1
  O2-  O299  1  0.36890994  0.72492265  0.50165524  1
  O2-  O300  1  0.86757017  0.22165529  -0.01455103  1
  O2-  O301  1  0.88348951  0.22804700  0.49088316  1
  O2-  O302  1  0.88503971  0.71569366  0.00001497  1
  O2-  O303  1  0.88821746  0.71834365  0.49685411  1
  O2-  O304  1  0.29106917  0.38425683  0.00463784  1
  O2-  O305  1  0.27794842  0.38660796  0.48863310  1
  O2-  O306  1  0.27826530  0.87151000  0.00312743  1
  O2-  O307  1  0.27332180  0.86938666  0.49240360  1
  O2-  O308  1  0.76860458  0.36432310  0.00261817  1
  O2-  O309  1  0.77343966  0.38683548  0.51190145  1
  O2-  O310  1  0.77733561  0.88616823  0.00550553  1
  O2-  O311  1  0.78256844  0.88392107  0.49630964  1
  O2-  O312  1  0.22316727  0.11224504  0.00816703  1
  O2-  O313  1  0.21922724  0.11200240  0.51414443  1
  O2-  O314  1  0.22890053  0.63638989  0.00360191  1
  O2-  O315  1  0.22707859  0.63282218  0.50800643  1
  O2-  O316  1  0.72299947  0.12485724  -0.00769977  1
  O2-  O317  1  0.71698959  0.11627559  0.49841548  1
  O2-  O318  1  0.71473485  0.61498424  -0.01063711  1
  O2-  O319  1  0.71498342  0.61641042  0.49328965  1
