# generated using pymatgen
data_Sr64Ca21Nb43O192
_symmetry_space_group_name_H-M   'P 1'
_cell_length_a   16.54406270
_cell_length_b   16.52433941
_cell_length_c   16.70412110
_cell_angle_alpha   89.96679817
_cell_angle_beta   90.00197299
_cell_angle_gamma   90.03384034
_symmetry_Int_Tables_number   1
_chemical_formula_structural   Sr64Ca21Nb43O192
_chemical_formula_sum   'Sr64 Ca21 Nb43 O192'
_cell_volume   4566.56617028
_cell_formula_units_Z   1
loop_
 _symmetry_equiv_pos_site_id
 _symmetry_equiv_pos_as_xyz
  1  'x, y, z'
loop_
 _atom_type_symbol
 _atom_type_oxidation_number
  Sr2+  2.0
  Ca2+  2.0
  Nb5+  5.0
  O2-  -2.0
loop_
 _atom_site_type_symbol
 _atom_site_label
 _atom_site_symmetry_multiplicity
 _atom_site_fract_x
 _atom_site_fract_y
 _atom_site_fract_z
 _atom_site_occupancy
  Sr2+  Sr0  1  0.11992792  0.11482941  0.12500392  1
  Sr2+  Sr1  1  0.13027578  0.11972307  0.62062758  1
  Sr2+  Sr2  1  0.11879300  0.62481848  0.13252895  1
  Sr2+  Sr3  1  0.12610167  0.62669886  0.62125919  1
  Sr2+  Sr4  1  0.62114646  0.14323344  0.12154982  1
  Sr2+  Sr5  1  0.62276713  0.12119822  0.62909394  1
  Sr2+  Sr6  1  0.61790806  0.64405641  0.12742465  1
  Sr2+  Sr7  1  0.60928482  0.62533899  0.62346287  1
  Sr2+  Sr8  1  0.38234855  0.39042810  0.12735397  1
  Sr2+  Sr9  1  0.38334139  0.36736883  0.62491960  1
  Sr2+  Sr10  1  0.38213056  0.88992428  0.12965448  1
  Sr2+  Sr11  1  0.38324508  0.86053160  0.62780562  1
  Sr2+  Sr12  1  0.86905327  0.38737121  0.12945335  1
  Sr2+  Sr13  1  0.86274433  0.38403480  0.62545196  1
  Sr2+  Sr14  1  0.87180405  0.87307361  0.11721930  1
  Sr2+  Sr15  1  0.87442195  0.88320096  0.62936480  1
  Sr2+  Sr16  1  0.13048630  0.37383360  0.37325133  1
  Sr2+  Sr17  1  0.12983597  0.38143121  0.86652146  1
  Sr2+  Sr18  1  0.13014256  0.87144780  0.37632299  1
  Sr2+  Sr19  1  0.12150442  0.87659635  0.87349677  1
  Sr2+  Sr20  1  0.64493794  0.37082856  0.37204263  1
  Sr2+  Sr21  1  0.63300957  0.37194907  0.88154260  1
  Sr2+  Sr22  1  0.63200918  0.86630542  0.36544528  1
  Sr2+  Sr23  1  0.63099543  0.87537213  0.86673952  1
  Sr2+  Sr24  1  0.37207182  0.12508437  0.37596535  1
  Sr2+  Sr25  1  0.35644819  0.12891225  0.88015455  1
  Sr2+  Sr26  1  0.36444666  0.61919380  0.38034282  1
  Sr2+  Sr27  1  0.36476882  0.61225709  0.87936780  1
  Sr2+  Sr28  1  0.87982931  0.12469138  0.37708572  1
  Sr2+  Sr29  1  0.87677746  0.12945261  0.87210280  1
  Sr2+  Sr30  1  0.88258955  0.60935955  0.37823607  1
  Sr2+  Sr31  1  0.86745624  0.62976628  0.87092103  1
  Sr2+  Sr32  1  0.12841437  0.09853995  0.37817486  1
  Sr2+  Sr33  1  0.12226822  0.14785934  0.87302435  1
  Sr2+  Sr34  1  0.12695900  0.59467592  0.37707431  1
  Sr2+  Sr35  1  0.12962708  0.65000715  0.87376782  1
  Sr2+  Sr36  1  0.62779403  0.13270433  0.37460496  1
  Sr2+  Sr37  1  0.62395589  0.12479034  0.87306884  1
  Sr2+  Sr38  1  0.62776360  0.62436073  0.37165024  1
  Sr2+  Sr39  1  0.62388533  0.62258975  0.88571502  1
  Sr2+  Sr40  1  0.37333619  0.37388129  0.36885234  1
  Sr2+  Sr41  1  0.37571041  0.38173752  0.88797808  1
  Sr2+  Sr42  1  0.37124125  0.87259923  0.37445299  1
  Sr2+  Sr43  1  0.36974945  0.88017687  0.88202393  1
  Sr2+  Sr44  1  0.87859686  0.38212101  0.37720035  1
  Sr2+  Sr45  1  0.88114075  0.38579869  0.86685258  1
  Sr2+  Sr46  1  0.87928226  0.87740533  0.36023726  1
  Sr2+  Sr47  1  0.87999121  0.87269654  0.87386318  1
  Sr2+  Sr48  1  0.10906976  0.38348459  0.13291639  1
  Sr2+  Sr49  1  0.12795226  0.37219152  0.62800820  1
  Sr2+  Sr50  1  0.10391431  0.87147109  0.12470108  1
  Sr2+  Sr51  1  0.13048901  0.87046520  0.62257243  1
  Sr2+  Sr52  1  0.62336384  0.38039041  0.12695536  1
  Sr2+  Sr53  1  0.62801426  0.37464799  0.62487068  1
  Sr2+  Sr54  1  0.63081062  0.87938235  0.12855493  1
  Sr2+  Sr55  1  0.63364753  0.88136211  0.62806214  1
  Sr2+  Sr56  1  0.37469007  0.12870549  0.12447774  1
  Sr2+  Sr57  1  0.38014732  0.11771531  0.61630337  1
  Sr2+  Sr58  1  0.37072846  0.62968862  0.12017789  1
  Sr2+  Sr59  1  0.36748777  0.62378704  0.62348999  1
  Sr2+  Sr60  1  0.86845567  0.11639607  0.12045768  1
  Sr2+  Sr61  1  0.86946634  0.12525150  0.62428146  1
  Sr2+  Sr62  1  0.86253889  0.63048860  0.12245412  1
  Sr2+  Sr63  1  0.87656514  0.62272732  0.62530988  1
  Ca2+  Ca64  1  0.50167636  -0.00462154  0.49953224  1
  Ca2+  Ca65  1  0.49895548  0.49725520  0.49478171  1
  Ca2+  Ca66  1  0.00075096  0.50216768  -0.00378814  1
  Ca2+  Ca67  1  -0.00170319  -0.00353819  0.50445812  1
  Ca2+  Ca68  1  0.00047716  0.49663455  0.50702124  1
  Ca2+  Ca69  1  0.75574396  0.25265703  -0.00108128  1
  Ca2+  Ca70  1  0.24747983  0.25318821  0.00241952  1
  Ca2+  Ca71  1  0.75136371  0.75361751  0.50053828  1
  Ca2+  Ca72  1  0.74653115  0.74999944  -0.00210277  1
  Ca2+  Ca73  1  0.25139710  0.75311147  0.00219576  1
  Ca2+  Ca74  1  0.25157273  0.49998822  0.74786752  1
  Ca2+  Ca75  1  0.25217889  -0.00261075  0.24718541  1
  Ca2+  Ca76  1  0.00195151  0.24730780  0.25052878  1
  Ca2+  Ca77  1  0.25309633  0.49885313  0.24764964  1
  Ca2+  Ca78  1  0.24809399  -0.00003550  0.74961068  1
  Ca2+  Ca79  1  0.49905218  0.25238601  0.75274456  1
  Ca2+  Ca80  1  0.74092047  0.50164391  0.75037916  1
  Ca2+  Ca81  1  0.50205832  0.74363267  0.75671021  1
  Ca2+  Ca82  1  0.74659144  0.50076876  0.24753994  1
  Ca2+  Ca83  1  0.00023266  0.74876116  0.25556988  1
  Ca2+  Ca84  1  0.74816894  0.00287715  0.24725401  1
  Nb5+  Nb85  1  0.50247669  0.50824147  0.00275720  1
  Nb5+  Nb86  1  -0.00545639  0.00175153  -0.00305791  1
  Nb5+  Nb87  1  0.50020207  0.00753250  -0.00203579  1
  Nb5+  Nb88  1  0.75846688  0.24791185  0.49964600  1
  Nb5+  Nb89  1  0.25253487  0.24334483  0.49866387  1
  Nb5+  Nb90  1  0.24937451  0.74226504  0.49737740  1
  Nb5+  Nb91  1  -0.00245942  0.75559961  0.74867255  1
  Nb5+  Nb92  1  0.49915524  0.25585829  0.25094132  1
  Nb5+  Nb93  1  0.49516892  0.75787064  0.25115378  1
  Nb5+  Nb94  1  0.75091591  -0.00042931  0.75198140  1
  Nb5+  Nb95  1  -0.00400755  0.25566158  0.74497920  1
  Nb5+  Nb96  1  0.00028707  -0.00179458  0.25185549  1
  Nb5+  Nb97  1  0.00004142  0.00587093  0.75164578  1
  Nb5+  Nb98  1  -0.00188590  0.50122785  0.24867596  1
  Nb5+  Nb99  1  0.00202184  0.51208400  0.75319436  1
  Nb5+  Nb100  1  0.50398006  0.00897126  0.25178762  1
  Nb5+  Nb101  1  0.49381532  0.00176038  0.75324310  1
  Nb5+  Nb102  1  0.49972105  0.50973929  0.25140508  1
  Nb5+  Nb103  1  0.49922332  0.49686581  0.74912655  1
  Nb5+  Nb104  1  0.24809161  0.24751132  0.24731933  1
  Nb5+  Nb105  1  0.25453455  0.24836953  0.74541977  1
  Nb5+  Nb106  1  0.24889154  0.74961081  0.24931355  1
  Nb5+  Nb107  1  0.25357412  0.75135909  0.75012503  1
  Nb5+  Nb108  1  0.75703902  0.24720466  0.24615275  1
  Nb5+  Nb109  1  0.75047234  0.24966945  0.75057885  1
  Nb5+  Nb110  1  0.75448920  0.74624889  0.25420338  1
  Nb5+  Nb111  1  0.74527353  0.74752410  0.74302100  1
  Nb5+  Nb112  1  0.00707817  0.25161675  0.49847218  1
  Nb5+  Nb113  1  -0.00289064  0.25395100  1.00130892  1
  Nb5+  Nb114  1  -0.00200378  0.74982853  0.49855869  1
  Nb5+  Nb115  1  0.00095935  0.74656032  1.00009297  1
  Nb5+  Nb116  1  0.50869896  0.25244038  0.50057447  1
  Nb5+  Nb117  1  0.50114307  0.25790143  1.00049213  1
  Nb5+  Nb118  1  0.50429588  0.75231752  0.50079285  1
  Nb5+  Nb119  1  0.49911618  0.76035390  1.00049455  1
  Nb5+  Nb120  1  0.24042672  -0.00237159  0.00005488  1
  Nb5+  Nb121  1  0.25547675  -0.01029979  0.50421186  1
  Nb5+  Nb122  1  0.24189580  0.49664640  0.00237348  1
  Nb5+  Nb123  1  0.25353622  0.48791525  0.50437826  1
  Nb5+  Nb124  1  0.74389352  -0.00141938  -0.00269815  1
  Nb5+  Nb125  1  0.75247422  0.00160390  0.49371830  1
  Nb5+  Nb126  1  0.75174542  0.50287161  -0.00195174  1
  Nb5+  Nb127  1  0.74281601  0.50708691  0.50193365  1
  O2-  O128  1  -0.00692590  0.01625095  0.11647968  1
  O2-  O129  1  -0.01652176  0.01881109  0.63944129  1
  O2-  O130  1  0.01666006  0.51248852  0.13038707  1
  O2-  O131  1  0.00092783  0.53040891  0.63714849  1
  O2-  O132  1  0.50693647  -0.00177814  0.11639533  1
  O2-  O133  1  0.49021425  -0.00033653  0.63733440  1
  O2-  O134  1  0.51850988  0.49540352  0.12275385  1
  O2-  O135  1  0.51010294  0.49387754  0.63319961  1
  O2-  O136  1  0.00507288  -0.02109877  0.36704708  1
  O2-  O137  1  0.00346294  -0.02024034  0.87738859  1
  O2-  O138  1  -0.01527103  0.48967282  0.36975575  1
  O2-  O139  1  0.00350703  0.47089868  0.86514205  1
  O2-  O140  1  0.49686909  0.00723515  0.36464495  1
  O2-  O141  1  0.51856753  -0.00559134  0.88091180  1
  O2-  O142  1  0.47001172  0.50385809  0.36118254  1
  O2-  O143  1  0.48766461  0.50274365  0.88471438  1
  O2-  O144  1  0.24688327  0.21827101  0.13614845  1
  O2-  O145  1  0.23155217  0.23393710  0.61704429  1
  O2-  O146  1  0.25148876  0.72473547  0.13675738  1
  O2-  O147  1  0.25215439  0.73215541  0.61883388  1
  O2-  O148  1  0.75884180  0.27324321  0.13455916  1
  O2-  O149  1  0.75429117  0.26460929  0.61876836  1
  O2-  O150  1  0.77077015  0.76232292  0.13537111  1
  O2-  O151  1  0.76213137  0.78903777  0.63287784  1
  O2-  O152  1  0.25455290  0.27466747  0.38449331  1
  O2-  O153  1  0.26424228  0.26698552  0.86024671  1
  O2-  O154  1  0.25118309  0.77554162  0.38300520  1
  O2-  O155  1  0.24338171  0.77475908  0.86321871  1
  O2-  O156  1  0.74869383  0.22763795  0.37971883  1
  O2-  O157  1  0.74516618  0.22475310  0.86330533  1
  O2-  O158  1  0.71909040  0.74065727  0.36839163  1
  O2-  O159  1  0.74043692  0.72762715  0.86042809  1
  O2-  O160  1  0.02034676  0.23487650  0.11229944  1
  O2-  O161  1  0.00640976  0.21885434  0.63096343  1
  O2-  O162  1  -0.00547836  0.73772631  0.11638154  1
  O2-  O163  1  -0.00220478  0.72448537  0.63528177  1
  O2-  O164  1  0.49394269  0.24673036  0.12936362  1
  O2-  O165  1  0.50397435  0.25963855  0.61553559  1
  O2-  O166  1  0.47590197  0.75144240  0.12933626  1
  O2-  O167  1  0.49075145  0.73870044  0.61665859  1
  O2-  O168  1  0.24502035  -0.01947190  0.38441704  1
  O2-  O169  1  0.24904362  -0.02863582  0.88328597  1
  O2-  O170  1  0.26437218  0.48540551  0.38439929  1
  O2-  O171  1  0.26339236  0.47762356  0.88297046  1
  O2-  O172  1  0.74095652  0.02704261  0.38319473  1
  O2-  O173  1  0.74190509  0.02626516  0.87337842  1
  O2-  O174  1  0.75725895  0.51750656  0.38335600  1
  O2-  O175  1  0.74555024  0.53352293  0.88143967  1
  O2-  O176  1  -0.00817053  0.27662043  0.38741310  1
  O2-  O177  1  -0.01895472  0.25900470  0.86556510  1
  O2-  O178  1  0.00003335  0.78461459  0.38940813  1
  O2-  O179  1  0.00403709  0.76749305  0.87115356  1
  O2-  O180  1  0.50360767  0.24265026  0.37049008  1
  O2-  O181  1  0.52014761  0.25788233  0.88713896  1
  O2-  O182  1  0.51231601  0.75718180  0.36994451  1
  O2-  O183  1  0.53023854  0.75574708  0.89013374  1
  O2-  O184  1  0.25556338  0.02926591  0.11268851  1
  O2-  O185  1  0.25780789  0.02652980  0.61643422  1
  O2-  O186  1  0.23782780  0.52995724  0.11571699  1
  O2-  O187  1  0.23837789  0.52334692  0.61462179  1
  O2-  O188  1  0.76164958  -0.02348821  0.11158151  1
  O2-  O189  1  0.76254543  -0.01232372  0.63328505  1
  O2-  O190  1  0.74409361  0.46867091  0.11311447  1
  O2-  O191  1  0.73894878  0.47427329  0.61684853  1
  O2-  O192  1  0.13710942  0.27776654  0.25315343  1
  O2-  O193  1  0.11460205  0.26784762  0.75645355  1
  O2-  O194  1  0.13629842  0.77850343  0.24935452  1
  O2-  O195  1  0.11729656  0.76902082  0.74495997  1
  O2-  O196  1  0.62049953  0.27115473  0.24711422  1
  O2-  O197  1  0.63638560  0.26074627  0.73563921  1
  O2-  O198  1  0.61441546  0.76910255  0.23254386  1
  O2-  O199  1  0.63339562  0.77738998  0.73876016  1
  O2-  O200  1  0.38340852  0.22292922  0.25494880  1
  O2-  O201  1  0.36507603  0.22101146  0.72883036  1
  O2-  O202  1  0.38142223  0.72298250  0.26506308  1
  O2-  O203  1  0.36645207  0.72935404  0.75322422  1
  O2-  O204  1  0.86769124  0.21452629  0.24935539  1
  O2-  O205  1  0.87450038  0.22523730  0.73979858  1
  O2-  O206  1  0.86554372  0.72416601  0.27696423  1
  O2-  O207  1  0.87576878  0.73683229  0.75566615  1
  O2-  O208  1  0.28591095  0.36005472  0.24049697  1
  O2-  O209  1  0.25599970  0.36296532  0.71667264  1
  O2-  O210  1  0.28863235  0.86174055  0.24335118  1
  O2-  O211  1  0.26086706  0.86560497  0.71714775  1
  O2-  O212  1  0.76802389  0.36226247  0.27767963  1
  O2-  O213  1  0.77424908  0.36231420  0.76145301  1
  O2-  O214  1  0.76023039  0.86681688  0.26846827  1
  O2-  O215  1  0.76449692  0.88177730  0.77434076  1
  O2-  O216  1  0.24361642  0.13535280  0.28693810  1
  O2-  O217  1  0.21631336  0.13567679  0.75713295  1
  O2-  O218  1  0.23998678  0.63611407  0.28370596  1
  O2-  O219  1  0.22029403  0.63726117  0.75712265  1
  O2-  O220  1  0.71605787  0.13620529  0.23648964  1
  O2-  O221  1  0.74097458  0.12077892  0.72917391  1
  O2-  O222  1  0.71995972  0.63403565  0.23483663  1
  O2-  O223  1  0.73856131  0.63723722  0.70951303  1
  O2-  O224  1  0.11904426  0.47310225  0.25993994  1
  O2-  O225  1  0.11404058  0.47459873  0.74419710  1
  O2-  O226  1  0.11788147  0.97247254  0.23489858  1
  O2-  O227  1  0.11119438  0.97619431  0.74316768  1
  O2-  O228  1  0.61147950  0.47359110  0.26269597  1
  O2-  O229  1  0.61102529  0.45214241  0.76304496  1
  O2-  O230  1  0.61451524  0.96959995  0.24641769  1
  O2-  O231  1  0.63117821  0.98172860  0.74693018  1
  O2-  O232  1  0.38809141  0.01726888  0.23198228  1
  O2-  O233  1  0.38323393  0.02764053  0.77117726  1
  O2-  O234  1  0.38658934  0.51460016  0.21711047  1
  O2-  O235  1  0.38627568  0.54027422  0.74770911  1
  O2-  O236  1  0.88356332  0.02654503  0.25448502  1
  O2-  O237  1  0.87381145  0.00812164  0.76766587  1
  O2-  O238  1  0.88105359  0.52807144  0.23563221  1
  O2-  O239  1  0.88139123  0.51099383  0.75438759  1
  O2-  O240  1  0.47866545  0.37034986  0.24985558  1
  O2-  O241  1  0.45333715  0.38475019  0.75878236  1
  O2-  O242  1  0.47696437  0.87382063  0.25163703  1
  O2-  O243  1  0.47810665  0.88328199  0.76097694  1
  O2-  O244  1  0.97541160  0.38185712  0.23178785  1
  O2-  O245  1  0.97709835  0.36757640  0.72732908  1
  O2-  O246  1  0.97228647  0.88279712  0.22598166  1
  O2-  O247  1  0.97803643  0.87216404  0.74026366  1
  O2-  O248  1  0.03376436  0.11349766  0.25800489  1
  O2-  O249  1  0.00901833  0.11979061  0.77415439  1
  O2-  O250  1  0.02891670  0.61781918  0.26495155  1
  O2-  O251  1  0.01021483  0.62738549  0.77962724  1
  O2-  O252  1  0.52676200  0.12419547  0.24423618  1
  O2-  O253  1  0.53040473  0.11594575  0.75673872  1
  O2-  O254  1  0.52201809  0.62522962  0.24985909  1
  O2-  O255  1  0.54435523  0.61010681  0.75897283  1
  O2-  O256  1  0.13245617  0.46251665  -0.00130383  1
  O2-  O257  1  0.13434061  0.47772139  0.48886969  1
  O2-  O258  1  0.12436126  0.97764926  0.00940347  1
  O2-  O259  1  0.13457777  0.98787891  0.50972440  1
  O2-  O260  1  0.61899470  0.47835826  -0.01128334  1
  O2-  O261  1  0.63185171  0.46577960  0.48714021  1
  O2-  O262  1  0.62761775  0.97761861  -0.00029318  1
  O2-  O263  1  0.63768035  0.98398972  0.51789163  1
  O2-  O264  1  0.38468830  0.02205234  -0.01034042  1
  O2-  O265  1  0.36679534  0.02649642  0.49180619  1
  O2-  O266  1  0.38285608  0.51703477  0.01379751  1
  O2-  O267  1  0.36608612  0.52420519  0.51087157  1
  O2-  O268  1  0.87754641  0.01660501  -0.01128322  1
  O2-  O269  1  0.86612048  0.03493014  0.50196892  1
  O2-  O270  1  0.86615808  0.52827293  0.00429175  1
  O2-  O271  1  0.86327386  0.51505057  0.51216207  1
  O2-  O272  1  0.48137138  0.37384922  0.00657698  1
  O2-  O273  1  0.46653643  0.36179343  0.48814015  1
  O2-  O274  1  0.47800045  0.87685679  0.00184725  1
  O2-  O275  1  0.46232856  0.86410079  0.49661571  1
  O2-  O276  1  0.96617275  0.36393618  0.01384355  1
  O2-  O277  1  0.98282536  0.36049482  0.53837873  1
  O2-  O278  1  0.98170923  0.87944455  0.01240889  1
  O2-  O279  1  0.99296591  0.86138052  0.54157080  1
  O2-  O280  1  0.02400910  0.11576306  -0.01693069  1
  O2-  O281  1  0.01975375  0.13459772  0.48261814  1
  O2-  O282  1  0.03016135  0.63565049  -0.01452469  1
  O2-  O283  1  0.03318547  0.63728186  0.48967248  1
  O2-  O284  1  0.52588192  0.12226561  -0.00119878  1
  O2-  O285  1  0.51528640  0.13454290  0.50034829  1
  O2-  O286  1  0.51930965  0.62430881  0.00689283  1
  O2-  O287  1  0.52429611  0.63530532  0.48645819  1
  O2-  O288  1  0.11186030  0.26618506  -0.02894800  1
  O2-  O289  1  0.12392328  0.27237833  0.49760430  1
  O2-  O290  1  0.11655772  0.78058524  -0.00277713  1
  O2-  O291  1  0.13215250  0.77270639  0.50562092  1
  O2-  O292  1  0.61853257  0.26459506  0.02251250  1
  O2-  O293  1  0.62492340  0.27063235  0.49426795  1
  O2-  O294  1  0.61342152  0.76530972  0.03325024  1
  O2-  O295  1  0.61446308  0.78702543  0.50793332  1
  O2-  O296  1  0.38792384  0.22360487  -0.00233774  1
  O2-  O297  1  0.36921171  0.22678737  0.50572152  1
  O2-  O298  1  0.38707456  0.72668086  -0.01581166  1
  O2-  O299  1  0.37017001  0.72633400  0.49368429  1
  O2-  O300  1  0.88725645  0.21004725  0.00038583  1
  O2-  O301  1  0.87409951  0.22684425  0.50161598  1
  O2-  O302  1  0.88375695  0.73468209  -0.01515666  1
  O2-  O303  1  0.88573534  0.71845870  0.49961730  1
  O2-  O304  1  0.27947242  0.38384238  0.02332071  1
  O2-  O305  1  0.26895152  0.37251217  0.52250721  1
  O2-  O306  1  0.28111180  0.88728327  0.02064111  1
  O2-  O307  1  0.27159914  0.87498557  0.52206484  1
  O2-  O308  1  0.76449061  0.38612732  -0.03636655  1
  O2-  O309  1  0.77004419  0.36492511  0.48138727  1
  O2-  O310  1  0.76485381  0.88429391  -0.03099788  1
  O2-  O311  1  0.78210285  0.88975498  0.47863089  1
  O2-  O312  1  0.23586753  0.11457281  -0.03054839  1
  O2-  O313  1  0.23060665  0.13088020  0.48215615  1
  O2-  O314  1  0.23785827  0.61463593  -0.02827518  1
  O2-  O315  1  0.23094837  0.62907918  0.48172400  1
  O2-  O316  1  0.73522056  0.11458788  0.02080588  1
  O2-  O317  1  0.72675620  0.13121699  0.51898444  1
  O2-  O318  1  0.72278977  0.61606540  0.02554281  1
  O2-  O319  1  0.71657939  0.61839201  0.51743392  1
