# generated using pymatgen
data_Sr64Ca21Nb43O192
_symmetry_space_group_name_H-M   'P 1'
_cell_length_a   16.58856158
_cell_length_b   16.57188411
_cell_length_c   16.71838386
_cell_angle_alpha   90.02197757
_cell_angle_beta   90.07423186
_cell_angle_gamma   90.04112354
_symmetry_Int_Tables_number   1
_chemical_formula_structural   Sr64Ca21Nb43O192
_chemical_formula_sum   'Sr64 Ca21 Nb43 O192'
_cell_volume   4595.94053694
_cell_formula_units_Z   1
loop_
 _symmetry_equiv_pos_site_id
 _symmetry_equiv_pos_as_xyz
  1  'x, y, z'
loop_
 _atom_type_symbol
 _atom_type_oxidation_number
  Sr2+  2.0
  Ca2+  2.0
  Nb5+  5.0
  O2-  -2.0
loop_
 _atom_site_type_symbol
 _atom_site_label
 _atom_site_symmetry_multiplicity
 _atom_site_fract_x
 _atom_site_fract_y
 _atom_site_fract_z
 _atom_site_occupancy
  Sr2+  Sr0  1  0.11797930  0.11975079  0.12091928  1
  Sr2+  Sr1  1  0.12510381  0.11747760  0.63364198  1
  Sr2+  Sr2  1  0.12849309  0.62338878  0.11796319  1
  Sr2+  Sr3  1  0.12681083  0.61015037  0.63634825  1
  Sr2+  Sr4  1  0.62062032  0.11074619  0.12506303  1
  Sr2+  Sr5  1  0.61388343  0.10732179  0.62470352  1
  Sr2+  Sr6  1  0.62029377  0.61986122  0.12536295  1
  Sr2+  Sr7  1  0.62233653  0.63249263  0.61948830  1
  Sr2+  Sr8  1  0.38838488  0.36814264  0.12355614  1
  Sr2+  Sr9  1  0.37906865  0.35883358  0.62626539  1
  Sr2+  Sr10  1  0.37757117  0.88042683  0.12095416  1
  Sr2+  Sr11  1  0.37043912  0.88442339  0.61966948  1
  Sr2+  Sr12  1  0.86472260  0.36159542  0.12565942  1
  Sr2+  Sr13  1  0.87389273  0.36722615  0.61680065  1
  Sr2+  Sr14  1  0.87237053  0.86765046  0.12525584  1
  Sr2+  Sr15  1  0.86399953  0.85654898  0.63004631  1
  Sr2+  Sr16  1  0.13298805  0.38213114  0.36825669  1
  Sr2+  Sr17  1  0.13850473  0.38334179  0.87665306  1
  Sr2+  Sr18  1  0.12048273  0.87460626  0.38425011  1
  Sr2+  Sr19  1  0.12653288  0.87771991  0.87919456  1
  Sr2+  Sr20  1  0.63461486  0.38376219  0.37277292  1
  Sr2+  Sr21  1  0.62836474  0.37716407  0.87072961  1
  Sr2+  Sr22  1  0.63779094  0.88776281  0.37628349  1
  Sr2+  Sr23  1  0.63930527  0.88148520  0.86595577  1
  Sr2+  Sr24  1  0.35597148  0.13073407  0.37524739  1
  Sr2+  Sr25  1  0.36952959  0.13714875  0.87309395  1
  Sr2+  Sr26  1  0.36886118  0.63197397  0.37858419  1
  Sr2+  Sr27  1  0.36090900  0.62743392  0.87278951  1
  Sr2+  Sr28  1  0.88238607  0.12604650  0.37565450  1
  Sr2+  Sr29  1  0.88774519  0.13339806  0.87130998  1
  Sr2+  Sr30  1  0.88875836  0.62762804  0.37387043  1
  Sr2+  Sr31  1  0.88376755  0.63308863  0.86953552  1
  Sr2+  Sr32  1  0.12398332  0.12448411  0.36902759  1
  Sr2+  Sr33  1  0.12651962  0.10811206  0.87529859  1
  Sr2+  Sr34  1  0.12765419  0.62644722  0.37802622  1
  Sr2+  Sr35  1  0.13025426  0.63948193  0.87556747  1
  Sr2+  Sr36  1  0.62840633  0.12058491  0.37475324  1
  Sr2+  Sr37  1  0.62643313  0.13051254  0.86533410  1
  Sr2+  Sr38  1  0.63299085  0.63178539  0.37376046  1
  Sr2+  Sr39  1  0.62164353  0.63638819  0.86564516  1
  Sr2+  Sr40  1  0.37350786  0.37858950  0.36872469  1
  Sr2+  Sr41  1  0.38194052  0.38000598  0.87111029  1
  Sr2+  Sr42  1  0.36428361  0.88006983  0.37547717  1
  Sr2+  Sr43  1  0.36547095  0.89116021  0.87519836  1
  Sr2+  Sr44  1  0.87992032  0.38207248  0.37393969  1
  Sr2+  Sr45  1  0.87523238  0.38429805  0.88080345  1
  Sr2+  Sr46  1  0.88438592  0.88794611  0.37786566  1
  Sr2+  Sr47  1  0.88655952  0.88843724  0.86307471  1
  Sr2+  Sr48  1  0.11409051  0.36142471  0.13049638  1
  Sr2+  Sr49  1  0.13849562  0.36737237  0.62377796  1
  Sr2+  Sr50  1  0.12327669  0.86701650  0.11942199  1
  Sr2+  Sr51  1  0.11452016  0.87089034  0.63189062  1
  Sr2+  Sr52  1  0.62953956  0.36929530  0.12211121  1
  Sr2+  Sr53  1  0.61632418  0.36855282  0.62044614  1
  Sr2+  Sr54  1  0.61759095  0.86879652  0.13091407  1
  Sr2+  Sr55  1  0.61420981  0.86850094  0.62518658  1
  Sr2+  Sr56  1  0.38079253  0.11421247  0.11465700  1
  Sr2+  Sr57  1  0.37237822  0.12418742  0.63728137  1
  Sr2+  Sr58  1  0.39104146  0.62378747  0.11542664  1
  Sr2+  Sr59  1  0.38230738  0.62127291  0.62098988  1
  Sr2+  Sr60  1  0.86694184  0.12507677  0.12035248  1
  Sr2+  Sr61  1  0.86142614  0.12094944  0.62139254  1
  Sr2+  Sr62  1  0.86203661  0.62334336  0.13060268  1
  Sr2+  Sr63  1  0.86722151  0.61486350  0.63625353  1
  Ca2+  Ca64  1  -0.00048594  0.00167584  0.50523550  1
  Ca2+  Ca65  1  0.50696187  -0.00114493  -0.00604400  1
  Ca2+  Ca66  1  -0.00016949  0.50093517  0.00603335  1
  Ca2+  Ca67  1  0.49621850  0.00079713  0.49552601  1
  Ca2+  Ca68  1  -0.00223613  0.00073428  0.00249348  1
  Ca2+  Ca69  1  0.24783614  0.25102467  0.49963652  1
  Ca2+  Ca70  1  0.75030402  0.74827184  0.49649651  1
  Ca2+  Ca71  1  0.25099204  0.25474481  0.00309065  1
  Ca2+  Ca72  1  0.75165016  0.74893790  -0.00221219  1
  Ca2+  Ca73  1  0.74583426  0.24959291  0.49805392  1
  Ca2+  Ca74  1  0.49847551  0.74833662  0.25312532  1
  Ca2+  Ca75  1  0.25090739  0.50530496  0.24514514  1
  Ca2+  Ca76  1  0.74794585  0.49679900  0.75126431  1
  Ca2+  Ca77  1  0.25212060  -0.00135825  0.74875414  1
  Ca2+  Ca78  1  -0.00002031  0.25439826  0.74930913  1
  Ca2+  Ca79  1  0.24735384  -0.00186508  0.24834720  1
  Ca2+  Ca80  1  0.74973317  0.00068398  0.74899690  1
  Ca2+  Ca81  1  0.50154741  0.24551814  0.25040820  1
  Ca2+  Ca82  1  0.25252936  0.50076552  0.75058927  1
  Ca2+  Ca83  1  0.49273042  0.74707049  0.75072247  1
  Ca2+  Ca84  1  0.00167678  0.74952468  0.74874104  1
  Nb5+  Nb85  1  0.50473279  0.49617138  0.49387236  1
  Nb5+  Nb86  1  0.50554966  0.50128976  -0.00833552  1
  Nb5+  Nb87  1  0.00513947  0.49997460  0.50180264  1
  Nb5+  Nb88  1  0.24696030  0.74830427  0.49672373  1
  Nb5+  Nb89  1  0.25370599  0.75283239  -0.00409392  1
  Nb5+  Nb90  1  0.74914252  0.24513865  -0.00246518  1
  Nb5+  Nb91  1  0.74858573  0.50287551  0.24849584  1
  Nb5+  Nb92  1  0.50208651  0.24936174  0.74934448  1
  Nb5+  Nb93  1  0.00354180  0.74636813  0.25132134  1
  Nb5+  Nb94  1  0.75316372  0.00557533  0.24880111  1
  Nb5+  Nb95  1  -0.00295652  0.24456208  0.25229774  1
  Nb5+  Nb96  1  -0.00063816  -0.00746711  0.24652776  1
  Nb5+  Nb97  1  -0.00131846  0.00595766  0.74651004  1
  Nb5+  Nb98  1  -0.00197623  0.49531052  0.24762895  1
  Nb5+  Nb99  1  0.00086459  0.49443628  0.75946093  1
  Nb5+  Nb100  1  0.49618641  0.00147694  0.25288885  1
  Nb5+  Nb101  1  0.49857254  -0.00536829  0.74965008  1
  Nb5+  Nb102  1  0.49830958  0.50038667  0.24784085  1
  Nb5+  Nb103  1  0.50284431  0.49892147  0.74121781  1
  Nb5+  Nb104  1  0.25552095  0.24958387  0.24221642  1
  Nb5+  Nb105  1  0.24499543  0.25335549  0.75546464  1
  Nb5+  Nb106  1  0.25125230  0.74579614  0.24281923  1
  Nb5+  Nb107  1  0.24871912  0.74991414  0.73961169  1
  Nb5+  Nb108  1  0.74970693  0.25261215  0.25335678  1
  Nb5+  Nb109  1  0.75040797  0.25206031  0.74413584  1
  Nb5+  Nb110  1  0.75196994  0.75892851  0.25432423  1
  Nb5+  Nb111  1  0.74622463  0.74607315  0.75042946  1
  Nb5+  Nb112  1  0.00396666  0.24883200  0.50080270  1
  Nb5+  Nb113  1  0.00276426  0.25734115  0.99680983  1
  Nb5+  Nb114  1  -0.00175481  0.74445515  0.50638907  1
  Nb5+  Nb115  1  -0.00212886  0.74933062  1.00102834  1
  Nb5+  Nb116  1  0.49615033  0.24606688  0.49305975  1
  Nb5+  Nb117  1  0.50541797  0.24770501  1.00003079  1
  Nb5+  Nb118  1  0.49636037  0.75279997  0.49588232  1
  Nb5+  Nb119  1  0.50240212  0.75426814  0.99510413  1
  Nb5+  Nb120  1  0.25111052  0.00504553  0.00126277  1
  Nb5+  Nb121  1  0.24497010  0.00410201  0.49732694  1
  Nb5+  Nb122  1  0.25142679  0.49888144  0.00750383  1
  Nb5+  Nb123  1  0.25854374  0.50153821  0.50059077  1
  Nb5+  Nb124  1  0.75350955  -0.00288525  -0.00337147  1
  Nb5+  Nb125  1  0.75236123  -0.00429649  0.50487012  1
  Nb5+  Nb126  1  0.74775280  0.50192831  -0.00279926  1
  Nb5+  Nb127  1  0.75719969  0.50040886  0.49912160  1
  O2-  O128  1  -0.02672249  0.02263383  0.13736817  1
  O2-  O129  1  -0.01473101  0.04234706  0.63382238  1
  O2-  O130  1  -0.02035481  0.52927066  0.13962732  1
  O2-  O131  1  -0.01311664  0.52045082  0.61362405  1
  O2-  O132  1  0.48894118  0.01001782  0.13131665  1
  O2-  O133  1  0.47889477  0.01719195  0.63166749  1
  O2-  O134  1  0.48885481  0.50133530  0.13027533  1
  O2-  O135  1  0.48311816  0.49635932  0.62410096  1
  O2-  O136  1  0.01574045  -0.01284605  0.36490696  1
  O2-  O137  1  0.01722806  -0.02159000  0.86772587  1
  O2-  O138  1  0.00749439  0.48914151  0.37150533  1
  O2-  O139  1  0.01485543  0.47081334  0.87077610  1
  O2-  O140  1  0.53188627  -0.00943244  0.36430569  1
  O2-  O141  1  0.53554735  -0.00585431  0.86197930  1
  O2-  O142  1  0.51809509  0.49032948  0.37829413  1
  O2-  O143  1  0.52356633  0.49672751  0.87843390  1
  O2-  O144  1  0.20951308  0.24330207  0.13401155  1
  O2-  O145  1  0.23189031  0.23436268  0.63659882  1
  O2-  O146  1  0.23026194  0.74888138  0.12669522  1
  O2-  O147  1  0.22683494  0.74635847  0.62325881  1
  O2-  O148  1  0.73855840  0.26147985  0.12936622  1
  O2-  O149  1  0.73926930  0.28320431  0.63449411  1
  O2-  O150  1  0.73952477  0.76657393  0.13666307  1
  O2-  O151  1  0.72851241  0.77030174  0.63043070  1
  O2-  O152  1  0.26937367  0.26393643  0.36251465  1
  O2-  O153  1  0.27677160  0.27104271  0.87002086  1
  O2-  O154  1  0.25933284  0.74858556  0.37698698  1
  O2-  O155  1  0.26551916  0.75771469  0.87988921  1
  O2-  O156  1  0.76872111  0.22582727  0.36423271  1
  O2-  O157  1  0.75981424  0.22492563  0.88393055  1
  O2-  O158  1  0.77042049  0.71791862  0.36185649  1
  O2-  O159  1  0.75949047  0.71459702  0.86670638  1
  O2-  O160  1  0.01188945  0.23674325  0.13318108  1
  O2-  O161  1  0.03289418  0.24781017  0.61283142  1
  O2-  O162  1  0.02417443  0.73722392  0.13458155  1
  O2-  O163  1  0.02847572  0.72681498  0.61471346  1
  O2-  O164  1  0.52577649  0.25653575  0.11469144  1
  O2-  O165  1  0.51643852  0.25301810  0.63083106  1
  O2-  O166  1  0.51421096  0.74141464  0.11386296  1
  O2-  O167  1  0.50775964  0.73454955  0.61252288  1
  O2-  O168  1  0.22105467  -0.01722980  0.38144603  1
  O2-  O169  1  0.23418274  -0.01945482  0.88496947  1
  O2-  O170  1  0.23560162  0.49801478  0.38378252  1
  O2-  O171  1  0.23947014  0.50069559  0.88885263  1
  O2-  O172  1  0.73259953  0.01355471  0.36727033  1
  O2-  O173  1  0.72371155  0.01414862  0.88727441  1
  O2-  O174  1  0.73022007  0.51147018  0.36771138  1
  O2-  O175  1  0.71560001  0.51141247  0.88855111  1
  O2-  O176  1  -0.02843381  0.26295569  0.36905671  1
  O2-  O177  1  -0.02818671  0.26995129  0.88751274  1
  O2-  O178  1  -0.01570325  0.76187537  0.37263624  1
  O2-  O179  1  -0.01770557  0.76519847  0.88723272  1
  O2-  O180  1  0.46327926  0.24920612  0.38324360  1
  O2-  O181  1  0.49042390  0.25706721  0.87594180  1
  O2-  O182  1  0.45963148  0.74882719  0.38397996  1
  O2-  O183  1  0.47877220  0.72224700  0.88583080  1
  O2-  O184  1  0.28135324  0.00104350  0.11646098  1
  O2-  O185  1  0.27826189  0.00755370  0.61268586  1
  O2-  O186  1  0.27611009  0.53300248  0.11619433  1
  O2-  O187  1  0.25864695  0.52336910  0.61565121  1
  O2-  O188  1  0.77946645  -0.00999409  0.13191929  1
  O2-  O189  1  0.77869096  -0.01911818  0.61582790  1
  O2-  O190  1  0.76698132  0.48115672  0.13181472  1
  O2-  O191  1  0.77074483  0.48306702  0.61193615  1
  O2-  O192  1  0.11107503  0.27138560  0.26826478  1
  O2-  O193  1  0.13349889  0.27620223  0.77368791  1
  O2-  O194  1  0.11788861  0.77924370  0.26566764  1
  O2-  O195  1  0.13530075  0.77856662  0.76845837  1
  O2-  O196  1  0.63644263  0.26635951  0.27117687  1
  O2-  O197  1  0.62184406  0.26820173  0.76722690  1
  O2-  O198  1  0.63741459  0.76755134  0.27282590  1
  O2-  O199  1  0.62818575  0.76755474  0.76976018  1
  O2-  O200  1  0.36577348  0.22944707  0.21405686  1
  O2-  O201  1  0.38293451  0.23322153  0.74037304  1
  O2-  O202  1  0.36075652  0.71148480  0.23726263  1
  O2-  O203  1  0.36113859  0.71160629  0.73812669  1
  O2-  O204  1  0.87457757  0.23874059  0.23035165  1
  O2-  O205  1  0.86327582  0.22585462  0.73532884  1
  O2-  O206  1  0.88081599  0.73873983  0.23174089  1
  O2-  O207  1  0.86648213  0.73051449  0.73032724  1
  O2-  O208  1  0.26713156  0.36976117  0.23516630  1
  O2-  O209  1  0.27301303  0.36771532  0.73075286  1
  O2-  O210  1  0.27509342  0.86167688  0.24877135  1
  O2-  O211  1  0.28258603  0.86354735  0.74260453  1
  O2-  O212  1  0.76834310  0.37108930  0.26426776  1
  O2-  O213  1  0.76265117  0.36189250  0.78760294  1
  O2-  O214  1  0.77368183  0.87284096  0.26946559  1
  O2-  O215  1  0.76878277  0.86454501  0.77365941  1
  O2-  O216  1  0.22944195  0.13450894  0.26489997  1
  O2-  O217  1  0.24038610  0.13474536  0.77254440  1
  O2-  O218  1  0.20625558  0.63724971  0.25408220  1
  O2-  O219  1  0.21954394  0.63436805  0.75925986  1
  O2-  O220  1  0.73975500  0.12240756  0.23277492  1
  O2-  O221  1  0.72035794  0.13721498  0.73503001  1
  O2-  O222  1  0.73657046  0.61825016  0.23022176  1
  O2-  O223  1  0.72541807  0.62903142  0.72481989  1
  O2-  O224  1  0.11147401  0.48012621  0.23516341  1
  O2-  O225  1  0.11406309  0.47286413  0.72757649  1
  O2-  O226  1  0.11225583  0.99007655  0.22127011  1
  O2-  O227  1  0.11859069  0.99039940  0.72677038  1
  O2-  O228  1  0.63149768  0.47423096  0.23741259  1
  O2-  O229  1  0.61494670  0.46388067  0.73690596  1
  O2-  O230  1  0.64033432  0.97560398  0.23151958  1
  O2-  O231  1  0.61651301  0.98278303  0.71919804  1
  O2-  O232  1  0.38552817  0.02396720  0.27310591  1
  O2-  O233  1  0.38666780  0.02431092  0.77657398  1
  O2-  O234  1  0.38829463  0.52405080  0.27147295  1
  O2-  O235  1  0.38974299  0.51240534  0.77452214  1
  O2-  O236  1  0.87348902  0.01019105  0.27401855  1
  O2-  O237  1  0.88208526  0.01991878  0.77373081  1
  O2-  O238  1  0.86964104  0.51328763  0.26945893  1
  O2-  O239  1  0.88306200  0.52709961  0.76534449  1
  O2-  O240  1  0.48223663  0.38281765  0.25270484  1
  O2-  O241  1  0.47976356  0.37141856  0.74993348  1
  O2-  O242  1  0.48590847  0.88290531  0.23653780  1
  O2-  O243  1  0.47387929  0.88176326  0.73938981  1
  O2-  O244  1  0.97582316  0.37952117  0.23724786  1
  O2-  O245  1  0.96401501  0.38604212  0.72939824  1
  O2-  O246  1  0.97965325  0.87616125  0.23676614  1
  O2-  O247  1  0.98023472  0.88654586  0.72148611  1
  O2-  O248  1  0.00740090  0.12872852  0.26797600  1
  O2-  O249  1  0.02007379  0.12238306  0.77723757  1
  O2-  O250  1  0.01125865  0.62980854  0.27030547  1
  O2-  O251  1  0.02471401  0.61363034  0.76591478  1
  O2-  O252  1  0.53750203  0.11458862  0.25214036  1
  O2-  O253  1  0.51982599  0.13175676  0.75472238  1
  O2-  O254  1  0.53628756  0.61267587  0.25573124  1
  O2-  O255  1  0.52932522  0.61078183  0.74307300  1
  O2-  O256  1  0.13909873  0.48037785  0.02863526  1
  O2-  O257  1  0.12009461  0.48509017  0.51093979  1
  O2-  O258  1  0.13497248  0.98484151  0.02426958  1
  O2-  O259  1  0.13310397  0.97610322  0.52729683  1
  O2-  O260  1  0.62331556  0.48256283  0.02561771  1
  O2-  O261  1  0.61792479  0.47960607  0.51436819  1
  O2-  O262  1  0.64172277  0.98078822  0.03373449  1
  O2-  O263  1  0.63425629  0.97282168  0.51467158  1
  O2-  O264  1  0.37046108  0.02113878  -0.02307845  1
  O2-  O265  1  0.36224053  0.00678597  0.46534329  1
  O2-  O266  1  0.38836780  0.52215269  -0.01353132  1
  O2-  O267  1  0.37353085  0.51988988  0.48514354  1
  O2-  O268  1  0.86431432  0.03730008  -0.01272030  1
  O2-  O269  1  0.86684348  0.02029172  0.47705715  1
  O2-  O270  1  0.86253547  0.51308059  -0.02440874  1
  O2-  O271  1  0.87137238  0.51890427  0.48049877  1
  O2-  O272  1  0.48806452  0.38008021  0.00051164  1
  O2-  O273  1  0.46994348  0.38150323  0.50049004  1
  O2-  O274  1  0.47045620  0.86482945  -0.00544355  1
  O2-  O275  1  0.47535632  0.86456719  0.51077489  1
  O2-  O276  1  0.97972141  0.36805336  0.03478720  1
  O2-  O277  1  0.97565696  0.38513783  0.50312397  1
  O2-  O278  1  0.99202483  0.86445323  0.03015997  1
  O2-  O279  1  0.98502221  0.86018961  0.51502508  1
  O2-  O280  1  0.02157862  0.14011415  -0.00640711  1
  O2-  O281  1  0.01708061  0.13797862  0.47613381  1
  O2-  O282  1  0.03109397  0.63540060  -0.00794562  1
  O2-  O283  1  0.01186986  0.62014171  0.47471167  1
  O2-  O284  1  0.53052656  0.13556069  -0.00767891  1
  O2-  O285  1  0.52797450  0.13571376  0.49403575  1
  O2-  O286  1  0.52562885  0.61796785  0.00553275  1
  O2-  O287  1  0.50789637  0.61591654  0.49417465  1
  O2-  O288  1  0.11471931  0.28463540  -0.01360441  1
  O2-  O289  1  0.11326685  0.28310527  0.47239655  1
  O2-  O290  1  0.13125270  0.77081767  -0.00983993  1
  O2-  O291  1  0.12458055  0.75750616  0.48105015  1
  O2-  O292  1  0.63074013  0.27331077  -0.01537373  1
  O2-  O293  1  0.60794562  0.28471959  0.48702017  1
  O2-  O294  1  0.61546844  0.77490518  -0.02194794  1
  O2-  O295  1  0.60944938  0.75960999  0.47176144  1
  O2-  O296  1  0.39041437  0.23363124  0.01716639  1
  O2-  O297  1  0.38429142  0.23289686  0.53129401  1
  O2-  O298  1  0.36991872  0.73168833  0.01800549  1
  O2-  O299  1  0.36336125  0.72600003  0.51644898  1
  O2-  O300  1  0.86773431  0.23919344  0.01706489  1
  O2-  O301  1  0.88516830  0.24246780  0.52339743  1
  O2-  O302  1  0.88735510  0.72599151  0.02447385  1
  O2-  O303  1  0.88511609  0.72140334  0.52044009  1
  O2-  O304  1  0.28541391  0.38905732  0.01475466  1
  O2-  O305  1  0.26527686  0.38671661  0.51505136  1
  O2-  O306  1  0.27161731  0.87080304  0.00844923  1
  O2-  O307  1  0.26446698  0.86534748  0.50246508  1
  O2-  O308  1  0.76238485  0.37424077  -0.00458594  1
  O2-  O309  1  0.75874096  0.38602239  0.46983028  1
  O2-  O310  1  0.78335932  0.88556830  -0.01604221  1
  O2-  O311  1  0.76844826  0.88077408  0.47064151  1
  O2-  O312  1  0.23090933  0.11951684  -0.00661059  1
  O2-  O313  1  0.22628176  0.11758726  0.48385731  1
  O2-  O314  1  0.23442679  0.63260954  -0.00809529  1
  O2-  O315  1  0.22983293  0.62607060  0.49254237  1
  O2-  O316  1  0.73019421  0.13144189  0.02228119  1
  O2-  O317  1  0.72795129  0.11444641  0.51699800  1
  O2-  O318  1  0.73646780  0.61259222  0.03057720  1
  O2-  O319  1  0.72027623  0.61161374  0.50489370  1
