# generated using pymatgen
data_Sr64Ca21Nb43O192
_symmetry_space_group_name_H-M   'P 1'
_cell_length_a   16.57183791
_cell_length_b   16.57825628
_cell_length_c   16.70924491
_cell_angle_alpha   90.06114698
_cell_angle_beta   90.06360366
_cell_angle_gamma   90.08955968
_symmetry_Int_Tables_number   1
_chemical_formula_structural   Sr64Ca21Nb43O192
_chemical_formula_sum   'Sr64 Ca21 Nb43 O192'
_cell_volume   4590.55615428
_cell_formula_units_Z   1
loop_
 _symmetry_equiv_pos_site_id
 _symmetry_equiv_pos_as_xyz
  1  'x, y, z'
loop_
 _atom_type_symbol
 _atom_type_oxidation_number
  Sr2+  2.0
  Ca2+  2.0
  Nb5+  5.0
  O2-  -2.0
loop_
 _atom_site_type_symbol
 _atom_site_label
 _atom_site_symmetry_multiplicity
 _atom_site_fract_x
 _atom_site_fract_y
 _atom_site_fract_z
 _atom_site_occupancy
  Sr2+  Sr0  1  0.12655309  0.11556228  0.13139858  1
  Sr2+  Sr1  1  0.13479774  0.11931285  0.62549448  1
  Sr2+  Sr2  1  0.12510413  0.63485461  0.11739014  1
  Sr2+  Sr3  1  0.12885527  0.62343378  0.62399364  1
  Sr2+  Sr4  1  0.63199190  0.12663896  0.11742811  1
  Sr2+  Sr5  1  0.62160951  0.11863144  0.62073408  1
  Sr2+  Sr6  1  0.63101283  0.60656211  0.12806485  1
  Sr2+  Sr7  1  0.63460153  0.61796058  0.63203821  1
  Sr2+  Sr8  1  0.37813206  0.36989118  0.12190876  1
  Sr2+  Sr9  1  0.37825084  0.36631880  0.62852542  1
  Sr2+  Sr10  1  0.37944751  0.86027731  0.12917161  1
  Sr2+  Sr11  1  0.37552141  0.86865064  0.62527845  1
  Sr2+  Sr12  1  0.87705748  0.36162753  0.12333022  1
  Sr2+  Sr13  1  0.88704747  0.36310990  0.62632281  1
  Sr2+  Sr14  1  0.88977224  0.85957952  0.12149845  1
  Sr2+  Sr15  1  0.87849587  0.86096393  0.62672813  1
  Sr2+  Sr16  1  0.11076850  0.38053606  0.37424021  1
  Sr2+  Sr17  1  0.12597671  0.38429233  0.87960386  1
  Sr2+  Sr18  1  0.11941371  0.88838805  0.37451638  1
  Sr2+  Sr19  1  0.11377236  0.88144574  0.87044511  1
  Sr2+  Sr20  1  0.61784005  0.38811511  0.37020161  1
  Sr2+  Sr21  1  0.60918342  0.37448058  0.87649749  1
  Sr2+  Sr22  1  0.61239984  0.87550930  0.37985583  1
  Sr2+  Sr23  1  0.61366524  0.88056671  0.87533434  1
  Sr2+  Sr24  1  0.36506198  0.12636318  0.38103051  1
  Sr2+  Sr25  1  0.37277030  0.13083470  0.87386152  1
  Sr2+  Sr26  1  0.36808252  0.63835668  0.37413122  1
  Sr2+  Sr27  1  0.38071915  0.62713087  0.86856444  1
  Sr2+  Sr28  1  0.86879552  0.13942770  0.37510023  1
  Sr2+  Sr29  1  0.85696217  0.13232574  0.87301216  1
  Sr2+  Sr30  1  0.86216712  0.62538225  0.37266113  1
  Sr2+  Sr31  1  0.86462967  0.63144155  0.88377194  1
  Sr2+  Sr32  1  0.12379606  0.14094351  0.37068474  1
  Sr2+  Sr33  1  0.12754800  0.13170684  0.86746115  1
  Sr2+  Sr34  1  0.11682364  0.62588713  0.38013043  1
  Sr2+  Sr35  1  0.12011274  0.63306701  0.88182926  1
  Sr2+  Sr36  1  0.61000594  0.13871199  0.37525728  1
  Sr2+  Sr37  1  0.62102131  0.13343871  0.88408929  1
  Sr2+  Sr38  1  0.62413547  0.63610048  0.37238184  1
  Sr2+  Sr39  1  0.61399789  0.64160746  0.86998641  1
  Sr2+  Sr40  1  0.36533856  0.37553415  0.37046348  1
  Sr2+  Sr41  1  0.36627809  0.39177612  0.87599794  1
  Sr2+  Sr42  1  0.36748885  0.87922612  0.37417777  1
  Sr2+  Sr43  1  0.37309910  0.88243978  0.87733168  1
  Sr2+  Sr44  1  0.87260181  0.38586984  0.37711202  1
  Sr2+  Sr45  1  0.86849448  0.38371765  0.87047567  1
  Sr2+  Sr46  1  0.86052394  0.88177569  0.37535574  1
  Sr2+  Sr47  1  0.87459717  0.88429455  0.87315882  1
  Sr2+  Sr48  1  0.12987124  0.36517396  0.12422697  1
  Sr2+  Sr49  1  0.12513782  0.37790491  0.62440578  1
  Sr2+  Sr50  1  0.12175858  0.87367206  0.13314549  1
  Sr2+  Sr51  1  0.12343371  0.86961882  0.63402141  1
  Sr2+  Sr52  1  0.63645731  0.36908797  0.12820354  1
  Sr2+  Sr53  1  0.63318457  0.36376590  0.62233056  1
  Sr2+  Sr54  1  0.63337521  0.87220533  0.11515638  1
  Sr2+  Sr55  1  0.64278259  0.87040231  0.62719929  1
  Sr2+  Sr56  1  0.38502698  0.11507440  0.12527738  1
  Sr2+  Sr57  1  0.38458874  0.12017154  0.62358807  1
  Sr2+  Sr58  1  0.39230935  0.62121239  0.12599006  1
  Sr2+  Sr59  1  0.38069620  0.61233336  0.62619812  1
  Sr2+  Sr60  1  0.88209710  0.12265128  0.12638007  1
  Sr2+  Sr61  1  0.88654773  0.11651685  0.62397258  1
  Sr2+  Sr62  1  0.88788400  0.61596336  0.12219957  1
  Sr2+  Sr63  1  0.88662530  0.61861858  0.62608090  1
  Ca2+  Ca64  1  0.50063765  0.49936761  0.00012017  1
  Ca2+  Ca65  1  0.00118287  -0.00210535  0.49956683  1
  Ca2+  Ca66  1  0.00083719  0.49438297  0.00204102  1
  Ca2+  Ca67  1  0.00227073  0.00311687  -0.00006068  1
  Ca2+  Ca68  1  0.49864307  0.50311678  0.49922986  1
  Ca2+  Ca69  1  0.25020373  0.24968106  -0.00086223  1
  Ca2+  Ca70  1  0.25188995  0.75309552  -0.00117433  1
  Ca2+  Ca71  1  0.74902470  0.25110537  0.49619707  1
  Ca2+  Ca72  1  0.24854503  0.25180117  0.50247101  1
  Ca2+  Ca73  1  0.74928143  0.74937367  0.00226642  1
  Ca2+  Ca74  1  0.24541258  0.50176670  0.25067687  1
  Ca2+  Ca75  1  0.74762074  0.00183034  0.75049085  1
  Ca2+  Ca76  1  0.50396635  0.75144915  0.24914129  1
  Ca2+  Ca77  1  0.74661349  -0.00067685  0.25006376  1
  Ca2+  Ca78  1  0.75114695  0.49824824  0.74955242  1
  Ca2+  Ca79  1  -0.00019500  0.74611155  0.75032460  1
  Ca2+  Ca80  1  -0.00038998  0.74775242  0.25494958  1
  Ca2+  Ca81  1  0.49981208  0.24972238  0.24752299  1
  Ca2+  Ca82  1  0.49853920  0.75440282  0.74361949  1
  Ca2+  Ca83  1  0.00203529  0.24680601  0.75231812  1
  Ca2+  Ca84  1  0.49980893  0.24976823  0.74867800  1
  Nb5+  Nb85  1  0.49773624  0.00001118  0.00667088  1
  Nb5+  Nb86  1  -0.00125433  0.49999235  0.50189843  1
  Nb5+  Nb87  1  0.49977133  -0.00463160  0.50503586  1
  Nb5+  Nb88  1  0.75219087  0.25257304  -0.00226444  1
  Nb5+  Nb89  1  0.74525481  0.74913356  0.49928301  1
  Nb5+  Nb90  1  0.24098792  0.75285049  0.49867439  1
  Nb5+  Nb91  1  0.75192459  0.49929228  0.24830721  1
  Nb5+  Nb92  1  0.25314627  0.00103813  0.24436197  1
  Nb5+  Nb93  1  0.24609873  0.50734474  0.75133722  1
  Nb5+  Nb94  1  -0.00050052  0.25215068  0.25064952  1
  Nb5+  Nb95  1  0.25274825  0.00274203  0.74621797  1
  Nb5+  Nb96  1  -0.00589743  0.00111352  0.25782834  1
  Nb5+  Nb97  1  -0.00332025  0.00229820  0.75256834  1
  Nb5+  Nb98  1  0.00055764  0.49704758  0.24682604  1
  Nb5+  Nb99  1  -0.00009680  0.50150405  0.75734323  1
  Nb5+  Nb100  1  0.50269825  -0.00243861  0.25467692  1
  Nb5+  Nb101  1  0.50133639  0.00075849  0.75526328  1
  Nb5+  Nb102  1  0.49234159  0.50167113  0.25562732  1
  Nb5+  Nb103  1  0.50527597  0.49674941  0.74509327  1
  Nb5+  Nb104  1  0.25437563  0.24976245  0.24476151  1
  Nb5+  Nb105  1  0.25079183  0.25937180  0.74967472  1
  Nb5+  Nb106  1  0.24374542  0.74834267  0.24945492  1
  Nb5+  Nb107  1  0.25470708  0.75438216  0.75244343  1
  Nb5+  Nb108  1  0.74852047  0.25003535  0.25323715  1
  Nb5+  Nb109  1  0.74847056  0.24735107  0.74229597  1
  Nb5+  Nb110  1  0.75116843  0.75035151  0.24535942  1
  Nb5+  Nb111  1  0.75326722  0.75165314  0.75542104  1
  Nb5+  Nb112  1  0.00384447  0.24590756  0.50293857  1
  Nb5+  Nb113  1  -0.00016410  0.24601083  0.99480976  1
  Nb5+  Nb114  1  -0.00863213  0.74921354  0.49632560  1
  Nb5+  Nb115  1  -0.00062220  0.74956554  0.99731201  1
  Nb5+  Nb116  1  0.49573100  0.25656718  0.49433213  1
  Nb5+  Nb117  1  0.49528298  0.25071277  1.00105595  1
  Nb5+  Nb118  1  0.49351817  0.74732561  0.50477437  1
  Nb5+  Nb119  1  0.50287834  0.74766549  1.00287488  1
  Nb5+  Nb120  1  0.24796744  -0.00297176  -0.00554344  1
  Nb5+  Nb121  1  0.24944692  -0.00257754  0.49764768  1
  Nb5+  Nb122  1  0.25302452  0.50457563  0.00875643  1
  Nb5+  Nb123  1  0.25120751  0.50093232  0.49930015  1
  Nb5+  Nb124  1  0.75515993  -0.00045890  0.00212058  1
  Nb5+  Nb125  1  0.74954544  0.00539386  0.49386970  1
  Nb5+  Nb126  1  0.74489081  0.49885338  -0.00768394  1
  Nb5+  Nb127  1  0.75044274  0.49856284  0.50371194  1
  O2-  O128  1  -0.00870871  -0.01443363  0.14032738  1
  O2-  O129  1  -0.02098114  -0.02101553  0.63428826  1
  O2-  O130  1  -0.02571527  0.47878936  0.13691465  1
  O2-  O131  1  -0.01752672  0.48390439  0.62015458  1
  O2-  O132  1  0.47591829  -0.01601196  0.11898531  1
  O2-  O133  1  0.47747858  -0.01465970  0.61729473  1
  O2-  O134  1  0.47802675  0.48133545  0.13744206  1
  O2-  O135  1  0.46884584  0.48391175  0.63175670  1
  O2-  O136  1  0.03514462  0.01951247  0.36715154  1
  O2-  O137  1  0.03445011  0.01429574  0.86589738  1
  O2-  O138  1  0.01568504  0.50824106  0.37951646  1
  O2-  O139  1  0.03102589  0.50861897  0.86732452  1
  O2-  O140  1  0.51576719  0.01303913  0.36958302  1
  O2-  O141  1  0.51566903  0.01745542  0.86977720  1
  O2-  O142  1  0.53067677  0.51984086  0.36740952  1
  O2-  O143  1  0.51906306  0.51898556  0.86320520  1
  O2-  O144  1  0.21413349  0.23722850  0.13444350  1
  O2-  O145  1  0.21252907  0.25013715  0.63601247  1
  O2-  O146  1  0.22295456  0.75566005  0.13609547  1
  O2-  O147  1  0.22593171  0.75276954  0.61674582  1
  O2-  O148  1  0.73739659  0.24224476  0.12846560  1
  O2-  O149  1  0.72320843  0.23225085  0.63088230  1
  O2-  O150  1  0.71822065  0.73355769  0.13685879  1
  O2-  O151  1  0.73065182  0.73417714  0.61598591  1
  O2-  O152  1  0.26923165  0.25111920  0.36334873  1
  O2-  O153  1  0.28530621  0.25490781  0.86396996  1
  O2-  O154  1  0.27177159  0.75756645  0.38078156  1
  O2-  O155  1  0.28444986  0.75244226  0.86239585  1
  O2-  O156  1  0.77970139  0.26796024  0.36383072  1
  O2-  O157  1  0.77419321  0.26636929  0.88403325  1
  O2-  O158  1  0.77628008  0.75653125  0.38180906  1
  O2-  O159  1  0.77935101  0.76498835  0.86687916  1
  O2-  O160  1  0.00863847  0.27531205  0.13464259  1
  O2-  O161  1  0.01533999  0.27365381  0.61477824  1
  O2-  O162  1  0.02054212  0.76672351  0.11927916  1
  O2-  O163  1  0.02015967  0.76196689  0.61008709  1
  O2-  O164  1  0.52601858  0.26726484  0.11358584  1
  O2-  O165  1  0.52404944  0.26018602  0.61019323  1
  O2-  O166  1  0.51523468  0.78516146  0.11567305  1
  O2-  O167  1  0.51445319  0.79283252  0.60990879  1
  O2-  O168  1  0.24319951  -0.01142577  0.37901958  1
  O2-  O169  1  0.24003717  -0.01424374  0.87407296  1
  O2-  O170  1  0.22426430  0.49367776  0.38729006  1
  O2-  O171  1  0.23160040  0.49456710  0.86697955  1
  O2-  O172  1  0.73083414  -0.03542299  0.38413778  1
  O2-  O173  1  0.72972833  -0.02067123  0.88797531  1
  O2-  O174  1  0.74476220  0.48384093  0.37709905  1
  O2-  O175  1  0.73172317  0.46585496  0.88391055  1
  O2-  O176  1  -0.01591738  0.23486645  0.37317941  1
  O2-  O177  1  -0.01462076  0.21201383  0.88706979  1
  O2-  O178  1  -0.01058967  0.70990383  0.38643092  1
  O2-  O179  1  -0.02084049  0.72428086  0.88239089  1
  O2-  O180  1  0.47973927  0.22049624  0.38055440  1
  O2-  O181  1  0.49576211  0.22107640  0.88499843  1
  O2-  O182  1  0.49065885  0.73165999  0.38725725  1
  O2-  O183  1  0.48356117  0.73725106  0.88347058  1
  O2-  O184  1  0.26561564  0.01283020  0.12734100  1
  O2-  O185  1  0.27167046  0.00537043  0.62707786  1
  O2-  O186  1  0.27775866  0.51708392  0.11960814  1
  O2-  O187  1  0.25520112  0.51662844  0.62517437  1
  O2-  O188  1  0.75423985  0.03270991  0.11664178  1
  O2-  O189  1  0.75495817  0.02061840  0.61142136  1
  O2-  O190  1  0.76680762  0.51898792  0.13268466  1
  O2-  O191  1  0.76628476  0.52843587  0.61477915  1
  O2-  O192  1  0.11876947  0.26465133  0.27009655  1
  O2-  O193  1  0.13651785  0.26200232  0.78691463  1
  O2-  O194  1  0.13362981  0.78129884  0.27759244  1
  O2-  O195  1  0.13813168  0.76837177  0.76320054  1
  O2-  O196  1  0.63625760  0.27564106  0.26702275  1
  O2-  O197  1  0.63568907  0.27752881  0.76959402  1
  O2-  O198  1  0.63909216  0.76262554  0.28376810  1
  O2-  O199  1  0.63407748  0.77483248  0.76324337  1
  O2-  O200  1  0.36511596  0.23199547  0.21854934  1
  O2-  O201  1  0.36305525  0.23698821  0.71597515  1
  O2-  O202  1  0.36225028  0.73207739  0.23705562  1
  O2-  O203  1  0.36296384  0.73448906  0.71092716  1
  O2-  O204  1  0.87749690  0.23327394  0.23289482  1
  O2-  O205  1  0.86657265  0.21904520  0.73293014  1
  O2-  O206  1  0.86521349  0.71739508  0.23561019  1
  O2-  O207  1  0.86582419  0.73133143  0.72057482  1
  O2-  O208  1  0.26770253  0.36576622  0.23626262  1
  O2-  O209  1  0.26383957  0.37856680  0.74073612  1
  O2-  O210  1  0.27047290  0.88271077  0.24639870  1
  O2-  O211  1  0.26968960  0.87575415  0.74218672  1
  O2-  O212  1  0.77041136  0.37893191  0.23475907  1
  O2-  O213  1  0.78024821  0.36336433  0.73356139  1
  O2-  O214  1  0.77935996  0.86263383  0.23440746  1
  O2-  O215  1  0.76916424  0.86787103  0.72581335  1
  O2-  O216  1  0.23262833  0.12108463  0.26196867  1
  O2-  O217  1  0.23605345  0.12056448  0.75575243  1
  O2-  O218  1  0.21918138  0.63636093  0.26283999  1
  O2-  O219  1  0.23149914  0.62705447  0.75473708  1
  O2-  O220  1  0.73059607  0.13638912  0.26949447  1
  O2-  O221  1  0.72882194  0.13525802  0.77978485  1
  O2-  O222  1  0.73492743  0.61742342  0.26906448  1
  O2-  O223  1  0.72519312  0.63438890  0.76568495  1
  O2-  O224  1  0.11233245  0.46580636  0.23933734  1
  O2-  O225  1  0.12806570  0.48198239  0.73194854  1
  O2-  O226  1  0.13383965  0.98656670  0.23653319  1
  O2-  O227  1  0.13632769  0.98360880  0.73210307  1
  O2-  O228  1  0.63430448  0.48091086  0.23679177  1
  O2-  O229  1  0.61655700  0.47682939  0.72125066  1
  O2-  O230  1  0.61198009  0.96866761  0.23185354  1
  O2-  O231  1  0.61174109  0.98029535  0.72975552  1
  O2-  O232  1  0.37135567  0.02426484  0.26400498  1
  O2-  O233  1  0.37094302  0.01907723  0.76713972  1
  O2-  O234  1  0.38074621  0.52048994  0.28005913  1
  O2-  O235  1  0.36442787  0.51768162  0.76237735  1
  O2-  O236  1  0.88322592  0.02583992  0.27518815  1
  O2-  O237  1  0.88470182  0.01864472  0.77589795  1
  O2-  O238  1  0.87578055  0.51081003  0.27098122  1
  O2-  O239  1  0.88606820  0.52293910  0.77567847  1
  O2-  O240  1  0.48519517  0.38351321  0.27709350  1
  O2-  O241  1  0.47461951  0.38391725  0.77006720  1
  O2-  O242  1  0.46718707  0.88539382  0.26223413  1
  O2-  O243  1  0.46935763  0.88797516  0.76125528  1
  O2-  O244  1  0.98002789  0.37061079  0.27380324  1
  O2-  O245  1  0.98292440  0.38332330  0.75839341  1
  O2-  O246  1  0.98242029  0.88610040  0.27576101  1
  O2-  O247  1  0.99404141  0.88238486  0.77024267  1
  O2-  O248  1  0.01620853  0.13072527  0.23749759  1
  O2-  O249  1  0.02539823  0.11401566  0.72416209  1
  O2-  O250  1  0.02113529  0.61011433  0.23396171  1
  O2-  O251  1  0.02081551  0.61287825  0.72478471  1
  O2-  O252  1  0.51539942  0.11163361  0.22348818  1
  O2-  O253  1  0.50502537  0.11386337  0.72112372  1
  O2-  O254  1  0.51800628  0.61636202  0.22591755  1
  O2-  O255  1  0.51004419  0.61727021  0.72935760  1
  O2-  O256  1  0.13703693  0.47131078  0.01682092  1
  O2-  O257  1  0.12231669  0.48892068  0.51842868  1
  O2-  O258  1  0.13849591  0.97214754  0.01777975  1
  O2-  O259  1  0.13854566  0.97238889  0.52072866  1
  O2-  O260  1  0.63444507  0.48040570  0.03058459  1
  O2-  O261  1  0.63629315  0.48191619  0.51604604  1
  O2-  O262  1  0.61855522  0.99100851  0.01521578  1
  O2-  O263  1  0.61838774  0.97703640  0.51428918  1
  O2-  O264  1  0.38104628  0.02528424  -0.01770341  1
  O2-  O265  1  0.37594210  0.00979603  0.48469400  1
  O2-  O266  1  0.36632534  0.52493864  -0.02721542  1
  O2-  O267  1  0.36170363  0.53385402  0.48512332  1
  O2-  O268  1  0.86643689  0.02113862  -0.01942697  1
  O2-  O269  1  0.86422494  0.01681335  0.47746187  1
  O2-  O270  1  0.86269296  0.51457457  -0.01311293  1
  O2-  O271  1  0.88042908  0.51906867  0.48480438  1
  O2-  O272  1  0.48293748  0.36407026  -0.02436252  1
  O2-  O273  1  0.47165876  0.36814371  0.47864611  1
  O2-  O274  1  0.48709267  0.88644818  -0.02406651  1
  O2-  O275  1  0.48502989  0.87922975  0.47212077  1
  O2-  O276  1  0.96786195  0.35965890  -0.01557829  1
  O2-  O277  1  0.98587107  0.37935292  0.48521975  1
  O2-  O278  1  0.97408879  0.86768205  -0.01550004  1
  O2-  O279  1  0.98144743  0.86152306  0.47128914  1
  O2-  O280  1  0.01131132  0.13624414  0.03895940  1
  O2-  O281  1  0.02434133  0.13253593  0.51871534  1
  O2-  O282  1  0.01882426  0.62947321  0.01742419  1
  O2-  O283  1  0.01724772  0.61946706  0.51835578  1
  O2-  O284  1  0.51710534  0.12161254  0.01701382  1
  O2-  O285  1  0.51669963  0.11314128  0.50855098  1
  O2-  O286  1  0.52414390  0.63554826  0.02193060  1
  O2-  O287  1  0.51816299  0.63843896  0.53220623  1
  O2-  O288  1  0.11283283  0.27154244  -0.01456368  1
  O2-  O289  1  0.11612360  0.26796202  0.47143099  1
  O2-  O290  1  0.11664753  0.76819392  -0.02783864  1
  O2-  O291  1  0.12766343  0.76740913  0.47635523  1
  O2-  O292  1  0.63185163  0.26263637  -0.01531129  1
  O2-  O293  1  0.61455923  0.26741142  0.46926735  1
  O2-  O294  1  0.61773650  0.77645370  -0.02150171  1
  O2-  O295  1  0.62986134  0.76300352  0.48184097  1
  O2-  O296  1  0.38479361  0.23083665  0.02626807  1
  O2-  O297  1  0.38244167  0.22698129  0.51991165  1
  O2-  O298  1  0.38562564  0.73657803  0.02632845  1
  O2-  O299  1  0.37632814  0.73638204  0.51674742  1
  O2-  O300  1  0.86960210  0.23034708  0.02163945  1
  O2-  O301  1  0.88502048  0.22849173  0.51364279  1
  O2-  O302  1  0.88122382  0.72972943  0.02632517  1
  O2-  O303  1  0.87735178  0.73166283  0.51963720  1
  O2-  O304  1  0.27812393  0.38493665  0.00551046  1
  O2-  O305  1  0.27391723  0.38844196  0.51184997  1
  O2-  O306  1  0.28880221  0.88769007  0.00719979  1
  O2-  O307  1  0.27269916  0.87221718  0.50591945  1
  O2-  O308  1  0.76416445  0.37094248  0.02159353  1
  O2-  O309  1  0.77610642  0.38608722  0.51947964  1
  O2-  O310  1  0.76681029  0.88722551  0.03050824  1
  O2-  O311  1  0.76783319  0.86706300  0.51685967  1
  O2-  O312  1  0.23305822  0.11376326  -0.01422956  1
  O2-  O313  1  0.23456037  0.11254192  0.49541387  1
  O2-  O314  1  0.22016672  0.61822249  -0.00709654  1
  O2-  O315  1  0.22903364  0.63349168  0.49401592  1
  O2-  O316  1  0.73401145  0.13116498  -0.01537021  1
  O2-  O317  1  0.72354007  0.11472996  0.47097320  1
  O2-  O318  1  0.72568624  0.61288426  -0.02423736  1
  O2-  O319  1  0.73891139  0.62613569  0.48007573  1
