# generated using pymatgen
data_Sr64Ca21Nb43O192
_symmetry_space_group_name_H-M   'P 1'
_cell_length_a   16.57552853
_cell_length_b   16.57780377
_cell_length_c   16.70975767
_cell_angle_alpha   90.02953283
_cell_angle_beta   89.96886976
_cell_angle_gamma   89.94137291
_symmetry_Int_Tables_number   1
_chemical_formula_structural   Sr64Ca21Nb43O192
_chemical_formula_sum   'Sr64 Ca21 Nb43 O192'
_cell_volume   4591.60143040
_cell_formula_units_Z   1
loop_
 _symmetry_equiv_pos_site_id
 _symmetry_equiv_pos_as_xyz
  1  'x, y, z'
loop_
 _atom_type_symbol
 _atom_type_oxidation_number
  Sr2+  2.0
  Ca2+  2.0
  Nb5+  5.0
  O2-  -2.0
loop_
 _atom_site_type_symbol
 _atom_site_label
 _atom_site_symmetry_multiplicity
 _atom_site_fract_x
 _atom_site_fract_y
 _atom_site_fract_z
 _atom_site_occupancy
  Sr2+  Sr0  1  0.12714155  0.13793449  0.12000420  1
  Sr2+  Sr1  1  0.13316132  0.14060836  0.62455337  1
  Sr2+  Sr2  1  0.13365776  0.63244560  0.13010587  1
  Sr2+  Sr3  1  0.13032729  0.62832770  0.62945023  1
  Sr2+  Sr4  1  0.63300694  0.13445663  0.12747333  1
  Sr2+  Sr5  1  0.62659198  0.11756091  0.62565347  1
  Sr2+  Sr6  1  0.63084095  0.62350490  0.12223165  1
  Sr2+  Sr7  1  0.63271970  0.63338152  0.62795933  1
  Sr2+  Sr8  1  0.38121996  0.36936382  0.12726763  1
  Sr2+  Sr9  1  0.37991524  0.37712034  0.63176923  1
  Sr2+  Sr10  1  0.38041453  0.88412364  0.11868383  1
  Sr2+  Sr11  1  0.38448396  0.89253322  0.62648736  1
  Sr2+  Sr12  1  0.87936289  0.37006641  0.13748959  1
  Sr2+  Sr13  1  0.87877173  0.37109159  0.62876198  1
  Sr2+  Sr14  1  0.87897328  0.88519821  0.12981300  1
  Sr2+  Sr15  1  0.87436974  0.88890285  0.62200481  1
  Sr2+  Sr16  1  0.11047971  0.36604003  0.37756673  1
  Sr2+  Sr17  1  0.11560923  0.37302912  0.87052081  1
  Sr2+  Sr18  1  0.10533886  0.86532017  0.37419382  1
  Sr2+  Sr19  1  0.11929250  0.86853706  0.87590797  1
  Sr2+  Sr20  1  0.61848835  0.36746139  0.37523951  1
  Sr2+  Sr21  1  0.61179874  0.36298639  0.87253129  1
  Sr2+  Sr22  1  0.61630346  0.86921155  0.37605176  1
  Sr2+  Sr23  1  0.60553183  0.86616108  0.87041331  1
  Sr2+  Sr24  1  0.36442714  0.11848157  0.37489461  1
  Sr2+  Sr25  1  0.37084194  0.13068184  0.87340285  1
  Sr2+  Sr26  1  0.36958215  0.61621771  0.37413470  1
  Sr2+  Sr27  1  0.37428086  0.62064782  0.88183108  1
  Sr2+  Sr28  1  0.86522583  0.12084384  0.37505394  1
  Sr2+  Sr29  1  0.88359513  0.12073638  0.86913982  1
  Sr2+  Sr30  1  0.89069116  0.62339401  0.37326966  1
  Sr2+  Sr31  1  0.88299508  0.62350990  0.87807692  1
  Sr2+  Sr32  1  0.11996713  0.12172008  0.38815380  1
  Sr2+  Sr33  1  0.11480400  0.10380734  0.87098331  1
  Sr2+  Sr34  1  0.12285397  0.62253592  0.37186386  1
  Sr2+  Sr35  1  0.12501380  0.62690560  0.87833739  1
  Sr2+  Sr36  1  0.61788755  0.10965850  0.37253550  1
  Sr2+  Sr37  1  0.61684856  0.12010314  0.88267841  1
  Sr2+  Sr38  1  0.62161584  0.61724588  0.37848580  1
  Sr2+  Sr39  1  0.62446330  0.62069211  0.88155301  1
  Sr2+  Sr40  1  0.36804701  0.36101676  0.37524003  1
  Sr2+  Sr41  1  0.36801465  0.36359706  0.87456348  1
  Sr2+  Sr42  1  0.37061385  0.86745779  0.38015383  1
  Sr2+  Sr43  1  0.36818252  0.85833160  0.87046559  1
  Sr2+  Sr44  1  0.86881025  0.35600483  0.37703073  1
  Sr2+  Sr45  1  0.86243430  0.36048124  0.86826095  1
  Sr2+  Sr46  1  0.86445300  0.86139990  0.37601023  1
  Sr2+  Sr47  1  0.87818681  0.87534270  0.88300099  1
  Sr2+  Sr48  1  0.13338109  0.37600482  0.12445148  1
  Sr2+  Sr49  1  0.11929821  0.37437468  0.62637533  1
  Sr2+  Sr50  1  0.13466964  0.88250512  0.12327082  1
  Sr2+  Sr51  1  0.14404645  0.88261018  0.63041717  1
  Sr2+  Sr52  1  0.62986359  0.37714092  0.12276806  1
  Sr2+  Sr53  1  0.63786367  0.38739818  0.62461055  1
  Sr2+  Sr54  1  0.63550224  0.87704066  0.12084531  1
  Sr2+  Sr55  1  0.62075076  0.87633822  0.62840372  1
  Sr2+  Sr56  1  0.38747183  0.14057707  0.12401978  1
  Sr2+  Sr57  1  0.38052681  0.13025659  0.62365830  1
  Sr2+  Sr58  1  0.38548636  0.63105861  0.12885565  1
  Sr2+  Sr59  1  0.38431227  0.62259141  0.62328835  1
  Sr2+  Sr60  1  0.88483022  0.13052841  0.11914450  1
  Sr2+  Sr61  1  0.89089404  0.13691039  0.62266294  1
  Sr2+  Sr62  1  0.88912164  0.62863178  0.12895580  1
  Sr2+  Sr63  1  0.88678516  0.63226079  0.62739214  1
  Ca2+  Ca64  1  -0.00056439  0.49945811  -0.00061065  1
  Ca2+  Ca65  1  -0.00042941  0.49955160  0.50171540  1
  Ca2+  Ca66  1  -0.00085948  -0.00058697  0.49778312  1
  Ca2+  Ca67  1  0.49853393  0.49835081  0.00047238  1
  Ca2+  Ca68  1  0.50184654  -0.00044652  0.00111882  1
  Ca2+  Ca69  1  0.74649871  0.25024052  0.50369271  1
  Ca2+  Ca70  1  0.24821864  0.24945927  -0.00185680  1
  Ca2+  Ca71  1  0.25132392  0.74990183  0.49856705  1
  Ca2+  Ca72  1  0.75156344  0.25053471  -0.00034659  1
  Ca2+  Ca73  1  0.25472588  0.25480121  0.49988871  1
  Ca2+  Ca74  1  0.00021495  0.24885379  0.75403560  1
  Ca2+  Ca75  1  -0.00171681  0.75199618  0.24688100  1
  Ca2+  Ca76  1  0.50082317  0.25142880  0.74415117  1
  Ca2+  Ca77  1  0.24914182  0.00020164  0.24980024  1
  Ca2+  Ca78  1  0.49624714  0.74708956  0.74733107  1
  Ca2+  Ca79  1  0.50305302  0.24950312  0.25489033  1
  Ca2+  Ca80  1  0.00001018  0.24582527  0.24899605  1
  Ca2+  Ca81  1  0.25089744  -0.00139580  0.75232032  1
  Ca2+  Ca82  1  0.50015928  0.75183282  0.25035138  1
  Ca2+  Ca83  1  -0.00369611  0.75151313  0.74782570  1
  Ca2+  Ca84  1  0.75037318  -0.00105173  0.75147517  1
  Nb5+  Nb85  1  0.00182221  -0.00327907  0.00332921  1
  Nb5+  Nb86  1  0.50024894  0.49429279  0.49773936  1
  Nb5+  Nb87  1  0.49842500  -0.00383067  0.49723000  1
  Nb5+  Nb88  1  0.74962576  0.74883282  0.50737280  1
  Nb5+  Nb89  1  0.25487356  0.74798750  0.00184732  1
  Nb5+  Nb90  1  0.75574152  0.74838873  0.00550985  1
  Nb5+  Nb91  1  0.75447280  0.49852563  0.24847680  1
  Nb5+  Nb92  1  0.25625716  0.50200075  0.75503706  1
  Nb5+  Nb93  1  0.75719458  0.50651119  0.74703691  1
  Nb5+  Nb94  1  0.25610570  0.49755241  0.25355717  1
  Nb5+  Nb95  1  0.74962456  -0.00765861  0.25043044  1
  Nb5+  Nb96  1  0.00166741  0.00079135  0.25234917  1
  Nb5+  Nb97  1  0.00118287  -0.00658081  0.74034309  1
  Nb5+  Nb98  1  0.00908216  0.49596176  0.24937506  1
  Nb5+  Nb99  1  0.00726860  0.50153116  0.75058029  1
  Nb5+  Nb100  1  0.49793764  -0.00097349  0.24558118  1
  Nb5+  Nb101  1  0.49815400  0.00446595  0.75598541  1
  Nb5+  Nb102  1  0.50625102  0.49747912  0.24973834  1
  Nb5+  Nb103  1  0.50684750  0.50349253  0.75157573  1
  Nb5+  Nb104  1  0.24533457  0.24397881  0.25275671  1
  Nb5+  Nb105  1  0.24679534  0.24712521  0.75451180  1
  Nb5+  Nb106  1  0.25052387  0.75417079  0.24919850  1
  Nb5+  Nb107  1  0.25202609  0.74686765  0.74339123  1
  Nb5+  Nb108  1  0.74750052  0.24127424  0.25439064  1
  Nb5+  Nb109  1  0.74307216  0.24353379  0.75113699  1
  Nb5+  Nb110  1  0.74422195  0.74189834  0.25698721  1
  Nb5+  Nb111  1  0.75052511  0.75318080  0.75999276  1
  Nb5+  Nb112  1  0.00041237  0.24969445  0.49978192  1
  Nb5+  Nb113  1  -0.00273915  0.25492322  0.99528164  1
  Nb5+  Nb114  1  0.00369313  0.75335305  0.50486828  1
  Nb5+  Nb115  1  0.00719450  0.74930649  1.00512086  1
  Nb5+  Nb116  1  0.50453793  0.24135287  0.49894960  1
  Nb5+  Nb117  1  0.50269683  0.25032566  0.99933331  1
  Nb5+  Nb118  1  0.50101535  0.74330084  0.49873957  1
  Nb5+  Nb119  1  0.50676397  0.75106185  1.00216028  1
  Nb5+  Nb120  1  0.25274129  0.00332732  -0.00038399  1
  Nb5+  Nb121  1  0.24575756  -0.00207061  0.49606235  1
  Nb5+  Nb122  1  0.25131038  0.50015006  0.00940460  1
  Nb5+  Nb123  1  0.25022692  0.49991068  0.50544424  1
  Nb5+  Nb124  1  0.75059914  -0.00083576  -0.00314948  1
  Nb5+  Nb125  1  0.74626384  0.00140881  0.50067777  1
  Nb5+  Nb126  1  0.75581755  0.49765276  -0.00492194  1
  Nb5+  Nb127  1  0.75417826  0.50661055  0.49640013  1
  O2-  O128  1  0.00749729  -0.03051981  0.12183540  1
  O2-  O129  1  0.01635259  -0.03400244  0.63039845  1
  O2-  O130  1  -0.00013635  0.46918959  0.13353717  1
  O2-  O131  1  -0.00344123  0.47008354  0.63567193  1
  O2-  O132  1  0.51826051  -0.03030189  0.13587901  1
  O2-  O133  1  0.51898828  -0.01421341  0.61497496  1
  O2-  O134  1  0.50592188  0.46955050  0.13765586  1
  O2-  O135  1  0.50559332  0.47763809  0.61655087  1
  O2-  O136  1  -0.01222893  0.03338961  0.36223543  1
  O2-  O137  1  -0.01761952  0.00986705  0.88537563  1
  O2-  O138  1  0.00529343  0.52445900  0.36608166  1
  O2-  O139  1  0.00247751  0.53510252  0.86468765  1
  O2-  O140  1  0.48873942  0.02501804  0.38016066  1
  O2-  O141  1  0.48621350  0.03069399  0.86741159  1
  O2-  O142  1  0.49797542  0.52862876  0.37896295  1
  O2-  O143  1  0.49966753  0.53122943  0.86279764  1
  O2-  O144  1  0.26391328  0.22688033  0.13410146  1
  O2-  O145  1  0.26709558  0.23478636  0.63702069  1
  O2-  O146  1  0.26264066  0.72421771  0.12079619  1
  O2-  O147  1  0.26319901  0.71741423  0.63285161  1
  O2-  O148  1  0.77056506  0.23972331  0.13740696  1
  O2-  O149  1  0.77340561  0.23871905  0.63646874  1
  O2-  O150  1  0.76096038  0.73226476  0.12124038  1
  O2-  O151  1  0.76268094  0.73475701  0.62083362  1
  O2-  O152  1  0.23485104  0.28436629  0.36394364  1
  O2-  O153  1  0.23640797  0.28764469  0.86700959  1
  O2-  O154  1  0.22831858  0.77049246  0.36218410  1
  O2-  O155  1  0.23307401  0.76150688  0.88355895  1
  O2-  O156  1  0.73476558  0.27178657  0.36875200  1
  O2-  O157  1  0.73098764  0.27613736  0.86624874  1
  O2-  O158  1  0.72929628  0.75755523  0.37117188  1
  O2-  O159  1  0.73383722  0.76578390  0.87600886  1
  O2-  O160  1  -0.02786795  0.25920631  0.11297341  1
  O2-  O161  1  -0.01929476  0.26541371  0.61950881  1
  O2-  O162  1  -0.03243225  0.76585434  0.11422789  1
  O2-  O163  1  -0.03999068  0.76794652  0.61291821  1
  O2-  O164  1  0.48461977  0.26404019  0.11873894  1
  O2-  O165  1  0.46609060  0.25964203  0.61067039  1
  O2-  O166  1  0.47954828  0.77271839  0.11535232  1
  O2-  O167  1  0.48433588  0.77433892  0.61125218  1
  O2-  O168  1  0.28422367  -0.01367732  0.38277806  1
  O2-  O169  1  0.26053422  -0.03562396  0.88862258  1
  O2-  O170  1  0.26383887  0.48348294  0.36791837  1
  O2-  O171  1  0.26488495  0.49133620  0.86969570  1
  O2-  O172  1  0.76634278  -0.01109635  0.37341520  1
  O2-  O173  1  0.78131638  -0.00497044  0.88670891  1
  O2-  O174  1  0.75601195  0.50003037  0.37739034  1
  O2-  O175  1  0.75972692  0.49498130  0.87622621  1
  O2-  O176  1  0.02534360  0.23443298  0.38288375  1
  O2-  O177  1  0.02385130  0.21903164  0.88559296  1
  O2-  O178  1  0.01380796  0.72980032  0.38406615  1
  O2-  O179  1  0.00932919  0.73276177  0.88729081  1
  O2-  O180  1  0.53954949  0.23857624  0.38551885  1
  O2-  O181  1  0.52230273  0.23374428  0.88042570  1
  O2-  O182  1  0.53242973  0.74043016  0.38467403  1
  O2-  O183  1  0.51560870  0.72693139  0.88396842  1
  O2-  O184  1  0.21844970  0.00983675  0.11319239  1
  O2-  O185  1  0.22580783  0.01433525  0.61465290  1
  O2-  O186  1  0.23771363  0.51803222  0.12370076  1
  O2-  O187  1  0.24897003  0.52353240  0.62015439  1
  O2-  O188  1  0.72923404  0.00184209  0.13182025  1
  O2-  O189  1  0.72259260  -0.00557181  0.61368297  1
  O2-  O190  1  0.73986996  0.50999701  0.13173202  1
  O2-  O191  1  0.74147685  0.52112609  0.62844851  1
  O2-  O192  1  0.13193557  0.27245161  0.22735467  1
  O2-  O193  1  0.13276771  0.27483841  0.73373465  1
  O2-  O194  1  0.13348929  0.75900503  0.22241476  1
  O2-  O195  1  0.13397878  0.76624954  0.74025360  1
  O2-  O196  1  0.63673445  0.27447887  0.23024311  1
  O2-  O197  1  0.63368040  0.28433611  0.72963369  1
  O2-  O198  1  0.63546276  0.77190228  0.22587090  1
  O2-  O199  1  0.63486633  0.76257290  0.73166111  1
  O2-  O200  1  0.36594279  0.23852658  0.26522085  1
  O2-  O201  1  0.36596549  0.24545411  0.77406857  1
  O2-  O202  1  0.36377412  0.72127811  0.26304804  1
  O2-  O203  1  0.36284430  0.72584175  0.77816150  1
  O2-  O204  1  0.86529876  0.23775442  0.27525414  1
  O2-  O205  1  0.86301620  0.23820628  0.77450167  1
  O2-  O206  1  0.86084997  0.73070221  0.26275096  1
  O2-  O207  1  0.86058496  0.71475558  0.76229994  1
  O2-  O208  1  0.26455588  0.38417597  0.22287058  1
  O2-  O209  1  0.26240505  0.38865606  0.72797974  1
  O2-  O210  1  0.27364650  0.86409898  0.22470372  1
  O2-  O211  1  0.27307270  0.86078829  0.72867551  1
  O2-  O212  1  0.76814768  0.38420948  0.24459060  1
  O2-  O213  1  0.76797901  0.39015475  0.73615127  1
  O2-  O214  1  0.76714698  0.87507297  0.24322363  1
  O2-  O215  1  0.77693234  0.86264043  0.73914478  1
  O2-  O216  1  0.22553862  0.13316229  0.27878003  1
  O2-  O217  1  0.23162099  0.13461103  0.77676771  1
  O2-  O218  1  0.22928669  0.61642651  0.26101855  1
  O2-  O219  1  0.22485376  0.62025124  0.76329030  1
  O2-  O220  1  0.73015030  0.12441393  0.26542284  1
  O2-  O221  1  0.71462356  0.13309476  0.76340033  1
  O2-  O222  1  0.72291514  0.62575464  0.25779014  1
  O2-  O223  1  0.72141666  0.62190881  0.76479290  1
  O2-  O224  1  0.12641762  0.47948152  0.25412941  1
  O2-  O225  1  0.12616106  0.48630024  0.75170439  1
  O2-  O226  1  0.11306348  0.97142892  0.26381797  1
  O2-  O227  1  0.11596179  0.97471573  0.77217508  1
  O2-  O228  1  0.62585838  0.48589634  0.26345716  1
  O2-  O229  1  0.62310808  0.48505099  0.75473762  1
  O2-  O230  1  0.63113621  0.98229405  0.27058496  1
  O2-  O231  1  0.61491338  0.97545885  0.76416762  1
  O2-  O232  1  0.38601663  0.02255961  0.22781942  1
  O2-  O233  1  0.38309440  0.01759512  0.72440803  1
  O2-  O234  1  0.37384431  0.51659679  0.24122441  1
  O2-  O235  1  0.37130657  0.52265289  0.74002299  1
  O2-  O236  1  0.86471842  0.02103916  0.23473685  1
  O2-  O237  1  0.88402484  0.02429854  0.72769671  1
  O2-  O238  1  0.86778964  0.52433470  0.24706540  1
  O2-  O239  1  0.87094414  0.52521013  0.74753310  1
  O2-  O240  1  0.48575443  0.38720291  0.28423019  1
  O2-  O241  1  0.47579763  0.39113565  0.76217205  1
  O2-  O242  1  0.48521649  0.88708380  0.28341738  1
  O2-  O243  1  0.47750191  0.88396363  0.76470520  1
  O2-  O244  1  0.97393640  0.38539147  0.27335366  1
  O2-  O245  1  0.98248592  0.38824615  0.77997353  1
  O2-  O246  1  0.96673338  0.88671180  0.26690310  1
  O2-  O247  1  0.97174193  0.88263554  0.77276085  1
  O2-  O248  1  0.01054333  0.11110927  0.21245567  1
  O2-  O249  1  0.02462545  0.11178856  0.73649495  1
  O2-  O250  1  0.01080979  0.61376344  0.22519363  1
  O2-  O251  1  0.01236230  0.61696253  0.71761673  1
  O2-  O252  1  0.53035829  0.11325566  0.23778349  1
  O2-  O253  1  0.51849330  0.11705610  0.72338203  1
  O2-  O254  1  0.51567639  0.61455500  0.22990641  1
  O2-  O255  1  0.50847635  0.61441518  0.71097055  1
  O2-  O256  1  0.13728089  0.48329156  -0.01656564  1
  O2-  O257  1  0.13874747  0.47458736  0.49653655  1
  O2-  O258  1  0.11828936  0.97952052  -0.01439671  1
  O2-  O259  1  0.13493728  0.97872715  0.46857539  1
  O2-  O260  1  0.63767061  0.49157077  -0.00138192  1
  O2-  O261  1  0.62399829  0.49212729  0.49173935  1
  O2-  O262  1  0.63867273  0.96894766  -0.02060690  1
  O2-  O263  1  0.62267196  0.98181670  0.47741701  1
  O2-  O264  1  0.36516887  0.01366602  0.02535533  1
  O2-  O265  1  0.38418716  0.01782163  0.51867265  1
  O2-  O266  1  0.36492266  0.53244966  0.00556264  1
  O2-  O267  1  0.38526168  0.52742656  0.50491997  1
  O2-  O268  1  0.87304606  0.00226374  0.02518185  1
  O2-  O269  1  0.86124843  0.01533903  0.51742260  1
  O2-  O270  1  0.86376387  0.54078621  0.00904256  1
  O2-  O271  1  0.86390998  0.53710955  0.50463186  1
  O2-  O272  1  0.47684735  0.36755190  -0.02315754  1
  O2-  O273  1  0.48711911  0.38311698  0.47599441  1
  O2-  O274  1  0.48045554  0.86489930  -0.02745501  1
  O2-  O275  1  0.48658963  0.88035847  0.48021216  1
  O2-  O276  1  0.98315093  0.36554481  -0.03243522  1
  O2-  O277  1  0.97878765  0.36702357  0.47927473  1
  O2-  O278  1  0.98759853  0.87145224  -0.01589428  1
  O2-  O279  1  0.97681276  0.86602929  0.47150281  1
  O2-  O280  1  0.01173603  0.11179361  0.02094762  1
  O2-  O281  1  0.02268023  0.13094443  0.52364264  1
  O2-  O282  1  0.01623035  0.63457494  0.02631742  1
  O2-  O283  1  0.01662626  0.63555180  0.52327052  1
  O2-  O284  1  0.53068679  0.13204474  0.01944747  1
  O2-  O285  1  0.52163525  0.12529842  0.51479212  1
  O2-  O286  1  0.51221305  0.63454465  0.02662272  1
  O2-  O287  1  0.52004207  0.62994315  0.51958524  1
  O2-  O288  1  0.11394628  0.26124423  0.02490076  1
  O2-  O289  1  0.11987164  0.27188336  0.51871141  1
  O2-  O290  1  0.12287852  0.76643737  0.01910882  1
  O2-  O291  1  0.11536541  0.77612147  0.52495223  1
  O2-  O292  1  0.61956685  0.28144329  0.01342330  1
  O2-  O293  1  0.61371033  0.27879083  0.52775928  1
  O2-  O294  1  0.62455164  0.76762877  0.01234326  1
  O2-  O295  1  0.62817820  0.76966886  0.51711720  1
  O2-  O296  1  0.38429493  0.22279426  -0.01325928  1
  O2-  O297  1  0.39020359  0.23689648  0.46406344  1
  O2-  O298  1  0.36988967  0.73417271  -0.01431387  1
  O2-  O299  1  0.38798321  0.73449278  0.47231952  1
  O2-  O300  1  0.88291776  0.22186190  -0.02267498  1
  O2-  O301  1  0.88217260  0.22561041  0.48172342  1
  O2-  O302  1  0.86830855  0.73694601  -0.01866890  1
  O2-  O303  1  0.86210621  0.73109179  0.47650519  1
  O2-  O304  1  0.27422324  0.38717912  0.01983238  1
  O2-  O305  1  0.29020853  0.39065270  0.51073499  1
  O2-  O306  1  0.26092144  0.86562109  0.02404378  1
  O2-  O307  1  0.27591845  0.88340661  0.52072344  1
  O2-  O308  1  0.78354375  0.38853809  0.01369421  1
  O2-  O309  1  0.76765452  0.39363987  0.51763030  1
  O2-  O310  1  0.76531000  0.86851677  0.01868334  1
  O2-  O311  1  0.76399269  0.86908756  0.50300364  1
  O2-  O312  1  0.23335748  0.11240246  -0.03016565  1
  O2-  O313  1  0.24234967  0.11735292  0.48172668  1
  O2-  O314  1  0.22757152  0.62893325  -0.01150553  1
  O2-  O315  1  0.24145174  0.61331734  0.46921450  1
  O2-  O316  1  0.72851176  0.11198991  0.00022878  1
  O2-  O317  1  0.72402327  0.11399317  0.48701671  1
  O2-  O318  1  0.72695527  0.63355888  -0.01047036  1
  O2-  O319  1  0.72087828  0.62986470  0.49304471  1
