# generated using pymatgen
data_Sr64Ca21Nb43O192
_symmetry_space_group_name_H-M   'P 1'
_cell_length_a   16.55901995
_cell_length_b   16.55178378
_cell_length_c   16.72420951
_cell_angle_alpha   89.99857178
_cell_angle_beta   90.01434852
_cell_angle_gamma   89.94104095
_symmetry_Int_Tables_number   1
_chemical_formula_structural   Sr64Ca21Nb43O192
_chemical_formula_sum   'Sr64 Ca21 Nb43 O192'
_cell_volume   4583.79081200
_cell_formula_units_Z   1
loop_
 _symmetry_equiv_pos_site_id
 _symmetry_equiv_pos_as_xyz
  1  'x, y, z'
loop_
 _atom_type_symbol
 _atom_type_oxidation_number
  Sr2+  2.0
  Ca2+  2.0
  Nb5+  5.0
  O2-  -2.0
loop_
 _atom_site_type_symbol
 _atom_site_label
 _atom_site_symmetry_multiplicity
 _atom_site_fract_x
 _atom_site_fract_y
 _atom_site_fract_z
 _atom_site_occupancy
  Sr2+  Sr0  1  0.13479805  0.12860147  0.13000652  1
  Sr2+  Sr1  1  0.12355192  0.12358182  0.62138797  1
  Sr2+  Sr2  1  0.11863697  0.62859169  0.13077814  1
  Sr2+  Sr3  1  0.12550294  0.62936032  0.62893869  1
  Sr2+  Sr4  1  0.62888295  0.12065854  0.12348757  1
  Sr2+  Sr5  1  0.63686866  0.11933800  0.62798841  1
  Sr2+  Sr6  1  0.62456744  0.61420455  0.12920006  1
  Sr2+  Sr7  1  0.63700416  0.61815840  0.62792377  1
  Sr2+  Sr8  1  0.37182915  0.37273342  0.13348002  1
  Sr2+  Sr9  1  0.37369726  0.36677880  0.62714088  1
  Sr2+  Sr10  1  0.37001448  0.88490020  0.13232610  1
  Sr2+  Sr11  1  0.37422664  0.87702835  0.61267818  1
  Sr2+  Sr12  1  0.87206576  0.38942804  0.12341550  1
  Sr2+  Sr13  1  0.87095654  0.39855561  0.62712703  1
  Sr2+  Sr14  1  0.86969585  0.88533301  0.12697422  1
  Sr2+  Sr15  1  0.87282659  0.89532286  0.62467436  1
  Sr2+  Sr16  1  0.12116560  0.37551766  0.37429368  1
  Sr2+  Sr17  1  0.13495861  0.38170366  0.87549512  1
  Sr2+  Sr18  1  0.12120282  0.87456196  0.36644809  1
  Sr2+  Sr19  1  0.12810333  0.86515819  0.87254211  1
  Sr2+  Sr20  1  0.60993329  0.37904805  0.37503770  1
  Sr2+  Sr21  1  0.62161468  0.36964772  0.87943033  1
  Sr2+  Sr22  1  0.61346349  0.86564274  0.37201585  1
  Sr2+  Sr23  1  0.62322334  0.86948337  0.87501168  1
  Sr2+  Sr24  1  0.36657210  0.13205197  0.36841753  1
  Sr2+  Sr25  1  0.37834134  0.12732062  0.87302184  1
  Sr2+  Sr26  1  0.40118370  0.62747346  0.37568882  1
  Sr2+  Sr27  1  0.39269850  0.62567642  0.87170257  1
  Sr2+  Sr28  1  0.88654119  0.12759873  0.37882118  1
  Sr2+  Sr29  1  0.88406650  0.12827095  0.88160235  1
  Sr2+  Sr30  1  0.89331417  0.62569087  0.37596002  1
  Sr2+  Sr31  1  0.89363804  0.62197742  0.87536110  1
  Sr2+  Sr32  1  0.12981504  0.13375753  0.37027577  1
  Sr2+  Sr33  1  0.13178844  0.12468868  0.88494344  1
  Sr2+  Sr34  1  0.13140002  0.62966079  0.38131651  1
  Sr2+  Sr35  1  0.13285749  0.62263212  0.87177334  1
  Sr2+  Sr36  1  0.62758258  0.12479274  0.38435160  1
  Sr2+  Sr37  1  0.61729212  0.11546923  0.87522307  1
  Sr2+  Sr38  1  0.62581714  0.62473198  0.36124264  1
  Sr2+  Sr39  1  0.62458706  0.63012517  0.88227650  1
  Sr2+  Sr40  1  0.36703061  0.38734442  0.37725700  1
  Sr2+  Sr41  1  0.36828928  0.37600706  0.86775471  1
  Sr2+  Sr42  1  0.36120100  0.86101824  0.37480480  1
  Sr2+  Sr43  1  0.37483075  0.88063969  0.88310230  1
  Sr2+  Sr44  1  0.87471611  0.38649133  0.37158543  1
  Sr2+  Sr45  1  0.87072928  0.38115039  0.88805924  1
  Sr2+  Sr46  1  0.87492432  0.87836052  0.36621270  1
  Sr2+  Sr47  1  0.87562818  0.86444336  0.87471214  1
  Sr2+  Sr48  1  0.11054381  0.36369889  0.13116646  1
  Sr2+  Sr49  1  0.13811022  0.38020136  0.62909240  1
  Sr2+  Sr50  1  0.13787080  0.88465933  0.12694649  1
  Sr2+  Sr51  1  0.12043478  0.88199499  0.62271149  1
  Sr2+  Sr52  1  0.63517783  0.37127762  0.13069965  1
  Sr2+  Sr53  1  0.63609723  0.36174414  0.62618048  1
  Sr2+  Sr54  1  0.63020042  0.87666679  0.11811164  1
  Sr2+  Sr55  1  0.63565803  0.87896683  0.63141288  1
  Sr2+  Sr56  1  0.37410536  0.12148041  0.12356051  1
  Sr2+  Sr57  1  0.39187253  0.13347801  0.62711943  1
  Sr2+  Sr58  1  0.37965308  0.61628675  0.13810256  1
  Sr2+  Sr59  1  0.38418211  0.62713125  0.61807569  1
  Sr2+  Sr60  1  0.88800746  0.13325591  0.12313554  1
  Sr2+  Sr61  1  0.87457006  0.12658648  0.62047539  1
  Sr2+  Sr62  1  0.86470270  0.62811201  0.13795336  1
  Sr2+  Sr63  1  0.87772064  0.62626411  0.62250704  1
  Ca2+  Ca64  1  0.50287691  0.50034267  0.50538019  1
  Ca2+  Ca65  1  0.49393788  0.49859722  0.00043137  1
  Ca2+  Ca66  1  0.00690045  0.49920549  -0.00013954  1
  Ca2+  Ca67  1  -0.00050131  -0.00503782  -0.00173492  1
  Ca2+  Ca68  1  0.50010674  0.00145093  0.49845892  1
  Ca2+  Ca69  1  0.25213884  0.74413573  0.00188747  1
  Ca2+  Ca70  1  0.25012902  0.24857694  0.50253806  1
  Ca2+  Ca71  1  0.74933243  0.74919807  0.49967012  1
  Ca2+  Ca72  1  0.24774863  0.74840272  0.50105837  1
  Ca2+  Ca73  1  0.25497721  0.25713860  0.00179461  1
  Ca2+  Ca74  1  0.50133611  0.24717462  0.24667884  1
  Ca2+  Ca75  1  0.74876970  0.49996524  0.75349269  1
  Ca2+  Ca76  1  -0.00094923  0.25151815  0.74853047  1
  Ca2+  Ca77  1  0.49642409  0.75527085  0.24457738  1
  Ca2+  Ca78  1  0.75375705  0.00178138  0.75308566  1
  Ca2+  Ca79  1  0.74935057  0.00527759  0.24915307  1
  Ca2+  Ca80  1  0.24581597  0.50166676  0.25551265  1
  Ca2+  Ca81  1  -0.00631850  0.24889083  0.25195002  1
  Ca2+  Ca82  1  0.74886497  0.49670800  0.25245955  1
  Ca2+  Ca83  1  -0.00015514  0.74927343  0.24890599  1
  Ca2+  Ca84  1  0.25057891  0.00103375  0.74934392  1
  Nb5+  Nb85  1  0.00423735  0.00532128  0.49646497  1
  Nb5+  Nb86  1  0.00216179  0.50312015  0.50053879  1
  Nb5+  Nb87  1  0.50329732  -0.00063257  -0.00032803  1
  Nb5+  Nb88  1  0.75263807  0.24983477  0.50503673  1
  Nb5+  Nb89  1  0.75000411  0.24973709  0.00564759  1
  Nb5+  Nb90  1  0.75172592  0.75357515  -0.00076395  1
  Nb5+  Nb91  1  0.25504040  0.50541365  0.75056640  1
  Nb5+  Nb92  1  0.25094535  0.00218388  0.25360395  1
  Nb5+  Nb93  1  0.50602463  0.24527543  0.74950308  1
  Nb5+  Nb94  1  0.50578057  0.74698718  0.74529319  1
  Nb5+  Nb95  1  0.00578400  0.75239558  0.74722867  1
  Nb5+  Nb96  1  -0.00007367  0.00176582  0.24358712  1
  Nb5+  Nb97  1  0.00257698  0.00169460  0.75391461  1
  Nb5+  Nb98  1  -0.00073540  0.50112379  0.24686368  1
  Nb5+  Nb99  1  0.00325577  0.49777589  0.74880647  1
  Nb5+  Nb100  1  0.50063676  0.00369034  0.25618820  1
  Nb5+  Nb101  1  0.49912980  -0.00974172  0.74968817  1
  Nb5+  Nb102  1  0.49651422  0.49641739  0.25038739  1
  Nb5+  Nb103  1  0.50269246  0.49297668  0.74638551  1
  Nb5+  Nb104  1  0.25066905  0.25671066  0.25118290  1
  Nb5+  Nb105  1  0.24581470  0.24813699  0.75158345  1
  Nb5+  Nb106  1  0.24633219  0.74583568  0.24891291  1
  Nb5+  Nb107  1  0.26235305  0.75294853  0.75264497  1
  Nb5+  Nb108  1  0.74773234  0.24828763  0.26127407  1
  Nb5+  Nb109  1  0.75511545  0.24660800  0.75790188  1
  Nb5+  Nb110  1  0.74568069  0.75289328  0.25354971  1
  Nb5+  Nb111  1  0.75652707  0.74444942  0.74961947  1
  Nb5+  Nb112  1  -0.00150109  0.26067629  0.50523607  1
  Nb5+  Nb113  1  0.00493779  0.25106733  0.99352613  1
  Nb5+  Nb114  1  -0.00312203  0.75800923  0.50269025  1
  Nb5+  Nb115  1  0.00168631  0.74989243  1.00352144  1
  Nb5+  Nb116  1  0.49995854  0.24534770  0.49434620  1
  Nb5+  Nb117  1  0.50081250  0.25190174  0.99802465  1
  Nb5+  Nb118  1  0.50386662  0.75251914  0.50016146  1
  Nb5+  Nb119  1  0.49754411  0.75260712  1.00020942  1
  Nb5+  Nb120  1  0.24935890  0.00032634  -0.00292504  1
  Nb5+  Nb121  1  0.25116434  0.00293861  0.50401489  1
  Nb5+  Nb122  1  0.25236852  0.50184781  0.01024230  1
  Nb5+  Nb123  1  0.25251514  0.50294785  0.50164766  1
  Nb5+  Nb124  1  0.75344889  0.00533217  -0.00185176  1
  Nb5+  Nb125  1  0.75208050  -0.00331911  0.49201995  1
  Nb5+  Nb126  1  0.74626752  0.50666226  -0.00095305  1
  Nb5+  Nb127  1  0.74513331  0.50082186  0.49847945  1
  O2-  O128  1  0.03115016  0.01089028  0.13265682  1
  O2-  O129  1  0.02279474  0.00774410  0.61840774  1
  O2-  O130  1  -0.01072295  0.52736197  0.13424317  1
  O2-  O131  1  -0.01106812  0.52194775  0.62136461  1
  O2-  O132  1  0.51179105  -0.02581877  0.11332460  1
  O2-  O133  1  0.51708754  -0.02185130  0.63558841  1
  O2-  O134  1  0.46945395  0.48418496  0.13375425  1
  O2-  O135  1  0.46096372  0.49111732  0.63741417  1
  O2-  O136  1  -0.01477073  -0.01819412  0.38091804  1
  O2-  O137  1  -0.02349987  -0.01981254  0.86323871  1
  O2-  O138  1  0.00650108  0.47496446  0.38510782  1
  O2-  O139  1  0.01791577  0.48100153  0.86222767  1
  O2-  O140  1  0.48967527  0.03788552  0.36432096  1
  O2-  O141  1  0.48527288  0.01729095  0.87437631  1
  O2-  O142  1  0.52180844  0.51872570  0.37015738  1
  O2-  O143  1  0.51406269  0.52554838  0.85984939  1
  O2-  O144  1  0.22649502  0.25854771  0.13349621  1
  O2-  O145  1  0.26602093  0.24392788  0.63695646  1
  O2-  O146  1  0.27888092  0.75071323  0.13501865  1
  O2-  O147  1  0.26221564  0.75362072  0.63728423  1
  O2-  O148  1  0.73659087  0.23455011  0.11901173  1
  O2-  O149  1  0.74182553  0.23522663  0.62358580  1
  O2-  O150  1  0.75893086  0.74426281  0.11568661  1
  O2-  O151  1  0.75516377  0.72466197  0.63546833  1
  O2-  O152  1  0.26466626  0.24960952  0.36987722  1
  O2-  O153  1  0.26801199  0.25804179  0.86622198  1
  O2-  O154  1  0.22046554  0.75969399  0.36705946  1
  O2-  O155  1  0.22453007  0.74643767  0.86548869  1
  O2-  O156  1  0.75796069  0.25549759  0.37801638  1
  O2-  O157  1  0.75746536  0.26298159  0.87422982  1
  O2-  O158  1  0.72625856  0.75935255  0.36596218  1
  O2-  O159  1  0.73718309  0.76205539  0.87528489  1
  O2-  O160  1  0.01357863  0.22574354  0.11289630  1
  O2-  O161  1  -0.00078047  0.21675794  0.61469702  1
  O2-  O162  1  -0.01372936  0.72160020  0.11329112  1
  O2-  O163  1  -0.01434981  0.73095868  0.63145356  1
  O2-  O164  1  0.50989049  0.27619141  0.10953810  1
  O2-  O165  1  0.50324855  0.27219443  0.63224547  1
  O2-  O166  1  0.47878352  0.77613143  0.10932742  1
  O2-  O167  1  0.48166816  0.77470063  0.63324570  1
  O2-  O168  1  0.26478161  0.00520289  0.37263745  1
  O2-  O169  1  0.27378350  0.01018373  0.88478524  1
  O2-  O170  1  0.22511794  0.48887547  0.39026957  1
  O2-  O171  1  0.23305880  0.49823117  0.86852943  1
  O2-  O172  1  0.78766095  0.00898541  0.38074194  1
  O2-  O173  1  0.77732099  -0.01235510  0.88508313  1
  O2-  O174  1  0.73832273  0.46711807  0.38595035  1
  O2-  O175  1  0.72640264  0.47803523  0.88535052  1
  O2-  O176  1  -0.01721280  0.26388889  0.38938380  1
  O2-  O177  1  -0.02847175  0.26979573  0.88092519  1
  O2-  O178  1  0.00919085  0.76490748  0.38840184  1
  O2-  O179  1  0.00489944  0.76868933  0.86657088  1
  O2-  O180  1  0.50537168  0.22044245  0.38299078  1
  O2-  O181  1  0.50649350  0.22591786  0.87004431  1
  O2-  O182  1  0.52180981  0.73489231  0.38550172  1
  O2-  O183  1  0.51830574  0.73765051  0.86477627  1
  O2-  O184  1  0.24091111  0.00110359  0.12828737  1
  O2-  O185  1  0.22551033  -0.00334226  0.61626735  1
  O2-  O186  1  0.27103822  0.50338695  0.12232049  1
  O2-  O187  1  0.26240752  0.50962653  0.63059974  1
  O2-  O188  1  0.72258089  -0.00195252  0.11275834  1
  O2-  O189  1  0.73816783  0.00379764  0.61194028  1
  O2-  O190  1  0.77223736  0.50672539  0.11514135  1
  O2-  O191  1  0.76999597  0.51475403  0.61566528  1
  O2-  O192  1  0.13056489  0.26388608  0.26948398  1
  O2-  O193  1  0.13504792  0.28075615  0.75271598  1
  O2-  O194  1  0.13162429  0.77616612  0.22279566  1
  O2-  O195  1  0.12071630  0.76622509  0.73523608  1
  O2-  O196  1  0.63280820  0.28511792  0.25766913  1
  O2-  O197  1  0.62250738  0.27603080  0.75592299  1
  O2-  O198  1  0.63042881  0.77975763  0.22998859  1
  O2-  O199  1  0.62002583  0.76889294  0.73609802  1
  O2-  O200  1  0.36472383  0.22313932  0.23401956  1
  O2-  O201  1  0.38539133  0.24075513  0.75183216  1
  O2-  O202  1  0.36246670  0.73565038  0.27908943  1
  O2-  O203  1  0.37726399  0.73131218  0.76385084  1
  O2-  O204  1  0.85997835  0.20939843  0.24759411  1
  O2-  O205  1  0.86456122  0.21349335  0.74853459  1
  O2-  O206  1  0.86356871  0.72323099  0.25989614  1
  O2-  O207  1  0.87174161  0.72860709  0.76490076  1
  O2-  O208  1  0.27715467  0.36894379  0.25282050  1
  O2-  O209  1  0.26606663  0.38248337  0.74311175  1
  O2-  O210  1  0.26477336  0.88229432  0.24963588  1
  O2-  O211  1  0.27680567  0.86753315  0.76157853  1
  O2-  O212  1  0.77742086  0.35984700  0.23282802  1
  O2-  O213  1  0.76614032  0.36223334  0.73285705  1
  O2-  O214  1  0.77754469  0.86807104  0.24241863  1
  O2-  O215  1  0.76036931  0.86286418  0.73685495  1
  O2-  O216  1  0.22924862  0.12227463  0.25140366  1
  O2-  O217  1  0.22125672  0.13509039  0.75756133  1
  O2-  O218  1  0.21700172  0.63378137  0.24757052  1
  O2-  O219  1  0.23721864  0.62580031  0.75015852  1
  O2-  O220  1  0.70511523  0.13597777  0.25623041  1
  O2-  O221  1  0.71504594  0.13560467  0.75947352  1
  O2-  O222  1  0.72140504  0.63389752  0.24371410  1
  O2-  O223  1  0.71926869  0.63329836  0.76819375  1
  O2-  O224  1  0.11334427  0.46766644  0.24304644  1
  O2-  O225  1  0.12778743  0.49570143  0.73218708  1
  O2-  O226  1  0.12928409  0.98417033  0.26328642  1
  O2-  O227  1  0.11466332  0.96237198  0.75777891  1
  O2-  O228  1  0.61448159  0.48099706  0.23028457  1
  O2-  O229  1  0.61346805  0.48733645  0.71734732  1
  O2-  O230  1  0.61267141  0.97664974  0.26286351  1
  O2-  O231  1  0.61581329  0.98721938  0.77202623  1
  O2-  O232  1  0.36888371  0.02033315  0.23616104  1
  O2-  O233  1  0.38745943  0.02767037  0.73628377  1
  O2-  O234  1  0.37960523  0.52261926  0.27491242  1
  O2-  O235  1  0.37160142  0.51444877  0.77076488  1
  O2-  O236  1  0.88636811  0.01762934  0.22179935  1
  O2-  O237  1  0.88839666  0.01391546  0.72102498  1
  O2-  O238  1  0.88250249  0.51900873  0.27234751  1
  O2-  O239  1  0.88685914  0.51571724  0.76018946  1
  O2-  O240  1  0.47526221  0.38121813  0.27526576  1
  O2-  O241  1  0.48950693  0.37872484  0.77019706  1
  O2-  O242  1  0.46691216  0.89038685  0.26527890  1
  O2-  O243  1  0.48124210  0.87574297  0.76994937  1
  O2-  O244  1  0.97274964  0.38262056  0.23553433  1
  O2-  O245  1  0.99419077  0.38666970  0.71820421  1
  O2-  O246  1  0.98154794  0.88412820  0.24671661  1
  O2-  O247  1  0.97717899  0.86663342  0.73094285  1
  O2-  O248  1  0.01394591  0.11341124  0.27865858  1
  O2-  O249  1  0.02880157  0.11329416  0.76882355  1
  O2-  O250  1  0.02362386  0.61418533  0.27941000  1
  O2-  O251  1  0.01669508  0.62825282  0.76251748  1
  O2-  O252  1  0.50744371  0.11161757  0.20766576  1
  O2-  O253  1  0.52114389  0.13063443  0.73210158  1
  O2-  O254  1  0.51117791  0.61999325  0.22928955  1
  O2-  O255  1  0.50961185  0.63130117  0.72659535  1
  O2-  O256  1  0.13936730  0.45542630  0.01143070  1
  O2-  O257  1  0.11580201  0.47645019  0.51797605  1
  O2-  O258  1  0.13571063  0.98133555  -0.02224804  1
  O2-  O259  1  0.11907115  0.97062703  0.48426071  1
  O2-  O260  1  0.63160542  0.48392933  0.02421702  1
  O2-  O261  1  0.63558957  0.47270879  0.52438983  1
  O2-  O262  1  0.62568501  0.98698943  -0.02350861  1
  O2-  O263  1  0.63858268  0.98535410  0.46770853  1
  O2-  O264  1  0.38405097  0.01165731  0.01176813  1
  O2-  O265  1  0.36330602  0.02890712  0.51891952  1
  O2-  O266  1  0.36166175  0.54564377  -0.01281472  1
  O2-  O267  1  0.36444195  0.52454355  0.48453542  1
  O2-  O268  1  0.86511870  0.01710947  0.02755566  1
  O2-  O269  1  0.88493886  0.01718887  0.51743228  1
  O2-  O270  1  0.86555155  0.50520001  -0.02430582  1
  O2-  O271  1  0.87675898  0.50824579  0.48804733  1
  O2-  O272  1  0.48952268  0.36213192  -0.03589039  1
  O2-  O273  1  0.48478473  0.36319000  0.48364695  1
  O2-  O274  1  0.49935699  0.87832730  -0.02865286  1
  O2-  O275  1  0.46898502  0.86875653  0.48510176  1
  O2-  O276  1  0.97840472  0.36380349  0.02162430  1
  O2-  O277  1  0.97670296  0.37332329  0.52373845  1
  O2-  O278  1  0.96027954  0.86103431  0.00558135  1
  O2-  O279  1  0.97999799  0.87199014  0.51910785  1
  O2-  O280  1  0.00557916  0.13075015  -0.02810602  1
  O2-  O281  1  0.01909846  0.11958723  0.48107083  1
  O2-  O282  1  0.01311124  0.63643697  -0.03153052  1
  O2-  O283  1  0.01605871  0.61748182  0.48381894  1
  O2-  O284  1  0.52400378  0.11849196  0.00920353  1
  O2-  O285  1  0.52719881  0.13496236  0.53200778  1
  O2-  O286  1  0.51792811  0.63871622  0.01150604  1
  O2-  O287  1  0.52209737  0.63809226  0.53257847  1
  O2-  O288  1  0.11775870  0.26318345  -0.02727030  1
  O2-  O289  1  0.11339359  0.27450076  0.50091480  1
  O2-  O290  1  0.11238740  0.78095748  0.01110239  1
  O2-  O291  1  0.11056579  0.75663152  0.52904803  1
  O2-  O292  1  0.62842181  0.25618026  -0.01335071  1
  O2-  O293  1  0.63150305  0.26739334  0.49390760  1
  O2-  O294  1  0.62669669  0.76622214  0.00176209  1
  O2-  O295  1  0.61612160  0.78767430  0.51859594  1
  O2-  O296  1  0.39009412  0.21916942  0.00084574  1
  O2-  O297  1  0.38678438  0.22400620  0.50445043  1
  O2-  O298  1  0.38749204  0.74687147  -0.03456155  1
  O2-  O299  1  0.38413808  0.72520721  0.49461593  1
  O2-  O300  1  0.86586342  0.22737692  0.00474346  1
  O2-  O301  1  0.87134374  0.22744841  0.50500197  1
  O2-  O302  1  0.86559936  0.72724876  -0.01828335  1
  O2-  O303  1  0.88484278  0.71890700  0.49824116  1
  O2-  O304  1  0.29682286  0.38879882  -0.00223424  1
  O2-  O305  1  0.26512770  0.38528053  0.52118208  1
  O2-  O306  1  0.27283321  0.88450935  0.00839337  1
  O2-  O307  1  0.26936325  0.88533140  0.49610095  1
  O2-  O308  1  0.76204099  0.36661941  0.01159313  1
  O2-  O309  1  0.77170478  0.36633140  0.51749336  1
  O2-  O310  1  0.76316974  0.87156783  0.00600997  1
  O2-  O311  1  0.78048549  0.88400389  0.49880359  1
  O2-  O312  1  0.23550638  0.11824405  0.01149138  1
  O2-  O313  1  0.21202490  0.11522424  0.49492025  1
  O2-  O314  1  0.20340263  0.61321068  0.00674454  1
  O2-  O315  1  0.21523692  0.61438932  0.50892784  1
  O2-  O316  1  0.73366142  0.12247890  -0.01558483  1
  O2-  O317  1  0.73666830  0.12692370  0.49442771  1
  O2-  O318  1  0.72993422  0.62408114  -0.00775350  1
  O2-  O319  1  0.72405800  0.61249149  0.47961382  1
