# generated using pymatgen
data_Sr64Ca21Nb43O192
_symmetry_space_group_name_H-M   'P 1'
_cell_length_a   16.60130049
_cell_length_b   16.61505276
_cell_length_c   16.73671188
_cell_angle_alpha   90.05017534
_cell_angle_beta   89.93910538
_cell_angle_gamma   89.96894767
_symmetry_Int_Tables_number   1
_chemical_formula_structural   Sr64Ca21Nb43O192
_chemical_formula_sum   'Sr64 Ca21 Nb43 O192'
_cell_volume   4616.50700892
_cell_formula_units_Z   1
loop_
 _symmetry_equiv_pos_site_id
 _symmetry_equiv_pos_as_xyz
  1  'x, y, z'
loop_
 _atom_type_symbol
 _atom_type_oxidation_number
  Sr2+  2.0
  Ca2+  2.0
  Nb5+  5.0
  O2-  -2.0
loop_
 _atom_site_type_symbol
 _atom_site_label
 _atom_site_symmetry_multiplicity
 _atom_site_fract_x
 _atom_site_fract_y
 _atom_site_fract_z
 _atom_site_occupancy
  Sr2+  Sr0  1  0.13637763  0.12033327  0.12292446  1
  Sr2+  Sr1  1  0.13541874  0.14115451  0.62251810  1
  Sr2+  Sr2  1  0.12574122  0.63812475  0.12117616  1
  Sr2+  Sr3  1  0.13238423  0.63807212  0.63053545  1
  Sr2+  Sr4  1  0.63643729  0.12249687  0.11371307  1
  Sr2+  Sr5  1  0.63183422  0.12331663  0.62522478  1
  Sr2+  Sr6  1  0.63311823  0.63446486  0.12924289  1
  Sr2+  Sr7  1  0.62627875  0.63632738  0.62104228  1
  Sr2+  Sr8  1  0.38104304  0.39047051  0.12378343  1
  Sr2+  Sr9  1  0.37669906  0.38193818  0.62947395  1
  Sr2+  Sr10  1  0.37526782  0.86949408  0.13246924  1
  Sr2+  Sr11  1  0.38315391  0.88490633  0.63681356  1
  Sr2+  Sr12  1  0.87725022  0.38343579  0.12792180  1
  Sr2+  Sr13  1  0.87636895  0.38637056  0.61923932  1
  Sr2+  Sr14  1  0.88424469  0.88243582  0.13503761  1
  Sr2+  Sr15  1  0.88409385  0.87010053  0.62254415  1
  Sr2+  Sr16  1  0.11106547  0.35636742  0.37589320  1
  Sr2+  Sr17  1  0.10890685  0.37337707  0.87129510  1
  Sr2+  Sr18  1  0.11592841  0.87673025  0.37489107  1
  Sr2+  Sr19  1  0.11449280  0.87516453  0.87405705  1
  Sr2+  Sr20  1  0.61511260  0.37065472  0.36921548  1
  Sr2+  Sr21  1  0.61947215  0.36696697  0.87417192  1
  Sr2+  Sr22  1  0.61291863  0.87149499  0.37223009  1
  Sr2+  Sr23  1  0.61680268  0.87915563  0.86809440  1
  Sr2+  Sr24  1  0.36240156  0.11695917  0.37478497  1
  Sr2+  Sr25  1  0.37849556  0.11535351  0.86844049  1
  Sr2+  Sr26  1  0.36948326  0.61996590  0.37285391  1
  Sr2+  Sr27  1  0.35639683  0.61669361  0.88121939  1
  Sr2+  Sr28  1  0.87117685  0.11555485  0.37812259  1
  Sr2+  Sr29  1  0.87794314  0.12321801  0.87534576  1
  Sr2+  Sr30  1  0.85687641  0.61695485  0.37884400  1
  Sr2+  Sr31  1  0.86798277  0.61636413  0.86909209  1
  Sr2+  Sr32  1  0.12196430  0.11671159  0.37094438  1
  Sr2+  Sr33  1  0.11748062  0.12701370  0.88021389  1
  Sr2+  Sr34  1  0.12244232  0.61104299  0.38245076  1
  Sr2+  Sr35  1  0.11959888  0.62426030  0.87526214  1
  Sr2+  Sr36  1  0.61837534  0.11631043  0.38155968  1
  Sr2+  Sr37  1  0.62409897  0.11991137  0.87295500  1
  Sr2+  Sr38  1  0.61939956  0.62253590  0.37444956  1
  Sr2+  Sr39  1  0.62565785  0.61346161  0.88099997  1
  Sr2+  Sr40  1  0.37043175  0.35946982  0.37471803  1
  Sr2+  Sr41  1  0.36676543  0.36858780  0.87353330  1
  Sr2+  Sr42  1  0.36589251  0.86830506  0.36936755  1
  Sr2+  Sr43  1  0.36679485  0.86765268  0.87453529  1
  Sr2+  Sr44  1  0.86435388  0.36436332  0.36792125  1
  Sr2+  Sr45  1  0.87310081  0.36055295  0.87119906  1
  Sr2+  Sr46  1  0.87168908  0.86891302  0.38095420  1
  Sr2+  Sr47  1  0.86178670  0.87435183  0.86389997  1
  Sr2+  Sr48  1  0.11980308  0.37887015  0.13554704  1
  Sr2+  Sr49  1  0.13353093  0.38223659  0.62283713  1
  Sr2+  Sr50  1  0.13476069  0.88333231  0.12574994  1
  Sr2+  Sr51  1  0.11258451  0.87565662  0.63062206  1
  Sr2+  Sr52  1  0.63095435  0.37986051  0.12364691  1
  Sr2+  Sr53  1  0.62264067  0.37674236  0.62204883  1
  Sr2+  Sr54  1  0.61513320  0.87467689  0.12788998  1
  Sr2+  Sr55  1  0.63225301  0.88538348  0.62446652  1
  Sr2+  Sr56  1  0.37567529  0.11134050  0.12592109  1
  Sr2+  Sr57  1  0.38033058  0.12711729  0.62909040  1
  Sr2+  Sr58  1  0.38806751  0.63835134  0.12377547  1
  Sr2+  Sr59  1  0.37934303  0.62637438  0.62443176  1
  Sr2+  Sr60  1  0.87745509  0.12939453  0.11371678  1
  Sr2+  Sr61  1  0.87666355  0.11792260  0.62626026  1
  Sr2+  Sr62  1  0.88136373  0.62659772  0.12166636  1
  Sr2+  Sr63  1  0.89327601  0.63413971  0.62156560  1
  Ca2+  Ca64  1  -0.00004155  -0.00092202  0.00137551  1
  Ca2+  Ca65  1  -0.00061020  0.49731320  0.49782889  1
  Ca2+  Ca66  1  0.49822874  -0.00088948  0.00018275  1
  Ca2+  Ca67  1  0.00232856  0.00256731  0.50335201  1
  Ca2+  Ca68  1  0.49684716  0.00003450  0.49795460  1
  Ca2+  Ca69  1  0.25210002  0.24954259  0.00022242  1
  Ca2+  Ca70  1  0.24978768  0.75101606  0.00208269  1
  Ca2+  Ca71  1  0.75274140  0.74966141  0.00043040  1
  Ca2+  Ca72  1  0.74977270  0.74596177  0.50223882  1
  Ca2+  Ca73  1  0.25301075  0.75164221  0.50357468  1
  Ca2+  Ca74  1  0.24591387  0.00187658  0.74775868  1
  Ca2+  Ca75  1  0.24992577  0.49817051  0.25039966  1
  Ca2+  Ca76  1  0.74913829  0.00296076  0.24789927  1
  Ca2+  Ca77  1  0.49708767  0.74813473  0.75112054  1
  Ca2+  Ca78  1  -0.00323815  0.24459231  0.25044229  1
  Ca2+  Ca79  1  0.74935348  0.49971009  0.74838511  1
  Ca2+  Ca80  1  0.50278374  0.25267012  0.74770621  1
  Ca2+  Ca81  1  -0.00063073  0.25343613  0.74372368  1
  Ca2+  Ca82  1  -0.00256312  0.74828130  0.25147760  1
  Ca2+  Ca83  1  0.49969483  0.25024720  0.24395353  1
  Ca2+  Ca84  1  0.75062292  0.00051995  0.75026779  1
  Nb5+  Nb85  1  0.49683097  0.50182150  0.00499451  1
  Nb5+  Nb86  1  0.50016635  0.49777436  0.50470790  1
  Nb5+  Nb87  1  -0.00635257  0.49990164  -0.00002804  1
  Nb5+  Nb88  1  0.24534496  0.25069948  0.49965543  1
  Nb5+  Nb89  1  0.74788284  0.25223210  -0.00722030  1
  Nb5+  Nb90  1  0.74168154  0.25142804  0.49350264  1
  Nb5+  Nb91  1  0.25018391  -0.00236239  0.25229260  1
  Nb5+  Nb92  1  0.24885631  0.50036807  0.75079487  1
  Nb5+  Nb93  1  0.74938871  0.49955258  0.24944509  1
  Nb5+  Nb94  1  0.49970043  0.75002236  0.25251647  1
  Nb5+  Nb95  1  -0.00075018  0.75127510  0.75602211  1
  Nb5+  Nb96  1  -0.00383681  0.00383195  0.25079721  1
  Nb5+  Nb97  1  0.00463616  0.00844076  0.74934486  1
  Nb5+  Nb98  1  -0.00075222  0.50232240  0.25559207  1
  Nb5+  Nb99  1  -0.00037160  0.50136093  0.74664215  1
  Nb5+  Nb100  1  0.50187721  0.00442894  0.24576682  1
  Nb5+  Nb101  1  0.50186522  0.00027527  0.74809936  1
  Nb5+  Nb102  1  0.49744256  0.50279023  0.25429230  1
  Nb5+  Nb103  1  0.49807251  0.50439333  0.76071018  1
  Nb5+  Nb104  1  0.25413272  0.24951014  0.24424825  1
  Nb5+  Nb105  1  0.24633741  0.25081119  0.75586366  1
  Nb5+  Nb106  1  0.24323921  0.74703899  0.25317832  1
  Nb5+  Nb107  1  0.25161826  0.75267966  0.75329011  1
  Nb5+  Nb108  1  0.74392133  0.24631836  0.24325893  1
  Nb5+  Nb109  1  0.75202290  0.25125148  0.73756712  1
  Nb5+  Nb110  1  0.75286129  0.75272351  0.25387677  1
  Nb5+  Nb111  1  0.74439997  0.74857734  0.74868599  1
  Nb5+  Nb112  1  -0.01205127  0.24968345  0.50034596  1
  Nb5+  Nb113  1  0.00493633  0.25315006  1.00494231  1
  Nb5+  Nb114  1  0.00829031  0.74577212  0.49357339  1
  Nb5+  Nb115  1  -0.00710143  0.75498210  1.00080138  1
  Nb5+  Nb116  1  0.49556650  0.24818373  0.49810996  1
  Nb5+  Nb117  1  0.49884859  0.24856266  0.99746304  1
  Nb5+  Nb118  1  0.49494800  0.75303387  0.50126744  1
  Nb5+  Nb119  1  0.50674165  0.74987697  0.99215911  1
  Nb5+  Nb120  1  0.25075840  -0.00286041  -0.00715686  1
  Nb5+  Nb121  1  0.25514099  -0.00314231  0.50457925  1
  Nb5+  Nb122  1  0.23675545  0.49546563  0.00200870  1
  Nb5+  Nb123  1  0.25134975  0.49593486  0.49537009  1
  Nb5+  Nb124  1  0.75393176  -0.00719489  0.00524445  1
  Nb5+  Nb125  1  0.75384869  -0.00501619  0.49941620  1
  Nb5+  Nb126  1  0.74690784  0.49562437  -0.00280104  1
  Nb5+  Nb127  1  0.74426493  0.49886451  0.50171979  1
  O2-  O128  1  0.00883649  -0.02898313  0.13571590  1
  O2-  O129  1  -0.00722376  -0.02783734  0.63626091  1
  O2-  O130  1  0.00745175  0.47660533  0.11765781  1
  O2-  O131  1  0.01602354  0.48217618  0.63463948  1
  O2-  O132  1  0.48830783  -0.03240333  0.13375865  1
  O2-  O133  1  0.50451371  -0.02781649  0.62931246  1
  O2-  O134  1  0.51481980  0.48380666  0.11900980  1
  O2-  O135  1  0.51112896  0.47886038  0.61711729  1
  O2-  O136  1  0.00083546  0.02358650  0.36836858  1
  O2-  O137  1  0.01014265  0.02232582  0.86810185  1
  O2-  O138  1  -0.01630491  0.53345045  0.36470973  1
  O2-  O139  1  -0.00708993  0.51956684  0.88027055  1
  O2-  O140  1  0.49358366  0.02396366  0.36183980  1
  O2-  O141  1  0.50547029  0.02540859  0.86641166  1
  O2-  O142  1  0.49029964  0.52307455  0.36816887  1
  O2-  O143  1  0.48411989  0.52839882  0.87396207  1
  O2-  O144  1  0.26531718  0.21817453  0.13442352  1
  O2-  O145  1  0.26814588  0.23439136  0.61726115  1
  O2-  O146  1  0.27281152  0.73455687  0.13854519  1
  O2-  O147  1  0.26258175  0.72034776  0.63975335  1
  O2-  O148  1  0.75846845  0.23448342  0.12806993  1
  O2-  O149  1  0.75948379  0.23447260  0.62153782  1
  O2-  O150  1  0.76232605  0.71844677  0.14136628  1
  O2-  O151  1  0.76814771  0.71253107  0.63624989  1
  O2-  O152  1  0.24068454  0.27141296  0.38129414  1
  O2-  O153  1  0.22802184  0.27677951  0.86583772  1
  O2-  O154  1  0.23919612  0.77949071  0.36676867  1
  O2-  O155  1  0.22370074  0.76428744  0.86870406  1
  O2-  O156  1  0.73564339  0.26937504  0.37918401  1
  O2-  O157  1  0.74230643  0.27336867  0.87983963  1
  O2-  O158  1  0.72028441  0.76293441  0.36770029  1
  O2-  O159  1  0.73724688  0.78235939  0.86554028  1
  O2-  O160  1  -0.02563844  0.27103350  0.11684630  1
  O2-  O161  1  -0.01437145  0.28703461  0.61187684  1
  O2-  O162  1  -0.03306889  0.75905834  0.11536774  1
  O2-  O163  1  -0.01390360  0.75757002  0.63656157  1
  O2-  O164  1  0.48616918  0.28584383  0.10816779  1
  O2-  O165  1  0.49078471  0.28191557  0.61038517  1
  O2-  O166  1  0.48353147  0.76047095  0.13219871  1
  O2-  O167  1  0.46770763  0.76082008  0.61365513  1
  O2-  O168  1  0.26490193  -0.01048466  0.37364593  1
  O2-  O169  1  0.25627659  -0.02182155  0.88083391  1
  O2-  O170  1  0.28350646  0.48517242  0.38484325  1
  O2-  O171  1  0.26458646  0.48519527  0.87185945  1
  O2-  O172  1  0.76874051  -0.00371171  0.38122221  1
  O2-  O173  1  0.74152346  -0.01597026  0.88772924  1
  O2-  O174  1  0.76022557  0.47942138  0.37038009  1
  O2-  O175  1  0.77101716  0.47677807  0.88695613  1
  O2-  O176  1  0.01959542  0.22723183  0.38696724  1
  O2-  O177  1  0.00758205  0.23896963  0.88522586  1
  O2-  O178  1  0.03780285  0.73540066  0.38337242  1
  O2-  O179  1  0.02299386  0.73742167  0.87547544  1
  O2-  O180  1  0.52518042  0.24219229  0.38361796  1
  O2-  O181  1  0.53316049  0.24401259  0.88311559  1
  O2-  O182  1  0.51935782  0.73339814  0.37053887  1
  O2-  O183  1  0.53542785  0.73173199  0.88317862  1
  O2-  O184  1  0.24591216  0.01275794  0.13326443  1
  O2-  O185  1  0.24147767  0.02627241  0.61449995  1
  O2-  O186  1  0.21873504  0.50737168  0.11527120  1
  O2-  O187  1  0.23833308  0.50722660  0.62729171  1
  O2-  O188  1  0.75828115  0.03464038  0.11762951  1
  O2-  O189  1  0.74120735  0.02143166  0.61503006  1
  O2-  O190  1  0.73600871  0.50966002  0.12768811  1
  O2-  O191  1  0.71487453  0.50557196  0.61296198  1
  O2-  O192  1  0.13618899  0.26938886  0.24416297  1
  O2-  O193  1  0.13537921  0.27250435  0.71957857  1
  O2-  O194  1  0.13316863  0.76554523  0.22540394  1
  O2-  O195  1  0.12323766  0.76166848  0.73503375  1
  O2-  O196  1  0.63306123  0.28578286  0.24028536  1
  O2-  O197  1  0.63770363  0.28694858  0.73847500  1
  O2-  O198  1  0.62088288  0.76226461  0.23451616  1
  O2-  O199  1  0.63276091  0.76433438  0.72300285  1
  O2-  O200  1  0.36674545  0.23085272  0.27671889  1
  O2-  O201  1  0.36423498  0.23429924  0.76192202  1
  O2-  O202  1  0.37990094  0.73341106  0.26825975  1
  O2-  O203  1  0.36304197  0.73030893  0.78301078  1
  O2-  O204  1  0.85830856  0.23557047  0.27293629  1
  O2-  O205  1  0.86589068  0.22322675  0.76155050  1
  O2-  O206  1  0.86360280  0.73366709  0.28521035  1
  O2-  O207  1  0.88402607  0.72820796  0.76961452  1
  O2-  O208  1  0.27426062  0.36347592  0.22801855  1
  O2-  O209  1  0.26839839  0.37954728  0.73607915  1
  O2-  O210  1  0.26863010  0.87729561  0.23828872  1
  O2-  O211  1  0.27014169  0.86432747  0.73355828  1
  O2-  O212  1  0.76626880  0.37974171  0.23537493  1
  O2-  O213  1  0.78532761  0.36703545  0.73569657  1
  O2-  O214  1  0.76837750  0.86510646  0.23349063  1
  O2-  O215  1  0.77796852  0.86173487  0.72549368  1
  O2-  O216  1  0.23527477  0.11977693  0.26815087  1
  O2-  O217  1  0.22321454  0.13752744  0.76818163  1
  O2-  O218  1  0.23263216  0.63362096  0.27748131  1
  O2-  O219  1  0.23045116  0.61740609  0.76863629  1
  O2-  O220  1  0.71189259  0.13815749  0.26397902  1
  O2-  O221  1  0.72012868  0.13900075  0.76170682  1
  O2-  O222  1  0.73282148  0.61662156  0.27133611  1
  O2-  O223  1  0.73816616  0.63346829  0.78477725  1
  O2-  O224  1  0.11289830  0.47881756  0.27031373  1
  O2-  O225  1  0.12917287  0.48288981  0.76310424  1
  O2-  O226  1  0.13312265  0.97731921  0.26122527  1
  O2-  O227  1  0.11576056  0.96609886  0.75211098  1
  O2-  O228  1  0.62290344  0.48781706  0.25674110  1
  O2-  O229  1  0.61217517  0.48677134  0.77455901  1
  O2-  O230  1  0.61427747  0.97344880  0.25249416  1
  O2-  O231  1  0.61856742  0.97088249  0.74960337  1
  O2-  O232  1  0.37327865  0.01278941  0.24644065  1
  O2-  O233  1  0.38169170  0.02269503  0.74119229  1
  O2-  O234  1  0.38609837  0.52261691  0.22432089  1
  O2-  O235  1  0.36893453  0.52173374  0.73923703  1
  O2-  O236  1  0.88502520  0.03209120  0.24085075  1
  O2-  O237  1  0.88512296  0.01897730  0.75856759  1
  O2-  O238  1  0.86754918  0.51827525  0.23633430  1
  O2-  O239  1  0.88672177  0.52397697  0.73283408  1
  O2-  O240  1  0.48047995  0.38882301  0.26441161  1
  O2-  O241  1  0.47068986  0.39081474  0.75967542  1
  O2-  O242  1  0.48483208  0.86731860  0.27010403  1
  O2-  O243  1  0.47476576  0.88222642  0.77320921  1
  O2-  O244  1  0.97279871  0.38641786  0.26098888  1
  O2-  O245  1  0.98744119  0.38888994  0.77610038  1
  O2-  O246  1  0.97909924  0.88447219  0.27541103  1
  O2-  O247  1  0.98416961  0.86587454  0.77208762  1
  O2-  O248  1  0.03412105  0.11442443  0.22946622  1
  O2-  O249  1  0.02706548  0.11837080  0.72603474  1
  O2-  O250  1  0.01106385  0.61277324  0.21578564  1
  O2-  O251  1  0.02456327  0.62249265  0.74526352  1
  O2-  O252  1  0.51562312  0.11482103  0.21529079  1
  O2-  O253  1  0.52008714  0.11821327  0.72400465  1
  O2-  O254  1  0.51731492  0.62613881  0.23301415  1
  O2-  O255  1  0.50892469  0.61278013  0.71664503  1
  O2-  O256  1  0.12415249  0.47621038  -0.01838860  1
  O2-  O257  1  0.13884162  0.47256510  0.47889997  1
  O2-  O258  1  0.13477239  0.96926281  0.00248376  1
  O2-  O259  1  0.13912142  0.98015417  0.48662587  1
  O2-  O260  1  0.62946813  0.47999416  -0.01452348  1
  O2-  O261  1  0.62050127  0.47794051  0.47856951  1
  O2-  O262  1  0.63436434  0.98933375  0.01908952  1
  O2-  O263  1  0.63480812  0.98513513  0.48423405  1
  O2-  O264  1  0.36538075  0.03428647  0.00059631  1
  O2-  O265  1  0.36641243  0.04000552  0.50350558  1
  O2-  O266  1  0.38292523  0.52026676  0.01797090  1
  O2-  O267  1  0.38089015  0.51287688  0.51789193  1
  O2-  O268  1  0.86660227  0.03337591  -0.00523087  1
  O2-  O269  1  0.86749869  0.03199437  0.50589768  1
  O2-  O270  1  0.87673117  0.51224338  0.01517680  1
  O2-  O271  1  0.86002518  0.51240381  0.51897297  1
  O2-  O272  1  0.48891271  0.38856267  -0.02856953  1
  O2-  O273  1  0.48529941  0.38200280  0.47235617  1
  O2-  O274  1  0.48783490  0.86251997  -0.02409964  1
  O2-  O275  1  0.48306817  0.86307148  0.47096710  1
  O2-  O276  1  0.98204191  0.37960159  -0.02072145  1
  O2-  O277  1  0.98291874  0.36629143  0.46581536  1
  O2-  O278  1  0.97088291  0.86420746  -0.02280257  1
  O2-  O279  1  0.98133190  0.86313455  0.48842263  1
  O2-  O280  1  0.01892258  0.13836072  0.02082719  1
  O2-  O281  1  0.01376376  0.13952552  0.53384360  1
  O2-  O282  1  0.02177715  0.61396895  0.01564861  1
  O2-  O283  1  0.02541237  0.62996578  0.52190312  1
  O2-  O284  1  0.51652696  0.13872873  0.02198402  1
  O2-  O285  1  0.52077929  0.13838424  0.51980386  1
  O2-  O286  1  0.52904191  0.61659171  0.01212313  1
  O2-  O287  1  0.52065395  0.61533370  0.50865072  1
  O2-  O288  1  0.11614768  0.28126416  0.01780035  1
  O2-  O289  1  0.13167187  0.27099478  0.51529841  1
  O2-  O290  1  0.11103775  0.76050589  0.02477926  1
  O2-  O291  1  0.11984459  0.76882570  0.52935202  1
  O2-  O292  1  0.63047935  0.27466476  0.01496968  1
  O2-  O293  1  0.62836253  0.27265442  0.51263200  1
  O2-  O294  1  0.61754008  0.75933671  0.03227941  1
  O2-  O295  1  0.61223799  0.75741382  0.52404228  1
  O2-  O296  1  0.38714528  0.23992446  -0.03294798  1
  O2-  O297  1  0.37927803  0.23777757  0.48185086  1
  O2-  O298  1  0.39193033  0.71978035  -0.00941839  1
  O2-  O299  1  0.38510654  0.71667310  0.47824420  1
  O2-  O300  1  0.86795846  0.23904573  -0.01053346  1
  O2-  O301  1  0.87112216  0.23387795  0.48686436  1
  O2-  O302  1  0.88592652  0.71137456  -0.02087247  1
  O2-  O303  1  0.88866472  0.72343001  0.48658342  1
  O2-  O304  1  0.28122330  0.38746139  0.01029437  1
  O2-  O305  1  0.27279468  0.37327515  0.51712388  1
  O2-  O306  1  0.28157629  0.88377230  0.01943060  1
  O2-  O307  1  0.28895547  0.88746191  0.51607116  1
  O2-  O308  1  0.76429806  0.37533965  0.02509268  1
  O2-  O309  1  0.76510910  0.37215524  0.51208405  1
  O2-  O310  1  0.77840427  0.88357819  0.02810400  1
  O2-  O311  1  0.77392731  0.88209929  0.51553865  1
  O2-  O312  1  0.21858660  0.11503786  -0.01139746  1
  O2-  O313  1  0.23011271  0.13509114  0.48073322  1
  O2-  O314  1  0.23805433  0.61129969  -0.01826352  1
  O2-  O315  1  0.23466054  0.61104040  0.48745123  1
  O2-  O316  1  0.72658609  0.13839425  -0.01504426  1
  O2-  O317  1  0.72756114  0.13535012  0.48545505  1
  O2-  O318  1  0.73572418  0.61054021  -0.01280622  1
  O2-  O319  1  0.73005204  0.61039293  0.47516090  1
