# generated using pymatgen
data_Sr64Ca21Nb43O192
_symmetry_space_group_name_H-M   'P 1'
_cell_length_a   16.55470584
_cell_length_b   16.55411268
_cell_length_c   16.73008147
_cell_angle_alpha   90.01163478
_cell_angle_beta   90.02623395
_cell_angle_gamma   90.06236236
_symmetry_Int_Tables_number   1
_chemical_formula_structural   Sr64Ca21Nb43O192
_chemical_formula_sum   'Sr64 Ca21 Nb43 O192'
_cell_volume   4584.84987060
_cell_formula_units_Z   1
loop_
 _symmetry_equiv_pos_site_id
 _symmetry_equiv_pos_as_xyz
  1  'x, y, z'
loop_
 _atom_type_symbol
 _atom_type_oxidation_number
  Sr2+  2.0
  Ca2+  2.0
  Nb5+  5.0
  O2-  -2.0
loop_
 _atom_site_type_symbol
 _atom_site_label
 _atom_site_symmetry_multiplicity
 _atom_site_fract_x
 _atom_site_fract_y
 _atom_site_fract_z
 _atom_site_occupancy
  Sr2+  Sr0  1  0.13761261  0.11191521  0.12042881  1
  Sr2+  Sr1  1  0.12833495  0.12119355  0.62913351  1
  Sr2+  Sr2  1  0.12522763  0.62643846  0.11855474  1
  Sr2+  Sr3  1  0.12727123  0.63168822  0.62758680  1
  Sr2+  Sr4  1  0.61436136  0.11020425  0.12364053  1
  Sr2+  Sr5  1  0.62181861  0.10971946  0.62598569  1
  Sr2+  Sr6  1  0.61954846  0.62458507  0.11351100  1
  Sr2+  Sr7  1  0.61525038  0.62474368  0.63711646  1
  Sr2+  Sr8  1  0.37114975  0.35891911  0.12507648  1
  Sr2+  Sr9  1  0.36867488  0.35568765  0.62420039  1
  Sr2+  Sr10  1  0.36985472  0.87519932  0.12687032  1
  Sr2+  Sr11  1  0.37215713  0.87469915  0.61757091  1
  Sr2+  Sr12  1  0.88091726  0.36592940  0.12063594  1
  Sr2+  Sr13  1  0.87411924  0.35836687  0.62729577  1
  Sr2+  Sr14  1  0.87200250  0.86981570  0.11887632  1
  Sr2+  Sr15  1  0.87571787  0.87578370  0.64613550  1
  Sr2+  Sr16  1  0.11855379  0.38895976  0.37470443  1
  Sr2+  Sr17  1  0.12530072  0.38176116  0.87736029  1
  Sr2+  Sr18  1  0.12611356  0.87451411  0.37583817  1
  Sr2+  Sr19  1  0.11200340  0.87909400  0.85333774  1
  Sr2+  Sr20  1  0.64195421  0.36968373  0.37876186  1
  Sr2+  Sr21  1  0.63514135  0.38450634  0.86857565  1
  Sr2+  Sr22  1  0.62792499  0.88093243  0.37721635  1
  Sr2+  Sr23  1  0.64129710  0.87342535  0.87883133  1
  Sr2+  Sr24  1  0.38126516  0.12791850  0.37682489  1
  Sr2+  Sr25  1  0.37342322  0.13731916  0.86906544  1
  Sr2+  Sr26  1  0.37601875  0.62060256  0.37559585  1
  Sr2+  Sr27  1  0.39709965  0.62111274  0.87173749  1
  Sr2+  Sr28  1  0.86886901  0.13565965  0.37624135  1
  Sr2+  Sr29  1  0.88340831  0.12392579  0.87541345  1
  Sr2+  Sr30  1  0.87521022  0.62059638  0.37970280  1
  Sr2+  Sr31  1  0.86745711  0.62926751  0.87555243  1
  Sr2+  Sr32  1  0.12662282  0.12106266  0.37408062  1
  Sr2+  Sr33  1  0.12185724  0.13939040  0.86871617  1
  Sr2+  Sr34  1  0.12152576  0.62649912  0.37556294  1
  Sr2+  Sr35  1  0.12184373  0.62274340  0.87538806  1
  Sr2+  Sr36  1  0.62912190  0.13446765  0.37484260  1
  Sr2+  Sr37  1  0.62954421  0.13841016  0.87512987  1
  Sr2+  Sr38  1  0.63287893  0.61490624  0.36905141  1
  Sr2+  Sr39  1  0.63379642  0.63328722  0.87122613  1
  Sr2+  Sr40  1  0.37576194  0.37223172  0.37205714  1
  Sr2+  Sr41  1  0.37242768  0.38018422  0.84760789  1
  Sr2+  Sr42  1  0.37567260  0.87870853  0.37894103  1
  Sr2+  Sr43  1  0.36871661  0.88426895  0.86428833  1
  Sr2+  Sr44  1  0.87603814  0.37848822  0.38337286  1
  Sr2+  Sr45  1  0.88185497  0.36590791  0.87302522  1
  Sr2+  Sr46  1  0.88119971  0.88677906  0.36916024  1
  Sr2+  Sr47  1  0.87827377  0.89582053  0.87869805  1
  Sr2+  Sr48  1  0.13135798  0.38045780  0.11786374  1
  Sr2+  Sr49  1  0.12703974  0.37510020  0.63710675  1
  Sr2+  Sr50  1  0.10740165  0.87202012  0.13282153  1
  Sr2+  Sr51  1  0.13490138  0.86514810  0.61886339  1
  Sr2+  Sr52  1  0.61050130  0.36529351  0.12289345  1
  Sr2+  Sr53  1  0.61644573  0.36786684  0.63243704  1
  Sr2+  Sr54  1  0.62014134  0.86418042  0.12464071  1
  Sr2+  Sr55  1  0.61113819  0.87307331  0.62437884  1
  Sr2+  Sr56  1  0.37168263  0.12624824  0.11947911  1
  Sr2+  Sr57  1  0.37440424  0.11976321  0.63245583  1
  Sr2+  Sr58  1  0.37658490  0.62399488  0.12779745  1
  Sr2+  Sr59  1  0.37344957  0.62410407  0.63552907  1
  Sr2+  Sr60  1  0.87622506  0.11340856  0.11460120  1
  Sr2+  Sr61  1  0.86078673  0.11321821  0.63002310  1
  Sr2+  Sr62  1  0.86404078  0.62191257  0.12099799  1
  Sr2+  Sr63  1  0.86674010  0.61561246  0.63125990  1
  Ca2+  Ca64  1  0.49713933  0.50052830  0.50233944  1
  Ca2+  Ca65  1  0.50087316  0.49650342  0.00088816  1
  Ca2+  Ca66  1  0.49746202  -0.00121358  0.00057633  1
  Ca2+  Ca67  1  -0.00023124  -0.00266019  0.50178005  1
  Ca2+  Ca68  1  0.00849318  -0.00092046  -0.00039094  1
  Ca2+  Ca69  1  0.74922352  0.25304880  0.00248769  1
  Ca2+  Ca70  1  0.24959051  0.25118600  -0.00215871  1
  Ca2+  Ca71  1  0.24904412  0.24933822  0.49728173  1
  Ca2+  Ca72  1  0.25021539  0.75344795  0.00197788  1
  Ca2+  Ca73  1  0.75083156  0.74833281  0.49999899  1
  Ca2+  Ca74  1  0.24830339  -0.00156287  0.74527962  1
  Ca2+  Ca75  1  0.74920343  0.00099493  0.24952019  1
  Ca2+  Ca76  1  -0.00247332  0.25293665  0.74676228  1
  Ca2+  Ca77  1  0.74528806  -0.00030040  0.75283884  1
  Ca2+  Ca78  1  0.49651896  0.75398625  0.75083663  1
  Ca2+  Ca79  1  0.75330459  0.49621390  0.24711872  1
  Ca2+  Ca80  1  0.24658363  0.50431794  0.74993845  1
  Ca2+  Ca81  1  -0.00066979  0.25177822  0.24941881  1
  Ca2+  Ca82  1  0.75447913  0.49960188  0.75010112  1
  Ca2+  Ca83  1  0.00005422  0.74813101  0.74867259  1
  Ca2+  Ca84  1  0.50089618  0.24866572  0.74753671  1
  Nb5+  Nb85  1  0.49919360  0.00022990  0.49825619  1
  Nb5+  Nb86  1  0.00256883  0.50125386  0.50588574  1
  Nb5+  Nb87  1  -0.00295462  0.50108879  0.00315845  1
  Nb5+  Nb88  1  0.74985044  0.24618199  0.50408616  1
  Nb5+  Nb89  1  0.25185281  0.74636866  0.49601958  1
  Nb5+  Nb90  1  0.75160652  0.75068453  0.00093976  1
  Nb5+  Nb91  1  -0.00779046  0.74387657  0.25028781  1
  Nb5+  Nb92  1  0.50179261  0.24137687  0.25066674  1
  Nb5+  Nb93  1  0.25309704  0.00182598  0.25099205  1
  Nb5+  Nb94  1  0.24771254  0.50488534  0.24848706  1
  Nb5+  Nb95  1  0.49711748  0.74410488  0.25473555  1
  Nb5+  Nb96  1  0.00167044  0.00558788  0.25265021  1
  Nb5+  Nb97  1  0.00041744  0.00437066  0.74524360  1
  Nb5+  Nb98  1  -0.00318794  0.50292125  0.25049584  1
  Nb5+  Nb99  1  -0.00044070  0.50303641  0.75752478  1
  Nb5+  Nb100  1  0.49825404  -0.00917641  0.25034205  1
  Nb5+  Nb101  1  0.50234329  -0.00416088  0.76037426  1
  Nb5+  Nb102  1  0.50012109  0.49159269  0.25257393  1
  Nb5+  Nb103  1  0.50139099  0.49962039  0.74789639  1
  Nb5+  Nb104  1  0.24615472  0.25414943  0.25455230  1
  Nb5+  Nb105  1  0.24539625  0.25169891  0.74786478  1
  Nb5+  Nb106  1  0.24707450  0.75260441  0.25095749  1
  Nb5+  Nb107  1  0.24777344  0.75138458  0.75895092  1
  Nb5+  Nb108  1  0.75124997  0.25017751  0.24483816  1
  Nb5+  Nb109  1  0.75149093  0.24708955  0.75498038  1
  Nb5+  Nb110  1  0.74397122  0.74575683  0.25285121  1
  Nb5+  Nb111  1  0.74848668  0.75540209  0.74265754  1
  Nb5+  Nb112  1  0.00807863  0.24892783  0.49493897  1
  Nb5+  Nb113  1  0.00266617  0.24746853  1.00632023  1
  Nb5+  Nb114  1  -0.00343511  0.74697268  0.49959699  1
  Nb5+  Nb115  1  0.00170412  0.75000758  0.99934060  1
  Nb5+  Nb116  1  0.49994178  0.24769610  0.50169888  1
  Nb5+  Nb117  1  0.49807230  0.25392130  0.99195917  1
  Nb5+  Nb118  1  0.50348485  0.74801957  0.49497219  1
  Nb5+  Nb119  1  0.49598079  0.75234435  0.99638251  1
  Nb5+  Nb120  1  0.24885503  -0.00258768  -0.01138678  1
  Nb5+  Nb121  1  0.24912686  -0.00066982  0.49715302  1
  Nb5+  Nb122  1  0.25349191  0.50392636  -0.00126260  1
  Nb5+  Nb123  1  0.25195594  0.50153330  0.50134834  1
  Nb5+  Nb124  1  0.74707548  0.00565039  0.00512481  1
  Nb5+  Nb125  1  0.75466888  -0.00518585  0.49336740  1
  Nb5+  Nb126  1  0.75152846  0.49632954  0.00051671  1
  Nb5+  Nb127  1  0.74612852  0.49820479  0.50683632  1
  O2-  O128  1  -0.01206349  -0.01818363  0.13898278  1
  O2-  O129  1  -0.03529845  -0.00468183  0.63066305  1
  O2-  O130  1  -0.00421506  0.49853858  0.12417964  1
  O2-  O131  1  0.00045751  0.49945520  0.62021362  1
  O2-  O132  1  0.47708727  0.02063039  0.14032832  1
  O2-  O133  1  0.48339201  0.01989767  0.61095778  1
  O2-  O134  1  0.49982463  0.52834347  0.14199822  1
  O2-  O135  1  0.49610371  0.53447600  0.63198925  1
  O2-  O136  1  0.03217060  -0.00705523  0.36562936  1
  O2-  O137  1  0.02770428  0.01304252  0.86583877  1
  O2-  O138  1  0.01050417  0.51183588  0.36804493  1
  O2-  O139  1  0.00736747  0.50779835  0.87690495  1
  O2-  O140  1  0.51143243  -0.01865979  0.37164555  1
  O2-  O141  1  0.51710359  -0.03519171  0.86859205  1
  O2-  O142  1  0.47324222  0.49105538  0.36643966  1
  O2-  O143  1  0.50287851  0.47110280  0.86685005  1
  O2-  O144  1  0.23827977  0.23334687  0.13989245  1
  O2-  O145  1  0.21822744  0.24784805  0.62791834  1
  O2-  O146  1  0.26309142  0.74032859  0.13825179  1
  O2-  O147  1  0.25217996  0.73963005  0.61270398  1
  O2-  O148  1  0.73724465  0.28609428  0.13680077  1
  O2-  O149  1  0.73083569  0.27017613  0.61735322  1
  O2-  O150  1  0.75110694  0.76835123  0.12614441  1
  O2-  O151  1  0.74315618  0.78429687  0.63174903  1
  O2-  O152  1  0.28531547  0.24852645  0.36432951  1
  O2-  O153  1  0.27458481  0.25831997  0.86462104  1
  O2-  O154  1  0.25419111  0.75334420  0.37056353  1
  O2-  O155  1  0.23498728  0.76917255  0.86992456  1
  O2-  O156  1  0.75416784  0.22971126  0.38031449  1
  O2-  O157  1  0.76892683  0.22238543  0.86687202  1
  O2-  O158  1  0.74969215  0.71464692  0.36459678  1
  O2-  O159  1  0.75230796  0.73275057  0.88414052  1
  O2-  O160  1  0.01945234  0.28160478  0.11907799  1
  O2-  O161  1  0.01290246  0.27484815  0.60806614  1
  O2-  O162  1  -0.00813888  0.75115890  0.13238330  1
  O2-  O163  1  0.01368618  0.75665774  0.61135481  1
  O2-  O164  1  0.52251646  0.23158241  0.13610178  1
  O2-  O165  1  0.52545006  0.22802921  0.61220620  1
  O2-  O166  1  0.50795854  0.73123699  0.13826444  1
  O2-  O167  1  0.49588489  0.73363585  0.60993476  1
  O2-  O168  1  0.23627792  -0.01453931  0.37294535  1
  O2-  O169  1  0.22542379  -0.02101917  0.87931533  1
  O2-  O170  1  0.24566639  0.49430990  0.36919663  1
  O2-  O171  1  0.24751318  0.48180938  0.88660892  1
  O2-  O172  1  0.71951198  0.01863043  0.38256344  1
  O2-  O173  1  0.71903096  0.01078454  0.88922142  1
  O2-  O174  1  0.75402287  0.51580713  0.38899532  1
  O2-  O175  1  0.74243418  0.52994873  0.88664332  1
  O2-  O176  1  -0.03493236  0.25169375  0.38403395  1
  O2-  O177  1  -0.02228242  0.24318249  0.88733204  1
  O2-  O178  1  0.00214461  0.73189068  0.37052590  1
  O2-  O179  1  0.01340461  0.73755461  0.88620504  1
  O2-  O180  1  0.48419019  0.25969823  0.37317469  1
  O2-  O181  1  0.47085733  0.26652583  0.88203666  1
  O2-  O182  1  0.49709074  0.77840769  0.37056400  1
  O2-  O183  1  0.48968312  0.77926466  0.88680157  1
  O2-  O184  1  0.27611036  0.00779081  0.13734302  1
  O2-  O185  1  0.27699443  0.00220584  0.60944367  1
  O2-  O186  1  0.24201515  0.51979573  0.13106415  1
  O2-  O187  1  0.23618337  0.51675405  0.61303282  1
  O2-  O188  1  0.78244064  -0.01264431  0.11965809  1
  O2-  O189  1  0.76563059  -0.01650212  0.61042084  1
  O2-  O190  1  0.78302005  0.48518504  0.11433375  1
  O2-  O191  1  0.78358822  0.47890096  0.61515598  1
  O2-  O192  1  0.13532826  0.26330561  0.28042665  1
  O2-  O193  1  0.12990763  0.27461654  0.77283522  1
  O2-  O194  1  0.12993633  0.76466127  0.24919404  1
  O2-  O195  1  0.13370419  0.78140014  0.73720863  1
  O2-  O196  1  0.61685587  0.27225929  0.26703551  1
  O2-  O197  1  0.63386145  0.27213130  0.76697497  1
  O2-  O198  1  0.62500782  0.76751899  0.25791145  1
  O2-  O199  1  0.63099125  0.77374177  0.76153784  1
  O2-  O200  1  0.38241600  0.24192521  0.23199838  1
  O2-  O201  1  0.36573752  0.23399963  0.72303092  1
  O2-  O202  1  0.37877781  0.73264170  0.25553030  1
  O2-  O203  1  0.36366907  0.71795032  0.75684847  1
  O2-  O204  1  0.86296584  0.22022778  0.23320804  1
  O2-  O205  1  0.86450731  0.23300946  0.71903843  1
  O2-  O206  1  0.87712450  0.72485420  0.25099051  1
  O2-  O207  1  0.86613248  0.72911533  0.73810864  1
  O2-  O208  1  0.26168802  0.37404963  0.24267870  1
  O2-  O209  1  0.26814462  0.37054667  0.73250817  1
  O2-  O210  1  0.26799965  0.87127434  0.24922654  1
  O2-  O211  1  0.28106356  0.86461881  0.73498935  1
  O2-  O212  1  0.76424758  0.36324522  0.28299629  1
  O2-  O213  1  0.77173063  0.36546578  0.76782332  1
  O2-  O214  1  0.77116408  0.86061180  0.26757307  1
  O2-  O215  1  0.77216216  0.86697955  0.78007580  1
  O2-  O216  1  0.23964961  0.11990024  0.26360583  1
  O2-  O217  1  0.22645957  0.13219483  0.75330671  1
  O2-  O218  1  0.23599120  0.62463264  0.26164823  1
  O2-  O219  1  0.21597903  0.63655924  0.75334201  1
  O2-  O220  1  0.71375428  0.13799866  0.23686497  1
  O2-  O221  1  0.72809637  0.13300343  0.72620345  1
  O2-  O222  1  0.72837001  0.63202894  0.22077023  1
  O2-  O223  1  0.72710535  0.63739465  0.73416905  1
  O2-  O224  1  0.12560119  0.48127895  0.24407832  1
  O2-  O225  1  0.11418566  0.46906964  0.75255171  1
  O2-  O226  1  0.13552811  0.98225696  0.23463246  1
  O2-  O227  1  0.11498169  0.97776520  0.71527241  1
  O2-  O228  1  0.61445874  0.48642620  0.26841694  1
  O2-  O229  1  0.61981612  0.47858251  0.73729187  1
  O2-  O230  1  0.61237594  0.97924404  0.23333020  1
  O2-  O231  1  0.61368799  0.98403956  0.71994826  1
  O2-  O232  1  0.37358227  0.00619882  0.27710525  1
  O2-  O233  1  0.38403866  0.02088481  0.76803351  1
  O2-  O234  1  0.36644961  0.51197228  0.24454153  1
  O2-  O235  1  0.38131838  0.52249594  0.75886372  1
  O2-  O236  1  0.88868920  0.01628844  0.27710618  1
  O2-  O237  1  0.88080827  0.02211964  0.77052877  1
  O2-  O238  1  0.88694685  0.53672768  0.25332863  1
  O2-  O239  1  0.88569439  0.53817059  0.75809041  1
  O2-  O240  1  0.48420814  0.37694084  0.23464752  1
  O2-  O241  1  0.47867302  0.38362271  0.71867673  1
  O2-  O242  1  0.48002356  0.87437954  0.23622402  1
  O2-  O243  1  0.47730709  0.88574569  0.71937796  1
  O2-  O244  1  0.97458110  0.38960139  0.25585904  1
  O2-  O245  1  0.96612930  0.38873418  0.74844094  1
  O2-  O246  1  0.99193232  0.86336955  0.25938461  1
  O2-  O247  1  0.97950672  0.88374440  0.76517362  1
  O2-  O248  1  0.02985499  0.11635135  0.24269929  1
  O2-  O249  1  0.02395437  0.12115531  0.73601573  1
  O2-  O250  1  0.03103876  0.62797210  0.24149764  1
  O2-  O251  1  0.03296503  0.61590168  0.74125046  1
  O2-  O252  1  0.50946978  0.12493045  0.27092601  1
  O2-  O253  1  0.52081028  0.11454735  0.76944422  1
  O2-  O254  1  0.51096939  0.63018589  0.27692876  1
  O2-  O255  1  0.52195756  0.61854086  0.77563308  1
  O2-  O256  1  0.11662106  0.48391021  0.00425352  1
  O2-  O257  1  0.12562733  0.48454416  0.49219042  1
  O2-  O258  1  0.14151130  0.97657509  0.03619805  1
  O2-  O259  1  0.13662442  0.97310187  0.51234282  1
  O2-  O260  1  0.63816008  0.48645541  0.02261649  1
  O2-  O261  1  0.63401129  0.47073876  0.51031826  1
  O2-  O262  1  0.63402201  0.97915523  0.03309628  1
  O2-  O263  1  0.61758668  0.98173980  0.51226210  1
  O2-  O264  1  0.36404215  0.03467274  -0.01826518  1
  O2-  O265  1  0.37611881  0.00782640  0.47350994  1
  O2-  O266  1  0.36583159  0.52961915  0.00409122  1
  O2-  O267  1  0.36270300  0.53487791  0.50062433  1
  O2-  O268  1  0.86784751  0.01684246  -0.02050917  1
  O2-  O269  1  0.86553801  0.01922521  0.47110168  1
  O2-  O270  1  0.88025312  0.52771493  -0.01010147  1
  O2-  O271  1  0.88632458  0.51694743  0.48914625  1
  O2-  O272  1  0.48843332  0.36561717  0.03710747  1
  O2-  O273  1  0.48134516  0.36172395  0.51259575  1
  O2-  O274  1  0.49128791  0.86268747  0.03781283  1
  O2-  O275  1  0.47955751  0.87804322  0.50750823  1
  O2-  O276  1  0.97521106  0.38518555  -0.00630635  1
  O2-  O277  1  0.99059014  0.38477836  0.48492529  1
  O2-  O278  1  0.97857115  0.86440871  -0.00240968  1
  O2-  O279  1  0.97879005  0.85983293  0.48169411  1
  O2-  O280  1  0.01818626  0.13399225  0.02518334  1
  O2-  O281  1  0.02504083  0.13443873  0.50219361  1
  O2-  O282  1  0.01518250  0.62433738  0.00991676  1
  O2-  O283  1  0.02850173  0.62164458  0.49903257  1
  O2-  O284  1  0.52519053  0.13674099  -0.01059899  1
  O2-  O285  1  0.51294757  0.11804967  0.47348139  1
  O2-  O286  1  0.52833837  0.63672181  -0.01537228  1
  O2-  O287  1  0.51928658  0.63713662  0.46734142  1
  O2-  O288  1  0.11514824  0.27494702  -0.01981467  1
  O2-  O289  1  0.11681124  0.26874981  0.46462791  1
  O2-  O290  1  0.11378016  0.76369156  0.02579743  1
  O2-  O291  1  0.12995048  0.76530443  0.48779429  1
  O2-  O292  1  0.61628519  0.27820109  -0.02044045  1
  O2-  O293  1  0.62353643  0.25719391  0.47985648  1
  O2-  O294  1  0.63101588  0.76675194  0.00128347  1
  O2-  O295  1  0.61517679  0.77737426  0.49400452  1
  O2-  O296  1  0.38412715  0.23595148  0.02542535  1
  O2-  O297  1  0.38564750  0.22119193  0.51592182  1
  O2-  O298  1  0.38577186  0.72167467  0.00797474  1
  O2-  O299  1  0.37341538  0.73464614  0.48760946  1
  O2-  O300  1  0.88329733  0.24053317  0.02880480  1
  O2-  O301  1  0.86791170  0.23298136  0.51671708  1
  O2-  O302  1  0.87537937  0.73163763  0.00780828  1
  O2-  O303  1  0.88593666  0.71352194  0.50385137  1
  O2-  O304  1  0.25657713  0.38884822  0.03049864  1
  O2-  O305  1  0.27580560  0.38752398  0.49935595  1
  O2-  O306  1  0.29076276  0.88589869  0.00438816  1
  O2-  O307  1  0.26785460  0.86841609  0.49680494  1
  O2-  O308  1  0.76979104  0.38681723  -0.02970008  1
  O2-  O309  1  0.76456452  0.36810102  0.48324543  1
  O2-  O310  1  0.76854601  0.87019474  -0.01091614  1
  O2-  O311  1  0.76328597  0.88210493  0.46712302  1
  O2-  O312  1  0.21910551  0.11586554  -0.00836489  1
  O2-  O313  1  0.22974570  0.11278518  0.48632811  1
  O2-  O314  1  0.21681424  0.61660168  -0.00549367  1
  O2-  O315  1  0.22959116  0.62869615  0.48167833  1
  O2-  O316  1  0.73345726  0.11902214  0.02660101  1
  O2-  O317  1  0.73392354  0.12616527  0.51825197  1
  O2-  O318  1  0.74014613  0.63099968  0.02219839  1
  O2-  O319  1  0.72905647  0.61211778  0.52974212  1
