# generated using pymatgen
data_Sr64Ca21Nb43O192
_symmetry_space_group_name_H-M   'P 1'
_cell_length_a   16.55805585
_cell_length_b   16.55419321
_cell_length_c   16.69148173
_cell_angle_alpha   89.99106644
_cell_angle_beta   90.03960040
_cell_angle_gamma   89.97060081
_symmetry_Int_Tables_number   1
_chemical_formula_structural   Sr64Ca21Nb43O192
_chemical_formula_sum   'Sr64 Ca21 Nb43 O192'
_cell_volume   4575.22111454
_cell_formula_units_Z   1
loop_
 _symmetry_equiv_pos_site_id
 _symmetry_equiv_pos_as_xyz
  1  'x, y, z'
loop_
 _atom_type_symbol
 _atom_type_oxidation_number
  Sr2+  2.0
  Ca2+  2.0
  Nb5+  5.0
  O2-  -2.0
loop_
 _atom_site_type_symbol
 _atom_site_label
 _atom_site_symmetry_multiplicity
 _atom_site_fract_x
 _atom_site_fract_y
 _atom_site_fract_z
 _atom_site_occupancy
  Sr2+  Sr0  1  0.12325622  0.11812775  0.11663582  1
  Sr2+  Sr1  1  0.11958553  0.11290370  0.62376125  1
  Sr2+  Sr2  1  0.11705744  0.61029599  0.12489092  1
  Sr2+  Sr3  1  0.11789739  0.61769499  0.63057330  1
  Sr2+  Sr4  1  0.62321847  0.12089488  0.12680187  1
  Sr2+  Sr5  1  0.62269579  0.12893894  0.62100640  1
  Sr2+  Sr6  1  0.62625038  0.62109247  0.13545466  1
  Sr2+  Sr7  1  0.62830442  0.61602830  0.62516469  1
  Sr2+  Sr8  1  0.36949039  0.36353438  0.12395862  1
  Sr2+  Sr9  1  0.37698867  0.36686144  0.61667219  1
  Sr2+  Sr10  1  0.37297367  0.87103926  0.12875544  1
  Sr2+  Sr11  1  0.36616201  0.87437983  0.63020922  1
  Sr2+  Sr12  1  0.87835836  0.38923332  0.11998586  1
  Sr2+  Sr13  1  0.86814578  0.36228058  0.63312749  1
  Sr2+  Sr14  1  0.86695411  0.87429327  0.12848104  1
  Sr2+  Sr15  1  0.87262827  0.87017840  0.61625796  1
  Sr2+  Sr16  1  0.13490323  0.37883630  0.37412242  1
  Sr2+  Sr17  1  0.12185625  0.38007315  0.88231592  1
  Sr2+  Sr18  1  0.11272352  0.88184398  0.37354285  1
  Sr2+  Sr19  1  0.13083354  0.88263196  0.87798792  1
  Sr2+  Sr20  1  0.61723538  0.38406289  0.37319269  1
  Sr2+  Sr21  1  0.64258802  0.38100850  0.88100334  1
  Sr2+  Sr22  1  0.63625388  0.87302936  0.37587163  1
  Sr2+  Sr23  1  0.62258673  0.87459058  0.87241061  1
  Sr2+  Sr24  1  0.38036703  0.13624697  0.36810778  1
  Sr2+  Sr25  1  0.37779402  0.12358545  0.87258193  1
  Sr2+  Sr26  1  0.38367353  0.62719453  0.38190899  1
  Sr2+  Sr27  1  0.38619161  0.63505878  0.87623242  1
  Sr2+  Sr28  1  0.88249925  0.13329656  0.36962905  1
  Sr2+  Sr29  1  0.87917675  0.14267993  0.87279019  1
  Sr2+  Sr30  1  0.89297780  0.63468381  0.37426479  1
  Sr2+  Sr31  1  0.89881662  0.62531150  0.87016529  1
  Sr2+  Sr32  1  0.12511038  0.14075600  0.37171843  1
  Sr2+  Sr33  1  0.13430206  0.13904463  0.87112215  1
  Sr2+  Sr34  1  0.13512632  0.61837401  0.37258963  1
  Sr2+  Sr35  1  0.13521076  0.63692265  0.87575132  1
  Sr2+  Sr36  1  0.63558544  0.13815706  0.37047106  1
  Sr2+  Sr37  1  0.62040500  0.12547659  0.88299109  1
  Sr2+  Sr38  1  0.62127622  0.63069314  0.38195601  1
  Sr2+  Sr39  1  0.63148793  0.62610688  0.86972485  1
  Sr2+  Sr40  1  0.37586445  0.39104710  0.37609988  1
  Sr2+  Sr41  1  0.38379165  0.38587269  0.87867689  1
  Sr2+  Sr42  1  0.38071307  0.88351353  0.37508031  1
  Sr2+  Sr43  1  0.38053414  0.88458981  0.87380107  1
  Sr2+  Sr44  1  0.88474757  0.38066904  0.36338464  1
  Sr2+  Sr45  1  0.87817346  0.38057288  0.87212539  1
  Sr2+  Sr46  1  0.87420902  0.88355794  0.37296859  1
  Sr2+  Sr47  1  0.87382923  0.87954498  0.88071636  1
  Sr2+  Sr48  1  0.11129336  0.36882992  0.12452918  1
  Sr2+  Sr49  1  0.11643292  0.35960891  0.62407063  1
  Sr2+  Sr50  1  0.11653268  0.86120707  0.11924081  1
  Sr2+  Sr51  1  0.11136159  0.87386597  0.61950630  1
  Sr2+  Sr52  1  0.62462517  0.36644947  0.13330834  1
  Sr2+  Sr53  1  0.63200772  0.37107067  0.62647515  1
  Sr2+  Sr54  1  0.62688108  0.86866477  0.13082110  1
  Sr2+  Sr55  1  0.62204712  0.86075579  0.62588115  1
  Sr2+  Sr56  1  0.37862850  0.11700045  0.12278994  1
  Sr2+  Sr57  1  0.36100619  0.11850517  0.61988871  1
  Sr2+  Sr58  1  0.36421802  0.62628037  0.12636255  1
  Sr2+  Sr59  1  0.37381082  0.61762708  0.63039743  1
  Sr2+  Sr60  1  0.85534818  0.11968732  0.12587320  1
  Sr2+  Sr61  1  0.87102793  0.12006547  0.62730473  1
  Sr2+  Sr62  1  0.87827824  0.61884684  0.12852834  1
  Sr2+  Sr63  1  0.87190638  0.62117157  0.62468584  1
  Ca2+  Ca64  1  0.00166412  0.50149068  -0.00191817  1
  Ca2+  Ca65  1  0.50472898  0.50180398  0.00025152  1
  Ca2+  Ca66  1  0.00138330  0.49715575  0.50295882  1
  Ca2+  Ca67  1  -0.00148580  0.00100420  -0.00155082  1
  Ca2+  Ca68  1  0.49701095  -0.00014926  0.49772337  1
  Ca2+  Ca69  1  0.75089070  0.25295959  0.49817588  1
  Ca2+  Ca70  1  0.75146008  0.74795030  0.50012854  1
  Ca2+  Ca71  1  0.24769251  0.75119764  0.50039429  1
  Ca2+  Ca72  1  0.75017658  0.25234022  0.00176170  1
  Ca2+  Ca73  1  0.74579430  0.74549892  0.00153604  1
  Ca2+  Ca74  1  0.75159543  0.50245932  0.25602616  1
  Ca2+  Ca75  1  0.00301532  0.75325581  0.75054366  1
  Ca2+  Ca76  1  0.74665609  -0.00315236  0.75140909  1
  Ca2+  Ca77  1  0.25376763  0.49802378  0.24490656  1
  Ca2+  Ca78  1  0.00192164  0.75130287  0.24992438  1
  Ca2+  Ca79  1  -0.00045936  0.24863862  0.24639870  1
  Ca2+  Ca80  1  0.00270463  0.24761764  0.74919492  1
  Ca2+  Ca81  1  0.49934660  0.24903963  0.75090184  1
  Ca2+  Ca82  1  0.49845517  0.25042726  0.25115766  1
  Ca2+  Ca83  1  0.24715543  -0.00194257  0.24811097  1
  Ca2+  Ca84  1  0.25527674  0.49855236  0.75187838  1
  Nb5+  Nb85  1  -0.00537747  0.00431243  0.49873377  1
  Nb5+  Nb86  1  0.50070660  0.50090411  0.50157721  1
  Nb5+  Nb87  1  0.50054331  -0.00428018  0.00167462  1
  Nb5+  Nb88  1  0.25315892  0.75728842  -0.00178820  1
  Nb5+  Nb89  1  0.25446671  0.25427273  -0.00739334  1
  Nb5+  Nb90  1  0.25191330  0.24879511  0.49446454  1
  Nb5+  Nb91  1  0.24765929  -0.00091797  0.74938786  1
  Nb5+  Nb92  1  0.74670625  -0.00000599  0.25136046  1
  Nb5+  Nb93  1  0.75290909  0.50404220  0.74946423  1
  Nb5+  Nb94  1  0.49789530  0.75055232  0.25673384  1
  Nb5+  Nb95  1  0.49932407  0.75230103  0.75439813  1
  Nb5+  Nb96  1  -0.00155415  0.00161683  0.24275510  1
  Nb5+  Nb97  1  -0.00600058  -0.00046354  0.75339536  1
  Nb5+  Nb98  1  0.00263095  0.49951467  0.25334624  1
  Nb5+  Nb99  1  0.00948438  0.49692559  0.74670736  1
  Nb5+  Nb100  1  0.50133904  -0.00188213  0.25414381  1
  Nb5+  Nb101  1  0.50001983  0.00036453  0.74416964  1
  Nb5+  Nb102  1  0.49664078  0.50241943  0.24404263  1
  Nb5+  Nb103  1  0.50242968  0.49674824  0.75077493  1
  Nb5+  Nb104  1  0.24774107  0.24843356  0.23817449  1
  Nb5+  Nb105  1  0.25664039  0.25381296  0.74550858  1
  Nb5+  Nb106  1  0.24911779  0.75065573  0.25341458  1
  Nb5+  Nb107  1  0.24870078  0.75309476  0.74883632  1
  Nb5+  Nb108  1  0.75395853  0.25649570  0.24835527  1
  Nb5+  Nb109  1  0.74306723  0.24348947  0.75279477  1
  Nb5+  Nb110  1  0.75095238  0.74575449  0.25089394  1
  Nb5+  Nb111  1  0.75705651  0.74920739  0.75024203  1
  Nb5+  Nb112  1  -0.00475057  0.24957087  0.50386923  1
  Nb5+  Nb113  1  -0.00330273  0.24409229  1.00264569  1
  Nb5+  Nb114  1  0.00534701  0.74649717  0.49880511  1
  Nb5+  Nb115  1  -0.00675530  0.74815415  1.00266545  1
  Nb5+  Nb116  1  0.50342923  0.24989035  0.49516494  1
  Nb5+  Nb117  1  0.49958195  0.25349641  0.99938608  1
  Nb5+  Nb118  1  0.49417021  0.75152984  0.50896389  1
  Nb5+  Nb119  1  0.50204129  0.75118922  1.00660276  1
  Nb5+  Nb120  1  0.25202205  0.00293098  0.00051239  1
  Nb5+  Nb121  1  0.24576336  0.00144991  0.49151269  1
  Nb5+  Nb122  1  0.25301735  0.50797441  -0.00142158  1
  Nb5+  Nb123  1  0.24762290  0.50070359  0.50693654  1
  Nb5+  Nb124  1  0.74996710  -0.00043706  -0.00448691  1
  Nb5+  Nb125  1  0.74321669  -0.00036320  0.50456212  1
  Nb5+  Nb126  1  0.75000832  0.50392565  0.00536308  1
  Nb5+  Nb127  1  0.75434482  0.49935854  0.49832496  1
  O2-  O128  1  -0.02555942  0.02540399  0.13294023  1
  O2-  O129  1  -0.01063430  0.02370035  0.62038340  1
  O2-  O130  1  -0.01644730  0.51765670  0.13319113  1
  O2-  O131  1  -0.01284746  0.53107055  0.63477822  1
  O2-  O132  1  0.48412209  0.00179895  0.12362501  1
  O2-  O133  1  0.47490779  0.01152941  0.63272203  1
  O2-  O134  1  0.48762480  0.53256204  0.13321206  1
  O2-  O135  1  0.48801469  0.51582755  0.62182293  1
  O2-  O136  1  0.00499887  -0.01616963  0.38048781  1
  O2-  O137  1  0.00621393  -0.03177622  0.86396900  1
  O2-  O138  1  0.01848752  0.47437258  0.37017171  1
  O2-  O139  1  0.00307179  0.47540211  0.86425261  1
  O2-  O140  1  0.51552643  -0.03110810  0.36489186  1
  O2-  O141  1  0.51098717  -0.01296500  0.87926230  1
  O2-  O142  1  0.51431326  0.49761536  0.37893679  1
  O2-  O143  1  0.52829537  0.48920527  0.86290797  1
  O2-  O144  1  0.23511531  0.26364019  0.12217966  1
  O2-  O145  1  0.23941620  0.26192357  0.62980107  1
  O2-  O146  1  0.24715548  0.77245812  0.11596122  1
  O2-  O147  1  0.23961909  0.77884894  0.63707548  1
  O2-  O148  1  0.72026233  0.24238819  0.13403561  1
  O2-  O149  1  0.72277314  0.24328593  0.63386064  1
  O2-  O150  1  0.72167337  0.74968959  0.13593567  1
  O2-  O151  1  0.72735585  0.75170490  0.63497753  1
  O2-  O152  1  0.26271665  0.23077875  0.38127720  1
  O2-  O153  1  0.26992035  0.23261891  0.87883486  1
  O2-  O154  1  0.26066166  0.72060451  0.36371415  1
  O2-  O155  1  0.27213884  0.73738483  0.87777454  1
  O2-  O156  1  0.77913647  0.25075588  0.36575219  1
  O2-  O157  1  0.77524491  0.25668906  0.86697463  1
  O2-  O158  1  0.76051731  0.76280441  0.36645139  1
  O2-  O159  1  0.74138057  0.74883529  0.86600172  1
  O2-  O160  1  0.03391879  0.23450530  0.11553489  1
  O2-  O161  1  0.03187189  0.23159749  0.61612156  1
  O2-  O162  1  0.02868167  0.73175103  0.11636644  1
  O2-  O163  1  0.03129241  0.74007995  0.61653620  1
  O2-  O164  1  0.51739848  0.23789455  0.11595024  1
  O2-  O165  1  0.51791244  0.25028527  0.61307374  1
  O2-  O166  1  0.51295247  0.73969943  0.12240194  1
  O2-  O167  1  0.51215920  0.74426174  0.62464395  1
  O2-  O168  1  0.21462980  0.01003250  0.38232438  1
  O2-  O169  1  0.23758728  0.00925894  0.87437157  1
  O2-  O170  1  0.23675119  0.50127621  0.38688799  1
  O2-  O171  1  0.21856338  0.50255491  0.88372410  1
  O2-  O172  1  0.73112987  -0.00475058  0.37060084  1
  O2-  O173  1  0.71764758  -0.00872082  0.88496455  1
  O2-  O174  1  0.73691612  0.47217834  0.38793899  1
  O2-  O175  1  0.73035713  0.50313558  0.86752791  1
  O2-  O176  1  -0.01258816  0.26111073  0.38666973  1
  O2-  O177  1  -0.01617522  0.26220016  0.88377211  1
  O2-  O178  1  -0.02389366  0.77117210  0.38493331  1
  O2-  O179  1  -0.01987962  0.77342297  0.88609204  1
  O2-  O180  1  0.46446531  0.26553847  0.38385104  1
  O2-  O181  1  0.46936473  0.24233210  0.88587079  1
  O2-  O182  1  0.47747427  0.75864858  0.37184641  1
  O2-  O183  1  0.48484350  0.76503683  0.87090686  1
  O2-  O184  1  0.27734360  -0.00688088  0.11312340  1
  O2-  O185  1  0.26582553  -0.00731106  0.63074699  1
  O2-  O186  1  0.28968760  0.49022805  0.11034497  1
  O2-  O187  1  0.28621359  0.48715604  0.61734097  1
  O2-  O188  1  0.75882938  -0.00100219  0.12685592  1
  O2-  O189  1  0.76810538  0.00703474  0.61694208  1
  O2-  O190  1  0.77008547  0.51059561  0.11929949  1
  O2-  O191  1  0.76053016  0.51698195  0.62905660  1
  O2-  O192  1  0.13578332  0.27273148  0.27054664  1
  O2-  O193  1  0.14202449  0.26672093  0.77452796  1
  O2-  O194  1  0.13773175  0.78219755  0.25824626  1
  O2-  O195  1  0.13834636  0.77020746  0.77914748  1
  O2-  O196  1  0.63485459  0.26680487  0.27773385  1
  O2-  O197  1  0.63169754  0.27986680  0.77183400  1
  O2-  O198  1  0.61586645  0.77276667  0.26498839  1
  O2-  O199  1  0.61540164  0.77535908  0.75696748  1
  O2-  O200  1  0.36418020  0.21631729  0.23421764  1
  O2-  O201  1  0.36626511  0.21123480  0.73726384  1
  O2-  O202  1  0.38097223  0.73121033  0.23263975  1
  O2-  O203  1  0.37729464  0.73551256  0.73663451  1
  O2-  O204  1  0.86520070  0.21866671  0.23021447  1
  O2-  O205  1  0.86358474  0.23379353  0.72802616  1
  O2-  O206  1  0.86397855  0.72898505  0.23183543  1
  O2-  O207  1  0.86746030  0.71732237  0.74198522  1
  O2-  O208  1  0.28054298  0.36154108  0.26023612  1
  O2-  O209  1  0.28819552  0.36271304  0.76186143  1
  O2-  O210  1  0.28536045  0.86385720  0.26019102  1
  O2-  O211  1  0.27331706  0.87805360  0.76693466  1
  O2-  O212  1  0.77549362  0.36834725  0.23474309  1
  O2-  O213  1  0.76184394  0.38474018  0.74395018  1
  O2-  O214  1  0.76005722  0.87680572  0.24496000  1
  O2-  O215  1  0.78315035  0.86458288  0.75122201  1
  O2-  O216  1  0.21881841  0.13187942  0.23796993  1
  O2-  O217  1  0.23150512  0.11734383  0.74216849  1
  O2-  O218  1  0.23463910  0.63742283  0.21804173  1
  O2-  O219  1  0.23512195  0.63740507  0.73453614  1
  O2-  O220  1  0.72615703  0.11732045  0.24930648  1
  O2-  O221  1  0.71944956  0.13093152  0.76179046  1
  O2-  O222  1  0.71836324  0.63488254  0.26176317  1
  O2-  O223  1  0.72400311  0.62562189  0.74903951  1
  O2-  O224  1  0.11979615  0.47945001  0.23035351  1
  O2-  O225  1  0.12129013  0.47623632  0.72733675  1
  O2-  O226  1  0.11042650  0.97705910  0.22420943  1
  O2-  O227  1  0.13318352  0.97370283  0.73954686  1
  O2-  O228  1  0.61499408  0.48314185  0.23951306  1
  O2-  O229  1  0.62289255  0.49228850  0.72432392  1
  O2-  O230  1  0.62419310  0.97961550  0.23243305  1
  O2-  O231  1  0.61113990  0.96617665  0.73273914  1
  O2-  O232  1  0.38577404  0.01527758  0.26743563  1
  O2-  O233  1  0.37492137  0.01167773  0.76818806  1
  O2-  O234  1  0.38530613  0.52576048  0.27460964  1
  O2-  O235  1  0.39074856  0.53025268  0.76647862  1
  O2-  O236  1  0.86446902  0.01631241  0.26491313  1
  O2-  O237  1  0.88302005  0.02954014  0.76451003  1
  O2-  O238  1  0.88433188  0.52596824  0.27461179  1
  O2-  O239  1  0.86843558  0.51999828  0.76227865  1
  O2-  O240  1  0.47791856  0.38752335  0.23324324  1
  O2-  O241  1  0.47634387  0.38592836  0.73702543  1
  O2-  O242  1  0.48363835  0.87008748  0.23294729  1
  O2-  O243  1  0.47424378  0.87285488  0.74002760  1
  O2-  O244  1  0.97277520  0.38236828  0.23521239  1
  O2-  O245  1  0.98018660  0.38262061  0.72680679  1
  O2-  O246  1  0.96822876  0.88649614  0.24327317  1
  O2-  O247  1  0.98565675  0.88743105  0.71599846  1
  O2-  O248  1  0.01057729  0.11318536  0.27797282  1
  O2-  O249  1  0.03411268  0.11051320  0.76139889  1
  O2-  O250  1  0.02574100  0.61840696  0.27203043  1
  O2-  O251  1  0.02466442  0.61591983  0.77399530  1
  O2-  O252  1  0.52384773  0.11189531  0.26162757  1
  O2-  O253  1  0.52715743  0.11178281  0.75947313  1
  O2-  O254  1  0.52149783  0.63306926  0.26303401  1
  O2-  O255  1  0.51862706  0.63440170  0.75719296  1
  O2-  O256  1  0.13971233  0.48134880  0.02710797  1
  O2-  O257  1  0.13743242  0.47036063  0.52587904  1
  O2-  O258  1  0.13854078  0.97798715  0.01464381  1
  O2-  O259  1  0.12478158  0.98936178  0.52035336  1
  O2-  O260  1  0.63544545  0.46028060  0.01826419  1
  O2-  O261  1  0.61757468  0.48167345  0.51566760  1
  O2-  O262  1  0.61553361  0.97504073  0.01744540  1
  O2-  O263  1  0.63161305  0.97276868  0.51936596  1
  O2-  O264  1  0.37570693  0.01256084  -0.01950506  1
  O2-  O265  1  0.35998895  0.02953108  0.47744445  1
  O2-  O266  1  0.36802208  0.51384832  -0.03747174  1
  O2-  O267  1  0.37854628  0.51528879  0.48377869  1
  O2-  O268  1  0.86146498  0.02482678  -0.02526849  1
  O2-  O269  1  0.87822286  0.02491438  0.48658780  1
  O2-  O270  1  0.86385675  0.53321922  -0.01806823  1
  O2-  O271  1  0.86596393  0.52660869  0.48605286  1
  O2-  O272  1  0.47185801  0.36550726  0.00796374  1
  O2-  O273  1  0.48007685  0.38139308  0.50570962  1
  O2-  O274  1  0.47063366  0.87505515  0.00649205  1
  O2-  O275  1  0.46642880  0.86427258  0.51157427  1
  O2-  O276  1  0.99187962  0.36375155  0.01809417  1
  O2-  O277  1  0.98157736  0.36340074  0.52507096  1
  O2-  O278  1  0.98792790  0.86647775  0.02808361  1
  O2-  O279  1  0.98534211  0.88617691  0.51714533  1
  O2-  O280  1  0.03281275  0.13141243  -0.01941059  1
  O2-  O281  1  0.02235076  0.12290738  0.48370325  1
  O2-  O282  1  0.02600164  0.63574975  -0.02383239  1
  O2-  O283  1  0.02506412  0.63419427  0.47656172  1
  O2-  O284  1  0.51120952  0.11506156  -0.00236406  1
  O2-  O285  1  0.51969424  0.13473954  0.48370447  1
  O2-  O286  1  0.51338085  0.64026542  -0.02329101  1
  O2-  O287  1  0.51586900  0.62393353  0.49216434  1
  O2-  O288  1  0.13766849  0.26500466  -0.01843638  1
  O2-  O289  1  0.13326063  0.26783481  0.48603932  1
  O2-  O290  1  0.13680270  0.76850039  -0.01793844  1
  O2-  O291  1  0.11738425  0.78395815  0.48080253  1
  O2-  O292  1  0.61226227  0.26287117  -0.02514644  1
  O2-  O293  1  0.61441027  0.27316184  0.47285015  1
  O2-  O294  1  0.61055162  0.78414563  -0.00887788  1
  O2-  O295  1  0.60934974  0.76708363  0.48231501  1
  O2-  O296  1  0.36949461  0.22889266  0.02400074  1
  O2-  O297  1  0.37066056  0.23290458  0.52158500  1
  O2-  O298  1  0.37554709  0.73518791  0.01245140  1
  O2-  O299  1  0.38129213  0.71694777  0.51175952  1
  O2-  O300  1  0.88532946  0.21840976  0.01804645  1
  O2-  O301  1  0.88458442  0.22358161  0.52226012  1
  O2-  O302  1  0.88181109  0.72602350  0.02087803  1
  O2-  O303  1  0.88761176  0.73666157  0.52662892  1
  O2-  O304  1  0.27411851  0.36893439  -0.01380299  1
  O2-  O305  1  0.27283698  0.36716283  0.49131181  1
  O2-  O306  1  0.27083628  0.87489197  -0.01805646  1
  O2-  O307  1  0.27242373  0.88867547  0.48985755  1
  O2-  O308  1  0.78192162  0.38639045  -0.00742253  1
  O2-  O309  1  0.75975001  0.38605366  0.53143482  1
  O2-  O310  1  0.77352739  0.88273803  0.00573919  1
  O2-  O311  1  0.77697537  0.88625675  0.49394254  1
  O2-  O312  1  0.23735681  0.12169495  0.00717546  1
  O2-  O313  1  0.23234703  0.12837948  0.51918145  1
  O2-  O314  1  0.23924192  0.62693775  0.01086008  1
  O2-  O315  1  0.22493131  0.61425934  0.51785632  1
  O2-  O316  1  0.71826733  0.11370523  0.00644583  1
  O2-  O317  1  0.72448348  0.11606479  0.49174207  1
  O2-  O318  1  0.70408575  0.61390554  0.00035997  1
  O2-  O319  1  0.71857424  0.61359432  0.49726692  1
