# generated using pymatgen
data_Sr64Ca21Nb43O192
_symmetry_space_group_name_H-M   'P 1'
_cell_length_a   16.62153841
_cell_length_b   16.58834828
_cell_length_c   16.71188120
_cell_angle_alpha   89.93866679
_cell_angle_beta   89.98445240
_cell_angle_gamma   89.92907944
_symmetry_Int_Tables_number   1
_chemical_formula_structural   Sr64Ca21Nb43O192
_chemical_formula_sum   'Sr64 Ca21 Nb43 O192'
_cell_volume   4607.85818925
_cell_formula_units_Z   1
loop_
 _symmetry_equiv_pos_site_id
 _symmetry_equiv_pos_as_xyz
  1  'x, y, z'
loop_
 _atom_type_symbol
 _atom_type_oxidation_number
  Sr2+  2.0
  Ca2+  2.0
  Nb5+  5.0
  O2-  -2.0
loop_
 _atom_site_type_symbol
 _atom_site_label
 _atom_site_symmetry_multiplicity
 _atom_site_fract_x
 _atom_site_fract_y
 _atom_site_fract_z
 _atom_site_occupancy
  Sr2+  Sr0  1  0.11816995  0.12219478  0.12047563  1
  Sr2+  Sr1  1  0.11210910  0.11952447  0.62324810  1
  Sr2+  Sr2  1  0.11411662  0.63075759  0.12774750  1
  Sr2+  Sr3  1  0.12248042  0.63227352  0.62386666  1
  Sr2+  Sr4  1  0.61227324  0.12287075  0.11784910  1
  Sr2+  Sr5  1  0.62397379  0.14812327  0.62769809  1
  Sr2+  Sr6  1  0.62544547  0.63306966  0.13523526  1
  Sr2+  Sr7  1  0.61613555  0.63462022  0.62500871  1
  Sr2+  Sr8  1  0.37482340  0.35581888  0.13057683  1
  Sr2+  Sr9  1  0.37033120  0.38166746  0.62088074  1
  Sr2+  Sr10  1  0.37689202  0.87935085  0.13265927  1
  Sr2+  Sr11  1  0.37142561  0.87776156  0.62150299  1
  Sr2+  Sr12  1  0.86957452  0.39882148  0.12401031  1
  Sr2+  Sr13  1  0.86629555  0.38384835  0.63319904  1
  Sr2+  Sr14  1  0.87598965  0.86870223  0.11548071  1
  Sr2+  Sr15  1  0.87718734  0.87687471  0.61699270  1
  Sr2+  Sr16  1  0.12787401  0.36083443  0.37803664  1
  Sr2+  Sr17  1  0.12820083  0.36472924  0.87158022  1
  Sr2+  Sr18  1  0.13146237  0.87897757  0.36965549  1
  Sr2+  Sr19  1  0.13037857  0.87322123  0.86826970  1
  Sr2+  Sr20  1  0.63639760  0.37033181  0.37149448  1
  Sr2+  Sr21  1  0.64113476  0.36824665  0.87106648  1
  Sr2+  Sr22  1  0.62963976  0.87501664  0.36795502  1
  Sr2+  Sr23  1  0.63407668  0.87378645  0.87363472  1
  Sr2+  Sr24  1  0.37937607  0.12480581  0.37049782  1
  Sr2+  Sr25  1  0.38980774  0.12189152  0.87725283  1
  Sr2+  Sr26  1  0.38731471  0.62230615  0.37395058  1
  Sr2+  Sr27  1  0.38169175  0.62199011  0.87664941  1
  Sr2+  Sr28  1  0.88348680  0.12196338  0.37450505  1
  Sr2+  Sr29  1  0.85685947  0.12725772  0.87612801  1
  Sr2+  Sr30  1  0.88808700  0.60878679  0.37395932  1
  Sr2+  Sr31  1  0.89519712  0.61559382  0.87941665  1
  Sr2+  Sr32  1  0.12036547  0.13153290  0.37355364  1
  Sr2+  Sr33  1  0.12878828  0.12279741  0.87611297  1
  Sr2+  Sr34  1  0.13477678  0.61323755  0.36962333  1
  Sr2+  Sr35  1  0.13692259  0.60761011  0.87055504  1
  Sr2+  Sr36  1  0.63593547  0.12152030  0.37870622  1
  Sr2+  Sr37  1  0.62853250  0.13608686  0.86965880  1
  Sr2+  Sr38  1  0.62694626  0.61288962  0.37859523  1
  Sr2+  Sr39  1  0.62359343  0.61472716  0.87492630  1
  Sr2+  Sr40  1  0.38899456  0.36704137  0.37545030  1
  Sr2+  Sr41  1  0.38141359  0.35942440  0.88160987  1
  Sr2+  Sr42  1  0.38560745  0.88302318  0.37505407  1
  Sr2+  Sr43  1  0.38231121  0.87222825  0.87216442  1
  Sr2+  Sr44  1  0.87962274  0.35901048  0.37068668  1
  Sr2+  Sr45  1  0.88159278  0.36150061  0.87365338  1
  Sr2+  Sr46  1  0.88329128  0.87889419  0.36929814  1
  Sr2+  Sr47  1  0.88246979  0.87701204  0.86939641  1
  Sr2+  Sr48  1  0.11709110  0.36761369  0.12938347  1
  Sr2+  Sr49  1  0.11763279  0.38452584  0.62956876  1
  Sr2+  Sr50  1  0.11472903  0.87587355  0.11982902  1
  Sr2+  Sr51  1  0.11341597  0.87174797  0.62430539  1
  Sr2+  Sr52  1  0.63151641  0.38749916  0.12208517  1
  Sr2+  Sr53  1  0.61257531  0.38095213  0.62585545  1
  Sr2+  Sr54  1  0.64735760  0.87338958  0.13176836  1
  Sr2+  Sr55  1  0.64927216  0.87407093  0.62848372  1
  Sr2+  Sr56  1  0.36564603  0.12226042  0.12966309  1
  Sr2+  Sr57  1  0.37089155  0.12279158  0.61680939  1
  Sr2+  Sr58  1  0.36284463  0.63093422  0.12553761  1
  Sr2+  Sr59  1  0.36620570  0.62628302  0.62104254  1
  Sr2+  Sr60  1  0.86818709  0.12037109  0.11872939  1
  Sr2+  Sr61  1  0.86119641  0.12964112  0.61553661  1
  Sr2+  Sr62  1  0.86440088  0.62990271  0.12878994  1
  Sr2+  Sr63  1  0.85921847  0.64035688  0.62053449  1
  Ca2+  Ca64  1  0.49655423  -0.00395155  -0.00056662  1
  Ca2+  Ca65  1  0.00053989  0.49830174  0.50157506  1
  Ca2+  Ca66  1  0.50288294  -0.00468584  0.50224860  1
  Ca2+  Ca67  1  0.49816428  0.49977862  0.00046776  1
  Ca2+  Ca68  1  0.00296915  0.49842097  -0.00041139  1
  Ca2+  Ca69  1  0.25110968  0.25001800  0.50420385  1
  Ca2+  Ca70  1  0.74979293  0.25381733  0.49760848  1
  Ca2+  Ca71  1  0.75367510  0.25405991  0.00765002  1
  Ca2+  Ca72  1  0.74821425  0.75093193  0.49415703  1
  Ca2+  Ca73  1  0.74830777  0.74834907  -0.00565298  1
  Ca2+  Ca74  1  0.49713615  0.25349508  0.74945098  1
  Ca2+  Ca75  1  0.25508622  0.49579372  0.24962361  1
  Ca2+  Ca76  1  0.50547217  0.25004572  0.24870936  1
  Ca2+  Ca77  1  -0.00339103  0.24681930  0.24812192  1
  Ca2+  Ca78  1  -0.00065316  0.75113567  0.25452281  1
  Ca2+  Ca79  1  0.24637548  -0.00159879  0.25036571  1
  Ca2+  Ca80  1  0.00260363  0.24603360  0.74878492  1
  Ca2+  Ca81  1  0.74971778  0.00290012  0.75002087  1
  Ca2+  Ca82  1  0.00105184  0.74810016  0.75201646  1
  Ca2+  Ca83  1  0.74893959  0.50500547  0.74775354  1
  Ca2+  Ca84  1  0.75250244  0.00290035  0.24773823  1
  Nb5+  Nb85  1  0.00076278  0.00064562  -0.00936397  1
  Nb5+  Nb86  1  0.00106314  -0.00155339  0.49496472  1
  Nb5+  Nb87  1  0.49966146  0.49872335  0.50021395  1
  Nb5+  Nb88  1  0.24818115  0.74754259  0.49164192  1
  Nb5+  Nb89  1  0.24656552  0.74367091  -0.00658176  1
  Nb5+  Nb90  1  0.24792401  0.24159628  -0.00012018  1
  Nb5+  Nb91  1  0.49955951  0.75389376  0.75358046  1
  Nb5+  Nb92  1  0.25478502  0.49231022  0.75153180  1
  Nb5+  Nb93  1  0.24977251  -0.00711644  0.75012792  1
  Nb5+  Nb94  1  0.49926688  0.74975384  0.25599586  1
  Nb5+  Nb95  1  0.75229426  0.50246500  0.25451302  1
  Nb5+  Nb96  1  -0.00159028  0.00010030  0.23837836  1
  Nb5+  Nb97  1  -0.00232706  0.00232165  0.74480927  1
  Nb5+  Nb98  1  0.00730408  0.49506839  0.25362557  1
  Nb5+  Nb99  1  -0.00515151  0.50252664  0.74484441  1
  Nb5+  Nb100  1  0.50264030  0.00378293  0.25320092  1
  Nb5+  Nb101  1  0.50219683  -0.00065845  0.74825241  1
  Nb5+  Nb102  1  0.50103552  0.50214909  0.24540386  1
  Nb5+  Nb103  1  0.49501949  0.49995942  0.75177153  1
  Nb5+  Nb104  1  0.25011382  0.24574738  0.25453976  1
  Nb5+  Nb105  1  0.25332125  0.24078070  0.74853122  1
  Nb5+  Nb106  1  0.24829643  0.75291724  0.24119246  1
  Nb5+  Nb107  1  0.25180200  0.74615785  0.74417483  1
  Nb5+  Nb108  1  0.74661224  0.24670695  0.24518156  1
  Nb5+  Nb109  1  0.75322748  0.25418151  0.74854634  1
  Nb5+  Nb110  1  0.75343476  0.74841513  0.25866326  1
  Nb5+  Nb111  1  0.75410987  0.74756096  0.75553759  1
  Nb5+  Nb112  1  -0.00251413  0.25356271  0.50696581  1
  Nb5+  Nb113  1  -0.00218955  0.24966578  1.00210978  1
  Nb5+  Nb114  1  -0.00055240  0.74430287  0.49486048  1
  Nb5+  Nb115  1  0.00191427  0.74760135  0.99536942  1
  Nb5+  Nb116  1  0.50252492  0.24254035  0.49796027  1
  Nb5+  Nb117  1  0.50644214  0.25217876  1.00313878  1
  Nb5+  Nb118  1  0.49685481  0.75035382  0.50703554  1
  Nb5+  Nb119  1  0.50001732  0.75171243  1.00858755  1
  Nb5+  Nb120  1  0.25024291  -0.01003268  -0.00210119  1
  Nb5+  Nb121  1  0.24491982  0.00311879  0.49958143  1
  Nb5+  Nb122  1  0.24972620  0.48944614  0.00297598  1
  Nb5+  Nb123  1  0.25300500  0.49854167  0.49592447  1
  Nb5+  Nb124  1  0.74368289  -0.00173411  0.00072963  1
  Nb5+  Nb125  1  0.74821485  -0.00247252  0.49994805  1
  Nb5+  Nb126  1  0.75208926  0.50841891  -0.00835533  1
  Nb5+  Nb127  1  0.75241220  0.50165932  0.50304169  1
  O2-  O128  1  -0.00356327  0.01595982  0.12212217  1
  O2-  O129  1  -0.00892449  0.01535598  0.62877139  1
  O2-  O130  1  0.01533927  0.51809649  0.13571173  1
  O2-  O131  1  0.03482916  0.51507710  0.63311913  1
  O2-  O132  1  0.48056950  0.01480219  0.13542734  1
  O2-  O133  1  0.47076860  0.00836569  0.63510951  1
  O2-  O134  1  0.52790273  0.51691312  0.13470146  1
  O2-  O135  1  0.51445233  0.52086724  0.61957263  1
  O2-  O136  1  0.00686478  -0.01834517  0.38040454  1
  O2-  O137  1  0.01672461  -0.01988649  0.87698882  1
  O2-  O138  1  -0.02630174  0.47974535  0.36769486  1
  O2-  O139  1  -0.02224637  0.48137830  0.86317438  1
  O2-  O140  1  0.51207622  -0.02922077  0.36794623  1
  O2-  O141  1  0.49749315  -0.02931781  0.86273142  1
  O2-  O142  1  0.48269653  0.49513621  0.38001701  1
  O2-  O143  1  0.46869744  0.49014194  0.86270955  1
  O2-  O144  1  0.25901827  0.26310475  0.11629130  1
  O2-  O145  1  0.28279682  0.25685327  0.63905851  1
  O2-  O146  1  0.26364611  0.76837853  0.12477502  1
  O2-  O147  1  0.26816412  0.76011371  0.62976873  1
  O2-  O148  1  0.77833690  0.28238232  0.13794052  1
  O2-  O149  1  0.77489227  0.26692426  0.63274650  1
  O2-  O150  1  0.76371418  0.76104244  0.13751762  1
  O2-  O151  1  0.76744150  0.77193317  0.63483426  1
  O2-  O152  1  0.23772993  0.22753930  0.36816238  1
  O2-  O153  1  0.22759766  0.24305412  0.87957243  1
  O2-  O154  1  0.23451862  0.73125159  0.37861838  1
  O2-  O155  1  0.23701901  0.73499691  0.87709265  1
  O2-  O156  1  0.72045564  0.24106025  0.36413582  1
  O2-  O157  1  0.73327909  0.24025664  0.87182416  1
  O2-  O158  1  0.70656704  0.73968558  0.36555244  1
  O2-  O159  1  0.70740387  0.73503943  0.86281777  1
  O2-  O160  1  0.00250230  0.21734112  0.11535526  1
  O2-  O161  1  -0.00927185  0.21290506  0.61695175  1
  O2-  O162  1  -0.00214252  0.73939733  0.11549465  1
  O2-  O163  1  -0.00950412  0.73510409  0.61470859  1
  O2-  O164  1  0.47731887  0.22242598  0.11479292  1
  O2-  O165  1  0.47968526  0.23084100  0.61591996  1
  O2-  O166  1  0.48454794  0.72745055  0.12155182  1
  O2-  O167  1  0.47719101  0.73173338  0.62165063  1
  O2-  O168  1  0.22152258  0.01395540  0.38794503  1
  O2-  O169  1  0.22960417  0.00693123  0.87166281  1
  O2-  O170  1  0.26673897  0.52844806  0.38529597  1
  O2-  O171  1  0.26920375  0.51950932  0.86672977  1
  O2-  O172  1  0.75323882  0.02529314  0.38400007  1
  O2-  O173  1  0.73665210  0.02855042  0.88551531  1
  O2-  O174  1  0.75710611  0.52969377  0.37397329  1
  O2-  O175  1  0.76679233  0.53427960  0.88092716  1
  O2-  O176  1  0.01672449  0.25818676  0.38739849  1
  O2-  O177  1  0.01830441  0.26156029  0.88586725  1
  O2-  O178  1  0.01696174  0.78568678  0.38705611  1
  O2-  O179  1  0.01077523  0.78506755  0.88487904  1
  O2-  O180  1  0.51337979  0.27804713  0.38490489  1
  O2-  O181  1  0.51577613  0.27691729  0.88514586  1
  O2-  O182  1  0.50338245  0.76292963  0.37273643  1
  O2-  O183  1  0.50856583  0.77231628  0.86721871  1
  O2-  O184  1  0.26060128  -0.02160779  0.11270071  1
  O2-  O185  1  0.26079296  -0.01760854  0.63112002  1
  O2-  O186  1  0.22644595  0.48071703  0.11399672  1
  O2-  O187  1  0.24405606  0.48579451  0.62716470  1
  O2-  O188  1  0.77389479  -0.02553359  0.11441479  1
  O2-  O189  1  0.77110138  -0.01840797  0.61700327  1
  O2-  O190  1  0.73887423  0.49126547  0.13514898  1
  O2-  O191  1  0.73395916  0.47137074  0.61334299  1
  O2-  O192  1  0.13506864  0.27665742  0.24376237  1
  O2-  O193  1  0.14279511  0.27843815  0.73943722  1
  O2-  O194  1  0.13514354  0.77364644  0.23875541  1
  O2-  O195  1  0.13812553  0.76981930  0.74128331  1
  O2-  O196  1  0.63454092  0.28635575  0.22923460  1
  O2-  O197  1  0.63254291  0.27419436  0.73368177  1
  O2-  O198  1  0.61348983  0.76244619  0.22800113  1
  O2-  O199  1  0.61092641  0.76426597  0.72515319  1
  O2-  O200  1  0.36889019  0.22085026  0.25371515  1
  O2-  O201  1  0.36474663  0.23831502  0.78627683  1
  O2-  O202  1  0.37755054  0.72672036  0.25346171  1
  O2-  O203  1  0.37072803  0.73739794  0.76815415  1
  O2-  O204  1  0.86250608  0.23568957  0.27700619  1
  O2-  O205  1  0.86952417  0.23226924  0.77121571  1
  O2-  O206  1  0.86382794  0.72857075  0.28152951  1
  O2-  O207  1  0.86466236  0.73005112  0.78029910  1
  O2-  O208  1  0.28324173  0.36223144  0.26117876  1
  O2-  O209  1  0.27764525  0.38011099  0.76332841  1
  O2-  O210  1  0.27431435  0.86163454  0.27574849  1
  O2-  O211  1  0.26676378  0.87471371  0.76593456  1
  O2-  O212  1  0.76602027  0.38861588  0.27362322  1
  O2-  O213  1  0.77166499  0.37276309  0.77162951  1
  O2-  O214  1  0.75770438  0.86563888  0.27021481  1
  O2-  O215  1  0.75407910  0.86662887  0.77254409  1
  O2-  O216  1  0.23065197  0.13191668  0.22143437  1
  O2-  O217  1  0.23354371  0.12432928  0.73995151  1
  O2-  O218  1  0.23152816  0.63480132  0.23212909  1
  O2-  O219  1  0.23671897  0.62925323  0.73584555  1
  O2-  O220  1  0.72425708  0.13665001  0.21970731  1
  O2-  O221  1  0.72947690  0.13592898  0.73357629  1
  O2-  O222  1  0.73106435  0.62735756  0.23846968  1
  O2-  O223  1  0.72934346  0.63678749  0.72041293  1
  O2-  O224  1  0.11939597  0.47456615  0.27424061  1
  O2-  O225  1  0.13834570  0.48250098  0.76513007  1
  O2-  O226  1  0.11331353  0.96501592  0.24266639  1
  O2-  O227  1  0.12990160  0.97729960  0.73867360  1
  O2-  O228  1  0.62499952  0.49155541  0.27101344  1
  O2-  O229  1  0.61050728  0.49329906  0.76912929  1
  O2-  O230  1  0.61638698  0.97398279  0.23529084  1
  O2-  O231  1  0.61256589  0.97302855  0.73570105  1
  O2-  O232  1  0.38209525  0.00922546  0.27019279  1
  O2-  O233  1  0.36506923  0.01492942  0.76489985  1
  O2-  O234  1  0.38850753  0.53120176  0.23741138  1
  O2-  O235  1  0.37299632  0.52281649  0.72848159  1
  O2-  O236  1  0.88503316  0.02978073  0.25531677  1
  O2-  O237  1  0.88740913  0.01799251  0.77267531  1
  O2-  O238  1  0.86863418  0.52389174  0.23929068  1
  O2-  O239  1  0.88518404  0.52616470  0.71968821  1
  O2-  O240  1  0.48021886  0.38873374  0.23981906  1
  O2-  O241  1  0.48176898  0.38955984  0.72191475  1
  O2-  O242  1  0.47875147  0.86482056  0.23836975  1
  O2-  O243  1  0.47114723  0.86728123  0.73179746  1
  O2-  O244  1  0.97797608  0.38277168  0.22769669  1
  O2-  O245  1  0.98944070  0.38375040  0.72710249  1
  O2-  O246  1  0.96436470  0.88437850  0.23642061  1
  O2-  O247  1  0.98665129  0.88412631  0.73334659  1
  O2-  O248  1  0.02777021  0.11204087  0.26475580  1
  O2-  O249  1  0.03689432  0.11161249  0.76226183  1
  O2-  O250  1  0.01843892  0.61561352  0.27331003  1
  O2-  O251  1  0.02522565  0.61522429  0.77382798  1
  O2-  O252  1  0.52439981  0.11535687  0.27395729  1
  O2-  O253  1  0.51523941  0.11357443  0.76690978  1
  O2-  O254  1  0.51960705  0.62855797  0.26895051  1
  O2-  O255  1  0.50549223  0.63110768  0.76190010  1
  O2-  O256  1  0.13792518  0.48857294  -0.03373299  1
  O2-  O257  1  0.13883846  0.47986043  0.48454341  1
  O2-  O258  1  0.12780055  0.98797993  0.01023970  1
  O2-  O259  1  0.12458163  0.97857361  0.52066170  1
  O2-  O260  1  0.63464359  0.47773745  -0.02136454  1
  O2-  O261  1  0.61650861  0.48528659  0.48445403  1
  O2-  O262  1  0.63167159  0.97689414  0.01538633  1
  O2-  O263  1  0.63724105  0.96550364  0.50361659  1
  O2-  O264  1  0.36011095  0.02130370  -0.01562513  1
  O2-  O265  1  0.36086593  0.01031124  0.48592693  1
  O2-  O266  1  0.35963908  0.52887446  0.01158910  1
  O2-  O267  1  0.37746336  0.52110368  0.51551788  1
  O2-  O268  1  0.88563094  0.01764875  -0.01362186  1
  O2-  O269  1  0.88611448  0.02012709  0.49648547  1
  O2-  O270  1  0.86810448  0.53217742  0.01910177  1
  O2-  O271  1  0.86438831  0.52780072  0.51739398  1
  O2-  O272  1  0.47276479  0.36593818  0.02053723  1
  O2-  O273  1  0.47976026  0.38449772  0.51668975  1
  O2-  O274  1  0.45798375  0.86110642  0.00724959  1
  O2-  O275  1  0.46470152  0.86102407  0.50630676  1
  O2-  O276  1  0.98235852  0.36298289  0.02246203  1
  O2-  O277  1  0.97212785  0.36463141  0.52579136  1
  O2-  O278  1  0.99234441  0.88285421  0.01931913  1
  O2-  O279  1  0.99064763  0.87895834  0.52058026  1
  O2-  O280  1  0.02662768  0.11692854  -0.01431606  1
  O2-  O281  1  0.02965807  0.11359692  0.48887546  1
  O2-  O282  1  0.02859936  0.63706380  -0.02320361  1
  O2-  O283  1  0.02734559  0.63404933  0.47453893  1
  O2-  O284  1  0.51557659  0.13375125  -0.02588623  1
  O2-  O285  1  0.52626407  0.13031329  0.48154246  1
  O2-  O286  1  0.50770476  0.64023021  -0.02929274  1
  O2-  O287  1  0.50878103  0.62919330  0.48334763  1
  O2-  O288  1  0.12938253  0.26971862  0.01179454  1
  O2-  O289  1  0.11775883  0.27357956  0.51882811  1
  O2-  O290  1  0.13106479  0.77383226  0.00998327  1
  O2-  O291  1  0.13231032  0.75973971  0.52013145  1
  O2-  O292  1  0.61784058  0.26568502  0.02764755  1
  O2-  O293  1  0.61492456  0.27235141  0.52598988  1
  O2-  O294  1  0.61040002  0.77945096  0.01499540  1
  O2-  O295  1  0.60886575  0.76933207  0.52006027  1
  O2-  O296  1  0.36537105  0.23494943  -0.01733546  1
  O2-  O297  1  0.38434370  0.22981293  0.47975131  1
  O2-  O298  1  0.36351190  0.72883990  -0.00849121  1
  O2-  O299  1  0.36667614  0.72764092  0.48930245  1
  O2-  O300  1  0.88690520  0.22170684  -0.01149382  1
  O2-  O301  1  0.88436799  0.22196901  0.48494425  1
  O2-  O302  1  0.88637438  0.73394240  -0.01227456  1
  O2-  O303  1  0.88558319  0.72642328  0.48289838  1
  O2-  O304  1  0.26934448  0.37666821  -0.01585512  1
  O2-  O305  1  0.28029148  0.38624501  0.48568381  1
  O2-  O306  1  0.26178315  0.87467915  -0.02338560  1
  O2-  O307  1  0.26020391  0.86758599  0.48849749  1
  O2-  O308  1  0.77842189  0.39097049  -0.01147474  1
  O2-  O309  1  0.76493811  0.38975278  0.46755574  1
  O2-  O310  1  0.77199883  0.88416296  -0.02812806  1
  O2-  O311  1  0.78251840  0.88327221  0.48021701  1
  O2-  O312  1  0.23053915  0.12598122  0.01011907  1
  O2-  O313  1  0.23366459  0.11329803  0.52983913  1
  O2-  O314  1  0.22488108  0.63182184  0.01707274  1
  O2-  O315  1  0.23567825  0.62666860  0.52161050  1
  O2-  O316  1  0.74084720  0.11527562  0.02957382  1
  O2-  O317  1  0.72940035  0.11528921  0.52304800  1
  O2-  O318  1  0.71865648  0.61879622  0.02186795  1
  O2-  O319  1  0.71954000  0.61667119  0.51681963  1
