# generated using pymatgen
data_Sr64Ca21Nb43O192
_symmetry_space_group_name_H-M   'P 1'
_cell_length_a   16.57223436
_cell_length_b   16.55594889
_cell_length_c   16.69240379
_cell_angle_alpha   90.06903237
_cell_angle_beta   89.99369160
_cell_angle_gamma   89.98802314
_symmetry_Int_Tables_number   1
_chemical_formula_structural   Sr64Ca21Nb43O192
_chemical_formula_sum   'Sr64 Ca21 Nb43 O192'
_cell_volume   4579.87576958
_cell_formula_units_Z   1
loop_
 _symmetry_equiv_pos_site_id
 _symmetry_equiv_pos_as_xyz
  1  'x, y, z'
loop_
 _atom_type_symbol
 _atom_type_oxidation_number
  Sr2+  2.0
  Ca2+  2.0
  Nb5+  5.0
  O2-  -2.0
loop_
 _atom_site_type_symbol
 _atom_site_label
 _atom_site_symmetry_multiplicity
 _atom_site_fract_x
 _atom_site_fract_y
 _atom_site_fract_z
 _atom_site_occupancy
  Sr2+  Sr0  1  0.13191553  0.13327259  0.12555968  1
  Sr2+  Sr1  1  0.13470696  0.13034896  0.62370996  1
  Sr2+  Sr2  1  0.13030108  0.62169315  0.12310249  1
  Sr2+  Sr3  1  0.12923430  0.63413318  0.62957095  1
  Sr2+  Sr4  1  0.63152791  0.12928327  0.12265066  1
  Sr2+  Sr5  1  0.62750343  0.13110605  0.62299678  1
  Sr2+  Sr6  1  0.62968085  0.63797514  0.13287392  1
  Sr2+  Sr7  1  0.63326790  0.63197027  0.62524131  1
  Sr2+  Sr8  1  0.37518383  0.38955761  0.12184958  1
  Sr2+  Sr9  1  0.38515226  0.38421340  0.62856142  1
  Sr2+  Sr10  1  0.38089921  0.86514878  0.12980752  1
  Sr2+  Sr11  1  0.37659233  0.87560625  0.62840200  1
  Sr2+  Sr12  1  0.88250342  0.39110495  0.13075121  1
  Sr2+  Sr13  1  0.87620460  0.38865921  0.62167621  1
  Sr2+  Sr14  1  0.88326445  0.88165648  0.12880967  1
  Sr2+  Sr15  1  0.88562061  0.87165897  0.62211101  1
  Sr2+  Sr16  1  0.10004958  0.36880076  0.37277416  1
  Sr2+  Sr17  1  0.10942975  0.35956087  0.87266081  1
  Sr2+  Sr18  1  0.11179868  0.87411531  0.37604967  1
  Sr2+  Sr19  1  0.10686515  0.87315455  0.87853117  1
  Sr2+  Sr20  1  0.62701834  0.37273956  0.36942345  1
  Sr2+  Sr21  1  0.61625334  0.37074817  0.87388868  1
  Sr2+  Sr22  1  0.61681580  0.87104236  0.37624404  1
  Sr2+  Sr23  1  0.62793169  0.87709740  0.87625353  1
  Sr2+  Sr24  1  0.36661449  0.11431331  0.37896160  1
  Sr2+  Sr25  1  0.36462963  0.12317272  0.87293357  1
  Sr2+  Sr26  1  0.36206507  0.62071677  0.37479073  1
  Sr2+  Sr27  1  0.36819308  0.61524346  0.88443465  1
  Sr2+  Sr28  1  0.88967413  0.12511405  0.37561961  1
  Sr2+  Sr29  1  0.86224734  0.11144776  0.87890454  1
  Sr2+  Sr30  1  0.86405551  0.61426166  0.37470386  1
  Sr2+  Sr31  1  0.86262175  0.62252316  0.86520201  1
  Sr2+  Sr32  1  0.12211440  0.12426589  0.36690639  1
  Sr2+  Sr33  1  0.12173595  0.11443116  0.87572387  1
  Sr2+  Sr34  1  0.11911103  0.61031047  0.37388025  1
  Sr2+  Sr35  1  0.10886036  0.61511408  0.87426192  1
  Sr2+  Sr36  1  0.62176616  0.11092059  0.37508196  1
  Sr2+  Sr37  1  0.61514073  0.12045714  0.87923376  1
  Sr2+  Sr38  1  0.61511005  0.61775891  0.37426959  1
  Sr2+  Sr39  1  0.62219935  0.61519870  0.87736864  1
  Sr2+  Sr40  1  0.36845657  0.36542185  0.38405953  1
  Sr2+  Sr41  1  0.37267107  0.36254136  0.87377647  1
  Sr2+  Sr42  1  0.36813732  0.86433928  0.37504077  1
  Sr2+  Sr43  1  0.36413181  0.86383723  0.87670635  1
  Sr2+  Sr44  1  0.86790155  0.36077627  0.36785192  1
  Sr2+  Sr45  1  0.86486462  0.36574936  0.87231174  1
  Sr2+  Sr46  1  0.86511201  0.86555848  0.37773429  1
  Sr2+  Sr47  1  0.86963722  0.86306528  0.86994100  1
  Sr2+  Sr48  1  0.12287479  0.37896086  0.12765968  1
  Sr2+  Sr49  1  0.14031569  0.38988301  0.63015899  1
  Sr2+  Sr50  1  0.13648975  0.88483812  0.12366970  1
  Sr2+  Sr51  1  0.12400929  0.87532053  0.63306500  1
  Sr2+  Sr52  1  0.63663562  0.38389804  0.12666817  1
  Sr2+  Sr53  1  0.63319607  0.37745167  0.63000739  1
  Sr2+  Sr54  1  0.63715031  0.87775546  0.13147902  1
  Sr2+  Sr55  1  0.63775639  0.88935117  0.62224623  1
  Sr2+  Sr56  1  0.37533669  0.12557503  0.13727500  1
  Sr2+  Sr57  1  0.38599032  0.12731614  0.62721526  1
  Sr2+  Sr58  1  0.38306172  0.63348859  0.11920331  1
  Sr2+  Sr59  1  0.36703953  0.62519870  0.62317155  1
  Sr2+  Sr60  1  0.87869846  0.12585963  0.12317582  1
  Sr2+  Sr61  1  0.88374368  0.13066424  0.61763297  1
  Sr2+  Sr62  1  0.88918003  0.62958593  0.12582656  1
  Sr2+  Sr63  1  0.89354380  0.63382535  0.62358355  1
  Ca2+  Ca64  1  -0.00137373  0.49916619  -0.00434093  1
  Ca2+  Ca65  1  0.00180124  -0.00121647  0.50111212  1
  Ca2+  Ca66  1  0.49717159  0.00190064  0.00045193  1
  Ca2+  Ca67  1  -0.00056297  0.50046090  0.50116866  1
  Ca2+  Ca68  1  0.00040754  0.00077175  0.00164085  1
  Ca2+  Ca69  1  0.25038560  0.25116253  0.50197927  1
  Ca2+  Ca70  1  0.75014050  0.74983150  0.50025983  1
  Ca2+  Ca71  1  0.24649227  0.75073557  -0.00055489  1
  Ca2+  Ca72  1  0.24852210  0.75379838  0.49842762  1
  Ca2+  Ca73  1  0.75366049  0.74763229  0.00216786  1
  Ca2+  Ca74  1  0.74936335  0.00113808  0.74917321  1
  Ca2+  Ca75  1  0.74922886  0.00135858  0.25123229  1
  Ca2+  Ca76  1  0.25138660  0.49697480  0.25037505  1
  Ca2+  Ca77  1  0.25178541  0.49886384  0.75385217  1
  Ca2+  Ca78  1  0.74929665  0.50003499  0.74847277  1
  Ca2+  Ca79  1  -0.00134355  0.24883331  0.24461550  1
  Ca2+  Ca80  1  0.49932099  0.24996210  0.25146502  1
  Ca2+  Ca81  1  0.49812821  0.74929220  0.75103454  1
  Ca2+  Ca82  1  -0.00261559  0.24541033  0.74874791  1
  Ca2+  Ca83  1  0.00258258  0.75032737  0.25082963  1
  Ca2+  Ca84  1  0.74842628  0.50176245  0.24925851  1
  Nb5+  Nb85  1  0.50146961  0.49573487  0.50462230  1
  Nb5+  Nb86  1  0.50391131  0.49910713  0.00749469  1
  Nb5+  Nb87  1  0.49569997  -0.00587451  0.50011376  1
  Nb5+  Nb88  1  0.24565215  0.25099131  -0.00035121  1
  Nb5+  Nb89  1  0.74140999  0.25319832  -0.00517150  1
  Nb5+  Nb90  1  0.74718608  0.24883826  0.49386742  1
  Nb5+  Nb91  1  0.50051109  0.24956521  0.74872663  1
  Nb5+  Nb92  1  0.00072120  0.74921813  0.75201224  1
  Nb5+  Nb93  1  0.25020654  -0.00274516  0.25687943  1
  Nb5+  Nb94  1  0.25171260  -0.00173473  0.75555543  1
  Nb5+  Nb95  1  0.50012496  0.74843666  0.25332731  1
  Nb5+  Nb96  1  -0.00207570  0.00053207  0.25033216  1
  Nb5+  Nb97  1  -0.00345848  0.00440133  0.74708987  1
  Nb5+  Nb98  1  0.00119411  0.50262385  0.25042140  1
  Nb5+  Nb99  1  -0.00255337  0.49289691  0.75152662  1
  Nb5+  Nb100  1  0.49962246  -0.00340013  0.24676975  1
  Nb5+  Nb101  1  0.49574015  -0.00256047  0.75241532  1
  Nb5+  Nb102  1  0.49256465  0.49722072  0.25995275  1
  Nb5+  Nb103  1  0.50242915  0.50377658  0.75581142  1
  Nb5+  Nb104  1  0.25115244  0.25317682  0.25343252  1
  Nb5+  Nb105  1  0.25029963  0.24958114  0.74644888  1
  Nb5+  Nb106  1  0.24481960  0.74917180  0.24965139  1
  Nb5+  Nb107  1  0.24859917  0.74572889  0.75809515  1
  Nb5+  Nb108  1  0.74799123  0.24704725  0.23890150  1
  Nb5+  Nb109  1  0.75265197  0.24378197  0.74416471  1
  Nb5+  Nb110  1  0.75569458  0.74800343  0.25422512  1
  Nb5+  Nb111  1  0.74309923  0.75307253  0.74556578  1
  Nb5+  Nb112  1  0.00395345  0.25371680  0.50805105  1
  Nb5+  Nb113  1  -0.01273387  0.24887670  0.99735755  1
  Nb5+  Nb114  1  0.00523830  0.74839124  0.49383023  1
  Nb5+  Nb115  1  -0.00173633  0.75178113  1.00334646  1
  Nb5+  Nb116  1  0.50383557  0.24481320  0.49825969  1
  Nb5+  Nb117  1  0.49326334  0.25141237  1.00267503  1
  Nb5+  Nb118  1  0.49795557  0.74256301  0.50327250  1
  Nb5+  Nb119  1  0.50501447  0.75340851  0.99632861  1
  Nb5+  Nb120  1  0.25704044  0.00211847  0.00630550  1
  Nb5+  Nb121  1  0.24835148  -0.00114999  0.50694740  1
  Nb5+  Nb122  1  0.24596609  0.49554177  -0.00733932  1
  Nb5+  Nb123  1  0.24734286  0.49808539  0.49627740  1
  Nb5+  Nb124  1  0.75210224  -0.00577642  0.00360666  1
  Nb5+  Nb125  1  0.75357143  0.00340961  0.50174688  1
  Nb5+  Nb126  1  0.75219340  0.50367686  0.00099338  1
  Nb5+  Nb127  1  0.74822064  0.50291134  0.49965393  1
  O2-  O128  1  0.01212650  -0.03134141  0.13598425  1
  O2-  O129  1  0.00670322  -0.03109225  0.63461450  1
  O2-  O130  1  0.01624918  0.48168183  0.13066560  1
  O2-  O131  1  0.02303154  0.48297765  0.63502360  1
  O2-  O132  1  0.49516973  -0.02679693  0.13447066  1
  O2-  O133  1  0.49949481  -0.01223646  0.62297798  1
  O2-  O134  1  0.51396038  0.47885013  0.12041644  1
  O2-  O135  1  0.51842976  0.48569422  0.61833848  1
  O2-  O136  1  0.00938690  0.02643078  0.36764116  1
  O2-  O137  1  0.00095371  0.01821120  0.86456131  1
  O2-  O138  1  -0.01099233  0.52890711  0.36799933  1
  O2-  O139  1  -0.01908622  0.52992429  0.86344201  1
  O2-  O140  1  0.49212783  0.01595228  0.38030328  1
  O2-  O141  1  0.48840111  0.02648695  0.86354345  1
  O2-  O142  1  0.48168769  0.51928729  0.37388300  1
  O2-  O143  1  0.48759819  0.51444942  0.87122387  1
  O2-  O144  1  0.26887442  0.23128609  0.11416452  1
  O2-  O145  1  0.26590853  0.21884504  0.63496747  1
  O2-  O146  1  0.27530946  0.73927580  0.13440142  1
  O2-  O147  1  0.26610847  0.73997977  0.63927642  1
  O2-  O148  1  0.75765351  0.22702240  0.12290851  1
  O2-  O149  1  0.75816808  0.22270268  0.62995977  1
  O2-  O150  1  0.76261737  0.71720991  0.13811517  1
  O2-  O151  1  0.76622448  0.71712211  0.63359891  1
  O2-  O152  1  0.22627405  0.26782077  0.36494890  1
  O2-  O153  1  0.24421816  0.26305621  0.87261469  1
  O2-  O154  1  0.23835333  0.78540592  0.36149396  1
  O2-  O155  1  0.23290120  0.78741982  0.86728287  1
  O2-  O156  1  0.73397224  0.26705412  0.38089713  1
  O2-  O157  1  0.73536968  0.27403180  0.88063060  1
  O2-  O158  1  0.73339434  0.78202938  0.36793217  1
  O2-  O159  1  0.73980415  0.77937571  0.86425576  1
  O2-  O160  1  -0.01495106  0.28031755  0.11136818  1
  O2-  O161  1  -0.03962877  0.26529986  0.61768142  1
  O2-  O162  1  -0.02899376  0.76114425  0.11605391  1
  O2-  O163  1  -0.01121425  0.76513912  0.63225984  1
  O2-  O164  1  0.47407380  0.26637783  0.11395969  1
  O2-  O165  1  0.48249873  0.26174399  0.62553412  1
  O2-  O166  1  0.48159701  0.75343606  0.13235885  1
  O2-  O167  1  0.46594195  0.75052748  0.61453362  1
  O2-  O168  1  0.26244851  -0.01266580  0.37218066  1
  O2-  O169  1  0.27105008  -0.00858463  0.87125903  1
  O2-  O170  1  0.28383706  0.48546392  0.38352950  1
  O2-  O171  1  0.28928150  0.48443517  0.88321007  1
  O2-  O172  1  0.74181496  -0.01133798  0.38635614  1
  O2-  O173  1  0.76528307  -0.01711086  0.88411041  1
  O2-  O174  1  0.76313030  0.47020249  0.38659002  1
  O2-  O175  1  0.76441148  0.47511233  0.88629440  1
  O2-  O176  1  0.01278701  0.23048116  0.38763587  1
  O2-  O177  1  0.02209016  0.22617740  0.88482034  1
  O2-  O178  1  0.03495339  0.73494084  0.38361303  1
  O2-  O179  1  0.02283279  0.74015867  0.86927862  1
  O2-  O180  1  0.53353107  0.24251730  0.38719631  1
  O2-  O181  1  0.51627236  0.24274280  0.86924350  1
  O2-  O182  1  0.52293065  0.74260653  0.37400863  1
  O2-  O183  1  0.53524390  0.74081435  0.88576348  1
  O2-  O184  1  0.24417495  0.01823958  0.12287554  1
  O2-  O185  1  0.24260408  0.01571171  0.62387191  1
  O2-  O186  1  0.23506751  0.49738698  0.11094451  1
  O2-  O187  1  0.23809992  0.52139054  0.61534747  1
  O2-  O188  1  0.73701873  0.02644090  0.11726203  1
  O2-  O189  1  0.72956033  0.02350448  0.61620914  1
  O2-  O190  1  0.71559264  0.51055102  0.11375840  1
  O2-  O191  1  0.71301204  0.50486479  0.61248031  1
  O2-  O192  1  0.13737636  0.25851958  0.22009066  1
  O2-  O193  1  0.13605375  0.26801331  0.73453538  1
  O2-  O194  1  0.13583808  0.77421701  0.22322859  1
  O2-  O195  1  0.12571153  0.76731570  0.73581513  1
  O2-  O196  1  0.63168640  0.27929661  0.23413233  1
  O2-  O197  1  0.61960754  0.26539687  0.73574852  1
  O2-  O198  1  0.61751889  0.76963546  0.23514769  1
  O2-  O199  1  0.63126103  0.77389236  0.72362722  1
  O2-  O200  1  0.36435166  0.21805254  0.26683746  1
  O2-  O201  1  0.37971010  0.23084909  0.76416916  1
  O2-  O202  1  0.37900864  0.73701229  0.26974848  1
  O2-  O203  1  0.36470252  0.73200395  0.78145118  1
  O2-  O204  1  0.86237753  0.22553065  0.26662572  1
  O2-  O205  1  0.86218815  0.22507334  0.77423568  1
  O2-  O206  1  0.86792075  0.73097237  0.27777566  1
  O2-  O207  1  0.88224116  0.73634942  0.76462988  1
  O2-  O208  1  0.27856364  0.36201729  0.23215252  1
  O2-  O209  1  0.27522239  0.36249536  0.73120799  1
  O2-  O210  1  0.27167570  0.88354844  0.22810238  1
  O2-  O211  1  0.27076322  0.88336795  0.73470570  1
  O2-  O212  1  0.77230300  0.36515078  0.23391586  1
  O2-  O213  1  0.76455300  0.36110541  0.73254005  1
  O2-  O214  1  0.76655962  0.86534478  0.22386300  1
  O2-  O215  1  0.77398892  0.86695915  0.72242035  1
  O2-  O216  1  0.23309656  0.11823489  0.25769483  1
  O2-  O217  1  0.23538938  0.12243230  0.76811418  1
  O2-  O218  1  0.23190057  0.63590215  0.27002418  1
  O2-  O219  1  0.22692550  0.63403082  0.77528489  1
  O2-  O220  1  0.71488615  0.13613808  0.26347056  1
  O2-  O221  1  0.71926524  0.13512827  0.77641347  1
  O2-  O222  1  0.72415128  0.63439073  0.27864852  1
  O2-  O223  1  0.73097754  0.63521649  0.77575391  1
  O2-  O224  1  0.11957439  0.47433947  0.26913457  1
  O2-  O225  1  0.11722650  0.47875588  0.77278677  1
  O2-  O226  1  0.13412619  0.97729448  0.25840654  1
  O2-  O227  1  0.13487995  0.98277943  0.75918538  1
  O2-  O228  1  0.60966320  0.48211806  0.26156094  1
  O2-  O229  1  0.61435854  0.46947461  0.76165089  1
  O2-  O230  1  0.61222272  0.97337963  0.26074470  1
  O2-  O231  1  0.61066051  0.97679720  0.75619941  1
  O2-  O232  1  0.37427278  0.01726287  0.25047779  1
  O2-  O233  1  0.37202221  0.02384586  0.73508456  1
  O2-  O234  1  0.38538409  0.52588565  0.22170486  1
  O2-  O235  1  0.38905160  0.51295376  0.72374755  1
  O2-  O236  1  0.88439818  0.02488836  0.24208979  1
  O2-  O237  1  0.88402341  0.02811455  0.73993454  1
  O2-  O238  1  0.88268890  0.52377293  0.23176370  1
  O2-  O239  1  0.88294655  0.51886446  0.72246807  1
  O2-  O240  1  0.46761746  0.38473747  0.26879115  1
  O2-  O241  1  0.48087386  0.37028194  0.75833080  1
  O2-  O242  1  0.47833381  0.87166779  0.26826045  1
  O2-  O243  1  0.46703127  0.88587638  0.76312307  1
  O2-  O244  1  0.97891884  0.38280880  0.27020803  1
  O2-  O245  1  0.97588524  0.38048503  0.77099394  1
  O2-  O246  1  0.98212047  0.88480399  0.28097585  1
  O2-  O247  1  0.98916746  0.87454695  0.76913650  1
  O2-  O248  1  0.02777148  0.11526503  0.22859009  1
  O2-  O249  1  0.02972435  0.11371274  0.72411043  1
  O2-  O250  1  0.02994505  0.61817470  0.22919885  1
  O2-  O251  1  0.01963572  0.63163227  0.73483581  1
  O2-  O252  1  0.51673908  0.11193692  0.23160373  1
  O2-  O253  1  0.51308257  0.12855727  0.73024141  1
  O2-  O254  1  0.51691635  0.62844282  0.24376552  1
  O2-  O255  1  0.52927130  0.61466310  0.73773117  1
  O2-  O256  1  0.13649576  0.47193419  -0.02892865  1
  O2-  O257  1  0.13624812  0.47309355  0.47863353  1
  O2-  O258  1  0.14097243  0.99107379  -0.01461934  1
  O2-  O259  1  0.13768744  0.97212460  0.49534506  1
  O2-  O260  1  0.61928840  0.48062696  -0.02176003  1
  O2-  O261  1  0.61632648  0.48679014  0.47157937  1
  O2-  O262  1  0.63284274  0.98478575  -0.01282184  1
  O2-  O263  1  0.61425788  0.98839194  0.49625475  1
  O2-  O264  1  0.36688041  0.04369472  0.00565902  1
  O2-  O265  1  0.37956286  0.02836629  0.50808879  1
  O2-  O266  1  0.38513041  0.51344581  0.01579238  1
  O2-  O267  1  0.38688579  0.52260498  0.51426967  1
  O2-  O268  1  0.86604460  0.03146393  0.00943077  1
  O2-  O269  1  0.86458829  0.03234499  0.50134648  1
  O2-  O270  1  0.86414615  0.51298467  0.02733950  1
  O2-  O271  1  0.86082902  0.51496046  0.52385583  1
  O2-  O272  1  0.48828639  0.37538727  -0.02032546  1
  O2-  O273  1  0.48583573  0.37871156  0.48834631  1
  O2-  O274  1  0.48025851  0.86554141  -0.01490194  1
  O2-  O275  1  0.47857976  0.87979631  0.48874456  1
  O2-  O276  1  0.98471172  0.36491544  -0.03352453  1
  O2-  O277  1  0.97258323  0.36545557  0.47869162  1
  O2-  O278  1  0.97416642  0.86709007  -0.02317785  1
  O2-  O279  1  0.97123421  0.86488731  0.48446267  1
  O2-  O280  1  0.01481160  0.13756585  0.02915613  1
  O2-  O281  1  0.01243836  0.13475127  0.52755256  1
  O2-  O282  1  0.03264387  0.63504200  0.01144368  1
  O2-  O283  1  0.02379711  0.63432335  0.52628609  1
  O2-  O284  1  0.52516033  0.14010378  0.01063082  1
  O2-  O285  1  0.51435466  0.12895128  0.51673040  1
  O2-  O286  1  0.52149716  0.61704065  0.01253865  1
  O2-  O287  1  0.52276336  0.62631522  0.50939830  1
  O2-  O288  1  0.13312577  0.27170593  0.01170187  1
  O2-  O289  1  0.11509547  0.27519983  0.53030524  1
  O2-  O290  1  0.11538263  0.78413600  0.01444072  1
  O2-  O291  1  0.11775185  0.78026249  0.52105585  1
  O2-  O292  1  0.62503817  0.27238005  0.01316225  1
  O2-  O293  1  0.62293678  0.26502473  0.52695426  1
  O2-  O294  1  0.61647625  0.76270093  0.03404606  1
  O2-  O295  1  0.61039948  0.77709115  0.51952204  1
  O2-  O296  1  0.38049230  0.23676389  -0.02458603  1
  O2-  O297  1  0.38847058  0.23821960  0.47699361  1
  O2-  O298  1  0.38905509  0.72368523  -0.01252100  1
  O2-  O299  1  0.38589604  0.73643180  0.46845688  1
  O2-  O300  1  0.87040912  0.23255449  -0.01644712  1
  O2-  O301  1  0.86145131  0.22748339  0.48608571  1
  O2-  O302  1  0.88596759  0.72095446  -0.02587825  1
  O2-  O303  1  0.88584347  0.72306025  0.48310484  1
  O2-  O304  1  0.27761077  0.36820617  0.00601454  1
  O2-  O305  1  0.27940793  0.38449114  0.52247025  1
  O2-  O306  1  0.28354236  0.89000959  0.01360356  1
  O2-  O307  1  0.28778539  0.88873621  0.51000068  1
  O2-  O308  1  0.76522084  0.36837326  0.02430241  1
  O2-  O309  1  0.75690388  0.36537427  0.52321963  1
  O2-  O310  1  0.77024234  0.88304941  0.02823226  1
  O2-  O311  1  0.76707557  0.88897256  0.52291143  1
  O2-  O312  1  0.23312220  0.13307462  -0.02042941  1
  O2-  O313  1  0.23517233  0.11439994  0.47696328  1
  O2-  O314  1  0.23700043  0.61232915  -0.01761649  1
  O2-  O315  1  0.23928287  0.61730682  0.47665837  1
  O2-  O316  1  0.72815390  0.13546038  -0.01801672  1
  O2-  O317  1  0.71866628  0.13098212  0.48834018  1
  O2-  O318  1  0.73272605  0.61415804  -0.02432506  1
  O2-  O319  1  0.72797689  0.61415983  0.47688268  1
