# generated using pymatgen
data_Sr64Ca21Nb43O192
_symmetry_space_group_name_H-M   'P 1'
_cell_length_a   16.57300869
_cell_length_b   16.55657584
_cell_length_c   16.73236670
_cell_angle_alpha   89.99488148
_cell_angle_beta   90.03531983
_cell_angle_gamma   90.04199352
_symmetry_Int_Tables_number   1
_chemical_formula_structural   Sr64Ca21Nb43O192
_chemical_formula_sum   'Sr64 Ca21 Nb43 O192'
_cell_volume   4591.23004394
_cell_formula_units_Z   1
loop_
 _symmetry_equiv_pos_site_id
 _symmetry_equiv_pos_as_xyz
  1  'x, y, z'
loop_
 _atom_type_symbol
 _atom_type_oxidation_number
  Sr2+  2.0
  Ca2+  2.0
  Nb5+  5.0
  O2-  -2.0
loop_
 _atom_site_type_symbol
 _atom_site_label
 _atom_site_symmetry_multiplicity
 _atom_site_fract_x
 _atom_site_fract_y
 _atom_site_fract_z
 _atom_site_occupancy
  Sr2+  Sr0  1  0.11757585  0.11360972  0.12148447  1
  Sr2+  Sr1  1  0.11444403  0.12478511  0.62570388  1
  Sr2+  Sr2  1  0.11672923  0.63187992  0.12409355  1
  Sr2+  Sr3  1  0.11490978  0.63042514  0.62505498  1
  Sr2+  Sr4  1  0.61911112  0.14451014  0.12426189  1
  Sr2+  Sr5  1  0.61525181  0.12672751  0.62647138  1
  Sr2+  Sr6  1  0.61413695  0.63553449  0.12040931  1
  Sr2+  Sr7  1  0.61537603  0.63813429  0.62885252  1
  Sr2+  Sr8  1  0.37455560  0.37822594  0.11397929  1
  Sr2+  Sr9  1  0.37250624  0.37585635  0.62907662  1
  Sr2+  Sr10  1  0.37367656  0.87139739  0.12775082  1
  Sr2+  Sr11  1  0.37306440  0.86678727  0.62511715  1
  Sr2+  Sr12  1  0.87753849  0.38003835  0.13349172  1
  Sr2+  Sr13  1  0.86808882  0.39081054  0.62389751  1
  Sr2+  Sr14  1  0.87808294  0.86818619  0.11762069  1
  Sr2+  Sr15  1  0.86989141  0.88116364  0.62550644  1
  Sr2+  Sr16  1  0.12756943  0.36750472  0.37223853  1
  Sr2+  Sr17  1  0.13771346  0.36338394  0.87531739  1
  Sr2+  Sr18  1  0.13835611  0.88777014  0.36807714  1
  Sr2+  Sr19  1  0.13395313  0.86975374  0.88404172  1
  Sr2+  Sr20  1  0.63924554  0.37700735  0.37554794  1
  Sr2+  Sr21  1  0.63177771  0.37870668  0.87793778  1
  Sr2+  Sr22  1  0.63159310  0.87584654  0.37162630  1
  Sr2+  Sr23  1  0.64190896  0.87968539  0.87984342  1
  Sr2+  Sr24  1  0.35283310  0.12314993  0.38070759  1
  Sr2+  Sr25  1  0.34853142  0.12546720  0.87570177  1
  Sr2+  Sr26  1  0.37465773  0.62009374  0.37213677  1
  Sr2+  Sr27  1  0.37493731  0.62857394  0.87042374  1
  Sr2+  Sr28  1  0.86145851  0.12742480  0.36876780  1
  Sr2+  Sr29  1  0.89620375  0.12321555  0.87074050  1
  Sr2+  Sr30  1  0.88045735  0.63275787  0.38150140  1
  Sr2+  Sr31  1  0.88397198  0.61960941  0.87275518  1
  Sr2+  Sr32  1  0.12263163  0.12373563  0.36475695  1
  Sr2+  Sr33  1  0.12332510  0.11513436  0.87865881  1
  Sr2+  Sr34  1  0.13272602  0.60813974  0.37472220  1
  Sr2+  Sr35  1  0.12417209  0.63105821  0.86360418  1
  Sr2+  Sr36  1  0.62507638  0.12632505  0.37658198  1
  Sr2+  Sr37  1  0.62520354  0.12246966  0.88191533  1
  Sr2+  Sr38  1  0.62696837  0.62578317  0.36833408  1
  Sr2+  Sr39  1  0.63020767  0.61895609  0.88187279  1
  Sr2+  Sr40  1  0.37604229  0.37198541  0.37266100  1
  Sr2+  Sr41  1  0.38671170  0.35802846  0.87047631  1
  Sr2+  Sr42  1  0.38850515  0.88127826  0.37686726  1
  Sr2+  Sr43  1  0.37873276  0.89074283  0.87980472  1
  Sr2+  Sr44  1  0.88413091  0.36434824  0.37466331  1
  Sr2+  Sr45  1  0.88103235  0.36954696  0.86980969  1
  Sr2+  Sr46  1  0.87983000  0.88923759  0.38092617  1
  Sr2+  Sr47  1  0.89113266  0.88697883  0.87674392  1
  Sr2+  Sr48  1  0.11615692  0.37964437  0.13108980  1
  Sr2+  Sr49  1  0.11368077  0.38330265  0.62083531  1
  Sr2+  Sr50  1  0.10733796  0.87122092  0.12382248  1
  Sr2+  Sr51  1  0.12577107  0.86203593  0.62301799  1
  Sr2+  Sr52  1  0.60885271  0.38359093  0.12146006  1
  Sr2+  Sr53  1  0.61278341  0.38135419  0.62486087  1
  Sr2+  Sr54  1  0.62404807  0.87061639  0.12573569  1
  Sr2+  Sr55  1  0.62131943  0.87540458  0.62287873  1
  Sr2+  Sr56  1  0.36931032  0.12313392  0.10200872  1
  Sr2+  Sr57  1  0.36530935  0.12555378  0.63470157  1
  Sr2+  Sr58  1  0.36702971  0.62760331  0.12601216  1
  Sr2+  Sr59  1  0.35605490  0.63243580  0.62727214  1
  Sr2+  Sr60  1  0.87404524  0.13013325  0.11455476  1
  Sr2+  Sr61  1  0.86469224  0.12589150  0.63502271  1
  Sr2+  Sr62  1  0.87703606  0.63289303  0.11838208  1
  Sr2+  Sr63  1  0.87937390  0.63433147  0.62944557  1
  Ca2+  Ca64  1  0.00199128  0.49643067  -0.00260272  1
  Ca2+  Ca65  1  0.00052980  0.00039045  0.00070830  1
  Ca2+  Ca66  1  0.00005902  0.00246373  0.50014270  1
  Ca2+  Ca67  1  0.50317378  -0.00152926  0.00082978  1
  Ca2+  Ca68  1  -0.00187923  0.50128933  0.49812917  1
  Ca2+  Ca69  1  0.75177781  0.25166486  -0.00261248  1
  Ca2+  Ca70  1  0.75159891  0.74854004  -0.00317219  1
  Ca2+  Ca71  1  0.25276793  0.74401125  0.00352810  1
  Ca2+  Ca72  1  0.24810815  0.74948501  0.49322996  1
  Ca2+  Ca73  1  0.24695094  0.25340283  0.00293401  1
  Ca2+  Ca74  1  0.49977722  0.75301132  0.74986729  1
  Ca2+  Ca75  1  0.25516473  0.00018570  0.24807678  1
  Ca2+  Ca76  1  0.24878266  0.49972502  0.75036901  1
  Ca2+  Ca77  1  -0.00233701  0.75400826  0.74890160  1
  Ca2+  Ca78  1  0.00007518  0.25077732  0.74450311  1
  Ca2+  Ca79  1  0.74912418  0.50279028  0.25073993  1
  Ca2+  Ca80  1  0.74886360  -0.00343541  0.25062152  1
  Ca2+  Ca81  1  0.25061077  -0.00373096  0.74725321  1
  Ca2+  Ca82  1  -0.00190645  0.74827984  0.25359464  1
  Ca2+  Ca83  1  0.50388114  0.24650203  0.75025493  1
  Ca2+  Ca84  1  0.49578419  0.25206568  0.25226625  1
  Nb5+  Nb85  1  0.49968362  -0.00205512  0.50154435  1
  Nb5+  Nb86  1  0.49727806  0.50196883  -0.00868778  1
  Nb5+  Nb87  1  0.49734746  0.49786632  0.49623648  1
  Nb5+  Nb88  1  0.75039830  0.75515170  0.50094308  1
  Nb5+  Nb89  1  0.24402549  0.25186393  0.50381987  1
  Nb5+  Nb90  1  0.74554399  0.25753729  0.50258226  1
  Nb5+  Nb91  1  0.74727878  0.00762747  0.75176371  1
  Nb5+  Nb92  1  0.74609231  0.50820804  0.74738223  1
  Nb5+  Nb93  1  0.49749857  0.75212175  0.25157514  1
  Nb5+  Nb94  1  0.00044827  0.24855503  0.24949368  1
  Nb5+  Nb95  1  0.24878103  0.49657800  0.24816451  1
  Nb5+  Nb96  1  -0.00325036  -0.00435260  0.24843884  1
  Nb5+  Nb97  1  0.00710189  -0.00310987  0.74369332  1
  Nb5+  Nb98  1  -0.00235077  0.50349291  0.25051113  1
  Nb5+  Nb99  1  0.00308942  0.49611450  0.75187880  1
  Nb5+  Nb100  1  0.50270176  0.00670861  0.24948176  1
  Nb5+  Nb101  1  0.50249832  -0.00011012  0.75350449  1
  Nb5+  Nb102  1  0.49792280  0.50127648  0.24568508  1
  Nb5+  Nb103  1  0.49863055  0.50517237  0.74251978  1
  Nb5+  Nb104  1  0.25260735  0.25082933  0.24927575  1
  Nb5+  Nb105  1  0.24688845  0.24928071  0.74956065  1
  Nb5+  Nb106  1  0.24987375  0.75257301  0.25589978  1
  Nb5+  Nb107  1  0.25061892  0.75056818  0.75171408  1
  Nb5+  Nb108  1  0.74915561  0.25501294  0.24466656  1
  Nb5+  Nb109  1  0.74690692  0.25653263  0.75105687  1
  Nb5+  Nb110  1  0.75173422  0.74710588  0.24845198  1
  Nb5+  Nb111  1  0.74781522  0.75730371  0.75158844  1
  Nb5+  Nb112  1  -0.00910073  0.24463611  0.50052220  1
  Nb5+  Nb113  1  0.00100947  0.25454227  0.99580409  1
  Nb5+  Nb114  1  0.00245241  0.75639156  0.49332087  1
  Nb5+  Nb115  1  0.00284349  0.74605028  0.99684066  1
  Nb5+  Nb116  1  0.49373707  0.24603354  0.49626312  1
  Nb5+  Nb117  1  0.50275584  0.24778106  0.99926764  1
  Nb5+  Nb118  1  0.50004854  0.74347285  0.49666340  1
  Nb5+  Nb119  1  0.49909203  0.75397065  0.99585797  1
  Nb5+  Nb120  1  0.25131535  -0.00439899  0.00312906  1
  Nb5+  Nb121  1  0.24892255  -0.00252182  0.50431018  1
  Nb5+  Nb122  1  0.24825452  0.49965023  -0.00642324  1
  Nb5+  Nb123  1  0.24787170  0.49642561  0.50108623  1
  Nb5+  Nb124  1  0.75308382  -0.00285461  0.00611549  1
  Nb5+  Nb125  1  0.74722407  0.00959671  0.50236287  1
  Nb5+  Nb126  1  0.75238137  0.49709635  0.00667962  1
  Nb5+  Nb127  1  0.74581531  0.51210855  0.50485524  1
  O2-  O128  1  -0.01990195  0.02522235  0.13461541  1
  O2-  O129  1  -0.02310793  0.02539237  0.63294710  1
  O2-  O130  1  0.02754447  0.50495412  0.13527882  1
  O2-  O131  1  0.01831362  0.51305986  0.63277680  1
  O2-  O132  1  0.48123864  0.01326786  0.13766795  1
  O2-  O133  1  0.49146984  0.02711282  0.61681114  1
  O2-  O134  1  0.50848392  0.51681848  0.13002301  1
  O2-  O135  1  0.51443389  0.51599343  0.62454476  1
  O2-  O136  1  0.02466311  -0.01591794  0.36577587  1
  O2-  O137  1  0.01675440  -0.01789232  0.86438626  1
  O2-  O138  1  -0.01481096  0.47795002  0.36494273  1
  O2-  O139  1  -0.03461649  0.48983643  0.86417651  1
  O2-  O140  1  0.52604328  -0.01038423  0.38535079  1
  O2-  O141  1  0.52125602  -0.02637555  0.86362521  1
  O2-  O142  1  0.48434209  0.49115737  0.38008830  1
  O2-  O143  1  0.48788580  0.49040214  0.87617914  1
  O2-  O144  1  0.27280546  0.26781275  0.13894429  1
  O2-  O145  1  0.27650223  0.26391823  0.61853625  1
  O2-  O146  1  0.27691293  0.75431171  0.14212338  1
  O2-  O147  1  0.25571639  0.76943087  0.62747651  1
  O2-  O148  1  0.77926502  0.26418761  0.13517662  1
  O2-  O149  1  0.78041344  0.26225872  0.61509312  1
  O2-  O150  1  0.75679915  0.77355206  0.13612614  1
  O2-  O151  1  0.75829193  0.76837666  0.62037221  1
  O2-  O152  1  0.22738096  0.23714759  0.38528678  1
  O2-  O153  1  0.22351880  0.23173915  0.86386710  1
  O2-  O154  1  0.24432261  0.70863200  0.36410872  1
  O2-  O155  1  0.24222248  0.72525433  0.86769687  1
  O2-  O156  1  0.73627163  0.23372703  0.38479730  1
  O2-  O157  1  0.71724527  0.24091883  0.86012503  1
  O2-  O158  1  0.74083972  0.72584447  0.38498373  1
  O2-  O159  1  0.72520465  0.73463760  0.86186566  1
  O2-  O160  1  -0.01054127  0.23710724  0.13286915  1
  O2-  O161  1  -0.01634197  0.21969869  0.61217894  1
  O2-  O162  1  -0.00775350  0.72924813  0.11942500  1
  O2-  O163  1  0.00254765  0.73399501  0.61173509  1
  O2-  O164  1  0.47577600  0.24148441  0.11719588  1
  O2-  O165  1  0.48504489  0.24200949  0.61178833  1
  O2-  O166  1  0.48856334  0.73343241  0.13575488  1
  O2-  O167  1  0.48834480  0.73154806  0.61097588  1
  O2-  O168  1  0.23381184  0.02371153  0.38801174  1
  O2-  O169  1  0.23023952  0.01218675  0.88236183  1
  O2-  O170  1  0.26604905  0.51052773  0.37875661  1
  O2-  O171  1  0.25635099  0.53373660  0.88570350  1
  O2-  O172  1  0.72467137  0.01361529  0.38860930  1
  O2-  O173  1  0.72720396  0.01370851  0.86526444  1
  O2-  O174  1  0.75016515  0.52311167  0.38966953  1
  O2-  O175  1  0.75373847  0.52367866  0.86329767  1
  O2-  O176  1  0.01236314  0.26771097  0.37356865  1
  O2-  O177  1  0.01065304  0.27138356  0.88147507  1
  O2-  O178  1  -0.03252254  0.76612394  0.38218783  1
  O2-  O179  1  0.01259332  0.76808367  0.88159229  1
  O2-  O180  1  0.52704527  0.27714759  0.38773921  1
  O2-  O181  1  0.52350696  0.27323785  0.88455168  1
  O2-  O182  1  0.51649945  0.76570178  0.37614677  1
  O2-  O183  1  0.51447713  0.77151423  0.88453871  1
  O2-  O184  1  0.28451031  -0.01131985  0.11829577  1
  O2-  O185  1  0.28881866  -0.00935275  0.61393343  1
  O2-  O186  1  0.24838133  0.46679607  0.13645343  1
  O2-  O187  1  0.24684598  0.46915769  0.61432725  1
  O2-  O188  1  0.77431898  -0.02211711  0.11700683  1
  O2-  O189  1  0.76273648  -0.01258398  0.62300797  1
  O2-  O190  1  0.74113315  0.46397994  0.11579521  1
  O2-  O191  1  0.73099759  0.47677665  0.62227645  1
  O2-  O192  1  0.12484072  0.26761409  0.24417466  1
  O2-  O193  1  0.13440773  0.27517789  0.72060341  1
  O2-  O194  1  0.13590908  0.77207109  0.24405632  1
  O2-  O195  1  0.13330980  0.77849932  0.74720152  1
  O2-  O196  1  0.63524538  0.27200110  0.22914495  1
  O2-  O197  1  0.63840625  0.26033171  0.70775214  1
  O2-  O198  1  0.61769034  0.76747802  0.24506879  1
  O2-  O199  1  0.63378591  0.76119536  0.72239849  1
  O2-  O200  1  0.36285132  0.24147208  0.28575820  1
  O2-  O201  1  0.36773765  0.22879681  0.76344063  1
  O2-  O202  1  0.38089106  0.72974745  0.27021954  1
  O2-  O203  1  0.36874100  0.71833200  0.75050237  1
  O2-  O204  1  0.88058353  0.24222155  0.26923471  1
  O2-  O205  1  0.86090385  0.22640202  0.76139341  1
  O2-  O206  1  0.86115585  0.71174297  0.25276227  1
  O2-  O207  1  0.86000560  0.72210106  0.75161831  1
  O2-  O208  1  0.25887618  0.37438857  0.27778147  1
  O2-  O209  1  0.27342568  0.36602680  0.76972169  1
  O2-  O210  1  0.27108520  0.86362501  0.28180844  1
  O2-  O211  1  0.28348261  0.86507536  0.76789839  1
  O2-  O212  1  0.76718266  0.36694182  0.28202871  1
  O2-  O213  1  0.76477344  0.37269488  0.75946391  1
  O2-  O214  1  0.76161162  0.85882332  0.28574264  1
  O2-  O215  1  0.76660065  0.87269173  0.76387107  1
  O2-  O216  1  0.23415057  0.13649965  0.24172243  1
  O2-  O217  1  0.23322229  0.13258633  0.72375318  1
  O2-  O218  1  0.23168495  0.61280700  0.23283554  1
  O2-  O219  1  0.22327931  0.63193733  0.72397892  1
  O2-  O220  1  0.73991681  0.13646249  0.24586739  1
  O2-  O221  1  0.73320708  0.12157464  0.72835675  1
  O2-  O222  1  0.71183942  0.63440609  0.23788457  1
  O2-  O223  1  0.72874842  0.62021946  0.72537548  1
  O2-  O224  1  0.13195857  0.48081124  0.26940943  1
  O2-  O225  1  0.11406293  0.47450602  0.77410618  1
  O2-  O226  1  0.11800354  0.98880178  0.22929757  1
  O2-  O227  1  0.11747475  0.97820106  0.71857133  1
  O2-  O228  1  0.61072699  0.48101373  0.26533952  1
  O2-  O229  1  0.62776669  0.47625910  0.75664547  1
  O2-  O230  1  0.61353592  0.96484840  0.24323871  1
  O2-  O231  1  0.63293245  0.97614734  0.73148470  1
  O2-  O232  1  0.39116563  0.00977867  0.28662127  1
  O2-  O233  1  0.39005423  0.02400288  0.76727687  1
  O2-  O234  1  0.37206568  0.51917367  0.24819774  1
  O2-  O235  1  0.38564583  0.52755777  0.73895180  1
  O2-  O236  1  0.88255742  0.01260786  0.27945615  1
  O2-  O237  1  0.86509693  0.01606162  0.76320038  1
  O2-  O238  1  0.88466409  0.51730047  0.22750841  1
  O2-  O239  1  0.86215251  0.51351893  0.72639956  1
  O2-  O240  1  0.47282124  0.38793485  0.23583457  1
  O2-  O241  1  0.48584166  0.38642666  0.73703150  1
  O2-  O242  1  0.47547297  0.86845152  0.24414435  1
  O2-  O243  1  0.48974925  0.88793859  0.71541146  1
  O2-  O244  1  0.99005176  0.37260002  0.23603852  1
  O2-  O245  1  0.97048478  0.38314433  0.72968116  1
  O2-  O246  1  0.98006176  0.88227057  0.22791260  1
  O2-  O247  1  0.96756109  0.88561458  0.73455521  1
  O2-  O248  1  0.01366868  0.13136096  0.26290644  1
  O2-  O249  1  0.01713026  0.11598006  0.76899906  1
  O2-  O250  1  0.02604296  0.61414379  0.26948878  1
  O2-  O251  1  0.00891438  0.61607042  0.76237916  1
  O2-  O252  1  0.53260506  0.11798146  0.26031033  1
  O2-  O253  1  0.53950866  0.11285981  0.75700517  1
  O2-  O254  1  0.51079899  0.62416124  0.26809419  1
  O2-  O255  1  0.53177554  0.61526424  0.76755662  1
  O2-  O256  1  0.13794709  0.46760676  -0.00971804  1
  O2-  O257  1  0.13549732  0.47681543  0.48279938  1
  O2-  O258  1  0.13502136  0.98025110  0.02486160  1
  O2-  O259  1  0.13756298  0.99056637  0.53112061  1
  O2-  O260  1  0.61879076  0.48120951  -0.00871699  1
  O2-  O261  1  0.61931401  0.48397222  0.49146149  1
  O2-  O262  1  0.63610367  0.96684435  0.00718334  1
  O2-  O263  1  0.62476792  0.99305046  0.52195761  1
  O2-  O264  1  0.37101006  0.02001690  -0.02352085  1
  O2-  O265  1  0.38518538  0.01268959  0.47998122  1
  O2-  O266  1  0.38225787  0.51988646  0.01355327  1
  O2-  O267  1  0.38069115  0.51747263  0.51337486  1
  O2-  O268  1  0.86543870  0.02132821  -0.02584653  1
  O2-  O269  1  0.86179321  0.01585469  0.48264151  1
  O2-  O270  1  0.86427379  0.52373911  0.01201607  1
  O2-  O271  1  0.86053992  0.51716659  0.52025002  1
  O2-  O272  1  0.48619826  0.38324892  0.01445614  1
  O2-  O273  1  0.48561287  0.38148532  0.51644495  1
  O2-  O274  1  0.47578735  0.86393252  0.02142884  1
  O2-  O275  1  0.49111856  0.87877788  0.51371679  1
  O2-  O276  1  0.96242636  0.36531582  0.01721723  1
  O2-  O277  1  0.98894008  0.36261836  0.51768534  1
  O2-  O278  1  0.97958916  0.86603172  0.01489146  1
  O2-  O279  1  0.96486045  0.86821989  0.51400636  1
  O2-  O280  1  0.02999689  0.13647342  -0.00610060  1
  O2-  O281  1  0.02945508  0.13640411  0.47822175  1
  O2-  O282  1  0.03151595  0.62904925  -0.01739353  1
  O2-  O283  1  0.01879751  0.63614741  0.47585352  1
  O2-  O284  1  0.52676676  0.13380205  -0.00515368  1
  O2-  O285  1  0.51641577  0.13110685  0.48349950  1
  O2-  O286  1  0.52198484  0.61965107  -0.01068133  1
  O2-  O287  1  0.51705800  0.62551474  0.48189982  1
  O2-  O288  1  0.11502063  0.28458649  0.01660855  1
  O2-  O289  1  0.13104982  0.26630994  0.52220621  1
  O2-  O290  1  0.12091125  0.76957733  0.01586197  1
  O2-  O291  1  0.11381478  0.78694927  0.48448962  1
  O2-  O292  1  0.61827972  0.27133901  0.02906689  1
  O2-  O293  1  0.63092946  0.26396172  0.51960084  1
  O2-  O294  1  0.61415259  0.75728513  0.02514480  1
  O2-  O295  1  0.62467202  0.76274017  0.50908885  1
  O2-  O296  1  0.38489540  0.23593376  -0.02373193  1
  O2-  O297  1  0.38041660  0.24293424  0.47528697  1
  O2-  O298  1  0.38823176  0.71585205  -0.00505468  1
  O2-  O299  1  0.38575790  0.74177228  0.47931018  1
  O2-  O300  1  0.88432565  0.21836775  -0.01162856  1
  O2-  O301  1  0.87600228  0.23597886  0.47689616  1
  O2-  O302  1  0.88371289  0.71884007  -0.00982637  1
  O2-  O303  1  0.86283254  0.72209871  0.50301782  1
  O2-  O304  1  0.28624430  0.38726349  -0.01686658  1
  O2-  O305  1  0.27223637  0.36968224  0.48340400  1
  O2-  O306  1  0.27233061  0.87920902  -0.01673173  1
  O2-  O307  1  0.26597232  0.88650718  0.47655389  1
  O2-  O308  1  0.76162150  0.38768772  -0.03863348  1
  O2-  O309  1  0.76110862  0.37364489  0.48400216  1
  O2-  O310  1  0.77227802  0.88179323  -0.02985944  1
  O2-  O311  1  0.75861562  0.87244364  0.48577497  1
  O2-  O312  1  0.23715412  0.11867394  0.01953808  1
  O2-  O313  1  0.25301486  0.13171005  0.51781746  1
  O2-  O314  1  0.23835757  0.60657068  0.04080934  1
  O2-  O315  1  0.23449744  0.61113144  0.51997658  1
  O2-  O316  1  0.72408512  0.11346329  0.01727890  1
  O2-  O317  1  0.73727484  0.12681555  0.51973588  1
  O2-  O318  1  0.72132867  0.61112581  0.01332684  1
  O2-  O319  1  0.72405353  0.62432776  0.52480697  1
