# generated using pymatgen
data_In2Te3
_symmetry_space_group_name_H-M   'P 1'
_cell_length_a   18.99946495
_cell_length_b   18.98961499
_cell_length_c   19.00113216
_cell_angle_alpha   90.05421139
_cell_angle_beta   89.99504857
_cell_angle_gamma   90.16843743
_symmetry_Int_Tables_number   1
_chemical_formula_structural   In2Te3
_chemical_formula_sum   'In72 Te108'
_cell_volume   6855.43372227
_cell_formula_units_Z   36
loop_
 _symmetry_equiv_pos_site_id
 _symmetry_equiv_pos_as_xyz
  1  'x, y, z'
loop_
 _atom_site_type_symbol
 _atom_site_label
 _atom_site_symmetry_multiplicity
 _atom_site_fract_x
 _atom_site_fract_y
 _atom_site_fract_z
 _atom_site_occupancy
  In  In0  1  0.81752730  -0.01902825  0.84536339  1
  In  In1  1  -0.01651962  0.16290661  0.52878114  1
  In  In2  1  0.48745648  0.01389941  0.17286077  1
  In  In3  1  0.33577229  0.02254863  0.33175185  1
  In  In4  1  0.34552355  0.82694387  0.80862820  1
  In  In5  1  0.14730445  -0.02539790  0.49204104  1
  In  In6  1  0.17807660  0.34638291  0.83695091  1
  In  In7  1  0.34126421  0.17374537  0.52039673  1
  In  In8  1  0.01258524  0.67596698  0.31054147  1
  In  In9  1  0.68746621  0.66649339  0.67436054  1
  In  In10  1  0.51238391  -0.03663013  0.50436140  1
  In  In11  1  0.84504714  0.32614612  0.83502874  1
  In  In12  1  -0.04475128  -0.00671594  0.31846208  1
  In  In13  1  0.00368307  0.50654859  0.49302213  1
  In  In14  1  0.32698451  0.66525375  0.65197256  1
  In  In15  1  0.18452057  0.51549428  0.31431631  1
  In  In16  1  0.50988616  0.17799556  0.67449791  1
  In  In17  1  0.34576283  0.01476841  0.64598339  1
  In  In18  1  0.52520443  0.66503189  0.50196314  1
  In  In19  1  0.32519146  0.33339611  0.00318812  1
  In  In20  1  0.14102554  0.00653307  0.82841837  1
  In  In21  1  0.66132779  0.83267833  0.16534170  1
  In  In22  1  0.65441881  0.82571235  0.83672121  1
  In  In23  1  0.64739329  0.00229716  0.02548952  1
  In  In24  1  0.81375174  0.35001654  0.15914153  1
  In  In25  1  0.15910322  -0.00076267  0.15807069  1
  In  In26  1  0.66977179  0.50649267  0.48383595  1
  In  In27  1  0.34706902  0.49374221  0.84005258  1
  In  In28  1  0.84452512  0.49859280  0.00191979  1
  In  In29  1  -0.02960313  0.35405273  0.32790294  1
  In  In30  1  0.67288376  0.18803917  0.17045820  1
  In  In31  1  0.67504170  0.65356507  -0.01776982  1
  In  In32  1  0.17802008  0.34717632  0.16159853  1
  In  In33  1  0.02892387  0.32537100  0.01731121  1
  In  In34  1  0.80601308  0.00225508  0.52345942  1
  In  In35  1  0.81875912  0.34626066  0.50425234  1
  In  In36  1  0.82990361  0.66695911  0.49233605  1
  In  In37  1  0.00801430  0.81085878  0.52017960  1
  In  In38  1  0.80378577  0.82791890  0.34062396  1
  In  In39  1  0.67058650  0.16932010  0.50443515  1
  In  In40  1  0.50439841  0.66647908  0.14677470  1
  In  In41  1  0.19415305  0.81736151  0.32421110  1
  In  In42  1  0.32812386  -0.00972961  -0.02497466  1
  In  In43  1  0.51159346  0.18535133  0.32899791  1
  In  In44  1  0.49863797  0.17529493  -0.00165231  1
  In  In45  1  -0.01570974  -0.01670710  -0.03349662  1
  In  In46  1  0.49206777  0.36359570  0.47189290  1
  In  In47  1  0.20715676  0.34535123  0.48586511  1
  In  In48  1  0.33551119  0.50636729  0.15543370  1
  In  In49  1  0.01309094  0.83118115  0.16030019  1
  In  In50  1  0.19572465  0.81690241  0.00701210  1
  In  In51  1  0.16289320  0.16736118  0.35927678  1
  In  In52  1  0.17967549  0.81949015  0.67448331  1
  In  In53  1  0.51009067  0.35785777  0.20418834  1
  In  In54  1  0.15769661  0.48775132  0.64345299  1
  In  In55  1  0.67418940  -0.03322125  0.68127544  1
  In  In56  1  0.15267810  0.17020526  0.68859009  1
  In  In57  1  -0.03157120  0.68836198  -0.03532242  1
  In  In58  1  0.33529768  0.66233718  0.32943832  1
  In  In59  1  0.50831578  0.51699591  0.66892123  1
  In  In60  1  -0.02403769  0.64596461  0.70986717  1
  In  In61  1  0.64510291  0.37298219  -0.03412420  1
  In  In62  1  0.00389234  0.16889276  0.17179359  1
  In  In63  1  0.51882987  0.83255492  0.32902786  1
  In  In64  1  0.85004670  0.00684894  0.16019607  1
  In  In65  1  0.68114850  0.34030665  0.68977843  1
  In  In66  1  0.32023496  0.17501142  0.83422750  1
  In  In67  1  0.15847066  0.65305542  0.84727113  1
  In  In68  1  0.00508020  0.33110999  0.67048156  1
  In  In69  1  0.68781158  0.15761779  0.84953924  1
  In  In70  1  0.79275868  0.63039345  0.17650897  1
  In  In71  1  0.49874232  0.65443057  0.83267187  1
  Te  Te72  1  0.06112376  0.07125486  0.07197175  1
  Te  Te73  1  0.05491934  0.07414106  0.41319385  1
  Te  Te74  1  0.04832421  0.09488718  0.75707241  1
  Te  Te75  1  0.07989716  0.43658272  0.10121418  1
  Te  Te76  1  0.09188686  0.41556469  0.40922234  1
  Te  Te77  1  0.07851773  0.43039847  0.75821449  1
  Te  Te78  1  0.08066515  0.73765388  0.06592055  1
  Te  Te79  1  0.09676073  0.74449208  0.41634458  1
  Te  Te80  1  0.07956516  0.74905175  0.76167027  1
  Te  Te81  1  0.40141086  0.08686939  0.07257874  1
  Te  Te82  1  0.43401104  0.08862897  0.42873823  1
  Te  Te83  1  0.41848762  0.08846282  0.75630770  1
  Te  Te84  1  0.42783258  0.41038956  0.08373727  1
  Te  Te85  1  0.38190432  0.39657544  0.38444591  1
  Te  Te86  1  0.44818310  0.41685663  0.76201470  1
  Te  Te87  1  0.37142619  0.71908972  0.10402871  1
  Te  Te88  1  0.43019820  0.74802834  0.41690705  1
  Te  Te89  1  0.43735623  0.74012358  0.72450533  1
  Te  Te90  1  0.75343794  0.09422675  0.08143177  1
  Te  Te91  1  0.75489021  0.08705799  0.41820416  1
  Te  Te92  1  0.75585920  0.07877811  0.74136396  1
  Te  Te93  1  0.72311465  0.44340356  0.07527015  1
  Te  Te94  1  0.77067414  0.43824966  0.39714547  1
  Te  Te95  1  0.77949047  0.43179267  0.75332698  1
  Te  Te96  1  0.75102195  0.74286227  0.08409849  1
  Te  Te97  1  0.72737738  0.71981020  0.40221453  1
  Te  Te98  1  0.76646973  0.76142579  0.76120630  1
  Te  Te99  1  0.08482563  0.25817831  0.26552939  1
  Te  Te100  1  0.09950571  0.26098404  0.56759639  1
  Te  Te101  1  0.09769027  0.25022812  0.91168958  1
  Te  Te102  1  0.08414300  0.57762976  0.22831113  1
  Te  Te103  1  0.06913275  0.59812004  0.59390804  1
  Te  Te104  1  0.05507351  0.58004136  0.91936561  1
  Te  Te105  1  0.08664074  0.91879176  0.26712692  1
  Te  Te106  1  0.07603000  0.91337519  0.60939697  1
  Te  Te107  1  0.09728882  0.89348571  0.91812663  1
  Te  Te108  1  0.42837372  0.23821523  0.22207499  1
  Te  Te109  1  0.43418043  0.27250354  0.58506126  1
  Te  Te110  1  0.41976799  0.26445075  0.90555853  1
  Te  Te111  1  0.43070983  0.57750122  0.24909241  1
  Te  Te112  1  0.41690611  0.57681943  0.56640993  1
  Te  Te113  1  0.43495985  0.56710515  0.93416168  1
  Te  Te114  1  0.41058657  0.91346916  0.25696959  1
  Te  Te115  1  0.40638059  0.89984082  0.58111326  1
  Te  Te116  1  0.42212437  0.90082899  0.90922175  1
  Te  Te117  1  0.73803461  0.27966234  0.26321415  1
  Te  Te118  1  0.76009662  0.24500390  0.60119173  1
  Te  Te119  1  0.74823452  0.26624391  0.93585248  1
  Te  Te120  1  0.73066579  0.53261848  0.26608896  1
  Te  Te121  1  0.76251398  0.56850142  0.58619093  1
  Te  Te122  1  0.77395475  0.57968216  0.89666254  1
  Te  Te123  1  0.74712671  0.92942202  0.24328078  1
  Te  Te124  1  0.74454642  0.88330304  0.58378809  1
  Te  Te125  1  0.72917992  0.90641331  0.94415570  1
  Te  Te126  1  0.23039227  0.24497216  0.07188943  1
  Te  Te127  1  0.28714901  0.24740915  0.39860529  1
  Te  Te128  1  0.25902469  0.26781221  0.73180726  1
  Te  Te129  1  0.26666626  0.61512455  0.08499904  1
  Te  Te130  1  0.24243717  0.59460042  0.42198676  1
  Te  Te131  1  0.25033005  0.57421734  0.74667277  1
  Te  Te132  1  0.26723695  0.91494684  0.09730858  1
  Te  Te133  1  0.26439540  0.91712348  0.41667781  1
  Te  Te134  1  0.25231436  0.93884401  0.74957671  1
  Te  Te135  1  0.58734144  0.27038417  0.07532921  1
  Te  Te136  1  0.59904360  0.27216367  0.41679427  1
  Te  Te137  1  0.59353609  0.25261396  0.77608652  1
  Te  Te138  1  0.59738867  0.57347282  0.07902334  1
  Te  Te139  1  0.56046170  0.56095679  0.39968485  1
  Te  Te140  1  0.61162214  0.57077303  0.76944808  1
  Te  Te141  1  0.55105392  0.90348177  0.08962240  1
  Te  Te142  1  0.60888721  0.91748258  0.40742177  1
  Te  Te143  1  0.56433713  0.90941793  0.75631495  1
  Te  Te144  1  0.91446552  0.25491995  0.08808330  1
  Te  Te145  1  0.91415870  0.25459209  0.42872417  1
  Te  Te146  1  0.92164929  0.23768924  0.74531057  1
  Te  Te147  1  0.91023755  0.60727077  0.08529366  1
  Te  Te148  1  0.92181189  0.58962556  0.39829975  1
  Te  Te149  1  0.87491981  0.56452422  0.77927559  1
  Te  Te150  1  0.91197110  0.90048279  0.07208393  1
  Te  Te151  1  0.91866244  0.88815196  0.42289879  1
  Te  Te152  1  0.91933533  0.89271170  0.78783142  1
  Te  Te153  1  0.23700090  0.09692146  0.24421393  1
  Te  Te154  1  0.22493337  0.08566815  0.57075971  1
  Te  Te155  1  0.22921938  0.09052649  0.91992924  1
  Te  Te156  1  0.27961456  0.40490363  0.26044377  1
  Te  Te157  1  0.27583441  0.42578036  0.58564519  1
  Te  Te158  1  0.24179280  0.44113014  0.93696923  1
  Te  Te159  1  0.24359721  0.71958604  0.22326235  1
  Te  Te160  1  0.25017789  0.75475797  0.56536498  1
  Te  Te161  1  0.27269090  0.73454966  0.90521252  1
  Te  Te162  1  0.59445335  0.08358035  0.25210486  1
  Te  Te163  1  0.58354541  0.07726615  0.58998520  1
  Te  Te164  1  0.57652125  0.07679723  0.91386164  1
  Te  Te165  1  0.59390616  0.45685262  0.27349297  1
  Te  Te166  1  0.59628050  0.41476951  0.58754937  1
  Te  Te167  1  0.55985391  0.45779395  0.88185281  1
  Te  Te168  1  0.59723038  0.72794211  0.25298660  1
  Te  Te169  1  0.61124908  0.75363601  0.58321390  1
  Te  Te170  1  0.56610600  0.74650415  0.93292883  1
  Te  Te171  1  0.89148471  0.11576341  0.25938238  1
  Te  Te172  1  0.92261596  0.05079645  0.59833700  1
  Te  Te173  1  0.88709801  0.08352862  0.92574781  1
  Te  Te174  1  0.92509783  0.43160081  0.21441198  1
  Te  Te175  1  0.91907710  0.42474140  0.58732940  1
  Te  Te176  1  0.93561960  0.40664885  0.92587275  1
  Te  Te177  1  0.90643283  0.76287895  0.24532578  1
  Te  Te178  1  0.90902381  0.73505882  0.60386427  1
  Te  Te179  1  0.88538771  0.77125575  0.86925389  1
