# generated using pymatgen
data_In2Te3
_symmetry_space_group_name_H-M   'P 1'
_cell_length_a   18.89140173
_cell_length_b   18.91697793
_cell_length_c   18.91531147
_cell_angle_alpha   90.13636440
_cell_angle_beta   89.97778446
_cell_angle_gamma   90.07345259
_symmetry_Int_Tables_number   1
_chemical_formula_structural   In2Te3
_chemical_formula_sum   'In72 Te108'
_cell_volume   6759.70617190
_cell_formula_units_Z   36
loop_
 _symmetry_equiv_pos_site_id
 _symmetry_equiv_pos_as_xyz
  1  'x, y, z'
loop_
 _atom_site_type_symbol
 _atom_site_label
 _atom_site_symmetry_multiplicity
 _atom_site_fract_x
 _atom_site_fract_y
 _atom_site_fract_z
 _atom_site_occupancy
  In  In0  1  -0.02647436  0.82091265  0.17078341  1
  In  In1  1  0.81755116  0.33108310  0.81880207  1
  In  In2  1  0.50552727  0.15996375  -0.00077519  1
  In  In3  1  0.15912784  0.02066185  0.49835344  1
  In  In4  1  0.81024337  0.51441314  0.35373606  1
  In  In5  1  0.84373865  0.79639059  0.00169480  1
  In  In6  1  0.51817830  0.50382376  0.67738765  1
  In  In7  1  0.50385480  0.49055537  -0.00972486  1
  In  In8  1  0.20344757  0.00139248  0.17695327  1
  In  In9  1  0.34156881  0.85936651  0.51103351  1
  In  In10  1  0.33964728  0.02283965  -0.01731093  1
  In  In11  1  0.37005288  0.31043299  0.31826582  1
  In  In12  1  0.00926379  -0.00611249  0.35194551  1
  In  In13  1  0.00264060  0.02353698  0.68412973  1
  In  In14  1  0.83220786  0.17869696  -0.02890921  1
  In  In15  1  0.81007363  0.17193568  0.35380102  1
  In  In16  1  0.19256921  0.34004308  0.14551364  1
  In  In17  1  0.50340446  0.81703971  0.01470350  1
  In  In18  1  0.65256907  0.15618028  0.51246297  1
  In  In19  1  0.83549194  0.66322537  0.17158303  1
  In  In20  1  0.00972612  0.83454092  0.49476194  1
  In  In21  1  0.17804163  0.50928212  0.68105703  1
  In  In22  1  0.67987521  -0.01866401  0.01038356  1
  In  In23  1  0.19157594  0.36516584  0.83291510  1
  In  In24  1  -0.00517158  0.33232748  0.33642299  1
  In  In25  1  0.03747309  0.18029206  0.83575710  1
  In  In26  1  0.83356545  0.48968501  0.70186659  1
  In  In27  1  0.19207370  0.85811734  -0.00710251  1
  In  In28  1  0.00506370  0.15331229  0.49803234  1
  In  In29  1  0.34565818  0.35320006  0.66883638  1
  In  In30  1  0.65695030  0.66743374  0.68179745  1
  In  In31  1  0.47142905  0.67313878  0.48454936  1
  In  In32  1  0.81747217  0.53409914  -0.04287920  1
  In  In33  1  -0.00329139  0.51153857  0.83865082  1
  In  In34  1  0.35502483  0.32238591  -0.00755577  1
  In  In35  1  0.34205078  0.67698161  0.67561074  1
  In  In36  1  0.66403261  0.18562346  0.80844003  1
  In  In37  1  0.64248953  0.85306855  0.17577369  1
  In  In38  1  0.51066644  0.00437444  0.81151737  1
  In  In39  1  0.15558944  0.52107598  0.33100784  1
  In  In40  1  0.64138862  0.32134427  0.32897579  1
  In  In41  1  0.80571927  0.00739447  0.18935112  1
  In  In42  1  0.66652699  0.67455114  0.32948946  1
  In  In43  1  0.33638192  0.82044490  0.83472766  1
  In  In44  1  0.82037644  0.16636139  0.63315075  1
  In  In45  1  0.57982465  0.14659824  0.21857225  1
  In  In46  1  0.16309914  0.81437114  0.69258926  1
  In  In47  1  0.18613970  0.67295059  0.17266550  1
  In  In48  1  0.82400842  0.84513231  0.63639405  1
  In  In49  1  0.31552443  0.48945220  0.47742228  1
  In  In50  1  0.49002065  0.15842927  0.67782168  1
  In  In51  1  0.02811925  -0.03459818  0.00065037  1
  In  In52  1  0.49476312  0.48849285  0.31474852  1
  In  In53  1  0.80113961  0.35186451  0.13723135  1
  In  In54  1  0.84218799  0.01676700  0.83116550  1
  In  In55  1  -0.01680813  0.31765345  0.65077015  1
  In  In56  1  0.64958273  0.81186756  0.84726377  1
  In  In57  1  0.63535005  0.85473211  0.48699955  1
  In  In58  1  0.00416741  0.50473068  0.52741816  1
  In  In59  1  0.32065206  0.17308299  0.48539657  1
  In  In60  1  0.84312937  0.66207906  0.51163128  1
  In  In61  1  0.16905214  0.16925520  0.67526701  1
  In  In62  1  0.01429825  0.14853883  0.15654388  1
  In  In63  1  0.16078668  0.82215772  0.32064741  1
  In  In64  1  0.00437987  0.48153684  0.17191614  1
  In  In65  1  0.01856623  0.66788550  -0.00234709  1
  In  In66  1  0.35108361  0.02291763  0.33976131  1
  In  In67  1  0.65445984  0.47921101  0.50962366  1
  In  In68  1  0.47908863  0.64752766  0.15474220  1
  In  In69  1  0.33920047  0.49995661  0.15334645  1
  In  In70  1  0.02131338  0.32972397  -0.00314558  1
  In  In71  1  0.48340308  0.84804878  0.67005188  1
  Te  Te72  1  0.11276683  0.07290808  0.07084482  1
  Te  Te73  1  0.10142947  0.11071038  0.38883695  1
  Te  Te74  1  0.12173210  0.06123370  0.78189382  1
  Te  Te75  1  0.10418021  0.43720681  0.06692539  1
  Te  Te76  1  0.08197518  0.42234869  0.42170265  1
  Te  Te77  1  0.06136295  0.39648824  0.75352313  1
  Te  Te78  1  0.09093635  0.77245105  0.08566038  1
  Te  Te79  1  0.08387348  0.73866595  0.41199087  1
  Te  Te80  1  0.09925930  0.74912852  0.80632315  1
  Te  Te81  1  0.39269749  0.11453853  0.08837272  1
  Te  Te82  1  0.44069459  0.11965342  0.41200188  1
  Te  Te83  1  0.39800741  0.08545287  0.76803097  1
  Te  Te84  1  0.43537341  0.39999449  0.09635937  1
  Te  Te85  1  0.42986664  0.40499547  0.42281780  1
  Te  Te86  1  0.41636564  0.43928738  0.77019369  1
  Te  Te87  1  0.39492022  0.72499231  0.05891577  1
  Te  Te88  1  0.40269754  0.77489276  0.40558442  1
  Te  Te89  1  0.44885214  0.73548440  0.76618670  1
  Te  Te90  1  0.75504551  0.09606640  0.07624337  1
  Te  Te91  1  0.72839250  0.06913175  0.41748033  1
  Te  Te92  1  0.74455408  0.07993382  0.73435782  1
  Te  Te93  1  0.72764198  0.44700003  0.04571913  1
  Te  Te94  1  0.74294373  0.39612292  0.41873359  1
  Te  Te95  1  0.71703974  0.41559787  0.75299465  1
  Te  Te96  1  0.73811065  0.75512686  0.09803528  1
  Te  Te97  1  0.73973345  0.74770644  0.44027108  1
  Te  Te98  1  0.75631485  0.76152003  0.74524506  1
  Te  Te99  1  0.07834902  0.26959897  0.22536286  1
  Te  Te100  1  0.09509814  0.25189743  0.57200350  1
  Te  Te101  1  0.13193306  0.25386081  0.92701566  1
  Te  Te102  1  0.06547606  0.60248580  0.23880980  1
  Te  Te103  1  0.08620521  0.59565761  0.60716513  1
  Te  Te104  1  0.10167529  0.57519190  0.91880233  1
  Te  Te105  1  0.07454925  0.92737790  0.23162963  1
  Te  Te106  1  0.08829299  0.92742726  0.59566521  1
  Te  Te107  1  0.08165004  0.87924385  0.88856000  1
  Te  Te108  1  0.44964190  0.22417598  0.22574465  1
  Te  Te109  1  0.41279288  0.24991703  0.58208812  1
  Te  Te110  1  0.44244712  0.24788233  0.89693670  1
  Te  Te111  1  0.39415410  0.58899612  0.26755265  1
  Te  Te112  1  0.41007298  0.57078603  0.58145597  1
  Te  Te113  1  0.39848099  0.53385123  0.89491282  1
  Te  Te114  1  0.44911716  0.94501998  0.26054670  1
  Te  Te115  1  0.44185642  0.95256316  0.57143106  1
  Te  Te116  1  0.43693946  0.91381776  0.91311970  1
  Te  Te117  1  0.74690196  0.24910186  0.24024435  1
  Te  Te118  1  0.72242406  0.26349650  0.58791183  1
  Te  Te119  1  0.72036904  0.27025127  0.92603378  1
  Te  Te120  1  0.73160402  0.57191365  0.23758818  1
  Te  Te121  1  0.74357969  0.57587811  0.59132815  1
  Te  Te122  1  0.72372931  0.61661485  0.88074786  1
  Te  Te123  1  0.75045617  0.89743139  0.26758423  1
  Te  Te124  1  0.72819491  0.93428448  0.56987309  1
  Te  Te125  1  0.76406181  0.90450224  0.90845941  1
  Te  Te126  1  0.26978922  0.23312296  0.07832822  1
  Te  Te127  1  0.25217840  0.26548952  0.39331537  1
  Te  Te128  1  0.26476136  0.25560509  0.75629940  1
  Te  Te129  1  0.26495815  0.59856325  0.07164408  1
  Te  Te130  1  0.24166340  0.60131452  0.41942704  1
  Te  Te131  1  0.25084828  0.60414372  0.76564302  1
  Te  Te132  1  0.29383697  0.91842100  0.08949831  1
  Te  Te133  1  0.23855128  0.92700911  0.40955157  1
  Te  Te134  1  0.27445185  0.90228590  0.73012527  1
  Te  Te135  1  0.58754256  0.23234417  0.09917850  1
  Te  Te136  1  0.56211964  0.22790235  0.41482267  1
  Te  Te137  1  0.54756733  0.26628182  0.76620708  1
  Te  Te138  1  0.58398594  0.59489218  0.06408706  1
  Te  Te139  1  0.57968768  0.58128911  0.42054427  1
  Te  Te140  1  0.61197446  0.56391497  0.78254029  1
  Te  Te141  1  0.55483036  0.94295210  0.08501242  1
  Te  Te142  1  0.54075314  0.90368245  0.38100573  1
  Te  Te143  1  0.60468402  0.90892341  0.73994435  1
  Te  Te144  1  0.91689165  0.25349148  0.08282492  1
  Te  Te145  1  0.90977858  0.25400470  0.43501336  1
  Te  Te146  1  0.91512731  0.22162337  0.75108963  1
  Te  Te147  1  0.91497111  0.57057194  0.07706541  1
  Te  Te148  1  0.92912715  0.58314346  0.41446976  1
  Te  Te149  1  0.92084197  0.59757595  0.74730279  1
  Te  Te150  1  0.90080545  0.92479892  0.08386796  1
  Te  Te151  1  0.91041125  0.90725572  0.41399635  1
  Te  Te152  1  0.91648378  0.91621112  0.74566870  1
  Te  Te153  1  0.24784921  0.10528173  0.27118522  1
  Te  Te154  1  0.26063575  0.07950788  0.59348518  1
  Te  Te155  1  0.21705635  0.04478300  0.90746826  1
  Te  Te156  1  0.25401161  0.42389922  0.25692236  1
  Te  Te157  1  0.23557182  0.41112491  0.58138872  1
  Te  Te158  1  0.27670329  0.43693603  0.93263133  1
  Te  Te159  1  0.27162641  0.77274227  0.23880067  1
  Te  Te160  1  0.25429669  0.75634766  0.58066724  1
  Te  Te161  1  0.26129144  0.74045005  0.93373096  1
  Te  Te162  1  0.59892101  0.01640864  0.28786673  1
  Te  Te163  1  0.56277669  0.06252149  0.58845154  1
  Te  Te164  1  0.61072361  0.07356765  0.90810649  1
  Te  Te165  1  0.59250757  0.41963783  0.23128496  1
  Te  Te166  1  0.56558504  0.39518858  0.58953534  1
  Te  Te167  1  0.61832364  0.41046073  0.94089006  1
  Te  Te168  1  0.56246586  0.74286635  0.24441493  1
  Te  Te169  1  0.57049290  0.74506727  0.58200593  1
  Te  Te170  1  0.58981891  0.71492888  0.94336218  1
  Te  Te171  1  0.91724847  0.09321144  0.26179015  1
  Te  Te172  1  0.90981500  0.06083680  0.56851280  1
  Te  Te173  1  0.94811895  0.08496568  0.92422461  1
  Te  Te174  1  0.89212234  0.41733026  0.25364852  1
  Te  Te175  1  0.89313253  0.41448821  0.58080172  1
  Te  Te176  1  0.90897783  0.40343575  0.91891736  1
  Te  Te177  1  0.89239640  0.75441440  0.27260121  1
  Te  Te178  1  0.93518561  0.74755739  0.59637807  1
  Te  Te179  1  0.92499713  0.72953858  0.90018803  1
