# generated using pymatgen
data_In2Te3
_symmetry_space_group_name_H-M   'P 1'
_cell_length_a   18.91728443
_cell_length_b   18.91329720
_cell_length_c   18.92372221
_cell_angle_alpha   89.98903416
_cell_angle_beta   89.90987731
_cell_angle_gamma   89.95939558
_symmetry_Int_Tables_number   1
_chemical_formula_structural   In2Te3
_chemical_formula_sum   'In72 Te108'
_cell_volume   6770.67473588
_cell_formula_units_Z   36
loop_
 _symmetry_equiv_pos_site_id
 _symmetry_equiv_pos_as_xyz
  1  'x, y, z'
loop_
 _atom_site_type_symbol
 _atom_site_label
 _atom_site_symmetry_multiplicity
 _atom_site_fract_x
 _atom_site_fract_y
 _atom_site_fract_z
 _atom_site_occupancy
  In  In0  1  0.32440358  0.01602496  0.35159985  1
  In  In1  1  0.05357112  0.79638539  0.13144861  1
  In  In2  1  0.49398159  0.82252011  0.67265419  1
  In  In3  1  0.85115369  0.82857902  0.67406438  1
  In  In4  1  0.34365822  0.00403228  0.66364699  1
  In  In5  1  0.85084019  0.34779821  0.49153487  1
  In  In6  1  0.65403203  0.16550618  0.81105060  1
  In  In7  1  0.17114774  0.48571071  -0.02629944  1
  In  In8  1  0.32270513  0.82640207  0.82756651  1
  In  In9  1  -0.01717048  0.17165933  0.49947178  1
  In  In10  1  0.66745470  0.65791570  -0.00694388  1
  In  In11  1  0.68854920  0.35507390  0.00510026  1
  In  In12  1  0.34369314  0.80196162  0.17477143  1
  In  In13  1  0.84955209  0.35866580  0.83943757  1
  In  In14  1  0.84113950  0.17854570  0.00092395  1
  In  In15  1  0.48281602  0.16726166  0.65571022  1
  In  In16  1  0.17502267  0.36770992  0.50590460  1
  In  In17  1  0.47068712  0.48925874  0.70713222  1
  In  In18  1  -0.00782180  0.82900145  0.85496215  1
  In  In19  1  0.32567490  0.52472823  0.14600701  1
  In  In20  1  0.85836397  0.66020916  0.83714114  1
  In  In21  1  0.82447969  0.79356330  -0.00808335  1
  In  In22  1  0.67358672  0.16563886  0.18378980  1
  In  In23  1  0.83681768  -0.01134318  0.16618925  1
  In  In24  1  0.16662555  0.01989892  0.83599623  1
  In  In25  1  0.80518209  -0.01473887  0.50145669  1
  In  In26  1  0.33011308  0.64883308  0.34863401  1
  In  In27  1  0.35109852  -0.01946622  -0.00369332  1
  In  In28  1  0.65387858  0.01710656  0.34246034  1
  In  In29  1  0.83771503  0.79188762  0.33135444  1
  In  In30  1  0.66940737  0.85156551  0.15311736  1
  In  In31  1  0.64345751  0.15125084  0.49108333  1
  In  In32  1  0.64178276  0.80681378  0.82828349  1
  In  In33  1  0.68808500  0.62892342  0.30932531  1
  In  In34  1  0.51129903  0.66029771  0.14535368  1
  In  In35  1  -0.02479460  0.49364013  0.18415374  1
  In  In36  1  0.00993035  0.20173816  0.14602261  1
  In  In37  1  0.32572552  0.18809065  0.84056117  1
  In  In38  1  0.02518454  0.02208804  0.69323708  1
  In  In39  1  0.21992632  0.77903261  0.65253025  1
  In  In40  1  0.50706569  0.84955919  0.31901925  1
  In  In41  1  0.51432879  0.33552516  0.15607123  1
  In  In42  1  0.33247965  0.15283058  0.16043082  1
  In  In43  1  0.16106871  0.34638546  0.19940177  1
  In  In44  1  0.16162881  0.50873001  0.33611523  1
  In  In45  1  -0.01525061  0.66351324  0.67468152  1
  In  In46  1  -0.01707908  0.01918085  0.33219129  1
  In  In47  1  0.64588895  -0.01953813  -0.00927620  1
  In  In48  1  0.15384828  0.66467639  0.83038077  1
  In  In49  1  0.00429381  0.51667813  0.49501742  1
  In  In50  1  0.15665962  0.84492150  0.32678857  1
  In  In51  1  0.00952031  0.36150174  0.66414270  1
  In  In52  1  0.18631192  0.00476050  0.15983852  1
  In  In53  1  0.15058165  0.21238880  -0.03345792  1
  In  In54  1  0.00734201  0.66548765  0.32686159  1
  In  In55  1  0.34166135  0.31935262  0.35648249  1
  In  In56  1  0.67234924  0.54632980  0.54029686  1
  In  In57  1  0.81875510  0.02896173  0.85314137  1
  In  In58  1  0.49140764  0.32549754  0.51139000  1
  In  In59  1  -0.00973075  0.81494367  0.51654722  1
  In  In60  1  0.18109635  0.00076544  0.51850967  1
  In  In61  1  0.48146372  0.52624786  -0.03880072  1
  In  In62  1  0.48024819  -0.01111927  0.49807586  1
  In  In63  1  0.82715801  0.17019222  0.66329994  1
  In  In64  1  0.65918212  0.33667510  0.67126640  1
  In  In65  1  0.68341771  0.33933618  0.34387284  1
  In  In66  1  0.50984326  0.46563136  0.33282711  1
  In  In67  1  0.64964013  0.50687103  0.82514650  1
  In  In68  1  -0.02058014  0.01382499  -0.00242714  1
  In  In69  1  0.31746728  0.33307753  -0.01004478  1
  In  In70  1  0.18927652  0.50383045  0.67494546  1
  In  In71  1  0.48982209  0.66777235  0.51520917  1
  Te  Te72  1  0.08699103  0.08973797  0.07573698  1
  Te  Te73  1  0.08211714  0.07835793  0.42754382  1
  Te  Te74  1  0.10279930  0.13319201  0.75713537  1
  Te  Te75  1  0.09566800  0.44032560  0.10120404  1
  Te  Te76  1  0.06603305  0.41351207  0.40330465  1
  Te  Te77  1  0.12184934  0.39336823  0.75915784  1
  Te  Te78  1  0.13575459  0.70996237  0.04807901  1
  Te  Te79  1  0.09120167  0.74715550  0.42616787  1
  Te  Te80  1  0.07529793  0.76797075  0.73990442  1
  Te  Te81  1  0.42551046  0.08472409  0.07033476  1
  Te  Te82  1  0.42119753  0.09956922  0.42290005  1
  Te  Te83  1  0.41597962  0.08730857  0.76693979  1
  Te  Te84  1  0.41563920  0.42455562  0.07250938  1
  Te  Te85  1  0.40625499  0.43038769  0.43741719  1
  Te  Te86  1  0.40772798  0.39325546  0.79933351  1
  Te  Te87  1  0.41196874  0.73190095  0.06430049  1
  Te  Te88  1  0.42454732  0.75292756  0.40571253  1
  Te  Te89  1  0.41615291  0.72779469  0.76249569  1
  Te  Te90  1  0.75483151  0.07040613  0.06732015  1
  Te  Te91  1  0.76197135  0.09898112  0.40945757  1
  Te  Te92  1  0.73823474  0.06665141  0.73021500  1
  Te  Te93  1  0.80426798  0.42784513  0.06461014  1
  Te  Te94  1  0.73530649  0.43568628  0.44886318  1
  Te  Te95  1  0.75381138  0.42913512  0.74209336  1
  Te  Te96  1  0.74605315  0.72994929  0.10417376  1
  Te  Te97  1  0.73533564  0.72497413  0.41090699  1
  Te  Te98  1  0.75432091  0.73448813  0.75358963  1
  Te  Te99  1  0.07027185  0.25510361  0.26850598  1
  Te  Te100  1  0.07889546  0.26267138  0.57215192  1
  Te  Te101  1  0.07193177  0.32214583  0.90500476  1
  Te  Te102  1  0.09421979  0.58933871  0.22894341  1
  Te  Te103  1  0.09162125  0.59019673  0.59407235  1
  Te  Te104  1  0.06909050  0.55531557  0.88712929  1
  Te  Te105  1  0.07039455  0.93135841  0.23611153  1
  Te  Te106  1  0.07315816  0.91960018  0.59067628  1
  Te  Te107  1  0.08356597  0.92721489  0.92709332  1
  Te  Te108  1  0.41707577  0.25420048  0.24002381  1
  Te  Te109  1  0.38870794  0.26985900  0.60364087  1
  Te  Te110  1  0.41756174  0.23458465  0.94626351  1
  Te  Te111  1  0.43453447  0.57905148  0.25110950  1
  Te  Te112  1  0.40521746  0.57460784  0.59710011  1
  Te  Te113  1  0.40066964  0.60251153  0.86095414  1
  Te  Te114  1  0.39644779  0.92563733  0.25064911  1
  Te  Te115  1  0.39658199  0.89092815  0.57748157  1
  Te  Te116  1  0.42598962  0.91494239  0.88679426  1
  Te  Te117  1  0.76399413  0.26432993  0.24380955  1
  Te  Te118  1  0.73646273  0.25062588  0.57066567  1
  Te  Te119  1  0.74824222  0.25214347  0.89690478  1
  Te  Te120  1  0.81516612  0.55891506  0.25626760  1
  Te  Te121  1  0.76840097  0.62061402  0.62032055  1
  Te  Te122  1  0.75890990  0.57048514  0.91075465  1
  Te  Te123  1  0.75397604  0.91545481  0.27038674  1
  Te  Te124  1  0.74434290  0.89010826  0.59415688  1
  Te  Te125  1  0.75299863  0.90001126  0.90923264  1
  Te  Te126  1  0.23372358  0.25773510  0.09667676  1
  Te  Te127  1  0.22793912  0.25772363  0.42206950  1
  Te  Te128  1  0.20848711  0.25063962  0.77675326  1
  Te  Te129  1  0.25422987  0.59663792  0.03779670  1
  Te  Te130  1  0.23608968  0.58211324  0.44260733  1
  Te  Te131  1  0.26999766  0.58874207  0.77096500  1
  Te  Te132  1  0.25773120  0.89686600  0.08455378  1
  Te  Te133  1  0.25472927  0.90291023  0.42665579  1
  Te  Te134  1  0.23451324  0.92228660  0.73998531  1
  Te  Te135  1  0.60475485  0.24577896  0.07380721  1
  Te  Te136  1  0.57206534  0.25236000  0.40355533  1
  Te  Te137  1  0.55461127  0.26454156  0.75160410  1
  Te  Te138  1  0.58813423  0.55361497  0.07078443  1
  Te  Te139  1  0.58202618  0.57611562  0.41034717  1
  Te  Te140  1  0.56955005  0.59365144  0.73902363  1
  Te  Te141  1  0.55642272  0.90354930  0.07840382  1
  Te  Te142  1  0.59195198  0.90983829  0.42938570  1
  Te  Te143  1  0.56148003  0.91490897  0.76790402  1
  Te  Te144  1  0.91191465  0.28741926  0.07282176  1
  Te  Te145  1  0.90486533  0.24760576  0.40063873  1
  Te  Te146  1  0.91761086  0.26171795  0.73923553  1
  Te  Te147  1  0.87828257  0.55920611  0.09189305  1
  Te  Te148  1  0.90896555  0.58286005  0.40166299  1
  Te  Te149  1  0.94473425  0.55781426  0.77117319  1
  Te  Te150  1  0.91019394  0.89823489  0.06970591  1
  Te  Te151  1  0.91718638  0.90626142  0.41605408  1
  Te  Te152  1  0.91481814  0.93274341  0.76943197  1
  Te  Te153  1  0.23289139  0.10254550  0.26555129  1
  Te  Te154  1  0.26124231  0.09960804  0.58928621  1
  Te  Te155  1  0.24930004  0.08942885  0.94298807  1
  Te  Te156  1  0.27705727  0.43242862  0.25917489  1
  Te  Te157  1  0.27407523  0.39747586  0.61317464  1
  Te  Te158  1  0.28610048  0.43379766  0.88206514  1
  Te  Te159  1  0.23842974  0.73346834  0.25935145  1
  Te  Te160  1  0.29464542  0.68286012  0.57060254  1
  Te  Te161  1  0.21755163  0.76849401  0.91792126  1
  Te  Te162  1  0.57136376  0.07749111  0.23948803  1
  Te  Te163  1  0.57629004  0.06437329  0.59358799  1
  Te  Te164  1  0.58327637  0.08515897  0.91060284  1
  Te  Te165  1  0.61402508  0.42224116  0.23146176  1
  Te  Te166  1  0.57471356  0.43042481  0.58595720  1
  Te  Te167  1  0.57676913  0.41118866  0.91767609  1
  Te  Te168  1  0.59287404  0.74457991  0.24798370  1
  Te  Te169  1  0.58914271  0.74173331  0.59243138  1
  Te  Te170  1  0.56366018  0.74346364  0.93436137  1
  Te  Te171  1  0.91541871  0.10183580  0.22559959  1
  Te  Te172  1  0.90903618  0.06437300  0.58555852  1
  Te  Te173  1  0.93512264  0.11718112  0.89537798  1
  Te  Te174  1  0.86927041  0.41887633  0.25698991  1
  Te  Te175  1  0.90759447  0.44667456  0.59052816  1
  Te  Te176  1  0.95076333  0.41205660  0.93154510  1
  Te  Te177  1  0.93519095  0.75285513  0.22456477  1
  Te  Te178  1  0.88619787  0.71317359  0.56498318  1
  Te  Te179  1  0.94827994  0.71769364  0.94814366  1
