# generated using pymatgen
data_In2Te3
_symmetry_space_group_name_H-M   'P 1'
_cell_length_a   19.02041060
_cell_length_b   19.00619858
_cell_length_c   19.03151947
_cell_angle_alpha   89.90400676
_cell_angle_beta   89.94107130
_cell_angle_gamma   89.84231308
_symmetry_Int_Tables_number   1
_chemical_formula_structural   In2Te3
_chemical_formula_sum   'In72 Te108'
_cell_volume   6879.96346739
_cell_formula_units_Z   36
loop_
 _symmetry_equiv_pos_site_id
 _symmetry_equiv_pos_as_xyz
  1  'x, y, z'
loop_
 _atom_site_type_symbol
 _atom_site_label
 _atom_site_symmetry_multiplicity
 _atom_site_fract_x
 _atom_site_fract_y
 _atom_site_fract_z
 _atom_site_occupancy
  In  In0  1  0.81509719  -0.03247972  0.15853440  1
  In  In1  1  -0.01331073  0.16684895  0.81480367  1
  In  In2  1  0.85469753  0.50286144  0.00388003  1
  In  In3  1  0.50803839  0.19562924  0.34749430  1
  In  In4  1  0.17306198  0.77299395  0.32555467  1
  In  In5  1  -0.01208099  0.43073268  0.70014524  1
  In  In6  1  0.69124010  0.20326994  0.82364159  1
  In  In7  1  0.50737567  0.48373045  0.68150609  1
  In  In8  1  0.17110401  0.54517322  -0.06958008  1
  In  In9  1  0.00405980  0.79397878  0.81733576  1
  In  In10  1  0.14030711  0.38974920  0.51479389  1
  In  In11  1  -0.01111516  0.50139853  0.17031308  1
  In  In12  1  0.32809558  0.78706364  0.47933912  1
  In  In13  1  0.49495028  0.32137352  0.82656565  1
  In  In14  1  0.67822334  0.82312097  0.49325534  1
  In  In15  1  0.03428044  0.01476832  0.32661909  1
  In  In16  1  0.65849766  0.49951003  0.18099164  1
  In  In17  1  0.84521578  0.19211158  0.40589587  1
  In  In18  1  0.14806849  0.15972949  0.66146767  1
  In  In19  1  0.83024276  0.01411938  0.83909934  1
  In  In20  1  0.18715023  -0.01157188  0.51409432  1
  In  In21  1  0.65886911  0.81245602  0.80842014  1
  In  In22  1  0.16572937  0.34221913  0.21180784  1
  In  In23  1  0.34738771  0.16785700  0.16921066  1
  In  In24  1  0.64456255  0.02772112  -0.00553294  1
  In  In25  1  -0.02586778  0.18504020  0.53221603  1
  In  In26  1  0.02574019  0.83222670  0.49749370  1
  In  In27  1  0.48535472  0.63448097  0.85019280  1
  In  In28  1  0.83840717  0.82060783  0.34958582  1
  In  In29  1  0.34235988  0.53427987  0.47771229  1
  In  In30  1  0.00492605  0.15965660  0.17382513  1
  In  In31  1  0.30905861  0.14418495  0.80835168  1
  In  In32  1  0.83829222  0.64202773  0.51143504  1
  In  In33  1  0.84108759  -0.00541658  0.51731390  1
  In  In34  1  0.66669706  0.47617321  0.84477193  1
  In  In35  1  0.32773019  0.38508993  0.33478018  1
  In  In36  1  0.65147740  0.01654359  0.69868627  1
  In  In37  1  0.33016288  0.37486019  0.66028795  1
  In  In38  1  0.49403056  0.80638550  0.63319922  1
  In  In39  1  0.84308283  0.35535787  0.84850300  1
  In  In40  1  0.32424845  0.67554627  -0.01562707  1
  In  In41  1  0.83173334  0.82975705  0.68126355  1
  In  In42  1  0.64847873  0.00019446  0.32836164  1
  In  In43  1  0.47705782  0.84976635  -0.02064311  1
  In  In44  1  0.54429427  0.64083887  0.48680485  1
  In  In45  1  0.49200127  0.00609146  0.50995826  1
  In  In46  1  0.17809897  -0.01194375  0.14900822  1
  In  In47  1  0.48552134  0.82516028  0.29768116  1
  In  In48  1  0.19342288  0.18361488  0.36615432  1
  In  In49  1  0.18577828  0.82176060  0.69126214  1
  In  In50  1  0.47258368  0.62900285  0.17632912  1
  In  In51  1  0.63280779  0.82198332  0.13722856  1
  In  In52  1  0.00503824  0.35075488  0.38081145  1
  In  In53  1  0.65367729  0.16085010  0.19881175  1
  In  In54  1  0.15036223  0.79409018  -0.02874929  1
  In  In55  1  0.19053115  0.15564842  0.00475723  1
  In  In56  1  0.52757101  0.34160723  0.51779305  1
  In  In57  1  0.80135488  0.33922473  0.17157125  1
  In  In58  1  0.81774911  0.50668285  0.31970105  1
  In  In59  1  0.48650648  0.20298068  0.01687058  1
  In  In60  1  0.50706583  0.17511360  0.67545190  1
  In  In61  1  0.16329410  0.34486484  0.83944875  1
  In  In62  1  0.01230432  0.84147192  0.12424023  1
  In  In63  1  0.00430656  0.67667067  0.30504302  1
  In  In64  1  -0.00544247  0.31420795  0.01663715  1
  In  In65  1  0.67654656  0.35228005  0.34693274  1
  In  In66  1  0.83356118  0.83129485  -0.04624940  1
  In  In67  1  0.32845746  0.64076611  0.69141677  1
  In  In68  1  0.47394469  0.01026638  0.84108982  1
  In  In69  1  0.33996734  0.00300822  0.34863302  1
  In  In70  1  0.29933025  0.81274976  0.15608334  1
  In  In71  1  0.67425450  0.64850729  0.00005633  1
  Te  Te72  1  0.07820423  0.07328293  0.07439138  1
  Te  Te73  1  0.09443586  0.09454646  0.44041354  1
  Te  Te74  1  0.09258235  0.07680050  0.76739117  1
  Te  Te75  1  0.08239195  0.40391830  0.10062915  1
  Te  Te76  1  0.09984825  0.46297898  0.39171193  1
  Te  Te77  1  0.12864777  0.45770914  0.74821064  1
  Te  Te78  1  0.10026059  0.72618407  0.09430122  1
  Te  Te79  1  0.08844613  0.71227314  0.43385674  1
  Te  Te80  1  0.07429643  0.72670653  0.70627574  1
  Te  Te81  1  0.40537326  0.08952398  0.06156583  1
  Te  Te82  1  0.41021388  0.10710401  0.43084470  1
  Te  Te83  1  0.40791116  0.06999204  0.71845864  1
  Te  Te84  1  0.46948554  0.34522059  0.05239952  1
  Te  Te85  1  0.43837540  0.42836326  0.42876381  1
  Te  Te86  1  0.40167971  0.43383681  0.77863566  1
  Te  Te87  1  0.42321321  0.74954485  0.08277563  1
  Te  Te88  1  0.44427216  0.72787532  0.40523192  1
  Te  Te89  1  0.42819512  0.73641838  0.75070054  1
  Te  Te90  1  0.73921816  0.08355928  0.09673777  1
  Te  Te91  1  0.75677311  0.06278852  0.41155502  1
  Te  Te92  1  0.76699867  0.10531161  0.73493624  1
  Te  Te93  1  0.74030746  0.42709733  0.06899868  1
  Te  Te94  1  0.70667460  0.48190720  0.42116383  1
  Te  Te95  1  0.77216189  0.43836227  0.74650998  1
  Te  Te96  1  0.74935997  0.76350521  0.06433586  1
  Te  Te97  1  0.74588987  0.71872523  0.40859903  1
  Te  Te98  1  0.76847867  0.72756558  0.76368610  1
  Te  Te99  1  0.06716498  0.24254416  0.28517320  1
  Te  Te100  1  0.07522205  0.27561166  0.59435403  1
  Te  Te101  1  0.08689554  0.23815369  0.92199668  1
  Te  Te102  1  0.09043488  0.56667795  0.25562914  1
  Te  Te103  1  0.02623357  0.55949036  0.61664998  1
  Te  Te104  1  0.03871759  0.61017105  0.90307447  1
  Te  Te105  1  0.09552151  0.90068895  0.24457078  1
  Te  Te106  1  0.09262132  0.91403293  0.60294812  1
  Te  Te107  1  0.06625072  0.89347268  0.90493862  1
  Te  Te108  1  0.40274032  0.26684675  0.26639332  1
  Te  Te109  1  0.41934319  0.26940924  0.59461288  1
  Te  Te110  1  0.39354347  0.23341865  0.89529194  1
  Te  Te111  1  0.40943659  0.51341105  0.24129354  1
  Te  Te112  1  0.43648170  0.58863717  0.58930938  1
  Te  Te113  1  0.41205660  0.56191129  0.95178872  1
  Te  Te114  1  0.38614551  0.91667606  0.23262950  1
  Te  Te115  1  0.39820077  0.89911241  0.56158765  1
  Te  Te116  1  0.37691422  0.90298026  0.88119638  1
  Te  Te117  1  0.76335842  0.23034520  0.27732973  1
  Te  Te118  1  0.82712422  0.21673986  0.55204875  1
  Te  Te119  1  0.76447147  0.26408545  0.93267330  1
  Te  Te120  1  0.76546614  0.59632303  0.21511091  1
  Te  Te121  1  0.82010454  0.54049534  0.61752323  1
  Te  Te122  1  0.76688193  0.57897155  0.90547145  1
  Te  Te123  1  0.72748556  0.89095686  0.25770869  1
  Te  Te124  1  0.72992715  0.91969820  0.60058515  1
  Te  Te125  1  0.71578650  0.92547686  0.90418952  1
  Te  Te126  1  0.23913253  0.25377564  0.10869384  1
  Te  Te127  1  0.24465789  0.30203368  0.43829936  1
  Te  Te128  1  0.24824688  0.26752058  0.73180036  1
  Te  Te129  1  0.21376563  0.60867273  0.05937882  1
  Te  Te130  1  0.26926576  0.62346084  0.38815120  1
  Te  Te131  1  0.23319776  0.58883466  0.79341430  1
  Te  Te132  1  0.24343159  0.89906676  0.04859696  1
  Te  Te133  1  0.24068049  0.89417148  0.40107534  1
  Te  Te134  1  0.27478500  0.90910157  0.76343154  1
  Te  Te135  1  0.58828322  0.26603184  0.11526045  1
  Te  Te136  1  0.61685056  0.24662477  0.43897275  1
  Te  Te137  1  0.60352200  0.27929409  0.72712169  1
  Te  Te138  1  0.57070799  0.56932578  0.07487486  1
  Te  Te139  1  0.58868201  0.56183622  0.37303007  1
  Te  Te140  1  0.59372780  0.58059143  0.76068985  1
  Te  Te141  1  0.55611926  0.93728219  0.07842556  1
  Te  Te142  1  0.56960988  0.90354238  0.41681759  1
  Te  Te143  1  0.55408164  0.90789153  0.73940731  1
  Te  Te144  1  0.89753165  0.23851933  0.10244463  1
  Te  Te145  1  0.87159523  0.33791876  0.45032361  1
  Te  Te146  1  0.93259610  0.28828545  0.74629674  1
  Te  Te147  1  0.89854837  0.59951176  0.10667658  1
  Te  Te148  1  0.91951802  0.58707114  0.39586979  1
  Te  Te149  1  0.97952514  0.56854914  0.76686566  1
  Te  Te150  1  0.90886452  0.92400371  0.04800060  1
  Te  Te151  1  0.93620471  0.92218890  0.40916457  1
  Te  Te152  1  0.91852759  0.91699639  0.76510505  1
  Te  Te153  1  0.23725299  0.08319667  0.25878037  1
  Te  Te154  1  0.25535530  0.09563420  0.58387444  1
  Te  Te155  1  0.23323404  0.06050617  0.90195562  1
  Te  Te156  1  0.26853620  0.45139142  0.21359300  1
  Te  Te157  1  0.24770005  0.47455483  0.58112685  1
  Te  Te158  1  0.22888876  0.41098389  0.95103618  1
  Te  Te159  1  0.27905349  0.69910755  0.25034010  1
  Te  Te160  1  0.25029457  0.72208048  0.58927083  1
  Te  Te161  1  0.24253630  0.73099418  0.87183133  1
  Te  Te162  1  0.54108719  0.07747508  0.25608139  1
  Te  Te163  1  0.59501507  0.09136645  0.57986578  1
  Te  Te164  1  0.58254333  0.10697820  0.88217017  1
  Te  Te165  1  0.57806756  0.39596221  0.24868046  1
  Te  Te166  1  0.61063958  0.43924980  0.58784045  1
  Te  Te167  1  0.57254423  0.39650305  0.92821303  1
  Te  Te168  1  0.58076472  0.72397863  0.23766265  1
  Te  Te169  1  0.61669512  0.72546133  0.59196168  1
  Te  Te170  1  0.57754314  0.74934522  0.92183799  1
  Te  Te171  1  0.91756128  0.05231629  0.23774518  1
  Te  Te172  1  0.94363909  0.05775383  0.59832517  1
  Te  Te173  1  0.90085126  0.11127702  0.92026605  1
  Te  Te174  1  0.91428840  0.39654835  0.25456396  1
  Te  Te175  1  0.93601521  0.45439293  0.55717499  1
  Te  Te176  1  0.95607841  0.42565291  0.92298549  1
  Te  Te177  1  0.91799597  0.77661477  0.22996346  1
  Te  Te178  1  0.90811518  0.76440721  0.56816372  1
  Te  Te179  1  0.93245653  0.72271422  0.93119755  1
