# generated using pymatgen
data_In2Te3
_symmetry_space_group_name_H-M   'P 1'
_cell_length_a   18.98599251
_cell_length_b   18.97802068
_cell_length_c   18.98418586
_cell_angle_alpha   90.06788534
_cell_angle_beta   89.92766633
_cell_angle_gamma   89.94572870
_symmetry_Int_Tables_number   1
_chemical_formula_structural   In2Te3
_chemical_formula_sum   'In72 Te108'
_cell_volume   6840.30318576
_cell_formula_units_Z   36
loop_
 _symmetry_equiv_pos_site_id
 _symmetry_equiv_pos_as_xyz
  1  'x, y, z'
loop_
 _atom_site_type_symbol
 _atom_site_label
 _atom_site_symmetry_multiplicity
 _atom_site_fract_x
 _atom_site_fract_y
 _atom_site_fract_z
 _atom_site_occupancy
  In  In0  1  0.49715927  -0.02584277  0.81295599  1
  In  In1  1  0.14396324  0.47465733  -0.00845016  1
  In  In2  1  0.52971453  0.52037746  0.67238343  1
  In  In3  1  0.49194156  0.82963982  0.02208535  1
  In  In4  1  0.83856898  0.83450662  -0.00074826  1
  In  In5  1  0.31681359  0.34451986  0.35143838  1
  In  In6  1  0.15001056  0.66589095  0.15738770  1
  In  In7  1  0.13646669  0.34167261  0.81995528  1
  In  In8  1  0.53246280  0.67870538  0.17147235  1
  In  In9  1  0.34675067  -0.04150847  0.30316489  1
  In  In10  1  0.52055339  0.65827018  0.47717219  1
  In  In11  1  0.67692478  0.67116473  0.00678646  1
  In  In12  1  0.14512684  -0.00607991  0.48689018  1
  In  In13  1  0.85321850  0.32981328  0.17128656  1
  In  In14  1  0.84331515  0.67586384  0.18899511  1
  In  In15  1  0.47427258  0.16251073  -0.01539735  1
  In  In16  1  -0.01017014  0.32435556  0.00097585  1
  In  In17  1  0.68356845  0.34843899  0.66965927  1
  In  In18  1  0.66627105  0.82781458  0.49481312  1
  In  In19  1  0.83037219  0.19890401  0.34157135  1
  In  In20  1  -0.00420545  0.15187617  0.17668694  1
  In  In21  1  0.16279170  0.83891788  0.32787898  1
  In  In22  1  0.51049292  0.15159429  0.35464004  1
  In  In23  1  0.66508577  -0.02765932  0.35435762  1
  In  In24  1  0.51462909  0.80683113  0.66343329  1
  In  In25  1  -0.00899360  -0.02275189  0.65610500  1
  In  In26  1  0.34107350  0.51482819  0.16841405  1
  In  In27  1  -0.01037799  0.16545895  0.85105037  1
  In  In28  1  0.82938473  0.67802016  0.50734110  1
  In  In29  1  0.52112874  0.63517407  0.85867735  1
  In  In30  1  0.02138124  0.67009621  0.34758885  1
  In  In31  1  0.81388524  0.50860292  -0.00826737  1
  In  In32  1  0.70274829  0.51460411  0.48989379  1
  In  In33  1  0.32752025  0.32206576  0.66853807  1
  In  In34  1  0.12461836  0.19930058  0.65471524  1
  In  In35  1  0.33271339  0.66462013  -0.03307045  1
  In  In36  1  0.48702209  0.31892316  0.16816134  1
  In  In37  1  0.17669200  0.52139533  0.32781711  1
  In  In38  1  -0.00131598  0.66601970  0.00843941  1
  In  In39  1  0.65689585  -0.03113177  0.00882568  1
  In  In40  1  0.32443594  0.82168719  0.81786828  1
  In  In41  1  0.86120588  -0.03013921  0.46213451  1
  In  In42  1  0.48089571  0.33793153  0.50678501  1
  In  In43  1  0.31238709  0.13715808  0.47243539  1
  In  In44  1  0.32668010  0.32923893  -0.01271335  1
  In  In45  1  0.86508557  0.17380527  0.66589843  1
  In  In46  1  0.82470203  0.79720852  0.68529865  1
  In  In47  1  -0.01789186  0.01131672  0.00349913  1
  In  In48  1  0.32598051  0.16979586  0.15532235  1
  In  In49  1  0.67654442  0.16968352  0.52333210  1
  In  In50  1  0.68449344  0.50714698  0.16329321  1
  In  In51  1  0.81680027  0.33398994  0.83192968  1
  In  In52  1  -0.00389861  0.35018017  0.33520220  1
  In  In53  1  -0.02097477  0.48459218  0.50628887  1
  In  In54  1  0.51631069  0.38960006  0.84665114  1
  In  In55  1  0.68113139  0.00379751  0.65914697  1
  In  In56  1  0.64877647  0.18812369  0.82908356  1
  In  In57  1  0.64235982  0.15411718  0.14534218  1
  In  In58  1  0.49628660  0.12940151  0.66292306  1
  In  In59  1  0.33128728  0.50113115  0.51390736  1
  In  In60  1  0.16701180  0.01689150  0.85159424  1
  In  In61  1  0.36469662  0.69982077  0.32729277  1
  In  In62  1  0.00340748  0.65852481  0.65732654  1
  In  In63  1  0.00469368  0.84136375  0.81545463  1
  In  In64  1  0.80429447  -0.01631838  0.18525465  1
  In  In65  1  0.31978869  -0.00286408  0.66970951  1
  In  In66  1  0.67557461  0.36227839  0.32802146  1
  In  In67  1  0.15999716  -0.02010091  0.17284712  1
  In  In68  1  0.20106383  0.68128422  0.54391181  1
  In  In69  1  0.15198569  0.17137230  0.33398693  1
  In  In70  1  0.00451047  0.51059295  0.80740492  1
  In  In71  1  0.32257443  -0.00056195  0.02750060  1
  Te  Te72  1  0.09244683  0.08136142  0.08397232  1
  Te  Te73  1  0.06194252  0.09214329  0.41751327  1
  Te  Te74  1  0.06730064  0.08297509  0.74383472  1
  Te  Te75  1  0.05617554  0.41651968  0.09259095  1
  Te  Te76  1  0.09573983  0.43058431  0.41665936  1
  Te  Te77  1  0.10945779  0.44890065  0.72254497  1
  Te  Te78  1  0.06574370  0.76539546  0.09270394  1
  Te  Te79  1  0.11125164  0.74998943  0.43789308  1
  Te  Te80  1  0.09112030  0.74005087  0.74736114  1
  Te  Te81  1  0.43191165  0.07736449  0.10322089  1
  Te  Te82  1  0.41688499  0.04759999  0.41170344  1
  Te  Te83  1  0.39908454  0.08248434  0.76799481  1
  Te  Te84  1  0.41340928  0.41619837  0.07841758  1
  Te  Te85  1  0.42518623  0.43430816  0.40685932  1
  Te  Te86  1  0.42769269  0.42331859  0.72936963  1
  Te  Te87  1  0.41141041  0.71900411  0.08433815  1
  Te  Te88  1  0.42611938  0.76754421  0.44206433  1
  Te  Te89  1  0.43685929  0.73282326  0.76937748  1
  Te  Te90  1  0.74697365  0.07222245  0.07422455  1
  Te  Te91  1  0.75270046  0.08460497  0.42220279  1
  Te  Te92  1  0.74970464  0.10904573  0.74244941  1
  Te  Te93  1  0.75346128  0.40049280  0.07986495  1
  Te  Te94  1  0.78230579  0.41334588  0.41425873  1
  Te  Te95  1  0.72980807  0.43757851  0.77461294  1
  Te  Te96  1  0.75152707  0.76096778  0.10133776  1
  Te  Te97  1  0.76445935  0.76371143  0.40382072  1
  Te  Te98  1  0.74313154  0.71468008  0.77426384  1
  Te  Te99  1  0.07777386  0.26280069  0.23907824  1
  Te  Te100  1  0.03660742  0.27780749  0.56626875  1
  Te  Te101  1  0.09406067  0.24254079  0.92753677  1
  Te  Te102  1  0.06511798  0.57136628  0.23932820  1
  Te  Te103  1  0.08594814  0.57824215  0.55959661  1
  Te  Te104  1  0.08600820  0.58824921  0.91014787  1
  Te  Te105  1  0.06187556  0.93896965  0.27897588  1
  Te  Te106  1  0.08855664  0.89832116  0.58177231  1
  Te  Te107  1  0.07622683  0.92076641  0.92457724  1
  Te  Te108  1  0.41202478  0.24241644  0.27938678  1
  Te  Te109  1  0.40668732  0.22123227  0.56807971  1
  Te  Te110  1  0.42895553  0.27259122  0.88892309  1
  Te  Te111  1  0.43971163  0.58890886  0.25542416  1
  Te  Te112  1  0.42999827  0.59195411  0.58357998  1
  Te  Te113  1  0.40479906  0.55493368  0.90155566  1
  Te  Te114  1  0.44640667  0.88131043  0.22404453  1
  Te  Te115  1  0.41238674  0.90202103  0.60323732  1
  Te  Te116  1  0.40772549  0.91327026  0.91982252  1
  Te  Te117  1  0.72715111  0.24640417  0.23443372  1
  Te  Te118  1  0.77641383  0.26679606  0.58156795  1
  Te  Te119  1  0.73642679  0.25465301  0.92433183  1
  Te  Te120  1  0.73256089  0.60558639  0.26177224  1
  Te  Te121  1  0.78659136  0.56841620  0.59916253  1
  Te  Te122  1  0.77160485  0.62058739  0.90201090  1
  Te  Te123  1  0.75420100  0.88003302  0.28004711  1
  Te  Te124  1  0.76739559  0.91246524  0.57428505  1
  Te  Te125  1  0.74388221  0.90497194  0.91188140  1
  Te  Te126  1  0.24032800  0.26238369  0.08548220  1
  Te  Te127  1  0.22712564  0.25742898  0.43610569  1
  Te  Te128  1  0.23296296  0.24017117  0.75250791  1
  Te  Te129  1  0.23822812  0.57341929  0.07320051  1
  Te  Te130  1  0.27398644  0.59981195  0.41229003  1
  Te  Te131  1  0.23144208  0.67031959  0.69184327  1
  Te  Te132  1  0.25265707  0.89437786  0.09949416  1
  Te  Te133  1  0.25813495  0.91407129  0.41887737  1
  Te  Te134  1  0.22285428  0.91681944  0.75262329  1
  Te  Te135  1  0.57050235  0.25528811  0.05834566  1
  Te  Te136  1  0.59561634  0.25941798  0.42202730  1
  Te  Te137  1  0.57216661  0.24993220  0.71441375  1
  Te  Te138  1  0.57844654  0.56743683  0.06571124  1
  Te  Te139  1  0.62205333  0.59060500  0.39184920  1
  Te  Te140  1  0.62322890  0.60266936  0.75303158  1
  Te  Te141  1  0.57845125  0.90523188  0.11663831  1
  Te  Te142  1  0.55664570  0.88747281  0.41269380  1
  Te  Te143  1  0.60899205  0.90063534  0.74313106  1
  Te  Te144  1  0.90579985  0.22345959  0.07719659  1
  Te  Te145  1  0.93654334  0.25111314  0.42969184  1
  Te  Te146  1  0.93451925  0.27387904  0.75811393  1
  Te  Te147  1  0.90583413  0.57791950  0.09006804  1
  Te  Te148  1  0.91402777  0.58912500  0.41618816  1
  Te  Te149  1  0.89979758  0.57649970  0.72526897  1
  Te  Te150  1  0.91407671  0.91832428  0.10208968  1
  Te  Te151  1  0.94778137  0.88916072  0.37571505  1
  Te  Te152  1  0.88951701  0.91811394  0.75222090  1
  Te  Te153  1  0.25203329  0.07814043  0.25848995  1
  Te  Te154  1  0.22725538  0.09185271  0.59017878  1
  Te  Te155  1  0.26184178  0.09260741  0.93280116  1
  Te  Te156  1  0.24696407  0.41796416  0.23992064  1
  Te  Te157  1  0.24269644  0.41561803  0.59429698  1
  Te  Te158  1  0.24613364  0.41821050  0.89429841  1
  Te  Te159  1  0.24823984  0.74698558  0.24298415  1
  Te  Te160  1  0.29785608  0.77727035  0.61034023  1
  Te  Te161  1  0.23581351  0.75966151  0.91617538  1
  Te  Te162  1  0.59028103  0.06759754  0.25817568  1
  Te  Te163  1  0.57961180  0.05701484  0.55965729  1
  Te  Te164  1  0.57375422  0.07310990  0.90590383  1
  Te  Te165  1  0.57449709  0.42296000  0.23569649  1
  Te  Te166  1  0.59193903  0.42485627  0.56371364  1
  Te  Te167  1  0.58770982  0.47857193  0.93572301  1
  Te  Te168  1  0.54814067  0.78109736  0.27811787  1
  Te  Te169  1  0.61112587  0.72026703  0.58433341  1
  Te  Te170  1  0.58389088  0.75928051  0.92611817  1
  Te  Te171  1  0.89157393  0.08488768  0.26224444  1
  Te  Te172  1  0.91523330  0.07116405  0.56473131  1
  Te  Te173  1  0.89224110  0.07327431  0.90672474  1
  Te  Te174  1  0.88519320  0.42890415  0.27445270  1
  Te  Te175  1  0.95136843  0.39162691  0.61780743  1
  Te  Te176  1  0.92039841  0.42900569  0.91261416  1
  Te  Te177  1  0.94009619  0.76196816  0.26328063  1
  Te  Te178  1  0.92848366  0.76644697  0.57982227  1
  Te  Te179  1  0.92366187  0.74922681  0.90540299  1
