# generated using pymatgen
data_In2Te3
_symmetry_space_group_name_H-M   'P 1'
_cell_length_a   19.02151416
_cell_length_b   18.99507548
_cell_length_c   19.05521775
_cell_angle_alpha   90.02499226
_cell_angle_beta   89.82816771
_cell_angle_gamma   90.23258041
_symmetry_Int_Tables_number   1
_chemical_formula_structural   In2Te3
_chemical_formula_sum   'In72 Te108'
_cell_volume   6884.84954816
_cell_formula_units_Z   36
loop_
 _symmetry_equiv_pos_site_id
 _symmetry_equiv_pos_as_xyz
  1  'x, y, z'
loop_
 _atom_site_type_symbol
 _atom_site_label
 _atom_site_symmetry_multiplicity
 _atom_site_fract_x
 _atom_site_fract_y
 _atom_site_fract_z
 _atom_site_occupancy
  In  In0  1  0.16123306  0.16284942  -0.00785420  1
  In  In1  1  0.82153603  0.81014046  -0.01328999  1
  In  In2  1  0.15679827  0.67698568  0.83757032  1
  In  In3  1  0.00077788  0.02020928  0.69787048  1
  In  In4  1  -0.00866731  0.86072174  0.53240030  1
  In  In5  1  -0.02033006  0.26104212  0.69283310  1
  In  In6  1  0.32724281  0.33512413  -0.02587044  1
  In  In7  1  0.32333971  0.00284785  0.34623554  1
  In  In8  1  0.31997092  0.14207533  0.16166323  1
  In  In9  1  0.02003814  0.85387546  0.17498882  1
  In  In10  1  -0.02826236  0.01768823  -0.03851539  1
  In  In11  1  -0.00132682  0.50860810  0.51318710  1
  In  In12  1  0.85216055  0.51459098  0.66942946  1
  In  In13  1  0.33919635  0.50276113  0.83193912  1
  In  In14  1  0.68016905  0.85558454  0.52175760  1
  In  In15  1  0.47074689  0.32345943  0.15285769  1
  In  In16  1  -0.00467679  0.30554934  0.30278423  1
  In  In17  1  0.34888552  -0.01601985  -0.00000615  1
  In  In18  1  0.51572956  0.02223132  0.80825157  1
  In  In19  1  0.69723232  -0.00439569  -0.01399174  1
  In  In20  1  0.66064390  0.59307385  -0.06116237  1
  In  In21  1  0.32729352  0.33195040  0.35271019  1
  In  In22  1  0.67638781  0.18070796  0.48106712  1
  In  In23  1  0.27685936  0.32534746  0.69049189  1
  In  In24  1  0.83705429  0.15765862  0.31344315  1
  In  In25  1  -0.00411546  0.16127812  0.14292564  1
  In  In26  1  0.83608567  0.83221016  0.67356433  1
  In  In27  1  0.68150104  0.17625986  0.82229568  1
  In  In28  1  0.51201563  0.66860231  0.83057638  1
  In  In29  1  0.67540151  0.33289218  0.30655246  1
  In  In30  1  0.15833816  0.49922760  0.68032797  1
  In  In31  1  0.34464656  0.51061490  0.51137275  1
  In  In32  1  -0.00877232  0.47662938  0.82787951  1
  In  In33  1  0.12842856  0.32178723  0.50451372  1
  In  In34  1  0.50707543  0.82997057  0.67942617  1
  In  In35  1  0.65888841  0.81663333  0.15682479  1
  In  In36  1  0.30703038  0.65832151  0.00231625  1
  In  In37  1  -0.01356524  0.67714102  0.00680640  1
  In  In38  1  0.85458638  0.87172754  0.36231562  1
  In  In39  1  0.68794748  0.64180694  0.69283466  1
  In  In40  1  0.50436316  0.53411666  0.32388578  1
  In  In41  1  0.17544277  0.82985515  0.69209624  1
  In  In42  1  0.65123359  0.35497999  -0.02040514  1
  In  In43  1  0.67005497  0.50171058  0.14641015  1
  In  In44  1  0.51849870  0.82862484  -0.01140342  1
  In  In45  1  0.47900416  0.18902412  -0.01678727  1
  In  In46  1  0.51420310  0.32026771  0.50707361  1
  In  In47  1  0.66446179  0.69372276  0.34335141  1
  In  In48  1  0.68458211  0.02873736  0.67628261  1
  In  In49  1  0.48871545  -0.02757030  0.50274793  1
  In  In50  1  0.46680083  0.70842369  0.49289740  1
  In  In51  1  0.20393189  0.68612626  0.51935491  1
  In  In52  1  0.15441367  0.83902952  0.01033431  1
  In  In53  1  0.34348088  0.85564730  0.19368727  1
  In  In54  1  0.66732207  -0.00159873  0.33468416  1
  In  In55  1  0.29796212  0.18077095  0.50342235  1
  In  In56  1  0.03121255  0.65674790  0.36244351  1
  In  In57  1  0.81949689  0.00530117  0.14597349  1
  In  In58  1  0.16396233  0.48262878  0.01155288  1
  In  In59  1  0.17512275  0.48292201  0.33754995  1
  In  In60  1  0.15137768  -0.01118583  0.85851743  1
  In  In61  1  -0.01072818  0.31953892  -0.02556736  1
  In  In62  1  0.85186584  0.68089108  0.19996966  1
  In  In63  1  0.18078864  0.84760028  0.34278210  1
  In  In64  1  -0.00381716  0.48092979  0.17193891  1
  In  In65  1  0.48196922  0.66465389  0.16186446  1
  In  In66  1  0.50663222  0.17801273  0.65355138  1
  In  In67  1  0.82428510  0.31904374  0.49446315  1
  In  In68  1  0.83875981  0.48643299  0.33809697  1
  In  In69  1  0.16836839  0.01119959  0.48208848  1
  In  In70  1  0.48766773  0.09741159  0.30056889  1
  In  In71  1  0.67341035  0.34912962  0.66933498  1
  Te  Te72  1  0.07500245  0.05883981  0.06198446  1
  Te  Te73  1  0.05564768  0.07959448  0.42514046  1
  Te  Te74  1  0.10613441  0.10176019  0.77065313  1
  Te  Te75  1  0.07534136  0.38645860  0.08691527  1
  Te  Te76  1  0.05188646  0.41632352  0.40171663  1
  Te  Te77  1  0.06054650  0.39326229  0.72342493  1
  Te  Te78  1  0.08832743  0.73956525  0.10342634  1
  Te  Te79  1  0.09223545  0.76943962  0.44462048  1
  Te  Te80  1  0.06412098  0.75600168  0.75557896  1
  Te  Te81  1  0.43167640  0.08175518  0.08042258  1
  Te  Te82  1  0.41378595  0.09565008  0.43738510  1
  Te  Te83  1  0.41455407  0.09359990  0.72984501  1
  Te  Te84  1  0.41951043  0.41644118  0.05510699  1
  Te  Te85  1  0.43171754  0.42397763  0.41585212  1
  Te  Te86  1  0.38879709  0.40982881  0.72954065  1
  Te  Te87  1  0.40904941  0.76887284  0.07654542  1
  Te  Te88  1  0.37714863  0.77315782  0.39804934  1
  Te  Te89  1  0.41496776  0.75434920  0.76526308  1
  Te  Te90  1  0.78077062  0.10422812  0.04406502  1
  Te  Te91  1  0.76497775  0.07508123  0.42037784  1
  Te  Te92  1  0.78129610  0.07272944  0.78089861  1
  Te  Te93  1  0.75017512  0.40381624  0.07750900  1
  Te  Te94  1  0.73304196  0.41474712  0.42053858  1
  Te  Te95  1  0.77477200  0.41809046  0.75642426  1
  Te  Te96  1  0.75310263  0.72112087  0.09204550  1
  Te  Te97  1  0.76470315  0.76808947  0.42918324  1
  Te  Te98  1  0.75796047  0.74653605  0.76592376  1
  Te  Te99  1  0.09363641  0.22928186  0.22884596  1
  Te  Te100  1  0.07194010  0.20957248  0.58234311  1
  Te  Te101  1  0.10124746  0.25792995  0.89554054  1
  Te  Te102  1  0.08751061  0.57556764  0.25027700  1
  Te  Te103  1  0.09414190  0.59826019  0.58598485  1
  Te  Te104  1  0.08136220  0.58146565  0.92930087  1
  Te  Te105  1  0.10815259  0.94022425  0.25461541  1
  Te  Te106  1  0.10006103  0.93862749  0.60386005  1
  Te  Te107  1  0.04641883  0.89260611  0.92015057  1
  Te  Te108  1  0.40730518  0.22958886  0.25991790  1
  Te  Te109  1  0.39357074  0.26725912  0.58429991  1
  Te  Te110  1  0.40587488  0.25637949  0.87861383  1
  Te  Te111  1  0.39417247  0.57970816  0.24231276  1
  Te  Te112  1  0.41471707  0.61112289  0.59004494  1
  Te  Te113  1  0.41629810  0.59005903  0.92705643  1
  Te  Te114  1  0.43624161  0.95740931  0.25652290  1
  Te  Te115  1  0.41934180  0.93585278  0.62446632  1
  Te  Te116  1  0.44067273  0.92046915  0.89869551  1
  Te  Te117  1  0.73674757  0.22402623  0.22960135  1
  Te  Te118  1  0.75064398  0.23699007  0.59957344  1
  Te  Te119  1  0.75549157  0.27875505  0.89967234  1
  Te  Te120  1  0.74148079  0.58632046  0.26449491  1
  Te  Te121  1  0.75538863  0.57690236  0.58098839  1
  Te  Te122  1  0.77222418  0.51967718  0.87415334  1
  Te  Te123  1  0.75549106  0.89780906  0.24849942  1
  Te  Te124  1  0.77729848  0.94941921  0.58756409  1
  Te  Te125  1  0.77866644  0.91663930  0.89548166  1
  Te  Te126  1  0.25416797  0.24689326  0.07748663  1
  Te  Te127  1  0.21032066  0.24632569  0.40084925  1
  Te  Te128  1  0.20121844  0.22687871  0.76700146  1
  Te  Te129  1  0.24260141  0.57070438  0.09798518  1
  Te  Te130  1  0.25475408  0.58668206  0.41710523  1
  Te  Te131  1  0.25053903  0.59534171  0.75036905  1
  Te  Te132  1  0.24891088  0.92193822  0.09533087  1
  Te  Te133  1  0.28715160  0.89128541  0.44441292  1
  Te  Te134  1  0.25187286  0.91822948  0.78126085  1
  Te  Te135  1  0.57888692  0.25381406  0.07546268  1
  Te  Te136  1  0.57695068  0.24729864  0.39098081  1
  Te  Te137  1  0.57837815  0.26428883  0.75399728  1
  Te  Te138  1  0.57697901  0.59009085  0.07076518  1
  Te  Te139  1  0.57524501  0.60914173  0.43083311  1
  Te  Te140  1  0.57009845  0.56724920  0.74014123  1
  Te  Te141  1  0.59406364  0.92547860  0.07748943  1
  Te  Te142  1  0.58308946  0.89873296  0.41237322  1
  Te  Te143  1  0.61047298  0.92041467  0.75002561  1
  Te  Te144  1  0.90156000  0.22873353  0.05372284  1
  Te  Te145  1  0.92040574  0.23420350  0.41422457  1
  Te  Te146  1  0.89445792  0.25849987  0.81504576  1
  Te  Te147  1  0.90892763  0.58158984  0.10138624  1
  Te  Te148  1  0.90828314  0.59071545  0.42342733  1
  Te  Te149  1  0.94543322  0.59278050  0.75183935  1
  Te  Te150  1  0.90500168  0.89351347  0.08710186  1
  Te  Te151  1  0.95273761  0.96455597  0.43005009  1
  Te  Te152  1  0.94567143  0.89498407  0.75334888  1
  Te  Te153  1  0.23031198  0.07150997  0.25570680  1
  Te  Te154  1  0.24624013  0.07493639  0.58853039  1
  Te  Te155  1  0.26503346  0.07823451  0.92004974  1
  Te  Te156  1  0.25840643  0.40459543  0.24764499  1
  Te  Te157  1  0.22829958  0.41858745  0.56402562  1
  Te  Te158  1  0.22899277  0.41764191  0.89278558  1
  Te  Te159  1  0.26819073  0.75203739  0.26892074  1
  Te  Te160  1  0.28177087  0.75393707  0.62158106  1
  Te  Te161  1  0.24969905  0.76812537  0.91712439  1
  Te  Te162  1  0.61694051  0.08971473  0.23129246  1
  Te  Te163  1  0.58970621  0.08007821  0.56436654  1
  Te  Te164  1  0.59031497  0.09293913  0.91960094  1
  Te  Te165  1  0.56988523  0.41995425  0.23727810  1
  Te  Te166  1  0.58079929  0.42323025  0.58433194  1
  Te  Te167  1  0.60677524  0.46231901  0.88609116  1
  Te  Te168  1  0.56021782  0.75788682  0.25468286  1
  Te  Te169  1  0.59231476  0.75038201  0.58385502  1
  Te  Te170  1  0.61526039  0.74097976  0.91545213  1
  Te  Te171  1  0.92498910  0.06274887  0.23642205  1
  Te  Te172  1  0.93309071  0.13181672  0.62533217  1
  Te  Te173  1  0.91749967  0.11331329  0.86430893  1
  Te  Te174  1  0.89014006  0.39037003  0.23459475  1
  Te  Te175  1  0.91682008  0.40076903  0.58077751  1
  Te  Te176  1  0.90723918  0.44121575  0.94382978  1
  Te  Te177  1  0.94419595  0.76660065  0.28624422  1
  Te  Te178  1  0.90611535  0.75063286  0.57329328  1
  Te  Te179  1  0.88485252  0.70427531  0.90579463  1
