# generated using pymatgen
data_In2Te3
_symmetry_space_group_name_H-M   'P 1'
_cell_length_a   18.98117062
_cell_length_b   18.98364789
_cell_length_c   18.97118906
_cell_angle_alpha   90.19334558
_cell_angle_beta   89.92696154
_cell_angle_gamma   89.85314086
_symmetry_Int_Tables_number   1
_chemical_formula_structural   In2Te3
_chemical_formula_sum   'In72 Te108'
_cell_volume   6835.85682514
_cell_formula_units_Z   36
loop_
 _symmetry_equiv_pos_site_id
 _symmetry_equiv_pos_as_xyz
  1  'x, y, z'
loop_
 _atom_site_type_symbol
 _atom_site_label
 _atom_site_symmetry_multiplicity
 _atom_site_fract_x
 _atom_site_fract_y
 _atom_site_fract_z
 _atom_site_occupancy
  In  In0  1  0.18129409  0.83742507  0.68263285  1
  In  In1  1  0.32793239  0.33735581  0.34363153  1
  In  In2  1  0.86087518  0.83359264  0.65399923  1
  In  In3  1  0.64368024  0.30663547  0.37405162  1
  In  In4  1  0.32608690  0.01700340  0.33849018  1
  In  In5  1  0.01810837  0.50115388  0.16644091  1
  In  In6  1  0.00202986  0.00010943  0.66704324  1
  In  In7  1  0.81350291  0.32193285  0.50661394  1
  In  In8  1  0.83696065  -0.00323720  0.18383038  1
  In  In9  1  0.00697105  0.66906571  0.01281824  1
  In  In10  1  0.31558830  0.67652759  0.66926801  1
  In  In11  1  0.84293665  0.16555699  0.33220145  1
  In  In12  1  0.15985247  0.65370258  0.16643658  1
  In  In13  1  0.18189622  0.01893080  0.50483512  1
  In  In14  1  0.33799280  0.16520241  0.52154502  1
  In  In15  1  0.00802029  -0.00370705  -0.01434812  1
  In  In16  1  0.64589393  0.50912396  0.16794179  1
  In  In17  1  0.81735926  0.03675372  0.80130368  1
  In  In18  1  0.82950314  0.17800848  -0.00082427  1
  In  In19  1  0.66095321  0.33333283  0.67609330  1
  In  In20  1  0.27397473  0.46612638  0.52124154  1
  In  In21  1  0.84430898  0.81981657  -0.00980079  1
  In  In22  1  0.31767050  0.83862938  0.16075261  1
  In  In23  1  0.68405100  0.82546269  0.18968011  1
  In  In24  1  -0.02411369  0.50422463  0.83526441  1
  In  In25  1  0.67612618  0.63550159  -0.00865395  1
  In  In26  1  0.48838329  0.16162483  -0.01570087  1
  In  In27  1  0.49386230  0.50775409  0.70985459  1
  In  In28  1  0.32247314  0.32794960  0.00151905  1
  In  In29  1  0.83663007  0.36016937  0.15428331  1
  In  In30  1  0.00580282  0.15783026  0.49631175  1
  In  In31  1  0.14370197  0.17246966  0.31365599  1
  In  In32  1  0.84496556  0.50880646  0.01603532  1
  In  In33  1  0.01231298  0.33676309  0.01200139  1
  In  In34  1  -0.00475488  0.82339309  0.48626820  1
  In  In35  1  0.33199780  0.00058744  0.00785842  1
  In  In36  1  0.64878730  -0.02194672  -0.00840323  1
  In  In37  1  0.13648615  0.83166375  0.34007774  1
  In  In38  1  0.85092417  0.82397096  0.31736077  1
  In  In39  1  0.50873797  0.66560874  0.51987833  1
  In  In40  1  0.03469216  0.47440059  0.47846968  1
  In  In41  1  0.83921224  0.30065076  0.80661122  1
  In  In42  1  0.67124705  0.83658586  0.80431254  1
  In  In43  1  0.34520623  0.17553411  0.80336297  1
  In  In44  1  0.47556890  0.48727307  0.35006039  1
  In  In45  1  0.00181714  0.32834879  0.65037365  1
  In  In46  1  0.17775354  0.18040741  0.01091781  1
  In  In47  1  0.48969261  0.32181090  0.16234119  1
  In  In48  1  0.63526899  0.36742910  -0.06515375  1
  In  In49  1  0.34285786  0.82469631  0.51843464  1
  In  In50  1  0.33672665  0.48384042  0.82066670  1
  In  In51  1  0.47357463  0.03294161  0.82784736  1
  In  In52  1  0.79921452  -0.00608385  0.50016419  1
  In  In53  1  0.85157795  0.53394742  0.34105712  1
  In  In54  1  0.67388192  0.17145300  0.17418079  1
  In  In55  1  0.50085173  0.81127870  0.02434503  1
  In  In56  1  0.68108655  0.69076720  0.34836599  1
  In  In57  1  0.48940492  0.67238287  0.83502444  1
  In  In58  1  0.16007409  0.64759091  0.83444380  1
  In  In59  1  0.31806360  0.48182335  0.17254907  1
  In  In60  1  0.52345501  0.84388380  0.33149694  1
  In  In61  1  0.15643476  0.32027747  0.82528271  1
  In  In62  1  0.33298290  0.82327646  0.83782864  1
  In  In63  1  0.51728432  0.86979565  0.63962503  1
  In  In64  1  0.50424599  0.18099651  0.37560238  1
  In  In65  1  0.15470062  -0.02215700  0.16571511  1
  In  In66  1  0.49229011  0.04117865  0.17017643  1
  In  In67  1  0.66366288  0.68013842  0.66221147  1
  In  In68  1  0.83875485  0.52607332  0.66573626  1
  In  In69  1  0.15429144  -0.00045214  0.82879079  1
  In  In70  1  0.68435968  0.50195977  0.51351623  1
  In  In71  1  0.32984269  0.64340805  0.34180610  1
  Te  Te72  1  0.08365896  0.08531292  0.08241304  1
  Te  Te73  1  0.08133800  0.06479769  0.40121172  1
  Te  Te74  1  0.09321521  0.09475311  0.73563376  1
  Te  Te75  1  0.10906451  0.40153348  0.10247500  1
  Te  Te76  1  0.11827151  0.38686538  0.38591537  1
  Te  Te77  1  0.07178700  0.41993580  0.74921782  1
  Te  Te78  1  0.08026375  0.76030172  0.10204957  1
  Te  Te79  1  0.05563674  0.72121230  0.39538538  1
  Te  Te80  1  0.09175735  0.76230073  0.77057647  1
  Te  Te81  1  0.38898642  0.11544324  0.08889856  1
  Te  Te82  1  0.42847885  0.06489724  0.43686385  1
  Te  Te83  1  0.45850707  0.12934077  0.71158068  1
  Te  Te84  1  0.42206371  0.41884611  0.07118257  1
  Te  Te85  1  0.40606267  0.40622368  0.45327478  1
  Te  Te86  1  0.40025262  0.39362096  0.72139781  1
  Te  Te87  1  0.39548397  0.73677772  0.08911529  1
  Te  Te88  1  0.42598413  0.74599886  0.41277671  1
  Te  Te89  1  0.43362364  0.76345592  0.72696953  1
  Te  Te90  1  0.74226485  0.07230718  0.07833929  1
  Te  Te91  1  0.74051371  0.10922742  0.42205351  1
  Te  Te92  1  0.72139681  0.12475012  0.73137019  1
  Te  Te93  1  0.72598272  0.41865403  0.06815879  1
  Te  Te94  1  0.75050540  0.42363581  0.40219158  1
  Te  Te95  1  0.76647705  0.41938084  0.74494638  1
  Te  Te96  1  0.74111983  0.74755643  0.07460709  1
  Te  Te97  1  0.77740150  0.76263077  0.42983761  1
  Te  Te98  1  0.77255245  0.74222707  0.74702068  1
  Te  Te99  1  0.06704813  0.29204496  0.28140225  1
  Te  Te100  1  0.10005630  0.25540655  0.56125365  1
  Te  Te101  1  0.07202939  0.23419051  0.91662185  1
  Te  Te102  1  0.08070198  0.58548027  0.26934199  1
  Te  Te103  1  0.14158021  0.53159874  0.56437070  1
  Te  Te104  1  0.07634366  0.56127549  0.93210079  1
  Te  Te105  1  0.05684283  0.89001581  0.23180953  1
  Te  Te106  1  0.09305583  0.91658919  0.57610850  1
  Te  Te107  1  0.08279264  0.89762380  0.90464331  1
  Te  Te108  1  0.41624225  0.23980495  0.26510755  1
  Te  Te109  1  0.44774467  0.23868212  0.58610015  1
  Te  Te110  1  0.41995775  0.26577284  0.90091756  1
  Te  Te111  1  0.42045824  0.57553888  0.24171158  1
  Te  Te112  1  0.40704878  0.58465598  0.58997147  1
  Te  Te113  1  0.38962927  0.59376433  0.90667170  1
  Te  Te114  1  0.41489271  0.92667693  0.24616782  1
  Te  Te115  1  0.40055152  0.93982451  0.58667744  1
  Te  Te116  1  0.43212180  0.91791829  0.92882345  1
  Te  Te117  1  0.75212622  0.27458725  0.25074016  1
  Te  Te118  1  0.75826707  0.23423844  0.61162434  1
  Te  Te119  1  0.73688201  0.25209975  0.90789887  1
  Te  Te120  1  0.74394046  0.59225488  0.24746201  1
  Te  Te121  1  0.76543764  0.61621050  0.56672252  1
  Te  Te122  1  0.78023772  0.57971962  0.90500608  1
  Te  Te123  1  0.73889481  0.93187978  0.27725611  1
  Te  Te124  1  0.74535250  0.92451630  0.62334804  1
  Te  Te125  1  0.75897518  0.92317172  0.90347940  1
  Te  Te126  1  0.23089816  0.27922039  0.10781149  1
  Te  Te127  1  0.25615391  0.22048691  0.40553180  1
  Te  Te128  1  0.26181205  0.27610240  0.72589371  1
  Te  Te129  1  0.24551157  0.57008100  0.08267319  1
  Te  Te130  1  0.23549338  0.58665788  0.43944434  1
  Te  Te131  1  0.23956013  0.56447541  0.73530646  1
  Te  Te132  1  0.22979869  0.90201794  0.05466086  1
  Te  Te133  1  0.25369112  0.90764280  0.41324801  1
  Te  Te134  1  0.27418925  0.93298738  0.75517078  1
  Te  Te135  1  0.58515449  0.24265239  0.07430609  1
  Te  Te136  1  0.57399569  0.24584188  0.49267801  1
  Te  Te137  1  0.59734974  0.21980699  0.74534110  1
  Te  Te138  1  0.56678542  0.57425580  0.06414607  1
  Te  Te139  1  0.58337962  0.57981782  0.41584676  1
  Te  Te140  1  0.60766468  0.59268610  0.77066699  1
  Te  Te141  1  0.57601979  0.92181912  0.11141268  1
  Te  Te142  1  0.58154040  0.91874445  0.44051602  1
  Te  Te143  1  0.57930383  0.94556302  0.75444144  1
  Te  Te144  1  0.92073950  0.24684231  0.09750276  1
  Te  Te145  1  0.92238804  0.26034077  0.41977247  1
  Te  Te146  1  0.94488403  0.22547662  0.73908639  1
  Te  Te147  1  0.90542375  0.60404734  0.11750984  1
  Te  Te148  1  0.94331801  0.58698707  0.44248289  1
  Te  Te149  1  0.95575080  0.59519185  0.72105882  1
  Te  Te150  1  0.91600147  0.91794251  0.07981073  1
  Te  Te151  1  0.91133233  0.92469359  0.41640792  1
  Te  Te152  1  0.91603594  0.92398672  0.76479977  1
  Te  Te153  1  0.24201102  0.08166138  0.23257107  1
  Te  Te154  1  0.23884833  0.10118876  0.61117138  1
  Te  Te155  1  0.26064833  0.09604279  0.90875768  1
  Te  Te156  1  0.23359839  0.43974994  0.28873963  1
  Te  Te157  1  0.22463865  0.34511748  0.59001733  1
  Te  Te158  1  0.23640487  0.41391871  0.91260644  1
  Te  Te159  1  0.25180192  0.75086357  0.26663833  1
  Te  Te160  1  0.22428182  0.74533238  0.56798287  1
  Te  Te161  1  0.26002193  0.72436595  0.91510436  1
  Te  Te162  1  0.58722431  0.09637757  0.27239546  1
  Te  Te163  1  0.64960301  0.01967111  0.53677073  1
  Te  Te164  1  0.59493113  0.08862693  0.90577093  1
  Te  Te165  1  0.57357190  0.40271844  0.26152874  1
  Te  Te166  1  0.58259809  0.43940334  0.59907561  1
  Te  Te167  1  0.55539020  0.44349288  0.83888350  1
  Te  Te168  1  0.57667302  0.73383337  0.24179982  1
  Te  Te169  1  0.60549551  0.77574446  0.55904050  1
  Te  Te170  1  0.59390131  0.76194131  0.91238378  1
  Te  Te171  1  0.93049089  0.09176192  0.24172225  1
  Te  Te172  1  0.90898367  0.07682863  0.57705695  1
  Te  Te173  1  0.91210923  0.08937075  0.90853968  1
  Te  Te174  1  0.92267319  0.42558394  0.25948156  1
  Te  Te175  1  0.90879678  0.42332172  0.57022345  1
  Te  Te176  1  0.90447273  0.39489602  0.92175251  1
  Te  Te177  1  0.88339971  0.71515448  0.22717534  1
  Te  Te178  1  0.96763551  0.74322562  0.60645199  1
  Te  Te179  1  0.91391197  0.71957561  0.91037659  1
