# generated using pymatgen
data_In2Te3
_symmetry_space_group_name_H-M   'P 1'
_cell_length_a   18.98575291
_cell_length_b   19.00528572
_cell_length_c   19.03571565
_cell_angle_alpha   89.77856811
_cell_angle_beta   89.87654196
_cell_angle_gamma   89.99413382
_symmetry_Int_Tables_number   1
_chemical_formula_structural   In2Te3
_chemical_formula_sum   'In72 Te108'
_cell_volume   6868.58350853
_cell_formula_units_Z   36
loop_
 _symmetry_equiv_pos_site_id
 _symmetry_equiv_pos_as_xyz
  1  'x, y, z'
loop_
 _atom_site_type_symbol
 _atom_site_label
 _atom_site_symmetry_multiplicity
 _atom_site_fract_x
 _atom_site_fract_y
 _atom_site_fract_z
 _atom_site_occupancy
  In  In0  1  0.16116901  0.33533722  0.51422102  1
  In  In1  1  0.52941715  0.65476094  0.50004127  1
  In  In2  1  0.51455885  -0.00258388  0.48076120  1
  In  In3  1  0.64895741  0.83304439  0.82778060  1
  In  In4  1  0.83134167  0.00483568  0.49890938  1
  In  In5  1  0.68073651  0.31960918  0.02888695  1
  In  In6  1  -0.00574870  -0.01346645  0.00021802  1
  In  In7  1  0.15518761  0.84505629  0.32004275  1
  In  In8  1  0.51044102  0.82857451  -0.00377738  1
  In  In9  1  0.49608433  0.49511230  -0.00898940  1
  In  In10  1  -0.00637570  0.17947701  0.50046349  1
  In  In11  1  0.53398581  0.14318752  0.66777681  1
  In  In12  1  0.67630869  0.14246594  0.18005246  1
  In  In13  1  0.69335864  0.16475089  0.85083059  1
  In  In14  1  0.67268822  0.01121322  0.00486252  1
  In  In15  1  0.07527726  0.66127813  0.01328371  1
  In  In16  1  0.81810392  0.66322508  0.84141932  1
  In  In17  1  0.69022734  0.48416682  0.81788577  1
  In  In18  1  0.34670820  0.83509266  0.50682657  1
  In  In19  1  0.31326576  0.33391588  -0.01777428  1
  In  In20  1  0.83598035  0.50279649  0.66167935  1
  In  In21  1  0.85484859  0.00147382  0.82428215  1
  In  In22  1  0.66561919  0.50330768  0.18884412  1
  In  In23  1  0.85243610  0.33668332  0.15703373  1
  In  In24  1  0.85384839  0.66031507  0.49713259  1
  In  In25  1  0.32374760  0.14535309  0.15784574  1
  In  In26  1  0.36440520  0.50521651  0.51703996  1
  In  In27  1  -0.00239703  0.17426988  0.14847299  1
  In  In28  1  0.17037014  0.01097625  0.53030195  1
  In  In29  1  0.31120689  0.66594191  0.31755733  1
  In  In30  1  0.69885350  0.81867095  0.49273470  1
  In  In31  1  -0.01563955  0.17709584  0.80990818  1
  In  In32  1  0.17526320  0.16515265  0.32800763  1
  In  In33  1  -0.01462147  0.68088667  0.29851017  1
  In  In34  1  0.50496645  0.49740870  0.65326842  1
  In  In35  1  0.01263420  0.86222980  0.50262291  1
  In  In36  1  0.65643415  0.67114572  0.68440154  1
  In  In37  1  0.33147320  0.17707698  0.82574486  1
  In  In38  1  0.13974995  0.50853401  0.31884610  1
  In  In39  1  0.49631856  -0.02242845  0.83014551  1
  In  In40  1  0.01270964  0.83576526  0.83625255  1
  In  In41  1  0.00130479  0.50554287  0.15534579  1
  In  In42  1  0.82702105  0.83226596  0.01884681  1
  In  In43  1  0.68907622  0.35465225  0.35615671  1
  In  In44  1  0.31089042  0.50044528  0.83913830  1
  In  In45  1  0.48371163  0.50498843  0.33301554  1
  In  In46  1  0.80610803  0.18032599  0.63197023  1
  In  In47  1  0.02169239  0.69120238  0.66859714  1
  In  In48  1  0.33935702  0.31753507  0.66011650  1
  In  In49  1  0.50174125  0.82931107  0.34514165  1
  In  In50  1  0.35344610  -0.01413607  0.33114863  1
  In  In51  1  0.48575892  0.32066318  0.14189673  1
  In  In52  1  0.12818448  0.52962148  0.74846082  1
  In  In53  1  0.44373511  0.71282604  0.83454887  1
  In  In54  1  0.13834234  0.33744722  0.16665649  1
  In  In55  1  0.50407294  0.15284493  0.31062554  1
  In  In56  1  0.19788612  -0.01847946  0.81515046  1
  In  In57  1  -0.02068733  -0.00107709  0.32737528  1
  In  In58  1  0.13852040  0.15742664  -0.01843103  1
  In  In59  1  0.49651004  0.31028651  0.83968227  1
  In  In60  1  0.26393520  0.74436648  0.00569510  1
  In  In61  1  0.49624141  0.67513609  0.16790330  1
  In  In62  1  -0.00282810  0.49695606  0.51045354  1
  In  In63  1  0.17040731  0.16769297  0.67631472  1
  In  In64  1  0.30332175  -0.02797173  0.03415011  1
  In  In65  1  0.30413352  0.33785391  0.34659721  1
  In  In66  1  0.82538029  0.65784464  0.16172169  1
  In  In67  1  -0.03705870  0.48187706  0.86053317  1
  In  In68  1  0.67258761  0.81899514  0.18064794  1
  In  In69  1  0.56275844  0.31296385  0.53062325  1
  In  In70  1  0.18740985  0.67858083  0.48906815  1
  In  In71  1  0.82108029  0.16817643  0.35164981  1
  Te  Te72  1  0.08816954  0.06777396  0.09260787  1
  Te  Te73  1  0.07810603  0.07945398  0.42057018  1
  Te  Te74  1  0.08972309  0.07303761  0.76144416  1
  Te  Te75  1  0.08949395  0.43001713  0.06480807  1
  Te  Te76  1  0.07505238  0.40740556  0.41418105  1
  Te  Te77  1  0.03476933  0.41961396  0.74823637  1
  Te  Te78  1  0.07432211  0.80029491  0.06000718  1
  Te  Te79  1  0.07513317  0.74624225  0.41262859  1
  Te  Te80  1  0.11706825  0.75165833  0.76692054  1
  Te  Te81  1  0.41236101  0.05025251  0.09293627  1
  Te  Te82  1  0.41253004  0.09364218  0.41616009  1
  Te  Te83  1  0.41805193  0.08271736  0.74852535  1
  Te  Te84  1  0.39420750  0.42150565  0.07644796  1
  Te  Te85  1  0.41856826  0.39779007  0.42533085  1
  Te  Te86  1  0.42104261  0.40976850  0.75339795  1
  Te  Te87  1  0.40822040  0.74534171  0.07046819  1
  Te  Te88  1  0.41317383  0.72121073  0.41566988  1
  Te  Te89  1  0.43605785  0.81922218  0.73421359  1
  Te  Te90  1  0.76865119  0.09507086  0.07644031  1
  Te  Te91  1  0.72796324  0.08746643  0.43070157  1
  Te  Te92  1  0.75647051  0.08195726  0.74202102  1
  Te  Te93  1  0.75699196  0.43542377  0.08915490  1
  Te  Te94  1  0.78419765  0.41764039  0.44404503  1
  Te  Te95  1  0.79013870  0.39540595  0.75506493  1
  Te  Te96  1  0.72754753  0.73109564  0.06983379  1
  Te  Te97  1  0.75470176  0.71591766  0.40335397  1
  Te  Te98  1  0.75798745  0.76446966  0.74682057  1
  Te  Te99  1  0.06604318  0.24724739  0.26477301  1
  Te  Te100  1  0.06953487  0.25768854  0.60546384  1
  Te  Te101  1  0.07883749  0.25453803  0.89159989  1
  Te  Te102  1  0.10508372  0.62235338  0.23025479  1
  Te  Te103  1  0.09432334  0.59023745  0.57712462  1
  Te  Te104  1  0.07517555  0.58173967  0.88299846  1
  Te  Te105  1  0.05581738  0.91310172  0.23760321  1
  Te  Te106  1  0.10477745  0.90475976  0.60750260  1
  Te  Te107  1  0.10642668  0.91952342  0.92158003  1
  Te  Te108  1  0.39193788  0.25153912  0.24924222  1
  Te  Te109  1  0.44072332  0.23764486  0.58696595  1
  Te  Te110  1  0.41612266  0.23094692  0.93962978  1
  Te  Te111  1  0.39730804  0.57696957  0.23116549  1
  Te  Te112  1  0.42184009  0.61424600  0.60334546  1
  Te  Te113  1  0.40260638  0.58907770  0.91862404  1
  Te  Te114  1  0.42057537  0.89294999  0.24013695  1
  Te  Te115  1  0.43378527  0.92477458  0.58137684  1
  Te  Te116  1  0.40459514  0.91510590  0.93285814  1
  Te  Te117  1  0.74406294  0.26635438  0.24446773  1
  Te  Te118  1  0.70468332  0.27616073  0.57642125  1
  Te  Te119  1  0.77322417  0.26544235  0.92616331  1
  Te  Te120  1  0.75594265  0.58483938  0.26981522  1
  Te  Te121  1  0.74478867  0.59678930  0.58674671  1
  Te  Te122  1  0.75284472  0.56165352  0.92290178  1
  Te  Te123  1  0.79073689  0.89549371  0.22195025  1
  Te  Te124  1  0.76383612  0.90898387  0.58653648  1
  Te  Te125  1  0.75016737  0.91789591  0.91075047  1
  Te  Te126  1  0.23178616  0.24110280  0.08315735  1
  Te  Te127  1  0.24732312  0.23367124  0.44202378  1
  Te  Te128  1  0.23690576  0.27582725  0.76346346  1
  Te  Te129  1  0.20709973  0.62576342  0.07197394  1
  Te  Te130  1  0.25484438  0.55706498  0.41632261  1
  Te  Te131  1  0.26131076  0.58514389  0.73156519  1
  Te  Te132  1  0.21319507  0.86320350  0.08691087  1
  Te  Te133  1  0.24366917  0.92182668  0.42377584  1
  Te  Te134  1  0.29481456  0.87857192  0.76445853  1
  Te  Te135  1  0.57964062  0.22016276  0.08424898  1
  Te  Te136  1  0.58842649  0.24977300  0.39546782  1
  Te  Te137  1  0.60261280  0.24558849  0.75642187  1
  Te  Te138  1  0.57859944  0.57724217  0.08654828  1
  Te  Te139  1  0.58665358  0.54198072  0.42878082  1
  Te  Te140  1  0.57665625  0.57113092  0.76561515  1
  Te  Te141  1  0.59334531  0.91268946  0.08889332  1
  Te  Te142  1  0.61280355  0.91002364  0.40376554  1
  Te  Te143  1  0.59327002  0.92847732  0.73203569  1
  Te  Te144  1  0.94465833  0.27789619  0.05336762  1
  Te  Te145  1  0.89746798  0.26549565  0.42908494  1
  Te  Te146  1  0.88440776  0.25699608  0.73295232  1
  Te  Te147  1  0.93680751  0.61058651  0.07081061  1
  Te  Te148  1  0.93335768  0.57845497  0.39679735  1
  Te  Te149  1  0.91646021  0.60397919  0.74056019  1
  Te  Te150  1  0.88615279  0.94446945  0.09596398  1
  Te  Te151  1  0.89964249  0.90112583  0.40999422  1
  Te  Te152  1  0.93994951  0.91895841  0.74070846  1
  Te  Te153  1  0.24146536  0.05631330  0.24956552  1
  Te  Te154  1  0.26847509  0.08263625  0.60958857  1
  Te  Te155  1  0.25819105  0.08147576  0.92153471  1
  Te  Te156  1  0.23938907  0.42371890  0.24054912  1
  Te  Te157  1  0.25652725  0.42335209  0.59079467  1
  Te  Te158  1  0.21703790  0.42987367  0.92811736  1
  Te  Te159  1  0.27182847  0.78857485  0.24668575  1
  Te  Te160  1  0.24451600  0.76764913  0.58889851  1
  Te  Te161  1  0.24435259  0.76409518  0.86042257  1
  Te  Te162  1  0.58905926  0.05021724  0.25293117  1
  Te  Te163  1  0.60928116  0.08623010  0.55368195  1
  Te  Te164  1  0.58043771  0.08125748  0.90847541  1
  Te  Te165  1  0.56181833  0.40370607  0.24219638  1
  Te  Te166  1  0.62428500  0.41927645  0.61281889  1
  Te  Te167  1  0.58960368  0.39649879  0.92412523  1
  Te  Te168  1  0.58957158  0.72841278  0.27193224  1
  Te  Te169  1  0.58788121  0.76255673  0.58473905  1
  Te  Te170  1  0.57698065  0.72661834  0.90748089  1
  Te  Te171  1  0.90313558  0.10051628  0.24531161  1
  Te  Te172  1  0.92181064  0.08370988  0.59098656  1
  Te  Te173  1  0.91969638  0.09340469  0.92355670  1
  Te  Te174  1  0.92732577  0.42158381  0.24842593  1
  Te  Te175  1  0.88859563  0.40474824  0.55859101  1
  Te  Te176  1  0.89799022  0.37712648  0.94133699  1
  Te  Te177  1  0.89157512  0.77469179  0.23064445  1
  Te  Te178  1  0.92294699  0.76477818  0.58148888  1
  Te  Te179  1  0.90991835  0.75722796  0.91764114  1
