# generated using pymatgen
data_In2Te3
_symmetry_space_group_name_H-M   'P 1'
_cell_length_a   18.78066767
_cell_length_b   18.78493231
_cell_length_c   18.78614195
_cell_angle_alpha   89.95101963
_cell_angle_beta   90.00958987
_cell_angle_gamma   90.00570528
_symmetry_Int_Tables_number   1
_chemical_formula_structural   In2Te3
_chemical_formula_sum   'In72 Te108'
_cell_volume   6627.62755592
_cell_formula_units_Z   36
loop_
 _symmetry_equiv_pos_site_id
 _symmetry_equiv_pos_as_xyz
  1  'x, y, z'
loop_
 _atom_site_type_symbol
 _atom_site_label
 _atom_site_symmetry_multiplicity
 _atom_site_fract_x
 _atom_site_fract_y
 _atom_site_fract_z
 _atom_site_occupancy
  In  In0  1  0.00989799  0.66583114  0.64794044  1
  In  In1  1  0.01883093  0.66587114  -0.00716835  1
  In  In2  1  0.34091043  0.00073329  0.01105804  1
  In  In3  1  0.67397008  -0.00805885  0.68341090  1
  In  In4  1  -0.00542050  0.83712842  0.83247361  1
  In  In5  1  0.17467845  0.34367228  0.17041184  1
  In  In6  1  0.67584255  0.84831718  0.15325700  1
  In  In7  1  0.45449719  0.67959331  0.51923671  1
  In  In8  1  0.83664989  0.49995225  -0.00684188  1
  In  In9  1  0.85654334  0.86952518  0.34536980  1
  In  In10  1  0.18020811  0.64769356  0.15005370  1
  In  In11  1  0.82945501  0.67904537  0.49657608  1
  In  In12  1  0.34912752  0.33148325  0.32914631  1
  In  In13  1  0.86171837  0.32557943  0.50572697  1
  In  In14  1  0.50831662  0.36292197  0.48499813  1
  In  In15  1  0.34340126  0.34905128  0.00173510  1
  In  In16  1  0.84922711  0.13404790  0.35062467  1
  In  In17  1  -0.00342310  0.16178509  0.17090634  1
  In  In18  1  0.48774921  0.17182468  0.69003593  1
  In  In19  1  0.51896573  0.83439372  0.66794056  1
  In  In20  1  0.48220126  0.33686332  0.14572546  1
  In  In21  1  0.31931156  -0.00595938  0.32770330  1
  In  In22  1  0.33418619  0.83523911  0.17778754  1
  In  In23  1  0.82649525  0.67624707  0.81924343  1
  In  In24  1  0.32630359  0.82269344  0.84177343  1
  In  In25  1  0.01959510  0.67654593  0.32983047  1
  In  In26  1  0.13347313  0.34831988  0.47151389  1
  In  In27  1  0.85566832  0.51438621  0.31284743  1
  In  In28  1  0.67915796  0.15363010  0.49042168  1
  In  In29  1  0.31300977  0.35463572  0.67651174  1
  In  In30  1  0.16284835  0.84193000  0.35022505  1
  In  In31  1  -0.04020235  0.84790846  0.14595208  1
  In  In32  1  0.83298329  0.32745473  0.84784201  1
  In  In33  1  0.53229147  0.12572500  0.29990105  1
  In  In34  1  0.62260293  0.50165587  0.15399211  1
  In  In35  1  0.64590409  0.49874182  0.82722033  1
  In  In36  1  0.49474018  0.83920888  0.34628330  1
  In  In37  1  0.50335751  0.33282384  0.83352754  1
  In  In38  1  0.82297043  0.33008195  0.19135692  1
  In  In39  1  0.63882791  0.34179605  0.65555633  1
  In  In40  1  0.16505811  0.31111603  0.82478495  1
  In  In41  1  0.15445514  -0.01211009  0.83732387  1
  In  In42  1  0.50108809  -0.01205380  0.50199615  1
  In  In43  1  0.02250371  0.52673808  0.18770403  1
  In  In44  1  0.01493407  0.33410177  0.01280463  1
  In  In45  1  0.82975759  0.13759186  0.67192296  1
  In  In46  1  0.16302842  -0.00718586  0.17510227  1
  In  In47  1  0.50928350  0.14705923  0.00450054  1
  In  In48  1  -0.02021166  0.33072193  0.67267854  1
  In  In49  1  0.81858692  0.83314843  0.67273790  1
  In  In50  1  0.83920433  0.11774489  -0.00065314  1
  In  In51  1  0.17728141  0.14837899  0.67748383  1
  In  In52  1  0.68785875  0.32002240  0.33375739  1
  In  In53  1  0.50839420  0.82178324  -0.01055952  1
  In  In54  1  0.01414393  -0.03202631  0.64723103  1
  In  In55  1  0.68200377  0.68061089  0.33091535  1
  In  In56  1  0.33830733  0.16013582  0.52337499  1
  In  In57  1  0.16793812  0.66959257  0.83732486  1
  In  In58  1  0.15762748  0.14337303  0.34988985  1
  In  In59  1  0.65656899  0.33077757  -0.01562112  1
  In  In60  1  0.32488125  0.51845174  0.83243580  1
  In  In61  1  0.17029232  0.17056735  0.00527130  1
  In  In62  1  0.84487144  0.51013193  0.66204635  1
  In  In63  1  0.48187645  0.66165892  0.15532630  1
  In  In64  1  0.80803199  0.70225202  0.14075516  1
  In  In65  1  0.16851205  0.51300230  0.66117868  1
  In  In66  1  0.01012170  0.14701200  0.50929130  1
  In  In67  1  0.33372650  -0.00269567  0.65818145  1
  In  In68  1  0.48405571  0.52389138  0.32177522  1
  In  In69  1  0.49489782  0.66865441  0.83282641  1
  In  In70  1  0.68660282  0.51817848  0.51313921  1
  In  In71  1  0.66427390  -0.00881123  -0.00914440  1
  Te  Te72  1  0.07687150  0.07251628  0.07576421  1
  Te  Te73  1  0.06841117  0.04088443  0.41514561  1
  Te  Te74  1  0.06452382  0.07535639  0.74671593  1
  Te  Te75  1  0.09752580  0.44241575  0.08210193  1
  Te  Te76  1  0.07821523  0.44202659  0.37481358  1
  Te  Te77  1  0.08333606  0.41429120  0.74730351  1
  Te  Te78  1  0.07371865  0.74998569  0.10634097  1
  Te  Te79  1  0.08147912  0.75540954  0.44358347  1
  Te  Te80  1  0.08875656  0.75881860  0.74118878  1
  Te  Te81  1  0.41838014  0.08508609  0.10427284  1
  Te  Te82  1  0.41738795  0.08882832  0.41305272  1
  Te  Te83  1  0.41268128  0.06794816  0.76137449  1
  Te  Te84  1  0.39942787  0.45316808  0.09768078  1
  Te  Te85  1  0.39788227  0.44675445  0.42302444  1
  Te  Te86  1  0.42231550  0.43098662  0.74942891  1
  Te  Te87  1  0.39574532  0.75112036  0.06542080  1
  Te  Te88  1  0.39731467  0.73641797  0.38967694  1
  Te  Te89  1  0.40821374  0.75059050  0.73537797  1
  Te  Te90  1  0.72830605  0.08218145  0.09432193  1
  Te  Te91  1  0.75228742  0.04587699  0.42325652  1
  Te  Te92  1  0.75361716  0.07271467  0.77937058  1
  Te  Te93  1  0.74675792  0.41473723  0.08662177  1
  Te  Te94  1  0.76448108  0.42044703  0.42188814  1
  Te  Te95  1  0.75558269  0.41242393  0.74366997  1
  Te  Te96  1  0.72976981  0.77268073  0.03307784  1
  Te  Te97  1  0.74822614  0.78282663  0.41990243  1
  Te  Te98  1  0.72122175  0.77003664  0.76847957  1
  Te  Te99  1  0.09160562  0.24530085  0.25611105  1
  Te  Te100  1  0.09331605  0.25301349  0.59391998  1
  Te  Te101  1  0.06632665  0.23157250  0.91064636  1
  Te  Te102  1  0.12562065  0.57037811  0.29467871  1
  Te  Te103  1  0.09562042  0.58724742  0.55567742  1
  Te  Te104  1  0.09688941  0.56708428  0.91836268  1
  Te  Te105  1  0.06300162  0.90424419  0.24635614  1
  Te  Te106  1  0.11613243  0.87772949  0.58994660  1
  Te  Te107  1  0.07772915  0.90619166  0.93519678  1
  Te  Te108  1  0.43178798  0.23470821  0.24709143  1
  Te  Te109  1  0.42331912  0.27277217  0.58424212  1
  Te  Te110  1  0.41787640  0.24338157  0.92096247  1
  Te  Te111  1  0.37969696  0.59484585  0.24287321  1
  Te  Te112  1  0.37439812  0.57693531  0.58824757  1
  Te  Te113  1  0.40718404  0.59478249  0.92771775  1
  Te  Te114  1  0.43071778  0.93299833  0.24327923  1
  Te  Te115  1  0.40657635  0.89399315  0.57317014  1
  Te  Te116  1  0.42174126  0.92063788  0.90935858  1
  Te  Te117  1  0.75097581  0.21054785  0.25184202  1
  Te  Te118  1  0.75359028  0.25452401  0.58867718  1
  Te  Te119  1  0.75032050  0.22749515  0.92594459  1
  Te  Te120  1  0.73992994  0.57468149  0.23494265  1
  Te  Te121  1  0.74749137  0.61685717  0.61203509  1
  Te  Te122  1  0.74122640  0.58520867  0.91154446  1
  Te  Te123  1  0.76238124  0.93234325  0.24311853  1
  Te  Te124  1  0.74108730  0.91628428  0.57699168  1
  Te  Te125  1  0.77257831  0.89786772  0.94331617  1
  Te  Te126  1  0.26706937  0.25031322  0.09159284  1
  Te  Te127  1  0.25204787  0.24665465  0.42481131  1
  Te  Te128  1  0.27707339  0.23013712  0.75863577  1
  Te  Te129  1  0.28392910  0.56162249  0.09229190  1
  Te  Te130  1  0.29106172  0.64976845  0.48514263  1
  Te  Te131  1  0.26203011  0.61328103  0.72793993  1
  Te  Te132  1  0.24118026  0.90542889  0.07790337  1
  Te  Te133  1  0.26993103  0.90526765  0.43455188  1
  Te  Te134  1  0.24246895  0.90663807  0.74272884  1
  Te  Te135  1  0.59188537  0.24613440  0.09342426  1
  Te  Te136  1  0.57708060  0.24386668  0.41707969  1
  Te  Te137  1  0.60399831  0.24073024  0.76371665  1
  Te  Te138  1  0.58420273  0.60796106  0.06142100  1
  Te  Te139  1  0.59227158  0.58765187  0.41236189  1
  Te  Te140  1  0.57414027  0.58751134  0.73516379  1
  Te  Te141  1  0.56052000  0.92539720  0.08681746  1
  Te  Te142  1  0.59620384  0.92482237  0.40856520  1
  Te  Te143  1  0.57645822  0.92378237  0.77254756  1
  Te  Te144  1  0.90292143  0.25221275  0.07863364  1
  Te  Te145  1  0.94281157  0.24328425  0.40871203  1
  Te  Te146  1  0.91506494  0.22800295  0.76391756  1
  Te  Te147  1  0.91149733  0.58806606  0.09358549  1
  Te  Te148  1  0.92650296  0.58798361  0.42295194  1
  Te  Te149  1  0.93490323  0.58607303  0.75858234  1
  Te  Te150  1  0.87760771  0.93728667  0.05336468  1
  Te  Te151  1  0.95191854  0.93656594  0.43489027  1
  Te  Te152  1  0.90601998  0.93030112  0.75155003  1
  Te  Te153  1  0.25293861  0.09843695  0.23916752  1
  Te  Te154  1  0.22834305  0.06242542  0.56332765  1
  Te  Te155  1  0.25155322  0.08047178  0.91340054  1
  Te  Te156  1  0.25674971  0.42506148  0.26293137  1
  Te  Te157  1  0.24053659  0.41931363  0.56027604  1
  Te  Te158  1  0.24056593  0.41409789  0.90976808  1
  Te  Te159  1  0.23747161  0.74693162  0.25415766  1
  Te  Te160  1  0.21714766  0.76987153  0.54598471  1
  Te  Te161  1  0.24047316  0.75016479  0.93779573  1
  Te  Te162  1  0.63896053  0.04880071  0.23495561  1
  Te  Te163  1  0.57521544  0.09322801  0.58913646  1
  Te  Te164  1  0.58532284  0.07709124  0.89829169  1
  Te  Te165  1  0.57734510  0.40443758  0.26394352  1
  Te  Te166  1  0.56613512  0.45798333  0.59024567  1
  Te  Te167  1  0.55745298  0.43461016  0.93542999  1
  Te  Te168  1  0.58138883  0.75129831  0.23924801  1
  Te  Te169  1  0.57727317  0.75115007  0.56116641  1
  Te  Te170  1  0.59740940  0.77053373  0.88006179  1
  Te  Te171  1  0.91759605  0.05986595  0.24216345  1
  Te  Te172  1  0.90388667  0.05562134  0.56797859  1
  Te  Te173  1  0.93567094  0.02431719  0.93726024  1
  Te  Te174  1  0.94208146  0.40538041  0.25009136  1
  Te  Te175  1  0.94292335  0.43808923  0.56915052  1
  Te  Te176  1  0.93657596  0.42053111  0.91028349  1
  Te  Te177  1  0.89991817  0.74290719  0.25821998  1
  Te  Te178  1  0.92070049  0.76956748  0.57790340  1
  Te  Te179  1  0.91051072  0.74877564  0.92578019  1
