# generated using pymatgen
data_In2Te3
_symmetry_space_group_name_H-M   'P 1'
_cell_length_a   18.73795623
_cell_length_b   18.74942508
_cell_length_c   18.74241901
_cell_angle_alpha   90.00182887
_cell_angle_beta   89.96795071
_cell_angle_gamma   90.02454700
_symmetry_Int_Tables_number   1
_chemical_formula_structural   In2Te3
_chemical_formula_sum   'In72 Te108'
_cell_volume   6584.69571536
_cell_formula_units_Z   36
loop_
 _symmetry_equiv_pos_site_id
 _symmetry_equiv_pos_as_xyz
  1  'x, y, z'
loop_
 _atom_site_type_symbol
 _atom_site_label
 _atom_site_symmetry_multiplicity
 _atom_site_fract_x
 _atom_site_fract_y
 _atom_site_fract_z
 _atom_site_occupancy
  In  In0  1  0.16611978  0.01123460  0.15277711  1
  In  In1  1  0.33391400  0.85026376  0.49923248  1
  In  In2  1  0.47591022  0.01624372  0.13861726  1
  In  In3  1  0.15011144  0.31245221  0.83643939  1
  In  In4  1  0.83879420  0.47086328  -0.01318068  1
  In  In5  1  -0.00534294  -0.00685098  0.31144660  1
  In  In6  1  0.32322626  0.16125992  0.84140978  1
  In  In7  1  0.17287327  0.83137013  0.67669383  1
  In  In8  1  0.83796576  0.51182278  0.36040826  1
  In  In9  1  0.34760893  -0.00038557  0.66787016  1
  In  In10  1  0.17490506  0.16255517  0.32815405  1
  In  In11  1  0.50616739  0.65950898  0.50844283  1
  In  In12  1  0.34737988  0.50906078  0.82536030  1
  In  In13  1  0.49425802  0.33666673  0.51320376  1
  In  In14  1  0.67256058  0.16437752  0.13565724  1
  In  In15  1  0.68391559  0.50139439  0.14108077  1
  In  In16  1  -0.00446776  0.83984600  0.84254481  1
  In  In17  1  0.16820318  0.51281714  -0.00909227  1
  In  In18  1  0.13566827  0.66499826  0.84834402  1
  In  In19  1  0.17475947  0.83914987  -0.00030186  1
  In  In20  1  -0.00045882  0.33840801  -0.01812302  1
  In  In21  1  0.15046454  0.16110599  0.68017808  1
  In  In22  1  0.16960796  0.49487594  0.32429214  1
  In  In23  1  0.48165993  0.46960532  0.35435223  1
  In  In24  1  0.66683619  0.82814759  0.50142765  1
  In  In25  1  0.35468336  0.66236066  0.67545806  1
  In  In26  1  0.67230563  0.17101186  0.52495316  1
  In  In27  1  0.66182066  0.34102672  0.32603491  1
  In  In28  1  0.50324435  0.49782932  0.65970299  1
  In  In29  1  0.50341662  0.31780717  0.81138446  1
  In  In30  1  0.50691044  0.69575219  0.82798990  1
  In  In31  1  0.50085774  0.85778577  0.32437482  1
  In  In32  1  0.52750779  0.47903604  -0.03132699  1
  In  In33  1  0.85249605  0.66072036  0.81013617  1
  In  In34  1  0.66783418  0.68202914  -0.02747475  1
  In  In35  1  -0.00936888  0.79651830  0.52595433  1
  In  In36  1  0.34401313  0.17221939  0.49274575  1
  In  In37  1  -0.00967714  0.32885978  0.67104293  1
  In  In38  1  0.49247798  -0.00722084  0.85199876  1
  In  In39  1  0.49400452  0.29777882  0.16086465  1
  In  In40  1  0.18075898  -0.01566046  0.47215758  1
  In  In41  1  0.81916163  0.00052787  0.50772076  1
  In  In42  1  0.65304549  0.16211360  0.84226127  1
  In  In43  1  0.67267141  0.69911157  0.35110377  1
  In  In44  1  0.68105137  0.51403259  0.52810070  1
  In  In45  1  0.46807884  0.16114643  0.32604888  1
  In  In46  1  0.46315419  0.67948973  0.14473854  1
  In  In47  1  0.18246412  0.47950069  0.63737151  1
  In  In48  1  0.33736979  0.49112162  0.17582892  1
  In  In49  1  -0.02072442  0.48805069  0.51291359  1
  In  In50  1  0.02262639  0.67670696  -0.00116803  1
  In  In51  1  -0.00438916  -0.01788798  0.69837792  1
  In  In52  1  -0.00779876  0.18736981  0.50833939  1
  In  In53  1  0.16501872  0.01794352  0.84812816  1
  In  In54  1  0.00453948  0.32234936  0.34417048  1
  In  In55  1  0.67350202  -0.00505278  0.32558360  1
  In  In56  1  0.64413522  0.86406135  0.15712151  1
  In  In57  1  0.00299205  0.15128803  0.17057194  1
  In  In58  1  0.82867454  0.34247949  0.16271065  1
  In  In59  1  0.30481675  0.69463500  0.31339809  1
  In  In60  1  0.32688069  0.68813432  0.01482959  1
  In  In61  1  -0.00754051  0.84269967  0.15247928  1
  In  In62  1  0.81617422  0.87859503  -0.01415007  1
  In  In63  1  0.81593667  0.82888109  0.34140901  1
  In  In64  1  0.14973554  0.64773030  0.49476752  1
  In  In65  1  0.68327399  0.66528676  0.67377848  1
  In  In66  1  0.32020816  0.30546540  0.01674727  1
  In  In67  1  0.02917654  0.50175922  0.16029210  1
  In  In68  1  0.84574777  0.68178565  0.16738724  1
  In  In69  1  0.83970174  0.14067285  -0.03104837  1
  In  In70  1  0.82581157  0.17074943  0.69492051  1
  In  In71  1  0.65555763  0.01279273  0.67658051  1
  Te  Te72  1  0.08475531  0.09606510  0.05883389  1
  Te  Te73  1  0.06882085  0.08257523  0.42148063  1
  Te  Te74  1  0.04649797  0.10436706  0.78258963  1
  Te  Te75  1  0.10686768  0.40135095  0.07781547  1
  Te  Te76  1  0.08755740  0.41679058  0.42971175  1
  Te  Te77  1  0.09121922  0.41949065  0.74686260  1
  Te  Te78  1  0.10894818  0.74120579  0.10758489  1
  Te  Te79  1  0.09800936  0.76920415  0.42836337  1
  Te  Te80  1  0.06318738  0.74670167  0.74075828  1
  Te  Te81  1  0.39217837  0.11733743  0.06411437  1
  Te  Te82  1  0.40188714  0.06144915  0.41299932  1
  Te  Te83  1  0.43063119  0.09395209  0.75376661  1
  Te  Te84  1  0.42227346  0.41875841  0.06797766  1
  Te  Te85  1  0.37661086  0.39215993  0.43116244  1
  Te  Te86  1  0.40406284  0.40435603  0.73115574  1
  Te  Te87  1  0.41840501  0.80050808  0.06605383  1
  Te  Te88  1  0.42898091  0.74756224  0.41002972  1
  Te  Te89  1  0.41019648  0.77645819  0.74949417  1
  Te  Te90  1  0.76082799  0.06367815  0.07029997  1
  Te  Te91  1  0.75021315  0.09561677  0.41182304  1
  Te  Te92  1  0.76480936  0.05928613  0.77965652  1
  Te  Te93  1  0.72922914  0.38539176  0.05343696  1
  Te  Te94  1  0.74931564  0.41044241  0.43031050  1
  Te  Te95  1  0.73645827  0.46723155  0.78899495  1
  Te  Te96  1  0.74470589  0.76143123  0.08491355  1
  Te  Te97  1  0.77830546  0.73034772  0.45514761  1
  Te  Te98  1  0.74156256  0.75367377  0.77864976  1
  Te  Te99  1  0.09134052  0.25667454  0.23794312  1
  Te  Te100  1  0.09968280  0.26711931  0.58162938  1
  Te  Te101  1  0.10470552  0.23312767  0.95307014  1
  Te  Te102  1  0.07998330  0.59587636  0.26128473  1
  Te  Te103  1  0.06941288  0.58213950  0.60713157  1
  Te  Te104  1  0.04622459  0.55567150  0.90762034  1
  Te  Te105  1  0.09852908  0.90668370  0.24636731  1
  Te  Te106  1  0.08568551  0.92198009  0.58724318  1
  Te  Te107  1  0.06985973  0.93240289  0.93715212  1
  Te  Te108  1  0.38982633  0.27280796  0.26319528  1
  Te  Te109  1  0.43099710  0.23198660  0.59705531  1
  Te  Te110  1  0.42614334  0.24448517  0.92188300  1
  Te  Te111  1  0.42301664  0.58635625  0.26330156  1
  Te  Te112  1  0.40101892  0.56453386  0.56620146  1
  Te  Te113  1  0.42221401  0.59633958  0.92589990  1
  Te  Te114  1  0.40609947  0.92069965  0.23066448  1
  Te  Te115  1  0.43403637  0.90616628  0.59158299  1
  Te  Te116  1  0.42439700  0.89168269  0.93717971  1
  Te  Te117  1  0.74862292  0.24356714  0.24671416  1
  Te  Te118  1  0.76391625  0.26273056  0.59628820  1
  Te  Te119  1  0.76131273  0.24708807  0.90005012  1
  Te  Te120  1  0.74964172  0.58800794  0.25087741  1
  Te  Te121  1  0.79389207  0.58644542  0.60197798  1
  Te  Te122  1  0.75045315  0.56821454  0.90248111  1
  Te  Te123  1  0.76736145  0.92140815  0.23015674  1
  Te  Te124  1  0.74882758  0.90699571  0.60353576  1
  Te  Te125  1  0.73528431  0.93197497  0.87370636  1
  Te  Te126  1  0.27846806  0.20249823  0.11764998  1
  Te  Te127  1  0.23132790  0.24916683  0.43439927  1
  Te  Te128  1  0.25531253  0.25569515  0.74092278  1
  Te  Te129  1  0.24569359  0.58801825  0.09977643  1
  Te  Te130  1  0.26150359  0.58584145  0.41005674  1
  Te  Te131  1  0.23728304  0.58775455  0.75194935  1
  Te  Te132  1  0.26602382  0.92398725  0.08019588  1
  Te  Te133  1  0.26986587  0.91046663  0.37993740  1
  Te  Te134  1  0.25496287  0.92373284  0.76628781  1
  Te  Te135  1  0.58338977  0.25009458  0.05360832  1
  Te  Te136  1  0.57429042  0.24731103  0.41010484  1
  Te  Te137  1  0.59399345  0.23546388  0.72708265  1
  Te  Te138  1  0.58122251  0.59398953  0.07434677  1
  Te  Te139  1  0.59285214  0.57011000  0.41272477  1
  Te  Te140  1  0.58347131  0.58151654  0.75857501  1
  Te  Te141  1  0.58926673  0.95748869  0.05374134  1
  Te  Te142  1  0.58066570  0.93318195  0.43044585  1
  Te  Te143  1  0.59965381  0.91475452  0.77683840  1
  Te  Te144  1  0.91536888  0.25019992  0.07737522  1
  Te  Te145  1  0.89686600  0.25514179  0.41876505  1
  Te  Te146  1  0.91331509  0.25898622  0.78141958  1
  Te  Te147  1  0.91320955  0.57551122  0.07958752  1
  Te  Te148  1  0.94612289  0.59527047  0.41396460  1
  Te  Te149  1  0.93465912  0.58875803  0.71146094  1
  Te  Te150  1  0.91260370  0.94368341  0.07888624  1
  Te  Te151  1  0.91869800  0.91287671  0.42870247  1
  Te  Te152  1  0.89011735  0.89277327  0.75094153  1
  Te  Te153  1  0.26555781  0.08206799  0.24288286  1
  Te  Te154  1  0.23722614  0.07318672  0.58768874  1
  Te  Te155  1  0.27084732  0.06687234  0.94436597  1
  Te  Te156  1  0.25181399  0.39482933  0.24851807  1
  Te  Te157  1  0.28458037  0.41054235  0.55845528  1
  Te  Te158  1  0.26113582  0.41541621  0.91326312  1
  Te  Te159  1  0.23354674  0.76265583  0.20632810  1
  Te  Te160  1  0.25161298  0.74167259  0.58005717  1
  Te  Te161  1  0.25048140  0.75318072  0.89764342  1
  Te  Te162  1  0.58050163  0.08489411  0.24237262  1
  Te  Te163  1  0.56982319  0.07813073  0.57527057  1
  Te  Te164  1  0.58221662  0.07543807  0.94346920  1
  Te  Te165  1  0.57616486  0.42473694  0.22991261  1
  Te  Te166  1  0.60682369  0.40300976  0.60082469  1
  Te  Te167  1  0.61629907  0.40670110  0.86770648  1
  Te  Te168  1  0.58089743  0.74789467  0.23775309  1
  Te  Te169  1  0.57680670  0.75417284  0.60258581  1
  Te  Te170  1  0.56498439  0.78427072  0.93506149  1
  Te  Te171  1  0.90045605  0.09239274  0.25928021  1
  Te  Te172  1  0.91869663  0.08212445  0.59793472  1
  Te  Te173  1  0.94265923  0.06479963  0.89588811  1
  Te  Te174  1  0.92104579  0.42641752  0.25129769  1
  Te  Te175  1  0.88664399  0.40924492  0.60026650  1
  Te  Te176  1  0.90870443  0.39760525  0.87556018  1
  Te  Te177  1  0.93053850  0.75567648  0.26766956  1
  Te  Te178  1  0.88937975  0.71782139  0.59989071  1
  Te  Te179  1  0.90436591  0.75056098  0.93757933  1
