# generated using pymatgen
data_In2Te3
_symmetry_space_group_name_H-M   'P 1'
_cell_length_a   18.97105167
_cell_length_b   18.96720178
_cell_length_c   18.96742252
_cell_angle_alpha   89.82644493
_cell_angle_beta   90.08560262
_cell_angle_gamma   90.01333209
_symmetry_Int_Tables_number   1
_chemical_formula_structural   In2Te3
_chemical_formula_sum   'In72 Te108'
_cell_volume   6824.96614601
_cell_formula_units_Z   36
loop_
 _symmetry_equiv_pos_site_id
 _symmetry_equiv_pos_as_xyz
  1  'x, y, z'
loop_
 _atom_site_type_symbol
 _atom_site_label
 _atom_site_symmetry_multiplicity
 _atom_site_fract_x
 _atom_site_fract_y
 _atom_site_fract_z
 _atom_site_occupancy
  In  In0  1  0.02346186  0.63137798  0.30157358  1
  In  In1  1  -0.05490989  0.19959652  0.82107028  1
  In  In2  1  0.82291367  0.51013812  0.34879846  1
  In  In3  1  0.63446541  0.64112321  0.34323075  1
  In  In4  1  0.50618463  0.33023626  0.83740846  1
  In  In5  1  0.00549190  -0.02295131  0.33903179  1
  In  In6  1  0.36364735  0.17486509  0.17098955  1
  In  In7  1  0.66054605  0.83470870  0.49526953  1
  In  In8  1  0.14354451  0.84693737  0.68595355  1
  In  In9  1  0.82666266  0.17013224  -0.01586635  1
  In  In10  1  0.49965333  0.83632759  0.66847912  1
  In  In11  1  0.33471101  0.84531326  0.84149194  1
  In  In12  1  0.33314852  -0.00612589  0.31525160  1
  In  In13  1  0.38658218  0.04748124  0.69993481  1
  In  In14  1  0.81318071  0.32305076  0.17743977  1
  In  In15  1  0.47312714  0.81484855  0.33422440  1
  In  In16  1  0.01342443  0.65989362  0.01077358  1
  In  In17  1  0.51662839  0.01311381  0.50195372  1
  In  In18  1  0.82010791  0.48760601  0.64291720  1
  In  In19  1  0.15326201  0.82479993  0.32106550  1
  In  In20  1  0.85087682  0.83312771  0.00208577  1
  In  In21  1  0.15627648  0.50171292  0.67353384  1
  In  In22  1  0.00086517  -0.01757596  0.66788080  1
  In  In23  1  0.17379837  0.35353698  0.83205590  1
  In  In24  1  0.17431478  -0.00655196  0.53589100  1
  In  In25  1  0.01987566  0.33536546  0.00660225  1
  In  In26  1  0.16904927  0.15953299  -0.00694219  1
  In  In27  1  0.17257564  -0.02086379  0.85707363  1
  In  In28  1  0.66152526  0.64463188  0.64489081  1
  In  In29  1  0.65864440  0.81407023  0.83348022  1
  In  In30  1  0.14890061  0.17477430  0.67531485  1
  In  In31  1  0.85899343  0.64653992  0.16741284  1
  In  In32  1  0.81004233  0.81367569  0.31171105  1
  In  In33  1  0.81775594  0.02737461  0.83266494  1
  In  In34  1  0.15471005  0.32186004  0.48352138  1
  In  In35  1  0.02913062  0.15912661  0.16003517  1
  In  In36  1  0.34974224  0.32421788  0.67205402  1
  In  In37  1  0.80555478  0.15666134  0.31487058  1
  In  In38  1  0.33357577  0.33174963  -0.01898745  1
  In  In39  1  0.35976814  0.47126952  0.49878723  1
  In  In40  1  0.36295619  0.20066959  0.51034181  1
  In  In41  1  0.16990302  0.65897906  0.50228986  1
  In  In42  1  0.35011414  0.62531000  0.32070042  1
  In  In43  1  -0.00719208  0.82158724  0.81014356  1
  In  In44  1  0.00053890  0.15607214  0.49799937  1
  In  In45  1  0.51982741  0.17518202  0.34202312  1
  In  In46  1  0.63709213  0.46681466  0.18680696  1
  In  In47  1  0.33245583  0.50039261  0.87279313  1
  In  In48  1  0.82241795  -0.00106152  0.49747874  1
  In  In49  1  0.53218736  0.47659237  0.66144289  1
  In  In50  1  0.33587356  0.82900648  0.15520786  1
  In  In51  1  -0.01153000  0.35165886  0.34392195  1
  In  In52  1  0.33347021  0.66558358  0.02278472  1
  In  In53  1  0.67985725  0.20559824  0.83085896  1
  In  In54  1  0.66313962  0.02387375  0.00117551  1
  In  In55  1  0.34803946  0.49088141  0.15821015  1
  In  In56  1  0.66049213  0.48225519  0.82831329  1
  In  In57  1  0.82604597  0.00280573  0.14773896  1
  In  In58  1  0.65319426  0.64331189  -0.00111198  1
  In  In59  1  0.67127136  0.16504104  0.51700639  1
  In  In60  1  0.79181751  0.65580952  0.82219297  1
  In  In61  1  0.17290736  0.35568374  0.17750371  1
  In  In62  1  0.20298941  0.16944730  0.33528399  1
  In  In63  1  0.17512395  0.80581489  0.01174598  1
  In  In64  1  -0.00985821  0.49044124  0.85792728  1
  In  In65  1  0.35063104  0.81978184  0.48716547  1
  In  In66  1  0.37062033  0.00852720  0.00387986  1
  In  In67  1  0.33009282  0.66126418  0.66374470  1
  In  In68  1  0.66691952  0.83761668  0.15032469  1
  In  In69  1  0.81919248  0.33965262  0.49587174  1
  In  In70  1  -0.02833713  0.67617635  0.65797941  1
  In  In71  1  0.61559803  0.22107201  0.15868253  1
  Te  Te72  1  0.08223048  0.06422217  0.06332374  1
  Te  Te73  1  0.10340457  0.07913778  0.41751463  1
  Te  Te74  1  0.08707733  0.06552217  0.76011594  1
  Te  Te75  1  0.06356553  0.43299553  0.11146965  1
  Te  Te76  1  0.09482696  0.42947838  0.40529852  1
  Te  Te77  1  0.06278658  0.40711381  0.74596601  1
  Te  Te78  1  0.08674672  0.74073810  0.10904775  1
  Te  Te79  1  0.07531374  0.73409381  0.41137694  1
  Te  Te80  1  0.08951783  0.72251171  0.74970230  1
  Te  Te81  1  0.45258908  0.10888479  0.07563051  1
  Te  Te82  1  0.40671803  0.08403249  0.41337813  1
  Te  Te83  1  0.47081511  0.12223280  0.79429046  1
  Te  Te84  1  0.43072835  0.38740811  0.07974601  1
  Te  Te85  1  0.46172043  0.45828178  0.39011394  1
  Te  Te86  1  0.40977352  0.43519135  0.75605292  1
  Te  Te87  1  0.43244747  0.76580719  0.06616707  1
  Te  Te88  1  0.42700562  0.70476957  0.42863627  1
  Te  Te89  1  0.41532896  0.74486480  0.75633022  1
  Te  Te90  1  0.73882915  0.12052518  0.09888464  1
  Te  Te91  1  0.72305567  0.07200670  0.40740376  1
  Te  Te92  1  0.72766108  0.09574092  0.74123024  1
  Te  Te93  1  0.73067187  0.40669535  0.08990981  1
  Te  Te94  1  0.72616404  0.41369809  0.40735072  1
  Te  Te95  1  0.76099229  0.40230247  0.75136677  1
  Te  Te96  1  0.75934022  0.73839974  0.07911722  1
  Te  Te97  1  0.73829438  0.73107555  0.41606378  1
  Te  Te98  1  0.74011723  0.75529841  0.72128482  1
  Te  Te99  1  0.08689728  0.24909761  0.27004765  1
  Te  Te100  1  0.06011160  0.26173235  0.58842353  1
  Te  Te101  1  0.08033272  0.24134876  0.89711222  1
  Te  Te102  1  0.10995947  0.56957799  0.19966194  1
  Te  Te103  1  0.06679267  0.58125324  0.58118318  1
  Te  Te104  1  0.09158799  0.57386852  0.92133123  1
  Te  Te105  1  0.09466556  0.92749658  0.23553125  1
  Te  Te106  1  0.05421894  0.88694550  0.56112715  1
  Te  Te107  1  0.07508565  0.88418649  0.92082001  1
  Te  Te108  1  0.43174076  0.27041075  0.26311766  1
  Te  Te109  1  0.46361791  0.27563457  0.58914618  1
  Te  Te110  1  0.40608257  0.23461879  0.89466729  1
  Te  Te111  1  0.44517271  0.59287306  0.21178483  1
  Te  Te112  1  0.42611307  0.56795402  0.59481608  1
  Te  Te113  1  0.42714216  0.57775113  0.95074047  1
  Te  Te114  1  0.43275587  0.92159173  0.23137088  1
  Te  Te115  1  0.41030240  0.92791057  0.57734290  1
  Te  Te116  1  0.43876408  0.93758378  0.89195813  1
  Te  Te117  1  0.71179800  0.26655240  0.27420801  1
  Te  Te118  1  0.77606981  0.23783100  0.59589710  1
  Te  Te119  1  0.75805973  0.28685160  0.92926649  1
  Te  Te120  1  0.73867831  0.58723515  0.24135786  1
  Te  Te121  1  0.77844455  0.60608770  0.56668120  1
  Te  Te122  1  0.75285245  0.55464222  0.92746217  1
  Te  Te123  1  0.73773351  0.93101941  0.24815911  1
  Te  Te124  1  0.72429438  0.93190709  0.58569807  1
  Te  Te125  1  0.75297702  0.92023256  0.92452204  1
  Te  Te126  1  0.24591641  0.25079648  0.08713722  1
  Te  Te127  1  0.28013454  0.27742147  0.40895200  1
  Te  Te128  1  0.25328569  0.24632811  0.75962598  1
  Te  Te129  1  0.24038854  0.59221221  0.11623237  1
  Te  Te130  1  0.25664832  0.56262625  0.42665245  1
  Te  Te131  1  0.25182338  0.57696916  0.76189592  1
  Te  Te132  1  0.25729633  0.92113119  0.06436469  1
  Te  Te133  1  0.24979934  0.91368161  0.41575768  1
  Te  Te134  1  0.26002153  0.93475461  0.73800288  1
  Te  Te135  1  0.56104734  0.30702418  0.05171177  1
  Te  Te136  1  0.57147231  0.25594110  0.45457561  1
  Te  Te137  1  0.59167475  0.27558869  0.73222653  1
  Te  Te138  1  0.57292368  0.57805634  0.10736420  1
  Te  Te139  1  0.58300233  0.54394642  0.44711163  1
  Te  Te140  1  0.57758718  0.58758027  0.75779534  1
  Te  Te141  1  0.58153901  0.92102581  0.06566919  1
  Te  Te142  1  0.56904121  0.91366956  0.40259811  1
  Te  Te143  1  0.56580488  0.91474181  0.77522368  1
  Te  Te144  1  0.92346027  0.24574220  0.09333387  1
  Te  Te145  1  0.90535145  0.23132530  0.40579728  1
  Te  Te146  1  0.85446678  0.27588770  0.73538834  1
  Te  Te147  1  0.91537140  0.56347369  0.06298978  1
  Te  Te148  1  0.92990570  0.59105664  0.40675398  1
  Te  Te149  1  0.90342817  0.57613527  0.75606286  1
  Te  Te150  1  0.92787543  0.91311038  0.09679070  1
  Te  Te151  1  0.89554298  0.90082168  0.40757872  1
  Te  Te152  1  0.89265699  0.91825124  0.75153954  1
  Te  Te153  1  0.25160025  0.08199240  0.22257725  1
  Te  Te154  1  0.25390869  0.11826167  0.57934718  1
  Te  Te155  1  0.26889983  0.08177215  0.91121150  1
  Te  Te156  1  0.27184494  0.41870254  0.26265621  1
  Te  Te157  1  0.24622836  0.40781529  0.59082476  1
  Te  Te158  1  0.22147029  0.43230909  0.95177976  1
  Te  Te159  1  0.27394870  0.75091812  0.27022328  1
  Te  Te160  1  0.24433790  0.76615212  0.58880745  1
  Te  Te161  1  0.25405647  0.73558186  0.90609212  1
  Te  Te162  1  0.56984734  0.09857287  0.22698403  1
  Te  Te163  1  0.60253495  0.06778983  0.60828980  1
  Te  Te164  1  0.58711171  0.11363897  0.90946625  1
  Te  Te165  1  0.53067001  0.39690331  0.26369280  1
  Te  Te166  1  0.63495126  0.45069478  0.55920157  1
  Te  Te167  1  0.56997430  0.42457050  0.93269828  1
  Te  Te168  1  0.58485518  0.75402694  0.25260901  1
  Te  Te169  1  0.56776535  0.74179696  0.57236076  1
  Te  Te170  1  0.57340636  0.74566808  0.93021917  1
  Te  Te171  1  0.92369146  0.08203024  0.25306245  1
  Te  Te172  1  0.91185546  0.07983508  0.59297994  1
  Te  Te173  1  0.93032108  0.08128276  0.91815314  1
  Te  Te174  1  0.90166924  0.42549878  0.24651292  1
  Te  Te175  1  0.92055839  0.42430802  0.55725691  1
  Te  Te176  1  0.90809680  0.38533905  0.92296253  1
  Te  Te177  1  0.93087505  0.74874429  0.25060452  1
  Te  Te178  1  0.92897109  0.80061243  0.59671931  1
  Te  Te179  1  0.90278217  0.73344153  0.90001150  1
