# generated using pymatgen
data_In2Te3
_symmetry_space_group_name_H-M   'P 1'
_cell_length_a   18.97672072
_cell_length_b   18.99566892
_cell_length_c   19.01797010
_cell_angle_alpha   90.41886989
_cell_angle_beta   89.99300097
_cell_angle_gamma   90.06497512
_symmetry_Int_Tables_number   1
_chemical_formula_structural   In2Te3
_chemical_formula_sum   'In72 Te108'
_cell_volume   6855.32470262
_cell_formula_units_Z   36
loop_
 _symmetry_equiv_pos_site_id
 _symmetry_equiv_pos_as_xyz
  1  'x, y, z'
loop_
 _atom_site_type_symbol
 _atom_site_label
 _atom_site_symmetry_multiplicity
 _atom_site_fract_x
 _atom_site_fract_y
 _atom_site_fract_z
 _atom_site_occupancy
  In  In0  1  0.02208549  0.33967683  0.32780806  1
  In  In1  1  0.16654030  0.85267438  0.67637056  1
  In  In2  1  0.34486920  0.17127811  0.83339942  1
  In  In3  1  0.00371227  0.85226634  0.81262224  1
  In  In4  1  0.79574855  0.81815911  0.00063339  1
  In  In5  1  0.79357154  0.47157096  0.35444874  1
  In  In6  1  0.65375542  0.00649881  0.01636816  1
  In  In7  1  0.18468045  0.49867040  0.34225756  1
  In  In8  1  -0.00401002  0.67514546  0.00839965  1
  In  In9  1  0.71047419  0.72482024  0.61398096  1
  In  In10  1  0.50114605  0.66397296  0.48946125  1
  In  In11  1  0.33115258  0.66446115  0.31505942  1
  In  In12  1  0.01327860  0.51093932  0.83579997  1
  In  In13  1  0.82881854  0.33072386  0.17339634  1
  In  In14  1  0.34538826  -0.02977453  0.39441616  1
  In  In15  1  0.33142586  0.01700530  -0.00073604  1
  In  In16  1  0.68120165  0.33577321  0.01634963  1
  In  In17  1  -0.00734258  0.17884477  0.16300520  1
  In  In18  1  -0.00867925  0.51254361  0.47237224  1
  In  In19  1  0.65122111  0.17301184  0.16005942  1
  In  In20  1  0.00956665  0.34661149  0.65706227  1
  In  In21  1  0.17763449  0.82820222  0.02297871  1
  In  In22  1  0.47408947  0.86983331  0.64660304  1
  In  In23  1  0.00824787  -0.01223385  -0.01631146  1
  In  In24  1  -0.00597412  0.82709657  0.16242430  1
  In  In25  1  -0.01291210  -0.03336963  0.36186408  1
  In  In26  1  0.35569571  0.32934930  0.33448214  1
  In  In27  1  0.48995651  0.64672851  0.85002839  1
  In  In28  1  0.34381897  0.68304159  0.66696582  1
  In  In29  1  0.53251880  0.48755057  0.32754985  1
  In  In30  1  -0.01160345  0.68626322  0.33806527  1
  In  In31  1  0.65224216  0.82437769  0.83023928  1
  In  In32  1  0.15566384  0.67611677  0.50205537  1
  In  In33  1  0.00897961  0.51929485  0.16739306  1
  In  In34  1  0.68040570  -0.03116521  0.64349235  1
  In  In35  1  0.50955286  0.50537471  0.68823888  1
  In  In36  1  0.33824924  0.17875555  0.50203269  1
  In  In37  1  0.81751892  0.66750942  0.84379039  1
  In  In38  1  -0.01481139  0.17403356  0.49792791  1
  In  In39  1  0.00963345  0.02524308  0.64849359  1
  In  In40  1  0.34497170  0.15677151  0.20115139  1
  In  In41  1  0.64478417  0.64255193  0.00990364  1
  In  In42  1  0.17651013  0.69937507  0.83756726  1
  In  In43  1  0.50546316  -0.02271958  0.17376192  1
  In  In44  1  0.68941691  0.66818484  0.33538226  1
  In  In45  1  0.82968914  0.18319177  0.64800550  1
  In  In46  1  0.82179438  -0.02429353  0.18996915  1
  In  In47  1  0.16712931  0.02343361  0.19350627  1
  In  In48  1  0.51216489  0.13130575  0.67233018  1
  In  In49  1  0.65427078  0.15842204  0.84912334  1
  In  In50  1  0.50401299  0.82355037  0.33257020  1
  In  In51  1  0.67754231  -0.03856105  0.34470531  1
  In  In52  1  0.49659280  0.18215451  0.32312422  1
  In  In53  1  0.33027568  0.85469454  0.84534852  1
  In  In54  1  0.81437944  0.15927382  0.31450035  1
  In  In55  1  0.28816327  0.47236716  0.94603149  1
  In  In56  1  0.84578297  0.19100997  0.01022735  1
  In  In57  1  0.83229477  0.49961136  0.64942598  1
  In  In58  1  0.66130095  0.30249333  0.65541768  1
  In  In59  1  0.17629034  0.21431509  -0.03118748  1
  In  In60  1  0.34577218  0.34277977  0.65967621  1
  In  In61  1  0.53172801  0.33550828  0.47899168  1
  In  In62  1  0.18844509  0.51826609  0.65560039  1
  In  In63  1  0.66216131  0.48401592  0.82416287  1
  In  In64  1  0.47429746  0.65213097  0.15492134  1
  In  In65  1  0.16373802  0.33892297  0.15263668  1
  In  In66  1  0.84735194  0.00895469  0.82228336  1
  In  In67  1  0.16829183  0.16418634  0.68059394  1
  In  In68  1  0.47062732  0.34094234  0.86323570  1
  In  In69  1  0.16635957  -0.00753064  0.49685071  1
  In  In70  1  0.88103224  0.34516900  0.82977097  1
  In  In71  1  -0.05556836  0.69665789  0.62136978  1
  Te  Te72  1  0.07759167  0.08045418  0.08223343  1
  Te  Te73  1  0.07321695  0.08096952  0.41537881  1
  Te  Te74  1  0.08530996  0.07556342  0.76197820  1
  Te  Te75  1  0.10364329  0.45024196  0.07772073  1
  Te  Te76  1  0.10009579  0.41361333  0.43436214  1
  Te  Te77  1  0.10212164  0.42871256  0.74427005  1
  Te  Te78  1  0.09866327  0.73089379  0.10727956  1
  Te  Te79  1  0.09696098  0.76646135  0.40197808  1
  Te  Te80  1  0.07219986  0.74078150  0.73433093  1
  Te  Te81  1  0.42855084  0.08300474  0.09930434  1
  Te  Te82  1  0.43635373  0.09092403  0.42801390  1
  Te  Te83  1  0.40396765  0.06743086  0.74466990  1
  Te  Te84  1  0.37465384  0.43298192  0.05780169  1
  Te  Te85  1  0.42702768  0.42716330  0.42565198  1
  Te  Te86  1  0.40259391  0.43522178  0.76740010  1
  Te  Te87  1  0.37374845  0.75027981  0.11220220  1
  Te  Te88  1  0.40170056  0.75026320  0.41930531  1
  Te  Te89  1  0.43222240  0.76196326  0.76087735  1
  Te  Te90  1  0.76893605  0.08930683  0.09212825  1
  Te  Te91  1  0.77177498  0.05615754  0.40798374  1
  Te  Te92  1  0.74758792  0.09479960  0.74539546  1
  Te  Te93  1  0.74972140  0.43137367  0.10315343  1
  Te  Te94  1  0.72529597  0.38410076  0.44711612  1
  Te  Te95  1  0.75816851  0.39886941  0.73865806  1
  Te  Te96  1  0.75485108  0.70839418  0.08511150  1
  Te  Te97  1  0.74232140  0.77787974  0.42413667  1
  Te  Te98  1  0.76738164  0.77284230  0.74775278  1
  Te  Te99  1  0.10094635  0.23677840  0.25165213  1
  Te  Te100  1  0.09199966  0.24693564  0.57740144  1
  Te  Te101  1  0.05859179  0.27540883  0.90917231  1
  Te  Te102  1  0.09217535  0.59253537  0.27064096  1
  Te  Te103  1  0.06200765  0.58723355  0.58434587  1
  Te  Te104  1  0.09869514  0.60168836  0.92328222  1
  Te  Te105  1  0.07996414  0.91320796  0.25300521  1
  Te  Te106  1  0.06847834  0.90664008  0.57514992  1
  Te  Te107  1  0.10949198  0.90458353  0.90785879  1
  Te  Te108  1  0.45343423  0.28545016  0.21881635  1
  Te  Te109  1  0.44314095  0.24976059  0.59011957  1
  Te  Te110  1  0.39864905  0.24771155  0.94771612  1
  Te  Te111  1  0.41602065  0.55353730  0.25660045  1
  Te  Te112  1  0.42262177  0.57989068  0.58942419  1
  Te  Te113  1  0.41164693  0.56724835  0.94999794  1
  Te  Te114  1  0.40441278  0.91231986  0.26175893  1
  Te  Te115  1  0.41693669  0.93385101  0.52860419  1
  Te  Te116  1  0.42311276  0.92062609  0.93671365  1
  Te  Te117  1  0.71933182  0.26804996  0.25824768  1
  Te  Te118  1  0.76062782  0.26928445  0.54678301  1
  Te  Te119  1  0.76574969  0.25924383  0.90141272  1
  Te  Te120  1  0.72977351  0.55242979  0.25092951  1
  Te  Te121  1  0.75767261  0.59370937  0.56694673  1
  Te  Te122  1  0.74814056  0.56231583  0.92221373  1
  Te  Te123  1  0.71066729  0.88518186  0.22108067  1
  Te  Te124  1  0.74503915  0.86494646  0.55635699  1
  Te  Te125  1  0.74679724  0.93011710  0.90614014  1
  Te  Te126  1  0.25350496  0.22526841  0.10283997  1
  Te  Te127  1  0.25613382  0.25227500  0.40757014  1
  Te  Te128  1  0.25617511  0.26450318  0.75278022  1
  Te  Te129  1  0.29686810  0.55928352  0.07156116  1
  Te  Te130  1  0.26056030  0.59146914  0.43384838  1
  Te  Te131  1  0.26254398  0.59862610  0.76202647  1
  Te  Te132  1  0.25021891  0.93672554  0.10018883  1
  Te  Te133  1  0.22215398  0.88714005  0.40913754  1
  Te  Te134  1  0.27451477  0.93352141  0.73447934  1
  Te  Te135  1  0.58083372  0.23464719  0.04851207  1
  Te  Te136  1  0.59925453  0.21989404  0.42194198  1
  Te  Te137  1  0.56949676  0.25817068  0.76957282  1
  Te  Te138  1  0.55779594  0.55268078  0.08539990  1
  Te  Te139  1  0.60544120  0.57657378  0.42712432  1
  Te  Te140  1  0.60284170  0.60477545  0.75508932  1
  Te  Te141  1  0.59845033  0.89365217  0.09301790  1
  Te  Te142  1  0.56584397  0.91710625  0.43004868  1
  Te  Te143  1  0.57881968  0.92552705  0.74612236  1
  Te  Te144  1  0.94032751  0.28981267  0.07629024  1
  Te  Te145  1  0.91484184  0.24971151  0.38832824  1
  Te  Te146  1  0.93825643  0.23912589  0.73750248  1
  Te  Te147  1  0.90811700  0.59932442  0.09636750  1
  Te  Te148  1  0.88792591  0.59043492  0.39998584  1
  Te  Te149  1  0.90827616  0.58973963  0.74829087  1
  Te  Te150  1  0.90302487  0.91521268  0.06704919  1
  Te  Te151  1  0.88065843  0.86132339  0.37894455  1
  Te  Te152  1  0.91180166  0.92217976  0.71745890  1
  Te  Te153  1  0.26623249  0.07311847  0.29453011  1
  Te  Te154  1  0.25260414  0.08335104  0.58319953  1
  Te  Te155  1  0.23691541  0.09006652  0.90714426  1
  Te  Te156  1  0.25972575  0.41090732  0.24636105  1
  Te  Te157  1  0.25950189  0.42178114  0.57286650  1
  Te  Te158  1  0.17768101  0.36543425  0.93284379  1
  Te  Te159  1  0.26827846  0.74852619  0.21445299  1
  Te  Te160  1  0.25057107  0.76518044  0.58392804  1
  Te  Te161  1  0.27684898  0.74720897  0.94061058  1
  Te  Te162  1  0.59215713  0.07341763  0.25688925  1
  Te  Te163  1  0.61528931  0.08304140  0.58122097  1
  Te  Te164  1  0.56443915  0.06716258  0.91836910  1
  Te  Te165  1  0.57747039  0.36940194  0.25270294  1
  Te  Te166  1  0.59211605  0.42215670  0.59302190  1
  Te  Te167  1  0.58021872  0.41936000  0.93116412  1
  Te  Te168  1  0.57582857  0.72083723  0.25037025  1
  Te  Te169  1  0.56447477  0.76011235  0.58826377  1
  Te  Te170  1  0.56950071  0.74970570  0.93061498  1
  Te  Te171  1  0.92899354  0.06726904  0.24978658  1
  Te  Te172  1  0.89225797  0.07341688  0.56308440  1
  Te  Te173  1  0.92611380  0.09629781  0.91756300  1
  Te  Te174  1  0.92064013  0.42588740  0.25803593  1
  Te  Te175  1  0.91621175  0.41165083  0.55847833  1
  Te  Te176  1  0.92032687  0.44490310  0.92748451  1
  Te  Te177  1  0.89450542  0.75746959  0.24685813  1
  Te  Te178  1  0.89653608  0.78267606  0.51244596  1
  Te  Te179  1  0.91918007  0.76894164  0.90919058  1
