# generated using pymatgen
data_In2Te3
_symmetry_space_group_name_H-M   'P 1'
_cell_length_a   18.79008260
_cell_length_b   18.78251292
_cell_length_c   18.76656815
_cell_angle_alpha   90.00673139
_cell_angle_beta   90.01799562
_cell_angle_gamma   90.06747592
_symmetry_Int_Tables_number   1
_chemical_formula_structural   In2Te3
_chemical_formula_sum   'In72 Te108'
_cell_volume   6623.18552041
_cell_formula_units_Z   36
loop_
 _symmetry_equiv_pos_site_id
 _symmetry_equiv_pos_as_xyz
  1  'x, y, z'
loop_
 _atom_site_type_symbol
 _atom_site_label
 _atom_site_symmetry_multiplicity
 _atom_site_fract_x
 _atom_site_fract_y
 _atom_site_fract_z
 _atom_site_occupancy
  In  In0  1  -0.00400028  -0.00604451  0.65551254  1
  In  In1  1  0.01772760  0.33787644  0.35081766  1
  In  In2  1  0.14922516  0.16304984  -0.00414886  1
  In  In3  1  0.14589965  0.67093907  0.50377888  1
  In  In4  1  0.84822964  0.84181547  0.65363214  1
  In  In5  1  0.66011493  0.14434412  0.82873672  1
  In  In6  1  0.00802841  -0.00357018  -0.00434159  1
  In  In7  1  0.50040962  -0.00157721  0.17634354  1
  In  In8  1  0.00256136  0.50334289  0.83520734  1
  In  In9  1  0.33331810  0.33448913  -0.00711656  1
  In  In10  1  0.48437349  0.50692429  -0.00715479  1
  In  In11  1  0.64752999  0.52022062  0.83137146  1
  In  In12  1  0.00178766  0.16691394  0.51379511  1
  In  In13  1  0.00345641  0.50370985  0.17756894  1
  In  In14  1  0.15745817  0.17735388  0.34673166  1
  In  In15  1  0.83755638  0.14609385  0.34914594  1
  In  In16  1  0.16417678  0.49514386  0.64806557  1
  In  In17  1  0.31597999  0.03417500  0.65356704  1
  In  In18  1  0.67693969  0.16345884  0.50309385  1
  In  In19  1  0.51838089  0.82525708  0.33260463  1
  In  In20  1  0.87882304  0.70807721  0.83979989  1
  In  In21  1  0.86008340  0.33731253  0.82258550  1
  In  In22  1  0.46847127  0.19595410  0.65182796  1
  In  In23  1  0.33263021  0.50659542  0.18768213  1
  In  In24  1  0.31031592  0.84137782  0.13911335  1
  In  In25  1  0.50734865  0.64583655  0.84791130  1
  In  In26  1  0.35520526  0.66923104  0.32397758  1
  In  In27  1  0.32920781  0.00286695  0.35322705  1
  In  In28  1  0.79730431  -0.02718525  0.85262822  1
  In  In29  1  0.15454531  0.84670027  0.35006603  1
  In  In30  1  0.17192776  0.48728567  -0.01318272  1
  In  In31  1  0.31771086  0.16298619  0.17778131  1
  In  In32  1  0.67493104  0.67376099  0.66765832  1
  In  In33  1  0.66113797  0.31115125  0.01426114  1
  In  In34  1  0.83981749  0.00197351  0.16879756  1
  In  In35  1  0.50127487  0.16726759  0.33692265  1
  In  In36  1  0.86052488  0.65882172  0.49009161  1
  In  In37  1  0.51482037  0.82002070  0.65597032  1
  In  In38  1  0.00466612  0.33779591  0.65295816  1
  In  In39  1  0.15273723  0.50041430  0.33409950  1
  In  In40  1  0.64213234  0.50473143  0.48253036  1
  In  In41  1  0.35118716  0.64200403  -0.03022703  1
  In  In42  1  0.32462655  0.82698881  0.48492360  1
  In  In43  1  0.14335468  0.66436317  0.16682727  1
  In  In44  1  -0.01209105  -0.01250733  0.32543178  1
  In  In45  1  0.00626612  0.17877376  0.83355829  1
  In  In46  1  0.85121577  0.18030210  0.01724309  1
  In  In47  1  0.66374262  0.15279805  0.16303385  1
  In  In48  1  0.33098500  0.63725505  0.66063019  1
  In  In49  1  0.31772990  0.00571609  -0.00995987  1
  In  In50  1  0.84424933  0.82619973  0.35134576  1
  In  In51  1  0.51602574  0.82352218  -0.00192330  1
  In  In52  1  0.32334691  0.85006548  0.81063658  1
  In  In53  1  0.16195952  0.01415818  0.84014003  1
  In  In54  1  0.83380713  0.49305570  -0.00887634  1
  In  In55  1  0.32535126  0.34680545  0.34632543  1
  In  In56  1  0.67861954  0.50728066  0.21697669  1
  In  In57  1  0.46456925  0.32929139  0.80620990  1
  In  In58  1  0.85288632  0.32749934  0.17014816  1
  In  In59  1  0.85178969  0.48401631  0.65911242  1
  In  In60  1  0.51805107  0.02129073  0.81884941  1
  In  In61  1  0.16144648  0.82709929  0.00031051  1
  In  In62  1  0.33238074  0.48818000  0.50550191  1
  In  In63  1  0.66797830  0.34076630  0.63456927  1
  In  In64  1  0.49127176  0.66205996  0.19672983  1
  In  In65  1  0.83455845  0.67654323  0.18713461  1
  In  In66  1  0.11918872  0.69677197  0.81106744  1
  In  In67  1  0.67097985  0.82342547  0.17125766  1
  In  In68  1  0.68118861  -0.01282786  0.65538225  1
  In  In69  1  0.50201725  -0.00589759  0.49428399  1
  In  In70  1  0.67561736  0.66999140  0.01430911  1
  In  In71  1  0.66435516  0.33791357  0.35141501  1
  Te  Te72  1  0.06974357  0.08723140  0.09467433  1
  Te  Te73  1  0.07700111  0.07141565  0.42154834  1
  Te  Te74  1  0.09131311  0.10014247  0.73191792  1
  Te  Te75  1  0.09274740  0.42172680  0.09296264  1
  Te  Te76  1  0.10180960  0.41708248  0.44564636  1
  Te  Te77  1  0.09234224  0.40971050  0.75480387  1
  Te  Te78  1  0.05770467  0.74884980  0.07633975  1
  Te  Te79  1  0.05999685  0.76881417  0.43348889  1
  Te  Te80  1  0.05688680  0.77420731  0.69902791  1
  Te  Te81  1  0.41071727  0.08167750  0.08609574  1
  Te  Te82  1  0.40756407  0.10070934  0.43879456  1
  Te  Te83  1  0.40458101  0.10316642  0.75735327  1
  Te  Te84  1  0.41588532  0.41762855  0.09567243  1
  Te  Te85  1  0.43268263  0.40852807  0.42868566  1
  Te  Te86  1  0.39713586  0.43907571  0.73574223  1
  Te  Te87  1  0.41953413  0.73878376  0.08193659  1
  Te  Te88  1  0.43788751  0.74002294  0.43263730  1
  Te  Te89  1  0.41902032  0.74228232  0.75711290  1
  Te  Te90  1  0.75115467  0.07571924  0.06525879  1
  Te  Te91  1  0.74471774  0.05905752  0.42375781  1
  Te  Te92  1  0.76584911  0.08045314  0.74126866  1
  Te  Te93  1  0.74723982  0.41887494  0.09313473  1
  Te  Te94  1  0.75290874  0.41621382  0.43850780  1
  Te  Te95  1  0.74829267  0.42280101  0.75888385  1
  Te  Te96  1  0.77467571  0.77104130  0.06971990  1
  Te  Te97  1  0.75198548  0.74579810  0.43714008  1
  Te  Te98  1  0.76308995  0.76198656  0.75470907  1
  Te  Te99  1  0.08285787  0.25589544  0.24684447  1
  Te  Te100  1  0.10865159  0.25532844  0.57943374  1
  Te  Te101  1  0.10194784  0.26839572  0.90105846  1
  Te  Te102  1  0.05894393  0.61071781  0.28300965  1
  Te  Te103  1  0.06051115  0.56688428  0.56979400  1
  Te  Te104  1  0.08427538  0.59678961  0.92437892  1
  Te  Te105  1  0.07018353  0.89756752  0.23906354  1
  Te  Te106  1  0.08580044  0.89098222  0.60004677  1
  Te  Te107  1  0.07786950  0.89718622  0.89062722  1
  Te  Te108  1  0.41165473  0.25631582  0.25301106  1
  Te  Te109  1  0.37042070  0.27594030  0.57656348  1
  Te  Te110  1  0.43009714  0.24630972  0.92175014  1
  Te  Te111  1  0.44285455  0.54546508  0.28894962  1
  Te  Te112  1  0.42660454  0.59109299  0.55919503  1
  Te  Te113  1  0.39713245  0.53480866  0.86597600  1
  Te  Te114  1  0.40566350  0.90416071  0.25547654  1
  Te  Te115  1  0.40987708  0.91631141  0.59241504  1
  Te  Te116  1  0.41702927  0.91173883  0.91727459  1
  Te  Te117  1  0.75292902  0.24231866  0.25251505  1
  Te  Te118  1  0.76941821  0.25110922  0.57951168  1
  Te  Te119  1  0.76007298  0.25430522  0.90903239  1
  Te  Te120  1  0.78511834  0.58025598  0.29550506  1
  Te  Te121  1  0.75606011  0.57494080  0.58024424  1
  Te  Te122  1  0.76310993  0.59674888  0.90386958  1
  Te  Te123  1  0.75116922  0.91711335  0.25915615  1
  Te  Te124  1  0.75162916  0.90221318  0.55770488  1
  Te  Te125  1  0.72543794  0.87724052  0.93532027  1
  Te  Te126  1  0.23949908  0.25282020  0.08445125  1
  Te  Te127  1  0.25710806  0.24726280  0.43619848  1
  Te  Te128  1  0.21452147  0.19818355  0.69208461  1
  Te  Te129  1  0.25579343  0.59355773  0.08751441  1
  Te  Te130  1  0.25407650  0.59100703  0.41277660  1
  Te  Te131  1  0.21784594  0.59359780  0.75487706  1
  Te  Te132  1  0.21357091  0.94535282  0.08407417  1
  Te  Te133  1  0.22908772  0.93936589  0.45002472  1
  Te  Te134  1  0.22835386  0.92876583  0.72410738  1
  Te  Te135  1  0.56401760  0.24150536  0.09982975  1
  Te  Te136  1  0.57119486  0.25419836  0.44107323  1
  Te  Te137  1  0.59010881  0.25325372  0.74554162  1
  Te  Te138  1  0.58176340  0.58084772  0.09348966  1
  Te  Te139  1  0.58697592  0.58586105  0.37175559  1
  Te  Te140  1  0.56520062  0.57967049  0.71922740  1
  Te  Te141  1  0.59470710  0.92352515  0.08239089  1
  Te  Te142  1  0.59910717  0.91392355  0.41851900  1
  Te  Te143  1  0.59452861  0.90771893  0.75449462  1
  Te  Te144  1  0.95353364  0.26426261  0.08255946  1
  Te  Te145  1  0.91108107  0.25440965  0.42633062  1
  Te  Te146  1  0.91374042  0.23632206  0.72324804  1
  Te  Te147  1  0.91017026  0.58504823  0.08647656  1
  Te  Te148  1  0.91691256  0.57690292  0.37948627  1
  Te  Te149  1  0.91979552  0.59327949  0.74572757  1
  Te  Te150  1  0.91465678  0.91386220  0.07574282  1
  Te  Te151  1  0.91481753  0.92634489  0.43952793  1
  Te  Te152  1  0.91304200  0.92308659  0.76709236  1
  Te  Te153  1  0.23097038  0.06767908  0.25799129  1
  Te  Te154  1  0.23341551  0.12156581  0.56452886  1
  Te  Te155  1  0.26107652  0.11371017  0.90008458  1
  Te  Te156  1  0.23017994  0.40749362  0.24091149  1
  Te  Te157  1  0.28630386  0.39821456  0.62835792  1
  Te  Te158  1  0.24367997  0.39882852  0.89242039  1
  Te  Te159  1  0.24556500  0.75195191  0.25336559  1
  Te  Te160  1  0.24876261  0.74657825  0.59001154  1
  Te  Te161  1  0.25464012  0.74923411  0.90542490  1
  Te  Te162  1  0.59645490  0.06720960  0.27232950  1
  Te  Te163  1  0.57186010  0.08476512  0.60052079  1
  Te  Te164  1  0.57764260  0.08675319  0.93627853  1
  Te  Te165  1  0.58759573  0.39490744  0.23784301  1
  Te  Te166  1  0.56117566  0.42342270  0.57926643  1
  Te  Te167  1  0.58524790  0.41344971  0.92104917  1
  Te  Te168  1  0.61602371  0.71916967  0.27094462  1
  Te  Te169  1  0.60601890  0.75264827  0.56128688  1
  Te  Te170  1  0.60749439  0.75292329  0.89917684  1
  Te  Te171  1  0.93185745  0.10295280  0.23821892  1
  Te  Te172  1  0.90417977  0.06399249  0.56241085  1
  Te  Te173  1  0.90980372  0.08475540  0.90911420  1
  Te  Te174  1  0.91217561  0.42296021  0.27210742  1
  Te  Te175  1  0.93912129  0.42816128  0.55298357  1
  Te  Te176  1  0.94138403  0.40199784  0.93431859  1
  Te  Te177  1  0.93192600  0.77453880  0.24178203  1
  Te  Te178  1  0.94129885  0.74027916  0.59040840  1
  Te  Te179  1  0.96372222  0.77165282  0.94074010  1
