# generated using pymatgen
data_In2Te3
_symmetry_space_group_name_H-M   'P 1'
_cell_length_a   18.90475226
_cell_length_b   18.92138414
_cell_length_c   18.91427322
_cell_angle_alpha   90.10391453
_cell_angle_beta   90.16180103
_cell_angle_gamma   90.05694143
_symmetry_Int_Tables_number   1
_chemical_formula_structural   In2Te3
_chemical_formula_sum   'In72 Te108'
_cell_volume   6765.67121528
_cell_formula_units_Z   36
loop_
 _symmetry_equiv_pos_site_id
 _symmetry_equiv_pos_as_xyz
  1  'x, y, z'
loop_
 _atom_site_type_symbol
 _atom_site_label
 _atom_site_symmetry_multiplicity
 _atom_site_fract_x
 _atom_site_fract_y
 _atom_site_fract_z
 _atom_site_occupancy
  In  In0  1  0.00443058  0.01595361  0.32066771  1
  In  In1  1  0.32639741  0.50920688  0.84349322  1
  In  In2  1  0.49630111  0.83064037  -0.00180075  1
  In  In3  1  0.34086876  0.51916068  0.46337447  1
  In  In4  1  0.48906040  0.18052085  0.34005159  1
  In  In5  1  0.32563837  0.12170281  0.12002162  1
  In  In6  1  0.85638832  0.83835203  0.66560680  1
  In  In7  1  0.49448085  0.84231693  0.32659188  1
  In  In8  1  0.87261719  0.50290449  0.63956955  1
  In  In9  1  0.48678191  0.50054777  0.00686888  1
  In  In10  1  0.63817782  0.12983006  0.82862888  1
  In  In11  1  0.50878120  0.15907602  0.66186661  1
  In  In12  1  0.16641749  0.16034629  0.68369904  1
  In  In13  1  0.34974193  -0.03696384  0.69039422  1
  In  In14  1  0.49985561  0.53497394  0.69717940  1
  In  In15  1  0.83743838  0.00207270  0.47962183  1
  In  In16  1  0.82210642  -0.04403451  0.83480777  1
  In  In17  1  0.00338976  0.18691724  0.48363353  1
  In  In18  1  0.65982301  0.79722549  0.52145645  1
  In  In19  1  -0.00514239  0.66550672  0.34896705  1
  In  In20  1  0.33302708  0.01412222  0.33075466  1
  In  In21  1  0.49618455  -0.00782529  0.83674509  1
  In  In22  1  0.47648281  0.30469384  0.81937047  1
  In  In23  1  -0.00723916  -0.00303402  0.66955990  1
  In  In24  1  0.85512520  0.53825180  0.01021582  1
  In  In25  1  0.31322213  0.80308458  0.84273426  1
  In  In26  1  0.30606519  0.13189634  0.87548275  1
  In  In27  1  0.81458318  0.18913963  0.66421441  1
  In  In28  1  0.66503354  -0.01275571  0.33239542  1
  In  In29  1  0.01357506  0.84339340  0.48114570  1
  In  In30  1  0.51200199  0.66363079  0.83489101  1
  In  In31  1  0.02746777  0.35467087  0.00087088  1
  In  In32  1  0.64732655  0.51627420  0.81681589  1
  In  In33  1  0.32809316  0.66698330  0.67891879  1
  In  In34  1  0.17901518  0.53138522  0.31356435  1
  In  In35  1  0.00791840  0.66598514  0.02161657  1
  In  In36  1  0.48471477  0.33087153  0.18302284  1
  In  In37  1  0.47865879  0.68960949  0.15626641  1
  In  In38  1  0.83091051  0.13946046  0.01657785  1
  In  In39  1  0.85940259  0.20207075  0.33440510  1
  In  In40  1  0.00652061  0.81465183  0.18116257  1
  In  In41  1  0.32681719  0.16620226  0.48752172  1
  In  In42  1  0.30362242  0.31389108  0.65578492  1
  In  In43  1  0.04064410  -0.03187912  -0.02251504  1
  In  In44  1  0.63736097  -0.00941176  0.66346785  1
  In  In45  1  0.12751244  0.17782420  0.31986312  1
  In  In46  1  0.83069384  0.83321412  0.00840186  1
  In  In47  1  0.66343375  0.51331284  0.17857797  1
  In  In48  1  0.66187160  0.15968587  0.16844781  1
  In  In49  1  0.17039964  0.35247367  0.47751624  1
  In  In50  1  0.35186036  0.81851422  0.51601942  1
  In  In51  1  0.11999538  0.51143357  0.63182096  1
  In  In52  1  -0.02555724  0.18115898  0.84679635  1
  In  In53  1  0.17819701  0.51557824  0.03618287  1
  In  In54  1  0.31833687  0.69290047  0.30887482  1
  In  In55  1  0.66174581  0.80987975  0.14010806  1
  In  In56  1  0.50737329  0.51134497  0.32727693  1
  In  In57  1  0.30156729  0.31580317  0.01467896  1
  In  In58  1  0.51154270  0.36010468  0.48247086  1
  In  In59  1  0.00273828  0.48179457  0.81739766  1
  In  In60  1  0.20194158  -0.02467488  0.50198368  1
  In  In61  1  0.71451062  0.49654838  0.48619944  1
  In  In62  1  0.66278155  0.34331236  0.00435349  1
  In  In63  1  0.82025642  -0.01645959  0.17834673  1
  In  In64  1  0.12671645  0.67610236  0.81309046  1
  In  In65  1  0.69338892  0.35898633  0.64702419  1
  In  In66  1  0.82591187  0.31004363  0.83630873  1
  In  In67  1  0.68350954  0.65874612  0.35887517  1
  In  In68  1  0.02088736  0.20091332  0.15651429  1
  In  In69  1  0.17122369  -0.02332199  0.13809838  1
  In  In70  1  0.83732386  0.67613082  0.84003053  1
  In  In71  1  0.86564848  0.36069264  0.18155096  1
  Te  Te72  1  0.06699043  0.07932006  0.08268237  1
  Te  Te73  1  0.09442726  0.06813575  0.43578261  1
  Te  Te74  1  0.06968560  0.08367110  0.76862960  1
  Te  Te75  1  0.11058423  0.40707071  0.11013584  1
  Te  Te76  1  0.08761046  0.45408690  0.40744444  1
  Te  Te77  1  0.08371885  0.40371422  0.72362196  1
  Te  Te78  1  0.10438642  0.76454728  0.07950643  1
  Te  Te79  1  0.09978538  0.76088978  0.39575310  1
  Te  Te80  1  0.03456204  0.76289149  0.74078463  1
  Te  Te81  1  0.42689184  0.06419719  0.03266823  1
  Te  Te82  1  0.43019643  0.07132347  0.43293945  1
  Te  Te83  1  0.40724450  0.09870155  0.75653029  1
  Te  Te84  1  0.39693952  0.41245082  0.08952575  1
  Te  Te85  1  0.39854450  0.39997001  0.38144542  1
  Te  Te86  1  0.40549890  0.41872460  0.74665680  1
  Te  Te87  1  0.38054544  0.77395027  0.08064165  1
  Te  Te88  1  0.42695885  0.73668104  0.41122146  1
  Te  Te89  1  0.42693611  0.75724363  0.75152118  1
  Te  Te90  1  0.72519777  0.05177657  0.08032739  1
  Te  Te91  1  0.76065685  0.09397095  0.38767077  1
  Te  Te92  1  0.76697035  0.08007016  0.75673655  1
  Te  Te93  1  0.75873499  0.42930882  0.08480054  1
  Te  Te94  1  0.75621663  0.41173067  0.37603878  1
  Te  Te95  1  0.76388689  0.43166450  0.76028290  1
  Te  Te96  1  0.77245476  0.72697029  0.09232838  1
  Te  Te97  1  0.77144902  0.73701741  0.44832581  1
  Te  Te98  1  0.76264239  0.77508775  0.75949719  1
  Te  Te99  1  0.05519713  0.29429006  0.26532888  1
  Te  Te100  1  0.10661007  0.25062393  0.57531169  1
  Te  Te101  1  0.08446455  0.25290405  0.91259812  1
  Te  Te102  1  0.06856416  0.59625338  0.23485052  1
  Te  Te103  1  0.04447899  0.62086042  0.56852140  1
  Te  Te104  1  0.07710746  0.56442025  0.92228150  1
  Te  Te105  1  0.09647610  0.91440424  0.25601353  1
  Te  Te106  1  0.09517324  0.91539778  0.59166248  1
  Te  Te107  1  0.15208084  0.90398664  0.90534418  1
  Te  Te108  1  0.39676920  0.21574587  0.22556534  1
  Te  Te109  1  0.42211595  0.25986580  0.57551602  1
  Te  Te110  1  0.40567160  0.23787960  0.93301215  1
  Te  Te111  1  0.40596976  0.58277437  0.23889300  1
  Te  Te112  1  0.41455155  0.58730076  0.58191799  1
  Te  Te113  1  0.40615940  0.60362204  0.92965130  1
  Te  Te114  1  0.40620127  0.92289459  0.23498002  1
  Te  Te115  1  0.43579397  0.92153748  0.58155593  1
  Te  Te116  1  0.39425325  0.91234246  0.91445301  1
  Te  Te117  1  0.76140352  0.25742965  0.23035431  1
  Te  Te118  1  0.75092969  0.26193023  0.55471507  1
  Te  Te119  1  0.73469505  0.22739952  0.92762557  1
  Te  Te120  1  0.76592228  0.59650932  0.24952343  1
  Te  Te121  1  0.77316506  0.59352499  0.57942805  1
  Te  Te122  1  0.74228363  0.58457207  0.91904771  1
  Te  Te123  1  0.74193029  0.88226177  0.25603056  1
  Te  Te124  1  0.75640543  0.92844843  0.58355526  1
  Te  Te125  1  0.72738877  0.91004147  0.93481868  1
  Te  Te126  1  0.22459738  0.22844042  0.10350358  1
  Te  Te127  1  0.24514182  0.24896045  0.39327567  1
  Te  Te128  1  0.25099603  0.24498780  0.77793637  1
  Te  Te129  1  0.26608572  0.59726223  0.12429860  1
  Te  Te130  1  0.24257796  0.62487749  0.42361565  1
  Te  Te131  1  0.22628150  0.56825973  0.74366284  1
  Te  Te132  1  0.29874920  0.90588452  0.11362095  1
  Te  Te133  1  0.27041201  0.89336236  0.39897573  1
  Te  Te134  1  0.23545422  0.89760302  0.75395939  1
  Te  Te135  1  0.57270596  0.25231571  0.08492574  1
  Te  Te136  1  0.59044724  0.26192929  0.40867075  1
  Te  Te137  1  0.60269937  0.25807984  0.74583896  1
  Te  Te138  1  0.57915540  0.59381004  0.08144009  1
  Te  Te139  1  0.58655404  0.57318372  0.43927091  1
  Te  Te140  1  0.62187571  0.62915164  0.71282427  1
  Te  Te141  1  0.55948687  0.90874198  0.10786537  1
  Te  Te142  1  0.58748250  0.90312571  0.43063680  1
  Te  Te143  1  0.59145865  0.90348046  0.76953160  1
  Te  Te144  1  0.90754807  0.26220979  0.06447757  1
  Te  Te145  1  0.92153114  0.29993050  0.43066759  1
  Te  Te146  1  0.92659218  0.26802043  0.72912381  1
  Te  Te147  1  0.95692384  0.56158872  0.11602551  1
  Te  Te148  1  0.96549884  0.55407769  0.45341758  1
  Te  Te149  1  0.92869619  0.59402703  0.74754457  1
  Te  Te150  1  0.92860121  0.92231930  0.08987694  1
  Te  Te151  1  0.91288842  0.91291822  0.38553967  1
  Te  Te152  1  0.95736664  0.89373714  0.77826407  1
  Te  Te153  1  0.22363846  0.08180696  0.24832012  1
  Te  Te154  1  0.26574601  0.07832938  0.59752322  1
  Te  Te155  1  0.20122684  0.04460777  0.93791140  1
  Te  Te156  1  0.27950321  0.42874384  0.28593403  1
  Te  Te157  1  0.26405211  0.43441710  0.57245176  1
  Te  Te158  1  0.23714947  0.41900908  0.92361180  1
  Te  Te159  1  0.21404378  0.71698208  0.20100569  1
  Te  Te160  1  0.24594613  0.75705504  0.59735523  1
  Te  Te161  1  0.21949773  0.71823589  0.91991067  1
  Te  Te162  1  0.56998274  0.07685737  0.25540989  1
  Te  Te163  1  0.60889864  0.10101450  0.57296481  1
  Te  Te164  1  0.55548309  0.08180325  0.94357966  1
  Te  Te165  1  0.59391319  0.40563753  0.25941087  1
  Te  Te166  1  0.57312592  0.43640751  0.59942952  1
  Te  Te167  1  0.56495294  0.41531112  0.90472771  1
  Te  Te168  1  0.58204630  0.73130999  0.26261427  1
  Te  Te169  1  0.56640639  0.73191659  0.60963432  1
  Te  Te170  1  0.59190875  0.73938790  0.93126133  1
  Te  Te171  1  0.91417040  0.09825216  0.22948621  1
  Te  Te172  1  0.91953614  0.09323173  0.57366303  1
  Te  Te173  1  0.91316267  0.05817313  0.91849708  1
  Te  Te174  1  0.86475591  0.46698631  0.28686619  1
  Te  Te175  1  0.93308028  0.41664854  0.53818121  1
  Te  Te176  1  0.90271229  0.41722105  0.91882448  1
  Te  Te177  1  0.90482622  0.74048750  0.25542293  1
  Te  Te178  1  0.93777603  0.75240574  0.57535833  1
  Te  Te179  1  0.93393814  0.75742542  0.92596526  1
