# generated using pymatgen
data_In2Te3
_symmetry_space_group_name_H-M   'P 1'
_cell_length_a   18.77350771
_cell_length_b   18.77223698
_cell_length_c   18.77162313
_cell_angle_alpha   89.97427056
_cell_angle_beta   90.00453868
_cell_angle_gamma   89.92378396
_symmetry_Int_Tables_number   1
_chemical_formula_structural   In2Te3
_chemical_formula_sum   'In72 Te108'
_cell_volume   6615.50269183
_cell_formula_units_Z   36
loop_
 _symmetry_equiv_pos_site_id
 _symmetry_equiv_pos_as_xyz
  1  'x, y, z'
loop_
 _atom_site_type_symbol
 _atom_site_label
 _atom_site_symmetry_multiplicity
 _atom_site_fract_x
 _atom_site_fract_y
 _atom_site_fract_z
 _atom_site_occupancy
  In  In0  1  0.82343242  0.33055302  0.18353495  1
  In  In1  1  0.34396449  0.64796628  -0.00801025  1
  In  In2  1  0.32206532  -0.00095729  -0.01172609  1
  In  In3  1  0.18006189  0.32866585  0.84742909  1
  In  In4  1  0.68833966  0.66145064  0.67953983  1
  In  In5  1  0.15189547  0.67111250  0.49489684  1
  In  In6  1  0.66710457  0.82551349  0.50111484  1
  In  In7  1  0.82036266  0.82007129  0.69462617  1
  In  In8  1  -0.01888093  0.13809167  0.17691748  1
  In  In9  1  0.85162116  0.01335366  0.50394751  1
  In  In10  1  0.66878295  0.33279836  -0.01492155  1
  In  In11  1  0.01759875  0.82890969  0.49711550  1
  In  In12  1  0.36061304  0.19974999  0.53991815  1
  In  In13  1  0.17317954  0.51645206  0.66428172  1
  In  In14  1  0.67481093  0.82632833  0.14483570  1
  In  In15  1  0.84810239  0.53188444  0.00407772  1
  In  In16  1  0.82443920  0.63849482  0.49812234  1
  In  In17  1  0.65806555  0.21883012  0.50159638  1
  In  In18  1  0.52500731  0.34321899  0.79847121  1
  In  In19  1  0.35301235  0.64158162  0.67742968  1
  In  In20  1  0.16126151  0.17949989  0.67786753  1
  In  In21  1  0.51557247  0.49336040  0.33634669  1
  In  In22  1  -0.02374206  0.66166543  0.67436272  1
  In  In23  1  0.69085495  0.00179852  -0.00810255  1
  In  In24  1  0.16371782  0.33846228  0.13974960  1
  In  In25  1  0.50737328  0.00047008  0.84281518  1
  In  In26  1  0.47846671  0.81042347  0.31772965  1
  In  In27  1  0.31641674  0.00948597  0.68109506  1
  In  In28  1  0.53644451  -0.00931189  0.15385325  1
  In  In29  1  0.66271242  0.50695288  0.17643233  1
  In  In30  1  -0.01879399  0.34044406  0.34380975  1
  In  In31  1  0.00030117  0.34744785  -0.00489833  1
  In  In32  1  0.67617072  0.00279591  0.34434282  1
  In  In33  1  0.35195542  0.82499146  0.49536082  1
  In  In34  1  0.15768972  0.17219246  0.33612495  1
  In  In35  1  0.51319581  0.83061879  0.68102966  1
  In  In36  1  0.16415098  0.82516018  0.00752650  1
  In  In37  1  0.83872150  0.34109454  0.49919691  1
  In  In38  1  -0.00742596  0.82603254  0.17556965  1
  In  In39  1  -0.02101980  0.83547249  0.84018308  1
  In  In40  1  -0.00293007  0.15903057  0.82015059  1
  In  In41  1  0.14618087  0.84461944  0.31956730  1
  In  In42  1  -0.01343724  0.50233064  0.82581629  1
  In  In43  1  0.83113803  0.81109191  -0.00469615  1
  In  In44  1  0.18365958  0.85422047  0.66426547  1
  In  In45  1  0.32497843  0.18118844  0.18577987  1
  In  In46  1  0.13865230  0.01459974  0.48677010  1
  In  In47  1  0.34295125  0.35068083  0.00656913  1
  In  In48  1  0.34002316  0.02443796  0.36224167  1
  In  In49  1  0.33998440  0.34836512  0.32137039  1
  In  In50  1  0.33354332  0.15744669  0.83836973  1
  In  In51  1  0.16277392  0.66190647  0.83646662  1
  In  In52  1  0.34110557  0.84085375  0.14698794  1
  In  In53  1  0.64553148  0.47904702  0.51104791  1
  In  In54  1  0.15674776  0.34022408  0.49742006  1
  In  In55  1  -0.00481985  0.33195995  0.64489432  1
  In  In56  1  0.13104391  0.65784995  0.18040674  1
  In  In57  1  0.66452899  0.00830069  0.68908221  1
  In  In58  1  0.82440398  0.50014139  0.32782862  1
  In  In59  1  0.00230145  0.00217461  0.00786399  1
  In  In60  1  0.68641030  0.49026086  0.82766523  1
  In  In61  1  0.32119629  0.67236717  0.35042810  1
  In  In62  1  0.83123163  0.82196985  0.32322507  1
  In  In63  1  0.82071016  0.17218496  0.65716290  1
  In  In64  1  0.50100608  0.16009641  0.00123288  1
  In  In65  1  0.81313984  0.18203458  -0.01716383  1
  In  In66  1  0.34005361  0.50059554  0.50508888  1
  In  In67  1  0.68021211  0.17990479  0.16742431  1
  In  In68  1  0.50356458  0.02667800  0.49650696  1
  In  In69  1  0.32405197  0.49161239  0.15970480  1
  In  In70  1  0.51649178  0.65038527  0.15868984  1
  In  In71  1  0.51390361  0.67126994  0.85232994  1
  Te  Te72  1  0.08671765  0.09843088  0.08237224  1
  Te  Te73  1  0.04499131  0.08532403  0.39209339  1
  Te  Te74  1  0.09721515  0.07170112  0.75346410  1
  Te  Te75  1  0.09286507  0.44345946  0.06061547  1
  Te  Te76  1  0.07410330  0.43068646  0.41612755  1
  Te  Te77  1  0.08910973  0.40833879  0.74491106  1
  Te  Te78  1  0.05915761  0.73549965  0.06852225  1
  Te  Te79  1  0.06410054  0.73285476  0.38584063  1
  Te  Te80  1  0.08760006  0.74872031  0.73239681  1
  Te  Te81  1  0.41578849  0.07534337  0.09486443  1
  Te  Te82  1  0.44081795  0.13738399  0.40961274  1
  Te  Te83  1  0.43141449  0.08862679  0.74189138  1
  Te  Te84  1  0.43650663  0.42292535  0.09472732  1
  Te  Te85  1  0.43290208  0.40291377  0.43076995  1
  Te  Te86  1  0.43377738  0.42450785  0.71179619  1
  Te  Te87  1  0.43200595  0.74693246  0.07203294  1
  Te  Te88  1  0.44123454  0.71768532  0.43387220  1
  Te  Te89  1  0.40944600  0.75474025  0.76057340  1
  Te  Te90  1  0.77082201  0.08196908  0.09444801  1
  Te  Te91  1  0.74354262  0.10028380  0.43798919  1
  Te  Te92  1  0.76340304  0.08706897  0.76471364  1
  Te  Te93  1  0.76030574  0.41894356  0.07494734  1
  Te  Te94  1  0.73470273  0.40594406  0.40748849  1
  Te  Te95  1  0.73998950  0.37234439  0.75470979  1
  Te  Te96  1  0.74823318  0.71714331  0.07821250  1
  Te  Te97  1  0.74052731  0.73104073  0.40798296  1
  Te  Te98  1  0.74763893  0.73661690  0.79359105  1
  Te  Te99  1  0.07576071  0.25799723  0.23894840  1
  Te  Te100  1  0.07385331  0.22929001  0.56281779  1
  Te  Te101  1  0.08121464  0.24016061  0.92145179  1
  Te  Te102  1  0.02824944  0.56496814  0.23495818  1
  Te  Te103  1  0.06331082  0.57830844  0.57838032  1
  Te  Te104  1  0.07926601  0.57141895  0.91836191  1
  Te  Te105  1  0.07007861  0.93863102  0.23645514  1
  Te  Te106  1  0.07051956  0.93248665  0.59694888  1
  Te  Te107  1  0.08685471  0.91598838  0.91168752  1
  Te  Te108  1  0.43137794  0.26903142  0.23554201  1
  Te  Te109  1  0.46893602  0.27906507  0.61763335  1
  Te  Te110  1  0.42827565  0.25850175  0.90783137  1
  Te  Te111  1  0.40802149  0.58593216  0.25553734  1
  Te  Te112  1  0.44339100  0.57465386  0.58169458  1
  Te  Te113  1  0.42805241  0.56274533  0.90655330  1
  Te  Te114  1  0.41157745  0.93117542  0.25294970  1
  Te  Te115  1  0.42505403  0.92099099  0.58978582  1
  Te  Te116  1  0.41393499  0.91057653  0.91402624  1
  Te  Te117  1  0.75959116  0.23809861  0.27796410  1
  Te  Te118  1  0.73311499  0.29835862  0.61477115  1
  Te  Te119  1  0.74027555  0.25977626  0.87460905  1
  Te  Te120  1  0.76876291  0.59868392  0.22976300  1
  Te  Te121  1  0.75265536  0.54825326  0.59809198  1
  Te  Te122  1  0.74472815  0.59578644  0.91637422  1
  Te  Te123  1  0.75124043  0.92218135  0.23843466  1
  Te  Te124  1  0.74611137  0.92353937  0.58496809  1
  Te  Te125  1  0.77062204  0.91407739  0.90471264  1
  Te  Te126  1  0.25361049  0.23973330  0.06461927  1
  Te  Te127  1  0.26038572  0.25106487  0.41852698  1
  Te  Te128  1  0.27088969  0.26141455  0.74254995  1
  Te  Te129  1  0.23714934  0.59343962  0.08696798  1
  Te  Te130  1  0.23195398  0.56758719  0.41432678  1
  Te  Te131  1  0.26608309  0.56330731  0.77538736  1
  Te  Te132  1  0.23099688  0.93127329  0.09379890  1
  Te  Te133  1  0.24057805  0.90626966  0.42750358  1
  Te  Te134  1  0.25859853  0.91362981  0.77627950  1
  Te  Te135  1  0.57919546  0.26043478  0.08601306  1
  Te  Te136  1  0.54533415  0.25318412  0.41348608  1
  Te  Te137  1  0.56874694  0.22446625  0.72065665  1
  Te  Te138  1  0.59442829  0.57274946  0.06155972  1
  Te  Te139  1  0.60312499  0.58376323  0.41372361  1
  Te  Te140  1  0.58440946  0.57750382  0.75236203  1
  Te  Te141  1  0.57780539  0.89676894  0.03859505  1
  Te  Te142  1  0.57037009  0.90736586  0.41261984  1
  Te  Te143  1  0.60655710  0.89884750  0.77921793  1
  Te  Te144  1  0.91244141  0.24941640  0.08179551  1
  Te  Te145  1  0.91178269  0.23719703  0.42316400  1
  Te  Te146  1  0.91176176  0.26359188  0.75117012  1
  Te  Te147  1  0.95284947  0.57659566  0.10003212  1
  Te  Te148  1  0.92397814  0.57256610  0.41179444  1
  Te  Te149  1  0.88272079  0.57865246  0.75180746  1
  Te  Te150  1  0.90548505  0.91426094  0.08527628  1
  Te  Te151  1  0.91999216  0.91133381  0.41030248  1
  Te  Te152  1  0.91168116  0.92409649  0.74330766  1
  Te  Te153  1  0.24153463  0.07320695  0.25456915  1
  Te  Te154  1  0.25320119  0.08573274  0.56432194  1
  Te  Te155  1  0.22882557  0.08590689  0.91308218  1
  Te  Te156  1  0.22465606  0.42302476  0.25397343  1
  Te  Te157  1  0.25514433  0.40815483  0.59334595  1
  Te  Te158  1  0.25243764  0.43278806  0.92268690  1
  Te  Te159  1  0.24994373  0.75255408  0.23767862  1
  Te  Te160  1  0.25760290  0.73564405  0.58575462  1
  Te  Te161  1  0.25924571  0.75172526  0.91460916  1
  Te  Te162  1  0.58545128  0.09015015  0.25643932  1
  Te  Te163  1  0.59316309  0.10310372  0.59136540  1
  Te  Te164  1  0.60488780  0.09920704  0.90907117  1
  Te  Te165  1  0.59643457  0.40056119  0.25433717  1
  Te  Te166  1  0.55597576  0.41228377  0.61603097  1
  Te  Te167  1  0.57258361  0.42803064  0.91598516  1
  Te  Te168  1  0.59603291  0.74399418  0.25124122  1
  Te  Te169  1  0.58552309  0.73259044  0.58920652  1
  Te  Te170  1  0.57220656  0.77638709  0.93694250  1
  Te  Te171  1  0.92656198  0.06499484  0.29081363  1
  Te  Te172  1  0.93216673  0.09375795  0.59758907  1
  Te  Te173  1  0.90650252  0.08088182  0.91522676  1
  Te  Te174  1  0.93306945  0.42631739  0.22521673  1
  Te  Te175  1  0.91684296  0.43843559  0.57915433  1
  Te  Te176  1  0.89292981  0.41553802  0.91235350  1
  Te  Te177  1  0.89537159  0.72540336  0.23014384  1
  Te  Te178  1  0.90088577  0.75864526  0.57095873  1
  Te  Te179  1  0.91955628  0.72273597  0.91181444  1
