# generated using pymatgen
data_In2Te3
_symmetry_space_group_name_H-M   'P 1'
_cell_length_a   18.81448634
_cell_length_b   18.82139703
_cell_length_c   18.81669762
_cell_angle_alpha   89.97441379
_cell_angle_beta   90.10255462
_cell_angle_gamma   89.94462062
_symmetry_Int_Tables_number   1
_chemical_formula_structural   In2Te3
_chemical_formula_sum   'In72 Te108'
_cell_volume   6663.25886467
_cell_formula_units_Z   36
loop_
 _symmetry_equiv_pos_site_id
 _symmetry_equiv_pos_as_xyz
  1  'x, y, z'
loop_
 _atom_site_type_symbol
 _atom_site_label
 _atom_site_symmetry_multiplicity
 _atom_site_fract_x
 _atom_site_fract_y
 _atom_site_fract_z
 _atom_site_occupancy
  In  In0  1  0.65425744  0.84374756  0.83765445  1
  In  In1  1  0.16481767  0.34626735  0.50952566  1
  In  In2  1  0.82097056  0.49470668  0.02460529  1
  In  In3  1  0.49474710  0.47799429  -0.00279584  1
  In  In4  1  -0.03794080  0.19674401  0.13680709  1
  In  In5  1  -0.02690280  0.17159353  0.47111571  1
  In  In6  1  0.50639910  0.19098545  0.02235342  1
  In  In7  1  0.84689100  0.04355261  0.83311027  1
  In  In8  1  0.66583180  0.66050742  0.04993089  1
  In  In9  1  0.15085199  0.69017062  0.45671288  1
  In  In10  1  0.01833968  0.01471959  0.65115538  1
  In  In11  1  0.51363013  0.63852624  0.83713767  1
  In  In12  1  -0.00478247  0.63840117  0.01104616  1
  In  In13  1  0.32094242  0.17773555  0.84668708  1
  In  In14  1  0.49813800  0.33470340  0.47211294  1
  In  In15  1  0.70535704  0.20097795  0.17170382  1
  In  In16  1  0.52485650  0.16483220  0.34556645  1
  In  In17  1  0.32664496  0.80753098  0.83872753  1
  In  In18  1  0.82000072  0.01040802  0.17123210  1
  In  In19  1  0.65450815  -0.01402960  0.33919254  1
  In  In20  1  0.49963478  -0.00890782  0.82181435  1
  In  In21  1  0.34119318  0.64900748  0.66141708  1
  In  In22  1  0.00394330  0.49755084  0.82341499  1
  In  In23  1  0.37368826  -0.02116088  0.65009711  1
  In  In24  1  0.83725658  0.83279090  0.00658788  1
  In  In25  1  0.66418273  0.50774103  0.48785172  1
  In  In26  1  0.16655539  0.49192023  -0.00071775  1
  In  In27  1  -0.01385141  0.34151418  0.35667264  1
  In  In28  1  0.81921731  0.49959001  0.33722712  1
  In  In29  1  0.82317159  0.82575461  0.66548643  1
  In  In30  1  0.83963906  -0.00557806  0.47336667  1
  In  In31  1  0.81196647  0.65685078  0.87053052  1
  In  In32  1  0.17728414  0.67521876  0.17244816  1
  In  In33  1  0.68920639  0.18606616  0.82296566  1
  In  In34  1  -0.01274457  -0.00892093  0.31720804  1
  In  In35  1  0.32672811  0.34800075  0.00273487  1
  In  In36  1  0.49347786  0.82026540  0.03869863  1
  In  In37  1  0.64332886  -0.00044302  0.00503248  1
  In  In38  1  0.50273401  0.65462258  0.49687180  1
  In  In39  1  0.32770137  0.18687084  0.15053847  1
  In  In40  1  0.53048940  0.16350566  0.64815923  1
  In  In41  1  0.29901892  -0.01817214  -0.00551145  1
  In  In42  1  0.37045883  0.36545840  0.69082795  1
  In  In43  1  0.14841144  0.00287407  0.82064067  1
  In  In44  1  0.83701499  0.48865649  0.64897782  1
  In  In45  1  0.67013244  0.34127734  0.67169288  1
  In  In46  1  0.82232509  0.64855574  0.46657912  1
  In  In47  1  0.15242868  -0.02822838  0.15366036  1
  In  In48  1  0.33679653  0.16885877  0.47819481  1
  In  In49  1  0.17725562  0.34762974  0.17350483  1
  In  In50  1  -0.02408108  0.79945988  0.19685769  1
  In  In51  1  0.16607238  0.16132118  0.66564397  1
  In  In52  1  0.17912635  0.82752635  0.65183763  1
  In  In53  1  0.18034014  0.49393726  0.67858367  1
  In  In54  1  0.66998143  0.17155394  0.50938060  1
  In  In55  1  0.02111605  0.84416209  0.81624497  1
  In  In56  1  0.85312140  0.32593478  0.83622396  1
  In  In57  1  0.00024485  0.68027897  0.66498795  1
  In  In58  1  0.34278316  -0.02171239  0.32884308  1
  In  In59  1  0.13135552  0.32105372  0.84880321  1
  In  In60  1  0.33793873  0.68094494  0.02098594  1
  In  In61  1  -0.00119526  0.01420322  -0.01100806  1
  In  In62  1  0.00945063  0.51531978  0.16288915  1
  In  In63  1  0.49196755  -0.00485273  0.17400384  1
  In  In64  1  0.34430197  0.65128089  0.33105061  1
  In  In65  1  0.14922884  0.15093968  0.31608823  1
  In  In66  1  -0.00576328  0.50149460  0.50263265  1
  In  In67  1  0.50878563  0.83882206  0.63987375  1
  In  In68  1  0.67326082  0.80464982  0.48386188  1
  In  In69  1  0.53140857  0.36558580  0.20485285  1
  In  In70  1  0.18110066  -0.03930753  0.49673503  1
  In  In71  1  0.33985705  0.36021641  0.32477748  1
  Te  Te72  1  0.07357958  0.09016106  0.10050954  1
  Te  Te73  1  0.08414975  0.06537369  0.42473047  1
  Te  Te74  1  0.05409882  0.11244348  0.76642838  1
  Te  Te75  1  0.07058839  0.40382950  0.07641206  1
  Te  Te76  1  0.09691881  0.43394047  0.40676578  1
  Te  Te77  1  0.07131713  0.39852209  0.73012366  1
  Te  Te78  1  0.06827917  0.74758020  0.08679967  1
  Te  Te79  1  0.04994287  0.78849682  0.41547409  1
  Te  Te80  1  0.11117594  0.73797852  0.75495684  1
  Te  Te81  1  0.40878705  0.07867788  0.06735916  1
  Te  Te82  1  0.43273781  0.06753522  0.41852783  1
  Te  Te83  1  0.40819728  0.09445401  0.75029838  1
  Te  Te84  1  0.41298332  0.40627096  0.11172899  1
  Te  Te85  1  0.42676093  0.44552430  0.40599355  1
  Te  Te86  1  0.45883578  0.45283741  0.77579079  1
  Te  Te87  1  0.41813460  0.73573166  0.13852741  1
  Te  Te88  1  0.43758783  0.74702824  0.40015131  1
  Te  Te89  1  0.43937302  0.75373386  0.75284413  1
  Te  Te90  1  0.74580456  0.09321153  0.06713386  1
  Te  Te91  1  0.74663116  0.08975335  0.40015444  1
  Te  Te92  1  0.74499991  0.08197540  0.73435595  1
  Te  Te93  1  0.74582620  0.40610625  0.11799480  1
  Te  Te94  1  0.78593078  0.42212660  0.46311881  1
  Te  Te95  1  0.76063991  0.42605800  0.76336507  1
  Te  Te96  1  0.76596381  0.75825417  0.11354912  1
  Te  Te97  1  0.74947054  0.73982205  0.37009171  1
  Te  Te98  1  0.73914084  0.74059254  0.76359040  1
  Te  Te99  1  0.06622891  0.25807811  0.24614538  1
  Te  Te100  1  0.07622336  0.23824936  0.56850766  1
  Te  Te101  1  0.02225641  0.24041891  0.91055897  1
  Te  Te102  1  0.08182800  0.60076229  0.25854628  1
  Te  Te103  1  0.09122256  0.58632587  0.58585081  1
  Te  Te104  1  0.09393936  0.58946419  0.90609068  1
  Te  Te105  1  0.08658897  0.88821645  0.26151360  1
  Te  Te106  1  0.06472261  0.89319652  0.57458765  1
  Te  Te107  1  0.09633781  0.91030189  0.93147361  1
  Te  Te108  1  0.42579039  0.24392764  0.25461900  1
  Te  Te109  1  0.41498553  0.25028320  0.58074910  1
  Te  Te110  1  0.42383485  0.26599323  0.91707733  1
  Te  Te111  1  0.43430532  0.60149499  0.21782265  1
  Te  Te112  1  0.42884492  0.56003826  0.58448879  1
  Te  Te113  1  0.40253171  0.58238493  0.92431081  1
  Te  Te114  1  0.44378265  0.88852727  0.26516169  1
  Te  Te115  1  0.40744103  0.88567154  0.54249356  1
  Te  Te116  1  0.42300371  0.90808685  0.92399266  1
  Te  Te117  1  0.78581239  0.29196066  0.25739221  1
  Te  Te118  1  0.75707044  0.24030429  0.60702915  1
  Te  Te119  1  0.74771483  0.27057646  0.92651737  1
  Te  Te120  1  0.71575053  0.55893295  0.24257898  1
  Te  Te121  1  0.74692507  0.59330207  0.58832538  1
  Te  Te122  1  0.71440778  0.56467145  0.93863852  1
  Te  Te123  1  0.75174305  0.91208019  0.25681600  1
  Te  Te124  1  0.74714967  0.91256279  0.56482561  1
  Te  Te125  1  0.75649340  0.92988925  0.91605420  1
  Te  Te126  1  0.22301616  0.25117216  0.06170176  1
  Te  Te127  1  0.23598524  0.25140545  0.39853125  1
  Te  Te128  1  0.24903225  0.26437218  0.74205673  1
  Te  Te129  1  0.25609244  0.56987272  0.09268025  1
  Te  Te130  1  0.25147212  0.58741956  0.42989442  1
  Te  Te131  1  0.25827967  0.58463598  0.76444813  1
  Te  Te132  1  0.26867310  0.89436990  0.10787739  1
  Te  Te133  1  0.24948205  0.87950362  0.39277924  1
  Te  Te134  1  0.25902573  0.92502601  0.74878106  1
  Te  Te135  1  0.60069801  0.28731972  0.09017031  1
  Te  Te136  1  0.61702206  0.27059240  0.40160671  1
  Te  Te137  1  0.57031043  0.25884652  0.75703205  1
  Te  Te138  1  0.54453207  0.57738925  0.10191910  1
  Te  Te139  1  0.59048834  0.59256137  0.38770536  1
  Te  Te140  1  0.58995814  0.54126140  0.75712134  1
  Te  Te141  1  0.60140725  0.90157476  0.11092507  1
  Te  Te142  1  0.57267490  0.87806759  0.40015757  1
  Te  Te143  1  0.59943993  0.93145469  0.72498595  1
  Te  Te144  1  0.84179327  0.28757924  0.09852315  1
  Te  Te145  1  0.87174385  0.25164626  0.39613759  1
  Te  Te146  1  0.94520462  0.23233998  0.76740991  1
  Te  Te147  1  0.88964197  0.59969865  0.11135575  1
  Te  Te148  1  0.94084059  0.58885585  0.38882501  1
  Te  Te149  1  0.90716438  0.59712304  0.75510725  1
  Te  Te150  1  0.92725028  0.92242214  0.09419582  1
  Te  Te151  1  0.92657155  0.88807289  0.40940939  1
  Te  Te152  1  0.91261664  0.92514851  0.74602409  1
  Te  Te153  1  0.25996354  0.07846634  0.23978045  1
  Te  Te154  1  0.25694545  0.07558571  0.57643053  1
  Te  Te155  1  0.22069701  0.09332969  0.92347411  1
  Te  Te156  1  0.24644470  0.44922237  0.25327711  1
  Te  Te157  1  0.27431822  0.42232662  0.58029438  1
  Te  Te158  1  0.24479788  0.41535601  0.89300302  1
  Te  Te159  1  0.24896575  0.75719125  0.27505151  1
  Te  Te160  1  0.25959704  0.73582898  0.56471063  1
  Te  Te161  1  0.23667318  0.75742123  0.94210014  1
  Te  Te162  1  0.59380829  0.09886025  0.22616304  1
  Te  Te163  1  0.57714926  0.06303298  0.55320795  1
  Te  Te164  1  0.57038031  0.09522822  0.91044107  1
  Te  Te165  1  0.60951187  0.45726094  0.29491435  1
  Te  Te166  1  0.57805825  0.41655079  0.57580003  1
  Te  Te167  1  0.57259025  0.42670043  0.88082668  1
  Te  Te168  1  0.63136841  0.69705586  0.19290893  1
  Te  Te169  1  0.59920431  0.72690524  0.59337110  1
  Te  Te170  1  0.58228237  0.74873302  0.93319552  1
  Te  Te171  1  0.91136464  0.10397413  0.24997654  1
  Te  Te172  1  0.90487971  0.08654074  0.57891235  1
  Te  Te173  1  0.90883797  0.12604318  0.94186116  1
  Te  Te174  1  0.91867448  0.42312475  0.24620901  1
  Te  Te175  1  0.91785264  0.39173396  0.57089994  1
  Te  Te176  1  0.92354003  0.42876720  0.93180730  1
  Te  Te177  1  0.88455019  0.73000929  0.28836154  1
  Te  Te178  1  0.90197301  0.74056854  0.56712427  1
  Te  Te179  1  0.92709080  0.75533903  0.90822052  1
