# generated using pymatgen
data_In2Te3
_symmetry_space_group_name_H-M   'P 1'
_cell_length_a   18.93470532
_cell_length_b   18.93360969
_cell_length_c   18.93178347
_cell_angle_alpha   89.86126725
_cell_angle_beta   90.07628026
_cell_angle_gamma   89.97836242
_symmetry_Int_Tables_number   1
_chemical_formula_structural   In2Te3
_chemical_formula_sum   'In72 Te108'
_cell_volume   6787.06189652
_cell_formula_units_Z   36
loop_
 _symmetry_equiv_pos_site_id
 _symmetry_equiv_pos_as_xyz
  1  'x, y, z'
loop_
 _atom_site_type_symbol
 _atom_site_label
 _atom_site_symmetry_multiplicity
 _atom_site_fract_x
 _atom_site_fract_y
 _atom_site_fract_z
 _atom_site_occupancy
  In  In0  1  0.14684661  0.03180727  0.83523322  1
  In  In1  1  0.65500008  0.83952564  0.85602893  1
  In  In2  1  0.87031731  0.18026255  0.63333859  1
  In  In3  1  0.85827411  0.18156010  0.01244967  1
  In  In4  1  0.83406233  0.68977493  0.84242353  1
  In  In5  1  0.85898377  0.03388915  0.83423800  1
  In  In6  1  0.04743896  0.26960267  0.70146641  1
  In  In7  1  0.84730300  0.00535051  0.18089526  1
  In  In8  1  0.35915887  0.63797709  -0.02074010  1
  In  In9  1  0.65218783  0.64432727  -0.00657846  1
  In  In10  1  0.82981391  0.83416528  0.33615842  1
  In  In11  1  0.48839596  0.16625933  0.68665721  1
  In  In12  1  0.16628545  0.83953503  0.35727285  1
  In  In13  1  0.51469403  0.34347514  0.15666297  1
  In  In14  1  0.02375968  0.50839786  0.50187557  1
  In  In15  1  0.49648728  -0.01307694  0.48927155  1
  In  In16  1  0.48970940  0.84886444  -0.01040007  1
  In  In17  1  0.30418031  0.47971965  0.53051330  1
  In  In18  1  0.48636786  0.77579180  0.58849459  1
  In  In19  1  0.68202428  0.34045319  0.66751592  1
  In  In20  1  0.86827910  0.50793030  0.31147742  1
  In  In21  1  0.31843964  0.15499621  0.14380728  1
  In  In22  1  0.83392793  0.14960517  0.29824553  1
  In  In23  1  0.42293144  0.48466946  0.72785059  1
  In  In24  1  0.01787546  0.82612992  0.85108363  1
  In  In25  1  0.47781648  0.80965507  0.35365857  1
  In  In26  1  0.84855693  0.34006701  0.49806188  1
  In  In27  1  0.32920277  0.64981029  0.67380357  1
  In  In28  1  0.83143062  0.49757220  0.01838435  1
  In  In29  1  0.49563085  0.16505464  0.31777834  1
  In  In30  1  0.48592250  0.49730758  0.31421690  1
  In  In31  1  0.32307049  0.01060843  0.67119297  1
  In  In32  1  0.31863713  0.83568797  0.18976478  1
  In  In33  1  0.31012901  0.16814061  0.52897668  1
  In  In34  1  0.81677062  0.50237939  0.66818450  1
  In  In35  1  0.00075132  0.83687222  0.16256016  1
  In  In36  1  0.01676330  0.35475147  0.01366961  1
  In  In37  1  0.14124898  0.16238661  0.02739111  1
  In  In38  1  0.48218343  0.01362763  0.83236307  1
  In  In39  1  0.82430809  0.83975359  0.68172250  1
  In  In40  1  0.00735677  0.66735522  0.64628852  1
  In  In41  1  0.82345354  0.84021585  -0.00918160  1
  In  In42  1  0.14862578  0.85024361  0.63696778  1
  In  In43  1  0.49679906  0.65980859  0.15279361  1
  In  In44  1  0.18295456  0.83567067  0.02071591  1
  In  In45  1  0.35236482  0.36284736  -0.04004024  1
  In  In46  1  0.67217884  -0.01645071  0.68448908  1
  In  In47  1  0.17705508  0.33934320  0.84431060  1
  In  In48  1  0.00604928  0.34226275  0.33311823  1
  In  In49  1  0.00315635  0.50306783  0.85347795  1
  In  In50  1  0.16494681  0.33416244  0.16862515  1
  In  In51  1  0.64246088  -0.02366029  0.31341795  1
  In  In52  1  0.04767641  0.65383893  0.31108520  1
  In  In53  1  0.02646713  0.17351381  0.49320661  1
  In  In54  1  0.17623865  0.65744955  0.50000242  1
  In  In55  1  0.64672287  0.14992582  0.47505444  1
  In  In56  1  0.00106446  0.01759563  0.33304424  1
  In  In57  1  0.18409518  0.63367334  0.82641849  1
  In  In58  1  0.84815520  0.01799280  0.51209646  1
  In  In59  1  0.51617841  0.30056064  0.49427828  1
  In  In60  1  0.81414096  0.65462215  0.52882849  1
  In  In61  1  0.47941336  -0.00675013  0.14247097  1
  In  In62  1  0.32512517  0.50233505  0.15717639  1
  In  In63  1  0.66713784  0.50576752  0.47959444  1
  In  In64  1  0.66141268  0.15547530  0.83317492  1
  In  In65  1  0.83796663  0.67029278  0.14741569  1
  In  In66  1  0.32587280  0.32255948  0.35282892  1
  In  In67  1  0.68173608  0.19649076  0.14065214  1
  In  In68  1  0.34702083  0.82693066  0.80906231  1
  In  In69  1  0.65686686  0.35156277  -0.03256217  1
  In  In70  1  0.66051426  0.66469977  0.31591779  1
  In  In71  1  0.29914231  0.00505597  0.32476167  1
  Te  Te72  1  0.05343959  0.06969776  0.09681810  1
  Te  Te73  1  0.10208667  0.06536904  0.42938409  1
  Te  Te74  1  0.10716000  0.13016460  0.73129019  1
  Te  Te75  1  0.09973219  0.44941403  0.09535683  1
  Te  Te76  1  0.09976182  0.43199884  0.40267154  1
  Te  Te77  1  0.07427745  0.41470161  0.75729798  1
  Te  Te78  1  0.09874921  0.74741185  0.10174171  1
  Te  Te79  1  0.07107497  0.74311885  0.42992671  1
  Te  Te80  1  0.09445048  0.74393851  0.74800301  1
  Te  Te81  1  0.42284546  0.09860409  0.05874447  1
  Te  Te82  1  0.41686251  0.10237764  0.43081604  1
  Te  Te83  1  0.37772201  0.10888405  0.77343424  1
  Te  Te84  1  0.42921962  0.43504556  0.07092395  1
  Te  Te85  1  0.42758897  0.40822745  0.42574906  1
  Te  Te86  1  0.39523208  0.34480157  0.79129191  1
  Te  Te87  1  0.40220214  0.75840007  0.07895381  1
  Te  Te88  1  0.41611579  0.73725462  0.46346765  1
  Te  Te89  1  0.43742354  0.73357120  0.73646760  1
  Te  Te90  1  0.76233987  0.08309697  0.08022695  1
  Te  Te91  1  0.74543397  0.06143911  0.39812467  1
  Te  Te92  1  0.76613123  0.09510059  0.72586343  1
  Te  Te93  1  0.72881196  0.41293666  0.07978345  1
  Te  Te94  1  0.76911475  0.42611336  0.40212425  1
  Te  Te95  1  0.75849527  0.41327143  0.76831129  1
  Te  Te96  1  0.73292935  0.74987295  0.07209921  1
  Te  Te97  1  0.74654000  0.73785851  0.41777080  1
  Te  Te98  1  0.72533392  0.74971191  0.75460395  1
  Te  Te99  1  0.09613254  0.24622511  0.26531812  1
  Te  Te100  1  0.09336343  0.28872195  0.55968968  1
  Te  Te101  1  0.07764462  0.25305357  0.92107118  1
  Te  Te102  1  0.05761104  0.54910368  0.21011034  1
  Te  Te103  1  0.11448262  0.56826715  0.60906097  1
  Te  Te104  1  0.08254661  0.60109072  0.92608052  1
  Te  Te105  1  0.08752475  0.92043491  0.25384715  1
  Te  Te106  1  0.05365730  0.93829837  0.57430173  1
  Te  Te107  1  0.09347566  0.92483106  0.93466983  1
  Te  Te108  1  0.40841429  0.25733942  0.23471304  1
  Te  Te109  1  0.41163024  0.26146839  0.59577207  1
  Te  Te110  1  0.42868049  0.25217756  0.90293838  1
  Te  Te111  1  0.39726934  0.60247155  0.25161025  1
  Te  Te112  1  0.41819053  0.55927916  0.59050586  1
  Te  Te113  1  0.44710522  0.55829992  0.88785901  1
  Te  Te114  1  0.42465899  0.93584855  0.27397125  1
  Te  Te115  1  0.41617234  0.91839018  0.59579061  1
  Te  Te116  1  0.38525182  0.92941307  0.91515089  1
  Te  Te117  1  0.75586828  0.26246098  0.24797732  1
  Te  Te118  1  0.74113507  0.24075676  0.55964614  1
  Te  Te119  1  0.75270758  0.24239123  0.91591469  1
  Te  Te120  1  0.75474644  0.57808105  0.23521522  1
  Te  Te121  1  0.70130997  0.58970294  0.61172918  1
  Te  Te122  1  0.75599317  0.57759838  0.90632733  1
  Te  Te123  1  0.74553521  0.90154004  0.23033956  1
  Te  Te124  1  0.74955126  0.91754040  0.57261494  1
  Te  Te125  1  0.75361858  0.94327126  0.90426478  1
  Te  Te126  1  0.25721966  0.27175601  0.06590508  1
  Te  Te127  1  0.23308973  0.23268485  0.42061719  1
  Te  Te128  1  0.25972365  0.29154527  0.72859332  1
  Te  Te129  1  0.25616989  0.60545422  0.07765362  1
  Te  Te130  1  0.25066268  0.56032689  0.41951337  1
  Te  Te131  1  0.27715497  0.53471802  0.76481021  1
  Te  Te132  1  0.25597925  0.93367698  0.10185765  1
  Te  Te133  1  0.25589242  0.92489700  0.43812390  1
  Te  Te134  1  0.23175868  0.91613034  0.75565272  1
  Te  Te135  1  0.57176427  0.25095440  0.05196581  1
  Te  Te136  1  0.60217714  0.25829257  0.37748150  1
  Te  Te137  1  0.58460385  0.26177952  0.75637810  1
  Te  Te138  1  0.58469162  0.55922809  0.09244375  1
  Te  Te139  1  0.56567327  0.59289760  0.40986534  1
  Te  Te140  1  0.55906224  0.52928963  0.77045735  1
  Te  Te141  1  0.58525503  0.91827681  0.07576921  1
  Te  Te142  1  0.59221906  0.88900696  0.42628075  1
  Te  Te143  1  0.56321244  0.90884019  0.75513136  1
  Te  Te144  1  0.92305515  0.28075895  0.10309224  1
  Te  Te145  1  0.90786811  0.22740219  0.41341806  1
  Te  Te146  1  0.90795735  0.25908715  0.74828484  1
  Te  Te147  1  0.93652939  0.57195815  0.09550816  1
  Te  Te148  1  0.91466447  0.58860602  0.43230105  1
  Te  Te149  1  0.91456359  0.59937323  0.74694494  1
  Te  Te150  1  0.91933533  0.92629237  0.07097879  1
  Te  Te151  1  0.92108117  0.92023453  0.41953899  1
  Te  Te152  1  0.92650641  0.91388216  0.76648533  1
  Te  Te153  1  0.22785868  0.10863858  0.25008995  1
  Te  Te154  1  0.21228419  0.09057714  0.61111716  1
  Te  Te155  1  0.23322275  0.10554837  0.92750800  1
  Te  Te156  1  0.25193445  0.41989410  0.26123893  1
  Te  Te157  1  0.22964203  0.37459539  0.59994013  1
  Te  Te158  1  0.23809426  0.44894450  0.92233028  1
  Te  Te159  1  0.24939829  0.74483214  0.27977658  1
  Te  Te160  1  0.25284803  0.75405832  0.58772786  1
  Te  Te161  1  0.26313387  0.74092930  0.90373993  1
  Te  Te162  1  0.59339799  0.09211726  0.22793815  1
  Te  Te163  1  0.58041776  0.07769165  0.59408652  1
  Te  Te164  1  0.58311861  0.07008774  0.92220932  1
  Te  Te165  1  0.59451034  0.42608424  0.24782656  1
  Te  Te166  1  0.58857738  0.41036912  0.57043455  1
  Te  Te167  1  0.55985471  0.44750747  0.90337886  1
  Te  Te168  1  0.56970501  0.76114092  0.24101090  1
  Te  Te169  1  0.62186577  0.72406662  0.59176268  1
  Te  Te170  1  0.56028219  0.73625451  0.91382064  1
  Te  Te171  1  0.95999936  0.11205069  0.21171020  1
  Te  Te172  1  0.95875577  0.05861191  0.60826864  1
  Te  Te173  1  0.94915617  0.09767910  0.93029827  1
  Te  Te174  1  0.91423246  0.39376109  0.22717782  1
  Te  Te175  1  0.92486860  0.42869881  0.59144049  1
  Te  Te176  1  0.90785249  0.40828190  0.92068391  1
  Te  Te177  1  0.92195706  0.73781781  0.26245964  1
  Te  Te178  1  0.90915903  0.76243890  0.58117137  1
  Te  Te179  1  0.93179932  0.74307192  0.94493491  1
