# generated using pymatgen
data_In2Te3
_symmetry_space_group_name_H-M   'P 1'
_cell_length_a   18.96630087
_cell_length_b   18.96536543
_cell_length_c   18.98201988
_cell_angle_alpha   90.09488355
_cell_angle_beta   90.12603052
_cell_angle_gamma   90.02654096
_symmetry_Int_Tables_number   1
_chemical_formula_structural   In2Te3
_chemical_formula_sum   'In72 Te108'
_cell_volume   6827.85958345
_cell_formula_units_Z   36
loop_
 _symmetry_equiv_pos_site_id
 _symmetry_equiv_pos_as_xyz
  1  'x, y, z'
loop_
 _atom_site_type_symbol
 _atom_site_label
 _atom_site_symmetry_multiplicity
 _atom_site_fract_x
 _atom_site_fract_y
 _atom_site_fract_z
 _atom_site_occupancy
  In  In0  1  0.17807180  0.32343529  0.19056324  1
  In  In1  1  0.82509969  0.16677119  0.00875011  1
  In  In2  1  0.13538067  0.81583438  0.68787705  1
  In  In3  1  0.15296650  0.50954658  0.00501124  1
  In  In4  1  0.82784387  0.33517944  0.18390120  1
  In  In5  1  0.32455985  0.49433850  0.50791395  1
  In  In6  1  0.68588611  -0.00067115  0.02154979  1
  In  In7  1  -0.01674530  0.84278818  0.15501692  1
  In  In8  1  0.17345287  0.17894368  0.64875643  1
  In  In9  1  0.66229786  0.33809922  0.31835204  1
  In  In10  1  0.14108731  0.82404892  0.32347308  1
  In  In11  1  0.67627187  0.83522818  0.49308285  1
  In  In12  1  0.50260826  0.85500819  0.68434603  1
  In  In13  1  0.87097619  0.81268393  -0.01889720  1
  In  In14  1  0.34558908  0.15869667  0.14722998  1
  In  In15  1  0.49589106  0.15991050  0.33103348  1
  In  In16  1  0.00142726  0.64479512  0.34394899  1
  In  In17  1  0.82783650  0.53179646  0.00243250  1
  In  In18  1  0.66226413  0.01204832  0.67045082  1
  In  In19  1  0.82289552  -0.00060959  0.83533303  1
  In  In20  1  0.65469054  0.51318867  0.50251786  1
  In  In21  1  0.49078343  0.00138633  0.14729526  1
  In  In22  1  0.16211500  -0.00269429  0.83026369  1
  In  In23  1  0.50310917  0.31953907  0.17813828  1
  In  In24  1  0.49936023  0.81145946  0.33254618  1
  In  In25  1  0.46871366  0.86780230  -0.04093724  1
  In  In26  1  0.32015730  0.64699699  0.66120724  1
  In  In27  1  -0.01446863  0.18333009  0.80646305  1
  In  In28  1  0.31947592  0.62918651  0.36708957  1
  In  In29  1  0.30752891  0.82595410  0.16069603  1
  In  In30  1  0.85353446  0.34351842  0.83630318  1
  In  In31  1  0.32909048  0.48219590  0.18620844  1
  In  In32  1  0.13540972  0.66470764  0.16695431  1
  In  In33  1  0.48613029  0.65671200  0.83540602  1
  In  In34  1  0.33167466  0.16156414  0.83093730  1
  In  In35  1  0.15454678  0.16397167  0.34988232  1
  In  In36  1  0.47911153  0.31367621  0.52198427  1
  In  In37  1  0.17300132  0.32817000  0.49865377  1
  In  In38  1  0.84639686  0.00782262  0.47925797  1
  In  In39  1  0.48479667  0.49453109  0.68020455  1
  In  In40  1  0.33206916  0.32138815  -0.00423945  1
  In  In41  1  0.02423426  0.31374090  -0.01667185  1
  In  In42  1  0.67895659  -0.01989844  0.33356296  1
  In  In43  1  -0.02004752  0.13750304  0.18665123  1
  In  In44  1  0.65282799  0.15162688  0.83915237  1
  In  In45  1  0.67837566  0.68850466  0.66019409  1
  In  In46  1  -0.00891902  0.17233886  0.48560930  1
  In  In47  1  -0.02654437  0.48956244  0.18570994  1
  In  In48  1  0.66806483  0.68434825  -0.00636231  1
  In  In49  1  0.69349896  0.84627367  0.18245853  1
  In  In50  1  0.81335128  0.62831700  0.18954220  1
  In  In51  1  0.50270282  0.15820055  0.66782819  1
  In  In52  1  0.33621912  0.01254188  0.34332352  1
  In  In53  1  0.83246122  0.34058754  0.50747075  1
  In  In54  1  0.84504950  0.67171897  0.49981678  1
  In  In55  1  0.15376135  -0.00543802  0.14509671  1
  In  In56  1  0.68834752  0.32130388  0.67390244  1
  In  In57  1  0.00828115  0.53445580  0.83881345  1
  In  In58  1  0.32352067  0.02717630  0.66564703  1
  In  In59  1  0.33064990  0.84366920  0.51137048  1
  In  In60  1  0.88121432  0.49025882  0.65246076  1
  In  In61  1  0.19249135  0.84521360  -0.03296531  1
  In  In62  1  0.32247859  0.50156076  0.83426572  1
  In  In63  1  0.64785720  0.33946399  0.00997875  1
  In  In64  1  -0.00002365  -0.01177054  0.63799854  1
  In  In65  1  0.32366153  0.67349502  -0.01945383  1
  In  In66  1  0.12740469  0.50937772  0.65393583  1
  In  In67  1  0.85558258  0.82216877  0.67435912  1
  In  In68  1  0.66695693  0.49820170  0.86256092  1
  In  In69  1  0.51291879  0.66119933  0.14916036  1
  In  In70  1  0.51354378  0.49520149  0.34623873  1
  In  In71  1  0.85428893  0.83350195  0.35630854  1
  Te  Te72  1  0.07356930  0.09721310  0.08052113  1
  Te  Te73  1  0.06649766  0.06711948  0.41484358  1
  Te  Te74  1  0.08150484  0.08680793  0.73079782  1
  Te  Te75  1  0.08609401  0.41345608  0.10082147  1
  Te  Te76  1  0.13743455  0.42573661  0.39553725  1
  Te  Te77  1  0.06016262  0.42575754  0.75464347  1
  Te  Te78  1  0.10578996  0.78527154  0.08476100  1
  Te  Te79  1  0.08575340  0.73394426  0.42739227  1
  Te  Te80  1  0.03627417  0.72930451  0.75682299  1
  Te  Te81  1  0.43964950  0.09932654  0.04938887  1
  Te  Te82  1  0.42052785  0.08837894  0.43447444  1
  Te  Te83  1  0.44085762  0.05618211  0.76933101  1
  Te  Te84  1  0.41728424  0.40924623  0.08807535  1
  Te  Te85  1  0.41428807  0.40711654  0.42060600  1
  Te  Te86  1  0.39706224  0.40463213  0.75281413  1
  Te  Te87  1  0.41752935  0.75713815  0.07763993  1
  Te  Te88  1  0.40818733  0.73933373  0.43084584  1
  Te  Te89  1  0.41137203  0.74451557  0.73879932  1
  Te  Te90  1  0.75528180  0.09149808  0.11363283  1
  Te  Te91  1  0.75855327  0.09106685  0.39354992  1
  Te  Te92  1  0.76046303  0.10488989  0.74556798  1
  Te  Te93  1  0.75952023  0.42120391  0.07730592  1
  Te  Te94  1  0.74035385  0.43614858  0.40361543  1
  Te  Te95  1  0.76043787  0.43570355  0.75465472  1
  Te  Te96  1  0.76899316  0.74803401  0.09328839  1
  Te  Te97  1  0.74666207  0.73655629  0.40264474  1
  Te  Te98  1  0.74735846  0.77127039  0.75866733  1
  Te  Te99  1  0.06853389  0.24407126  0.25601191  1
  Te  Te100  1  0.06547486  0.26214140  0.58375339  1
  Te  Te101  1  0.09843711  0.24524556  0.87986302  1
  Te  Te102  1  0.09483275  0.55565370  0.25876414  1
  Te  Te103  1  0.08588616  0.60764095  0.55261612  1
  Te  Te104  1  0.07904320  0.62062091  0.94057405  1
  Te  Te105  1  0.06287936  0.92994115  0.25054385  1
  Te  Te106  1  0.10810036  0.91007049  0.57880278  1
  Te  Te107  1  0.07432342  0.91471808  0.91412548  1
  Te  Te108  1  0.39610258  0.24840467  0.25790841  1
  Te  Te109  1  0.39257722  0.24334630  0.61710224  1
  Te  Te110  1  0.42377332  0.23332711  0.92277013  1
  Te  Te111  1  0.41832875  0.59123378  0.25242484  1
  Te  Te112  1  0.42835725  0.58553535  0.57404326  1
  Te  Te113  1  0.42054182  0.56596022  0.93490916  1
  Te  Te114  1  0.40886310  0.90514035  0.24889848  1
  Te  Te115  1  0.42428971  0.93684155  0.58524850  1
  Te  Te116  1  0.38667054  0.95297470  0.87265966  1
  Te  Te117  1  0.73854131  0.23620360  0.24426421  1
  Te  Te118  1  0.73557995  0.24342944  0.56068002  1
  Te  Te119  1  0.74895556  0.26090412  0.91032424  1
  Te  Te120  1  0.74004244  0.52831729  0.26443795  1
  Te  Te121  1  0.76007537  0.57675281  0.59785223  1
  Te  Te122  1  0.76165610  0.61289476  0.89449011  1
  Te  Te123  1  0.80446282  0.93553380  0.24812770  1
  Te  Te124  1  0.76266009  0.92038357  0.58107818  1
  Te  Te125  1  0.75490306  0.90252263  0.92916424  1
  Te  Te126  1  0.23483951  0.23868841  0.07882044  1
  Te  Te127  1  0.25680765  0.21799770  0.44223249  1
  Te  Te128  1  0.25950425  0.25579833  0.74205640  1
  Te  Te129  1  0.25576169  0.58622741  0.09343301  1
  Te  Te130  1  0.20590217  0.57983028  0.46061951  1
  Te  Te131  1  0.22317131  0.58545808  0.75824562  1
  Te  Te132  1  0.27180664  0.93690780  0.06924745  1
  Te  Te133  1  0.24366829  0.90737908  0.40277130  1
  Te  Te134  1  0.24408903  0.91773792  0.73171810  1
  Te  Te135  1  0.59702147  0.23813508  0.10179077  1
  Te  Te136  1  0.57436054  0.25976273  0.41603389  1
  Te  Te137  1  0.58048565  0.25608912  0.75712238  1
  Te  Te138  1  0.60168741  0.57789127  0.06785949  1
  Te  Te139  1  0.57588048  0.60459474  0.42022728  1
  Te  Te140  1  0.59064320  0.58703172  0.74860562  1
  Te  Te141  1  0.58253083  0.89664751  0.08963365  1
  Te  Te142  1  0.57044893  0.91504432  0.41826965  1
  Te  Te143  1  0.61188126  0.91192786  0.76395918  1
  Te  Te144  1  0.92538235  0.25806250  0.08224390  1
  Te  Te145  1  0.91538362  0.27130064  0.40400282  1
  Te  Te146  1  0.91626757  0.28109271  0.71990813  1
  Te  Te147  1  0.92856950  0.60008477  0.09205028  1
  Te  Te148  1  0.90460400  0.56194914  0.41897748  1
  Te  Te149  1  0.92726812  0.60607804  0.73325542  1
  Te  Te150  1  0.92104508  0.92939829  0.05461426  1
  Te  Te151  1  0.95042926  0.91543105  0.43110738  1
  Te  Te152  1  0.93062244  0.92419232  0.75797028  1
  Te  Te153  1  0.24713495  0.08122446  0.24071915  1
  Te  Te154  1  0.24568784  0.08917828  0.55515144  1
  Te  Te155  1  0.26375006  0.06159550  0.91834755  1
  Te  Te156  1  0.25249751  0.40741177  0.29181664  1
  Te  Te157  1  0.23996922  0.41793300  0.60490271  1
  Te  Te158  1  0.23390822  0.41401658  0.92146431  1
  Te  Te159  1  0.25295973  0.72629534  0.26062436  1
  Te  Te160  1  0.23943167  0.75291283  0.59109313  1
  Te  Te161  1  0.26325473  0.75391970  0.87566181  1
  Te  Te162  1  0.58166673  0.06541610  0.24813701  1
  Te  Te163  1  0.59304177  0.09430947  0.57221087  1
  Te  Te164  1  0.58516321  0.06748908  0.93771978  1
  Te  Te165  1  0.59045646  0.44063480  0.22833480  1
  Te  Te166  1  0.58456853  0.41126015  0.59113251  1
  Te  Te167  1  0.56543157  0.40601579  0.90833804  1
  Te  Te168  1  0.60237111  0.74089874  0.24638332  1
  Te  Te169  1  0.57565553  0.76457708  0.58080736  1
  Te  Te170  1  0.56803908  0.76115198  0.90953494  1
  Te  Te171  1  0.88055155  0.07108132  0.27095131  1
  Te  Te172  1  0.90667895  0.09557553  0.58718512  1
  Te  Te173  1  0.91507129  0.09494439  0.91033148  1
  Te  Te174  1  0.91891586  0.39569478  0.28539641  1
  Te  Te175  1  0.94405861  0.43663288  0.53149466  1
  Te  Te176  1  0.93063187  0.43332327  0.93827904  1
  Te  Te177  1  0.92207078  0.73487202  0.25110543  1
  Te  Te178  1  0.93981927  0.75121565  0.57806052  1
  Te  Te179  1  0.96307486  0.73966684  0.89396993  1
