# generated using pymatgen
data_In2Te3
_symmetry_space_group_name_H-M   'P 1'
_cell_length_a   18.78133947
_cell_length_b   18.78565358
_cell_length_c   18.78190905
_cell_angle_alpha   89.96238941
_cell_angle_beta   90.12683711
_cell_angle_gamma   90.03315359
_symmetry_Int_Tables_number   1
_chemical_formula_structural   In2Te3
_chemical_formula_sum   'In72 Te108'
_cell_volume   6626.60944082
_cell_formula_units_Z   36
loop_
 _symmetry_equiv_pos_site_id
 _symmetry_equiv_pos_as_xyz
  1  'x, y, z'
loop_
 _atom_site_type_symbol
 _atom_site_label
 _atom_site_symmetry_multiplicity
 _atom_site_fract_x
 _atom_site_fract_y
 _atom_site_fract_z
 _atom_site_occupancy
  In  In0  1  0.35643855  -0.01121133  0.31702755  1
  In  In1  1  -0.01022111  0.34909852  0.67201117  1
  In  In2  1  0.82975734  0.00301322  0.49211672  1
  In  In3  1  0.84157759  -0.00499333  0.17712865  1
  In  In4  1  0.50056221  0.30934733  0.50039220  1
  In  In5  1  0.00419892  0.66806439  -0.00904933  1
  In  In6  1  0.83012995  0.16758513  0.31395472  1
  In  In7  1  -0.00718164  0.65512592  0.33857875  1
  In  In8  1  -0.00723313  0.48895635  0.18169805  1
  In  In9  1  0.33597799  0.83621872  0.47469082  1
  In  In10  1  0.65021096  0.50110874  0.83958312  1
  In  In11  1  0.84458912  0.33488279  0.84576440  1
  In  In12  1  0.14899874  0.50259472  0.66830566  1
  In  In13  1  0.47985963  0.51830930  0.67131219  1
  In  In14  1  0.49972102  0.66004171  0.84137594  1
  In  In15  1  0.66425058  -0.00307894  0.02397585  1
  In  In16  1  0.47547971  -0.01402236  0.85688451  1
  In  In17  1  -0.00905304  0.32871038  0.33129734  1
  In  In18  1  0.50349621  0.83160844  0.65598799  1
  In  In19  1  0.18147047  0.14351484  0.32770405  1
  In  In20  1  0.68269294  0.18272968  0.84493560  1
  In  In21  1  0.15872187  0.14672305  0.00063876  1
  In  In22  1  0.63645758  0.86597723  0.47196650  1
  In  In23  1  0.01059383  0.15839656  0.48938421  1
  In  In24  1  0.31372610  0.83795804  0.84732300  1
  In  In25  1  0.66636234  0.17256552  0.49400124  1
  In  In26  1  0.47465197  0.12903404  0.02655765  1
  In  In27  1  0.52554808  0.16049675  0.66760396  1
  In  In28  1  0.03772298  0.87248664  0.18605592  1
  In  In29  1  0.01376154  0.82872968  0.49483064  1
  In  In30  1  0.33104934  0.51689133  0.50858645  1
  In  In31  1  0.16418954  0.32979690  0.47591124  1
  In  In32  1  0.67087683  0.32611470  0.65998802  1
  In  In33  1  0.00026857  -0.01656168  0.65624571  1
  In  In34  1  0.32524466  0.17468144  0.83391994  1
  In  In35  1  0.32865071  0.51544935  0.83877103  1
  In  In36  1  0.67874642  0.81170330  0.83660430  1
  In  In37  1  0.64622907  0.14898867  0.17942897  1
  In  In38  1  0.51770235  0.32615623  0.17444278  1
  In  In39  1  0.82195138  0.46610138  0.00955060  1
  In  In40  1  0.33200307  0.32723741  -0.00727671  1
  In  In41  1  0.83312896  0.83572109  0.32781078  1
  In  In42  1  0.83636450  0.67086260  0.82223991  1
  In  In43  1  0.66878314  -0.00313013  0.65467022  1
  In  In44  1  0.35220111  0.33367477  0.68494263  1
  In  In45  1  0.84895944  0.82838221  -0.01232558  1
  In  In46  1  0.66275140  0.66061932  0.32807504  1
  In  In47  1  0.81607382  0.65639192  0.18298445  1
  In  In48  1  0.51115470  0.49764847  0.00348506  1
  In  In49  1  0.68539279  0.47783254  0.47852341  1
  In  In50  1  0.85488895  0.01837154  0.81819152  1
  In  In51  1  0.02548005  0.68408323  0.67988324  1
  In  In52  1  0.15614422  0.51070638  0.34778795  1
  In  In53  1  0.16077863  0.00101777  0.84691472  1
  In  In54  1  -0.02241614  0.18203667  0.13305708  1
  In  In55  1  0.84937134  0.51407685  0.65775226  1
  In  In56  1  0.84697361  0.65335310  0.50391399  1
  In  In57  1  0.34234183  0.31301448  0.32107680  1
  In  In58  1  0.32540717  0.51866255  0.17808947  1
  In  In59  1  0.16301590  0.33135992  0.14299900  1
  In  In60  1  0.32052529  0.65835999  0.65465206  1
  In  In61  1  0.49425564  0.50708138  0.31755392  1
  In  In62  1  0.18968530  0.85909686  0.01204578  1
  In  In63  1  0.32164230  -0.02481111  0.66345055  1
  In  In64  1  0.19304414  0.15348045  0.66921796  1
  In  In65  1  0.16491116  0.66788621  0.49398914  1
  In  In66  1  0.63192186  0.82653606  0.17259793  1
  In  In67  1  0.20568734  0.72075866  0.18280127  1
  In  In68  1  0.64584288  0.66530309  0.00937658  1
  In  In69  1  -0.00789328  0.17980257  0.85704222  1
  In  In70  1  0.15546731  0.51286785  0.02844680  1
  In  In71  1  0.50857567  0.15434515  0.34523245  1
  Te  Te72  1  0.07656521  0.07725814  0.10226372  1
  Te  Te73  1  0.08446068  0.06000393  0.40543322  1
  Te  Te74  1  0.07923539  0.09083311  0.75116017  1
  Te  Te75  1  0.05234336  0.40377862  0.06911616  1
  Te  Te76  1  0.05838662  0.42873754  0.42923539  1
  Te  Te77  1  0.08288145  0.41423540  0.76566494  1
  Te  Te78  1  0.08073824  0.75651135  0.09455437  1
  Te  Te79  1  0.09627577  0.75531922  0.38847120  1
  Te  Te80  1  0.12188346  0.76782324  0.75101544  1
  Te  Te81  1  0.37476402  0.04613520  0.09876118  1
  Te  Te82  1  0.40339575  0.08427537  0.42119055  1
  Te  Te83  1  0.41349711  0.07652684  0.74590598  1
  Te  Te84  1  0.40607588  0.41347446  0.09862460  1
  Te  Te85  1  0.40870356  0.41187023  0.42056758  1
  Te  Te86  1  0.43390535  0.42089269  0.78098637  1
  Te  Te87  1  0.41346584  0.80478291  0.08523431  1
  Te  Te88  1  0.42175505  0.75281655  0.38773923  1
  Te  Te89  1  0.40671969  0.75184552  0.75097637  1
  Te  Te90  1  0.76100782  0.09197810  0.09076655  1
  Te  Te91  1  0.73763194  0.07774733  0.39667777  1
  Te  Te92  1  0.74995210  0.09693664  0.73709982  1
  Te  Te93  1  0.76032767  0.36927270  0.10368827  1
  Te  Te94  1  0.79214759  0.42836098  0.39131289  1
  Te  Te95  1  0.75059195  0.42504896  0.75007812  1
  Te  Te96  1  0.74928299  0.76338120  0.08419716  1
  Te  Te97  1  0.75341844  0.74722411  0.42155682  1
  Te  Te98  1  0.74960014  0.74444215  0.72800304  1
  Te  Te99  1  0.09061887  0.24711186  0.24967147  1
  Te  Te100  1  0.09231373  0.24955088  0.58518627  1
  Te  Te101  1  0.09345439  0.25882225  0.92907131  1
  Te  Te102  1  0.09483252  0.59212894  0.23393313  1
  Te  Te103  1  0.06478171  0.58198787  0.56887041  1
  Te  Te104  1  0.09255827  0.58073794  0.91260427  1
  Te  Te105  1  0.12795761  0.93505838  0.28331001  1
  Te  Te106  1  0.10213540  0.92503884  0.56630610  1
  Te  Te107  1  0.07677054  0.92179697  0.93764514  1
  Te  Te108  1  0.42260847  0.22212495  0.23312188  1
  Te  Te109  1  0.40861458  0.22749348  0.59081346  1
  Te  Te110  1  0.43178299  0.23922427  0.92042537  1
  Te  Te111  1  0.42532951  0.61058227  0.23588298  1
  Te  Te112  1  0.43409698  0.61632547  0.56204658  1
  Te  Te113  1  0.40844116  0.59571423  0.94333639  1
  Te  Te114  1  0.39964881  0.87442809  0.21680262  1
  Te  Te115  1  0.42590625  0.92447499  0.56290733  1
  Te  Te116  1  0.40927761  0.89163636  0.95357855  1
  Te  Te117  1  0.73963562  0.25447886  0.23295260  1
  Te  Te118  1  0.76227777  0.25340118  0.57154540  1
  Te  Te119  1  0.77839655  0.24094594  0.94309929  1
  Te  Te120  1  0.73318745  0.55435617  0.24926323  1
  Te  Te121  1  0.73550626  0.58105290  0.58057849  1
  Te  Te122  1  0.75071547  0.59174571  0.92650984  1
  Te  Te123  1  0.73250220  0.91860559  0.24995574  1
  Te  Te124  1  0.75407222  0.90131346  0.57600029  1
  Te  Te125  1  0.74981713  0.92478506  0.91471657  1
  Te  Te126  1  0.26143405  0.23241460  0.08728323  1
  Te  Te127  1  0.26607465  0.22934754  0.42490734  1
  Te  Te128  1  0.23452304  0.27192741  0.76112187  1
  Te  Te129  1  0.25727566  0.61498651  0.08193184  1
  Te  Te130  1  0.26730335  0.60078560  0.39881849  1
  Te  Te131  1  0.22808822  0.59885005  0.75920190  1
  Te  Te132  1  0.26758856  0.93112717  0.11812396  1
  Te  Te133  1  0.23937643  0.92344465  0.39541468  1
  Te  Te134  1  0.21129565  0.89833542  0.74273355  1
  Te  Te135  1  0.57856675  0.23386818  0.06910882  1
  Te  Te136  1  0.60139471  0.27020477  0.39521191  1
  Te  Te137  1  0.57937750  0.26424765  0.76587778  1
  Te  Te138  1  0.57986939  0.57894737  0.10761808  1
  Te  Te139  1  0.57973616  0.57490666  0.42614882  1
  Te  Te140  1  0.59279039  0.60096366  0.73725957  1
  Te  Te141  1  0.55188834  0.91897875  0.08469105  1
  Te  Te142  1  0.56831212  0.94017161  0.36552381  1
  Te  Te143  1  0.58098287  0.92066071  0.75748038  1
  Te  Te144  1  0.88781383  0.28421420  0.07393838  1
  Te  Te145  1  0.90310489  0.24522831  0.42429539  1
  Te  Te146  1  0.90827032  0.24107325  0.74401031  1
  Te  Te147  1  0.90872379  0.58486187  0.08301478  1
  Te  Te148  1  0.89476917  0.55877059  0.39703846  1
  Te  Te149  1  0.94122779  0.58020560  0.75886432  1
  Te  Te150  1  0.93070056  0.91823067  0.08061856  1
  Te  Te151  1  0.92865957  0.92362833  0.40661931  1
  Te  Te152  1  0.91330009  0.90480281  0.74587242  1
  Te  Te153  1  0.26867041  0.07720007  0.22429278  1
  Te  Te154  1  0.23829788  0.05537358  0.56927650  1
  Te  Te155  1  0.27117276  0.06838945  0.92727602  1
  Te  Te156  1  0.23772871  0.41165465  0.26010806  1
  Te  Te157  1  0.25312343  0.41062311  0.58629034  1
  Te  Te158  1  0.24029121  0.42764190  0.92683646  1
  Te  Te159  1  0.29921985  0.76854327  0.29001138  1
  Te  Te160  1  0.24469293  0.76540841  0.57850936  1
  Te  Te161  1  0.23551323  0.74402725  0.92946264  1
  Te  Te162  1  0.55958601  0.04643332  0.24969971  1
  Te  Te163  1  0.57418436  0.06784230  0.55754889  1
  Te  Te164  1  0.58383902  0.07992399  0.91236271  1
  Te  Te165  1  0.59730691  0.42156439  0.25429791  1
  Te  Te166  1  0.56676802  0.41741258  0.58770155  1
  Te  Te167  1  0.60490723  0.40383455  0.94001313  1
  Te  Te168  1  0.55542803  0.75622550  0.28121096  1
  Te  Te169  1  0.58269942  0.75838104  0.55637256  1
  Te  Te170  1  0.56614965  0.76686152  0.92884957  1
  Te  Te171  1  0.94024032  0.08516650  0.25069679  1
  Te  Te172  1  0.91343453  0.08889726  0.58608663  1
  Te  Te173  1  0.91742966  0.08019877  0.93602492  1
  Te  Te174  1  0.88940374  0.40678114  0.25235999  1
  Te  Te175  1  0.90422633  0.41050739  0.56901710  1
  Te  Te176  1  0.92605075  0.44063842  0.90882005  1
  Te  Te177  1  0.92398275  0.75542814  0.23540492  1
  Te  Te178  1  0.92109513  0.75481532  0.59102824  1
  Te  Te179  1  0.94188117  0.76335037  0.88727376  1
