# generated using pymatgen
data_In2Te3
_symmetry_space_group_name_H-M   'P 1'
_cell_length_a   18.76850086
_cell_length_b   18.76594535
_cell_length_c   18.77126990
_cell_angle_alpha   90.01704773
_cell_angle_beta   89.96202169
_cell_angle_gamma   90.07345120
_symmetry_Int_Tables_number   1
_chemical_formula_structural   In2Te3
_chemical_formula_sum   'In72 Te108'
_cell_volume   6611.39666849
_cell_formula_units_Z   36
loop_
 _symmetry_equiv_pos_site_id
 _symmetry_equiv_pos_as_xyz
  1  'x, y, z'
loop_
 _atom_site_type_symbol
 _atom_site_label
 _atom_site_symmetry_multiplicity
 _atom_site_fract_x
 _atom_site_fract_y
 _atom_site_fract_z
 _atom_site_occupancy
  In  In0  1  0.35327392  0.50588020  0.18679372  1
  In  In1  1  -0.00209179  -0.01011705  -0.01849991  1
  In  In2  1  -0.00836859  0.51093952  0.81723649  1
  In  In3  1  0.33015722  0.15671580  0.48911089  1
  In  In4  1  0.82809456  0.01428418  0.83430684  1
  In  In5  1  0.32640412  0.33883957  0.64700743  1
  In  In6  1  0.00540003  0.84575382  0.18459223  1
  In  In7  1  -0.01601349  0.15310378  0.81356601  1
  In  In8  1  0.52392632  0.48966283  0.66771795  1
  In  In9  1  0.65258749  -0.00254595  0.33252327  1
  In  In10  1  0.33058455  0.01585294  0.66433493  1
  In  In11  1  0.17583709  0.31667967  0.18951103  1
  In  In12  1  0.82373313  0.35351035  0.82230584  1
  In  In13  1  0.00412661  0.19332828  0.17017382  1
  In  In14  1  0.84021284  0.81440960  0.33942643  1
  In  In15  1  0.83099249  0.19504892  0.34180262  1
  In  In16  1  0.17169777  0.66467090  0.80741782  1
  In  In17  1  0.50034515  0.50879125  0.00146700  1
  In  In18  1  -0.00896063  0.31654336  0.03067333  1
  In  In19  1  0.51155699  0.35421882  0.18050668  1
  In  In20  1  0.31470741  0.00774280  0.01320382  1
  In  In21  1  0.33657463  0.64956377  0.66181485  1
  In  In22  1  0.32783096  0.81773523  0.81742261  1
  In  In23  1  0.15425090  0.66953864  0.48340441  1
  In  In24  1  0.17426729  0.49263335  -0.00951942  1
  In  In25  1  0.18773118  0.68667151  0.20448660  1
  In  In26  1  0.00323796  0.50860140  0.20089998  1
  In  In27  1  0.48410830  -0.02151852  0.82153193  1
  In  In28  1  -0.00523831  0.18260520  0.49682539  1
  In  In29  1  0.66969779  0.82206639  0.16451960  1
  In  In30  1  0.17422091  0.34645611  0.82519760  1
  In  In31  1  0.00016764  0.33139610  0.67049845  1
  In  In32  1  0.14899530  0.84742634  0.00920056  1
  In  In33  1  0.16109930  -0.02678682  0.17597957  1
  In  In34  1  0.15896536  0.17600997  0.33003010  1
  In  In35  1  0.49649885  0.15992507  -0.00048993  1
  In  In36  1  0.51502381  0.01791350  0.50855532  1
  In  In37  1  0.00753783  -0.00266395  0.65898855  1
  In  In38  1  0.82042723  0.50220404  0.00470164  1
  In  In39  1  0.48672179  0.80606612  0.31966473  1
  In  In40  1  0.84049391  0.01131420  0.14778999  1
  In  In41  1  -0.02839012  0.70075153  -0.02625527  1
  In  In42  1  0.50287219  0.81824518  0.02515709  1
  In  In43  1  0.68835917  0.81441619  0.49506903  1
  In  In44  1  0.84450624  0.83716981  0.65476442  1
  In  In45  1  0.35105194  0.66470932  0.01037581  1
  In  In46  1  0.31440050  0.16571201  0.15343335  1
  In  In47  1  0.32652344  0.16530099  0.83503718  1
  In  In48  1  0.16350740  0.17023921  -0.00556715  1
  In  In49  1  0.66346591  0.82736152  0.83686258  1
  In  In50  1  0.50991234  0.82435746  0.66802857  1
  In  In51  1  0.66716086  0.34277519  0.32902738  1
  In  In52  1  0.82688824  0.50438518  0.67033290  1
  In  In53  1  0.49623214  0.15438310  0.33589603  1
  In  In54  1  0.14413563  0.82914387  0.66767963  1
  In  In55  1  0.66763131  0.64814661  -0.00147815  1
  In  In56  1  0.32895230  0.83381416  0.47141541  1
  In  In57  1  0.32987637  0.34619386  0.34531603  1
  In  In58  1  0.66712031  -0.01226849  0.00331022  1
  In  In59  1  0.66707475  0.34267265  0.00577124  1
  In  In60  1  0.67038269  0.18384924  0.81393487  1
  In  In61  1  0.84530175  -0.00859511  0.48343020  1
  In  In62  1  0.84821942  0.66380023  0.51388355  1
  In  In63  1  0.51121491  0.33152222  0.82859850  1
  In  In64  1  0.66636820  0.66189008  0.66875997  1
  In  In65  1  0.02246004  0.48794202  0.49309531  1
  In  In66  1  0.49326648  0.34621681  0.50891875  1
  In  In67  1  0.82753007  0.48938103  0.34199329  1
  In  In68  1  0.00602516  -0.01906129  0.33390959  1
  In  In69  1  0.69298065  0.19980656  0.53244456  1
  In  In70  1  0.32868193  0.50854524  0.48854595  1
  In  In71  1  0.82469582  0.65973712  0.17235043  1
  Te  Te72  1  0.08299452  0.07944197  0.09282986  1
  Te  Te73  1  0.08425538  0.07811565  0.42124135  1
  Te  Te74  1  0.09324906  0.08840962  0.74070352  1
  Te  Te75  1  0.08792042  0.41592126  0.09656877  1
  Te  Te76  1  0.08520308  0.40156840  0.39275770  1
  Te  Te77  1  0.09371374  0.43659037  0.73141570  1
  Te  Te78  1  0.08240016  0.74019165  0.09495351  1
  Te  Te79  1  0.07648809  0.77062746  0.40982724  1
  Te  Te80  1  0.05866190  0.74108775  0.75223112  1
  Te  Te81  1  0.42236477  0.07128989  0.10107059  1
  Te  Te82  1  0.40725682  0.05234741  0.40554072  1
  Te  Te83  1  0.43153212  0.09946630  0.74492824  1
  Te  Te84  1  0.41055385  0.41127965  0.08191976  1
  Te  Te85  1  0.43926176  0.43553870  0.39920602  1
  Te  Te86  1  0.41322548  0.41654361  0.74542169  1
  Te  Te87  1  0.43714261  0.72181750  0.11712366  1
  Te  Te88  1  0.41929093  0.72008292  0.42852104  1
  Te  Te89  1  0.43227714  0.72681990  0.75615154  1
  Te  Te90  1  0.73903725  0.09224729  0.07952513  1
  Te  Te91  1  0.74149448  0.08664673  0.42120616  1
  Te  Te92  1  0.74548346  0.08335269  0.73363741  1
  Te  Te93  1  0.74629483  0.42207859  0.10338693  1
  Te  Te94  1  0.73271912  0.42135298  0.43776966  1
  Te  Te95  1  0.72304195  0.42229895  0.73990455  1
  Te  Te96  1  0.76081931  0.75141448  0.06770733  1
  Te  Te97  1  0.74702458  0.71202590  0.40059533  1
  Te  Te98  1  0.76184151  0.74828490  0.75060304  1
  Te  Te99  1  0.05535833  0.28818861  0.28707620  1
  Te  Te100  1  0.09079612  0.24905738  0.58885537  1
  Te  Te101  1  0.07267545  0.25486641  0.90479982  1
  Te  Te102  1  0.09762033  0.59312626  0.27902825  1
  Te  Te103  1  0.08464825  0.58611637  0.58465930  1
  Te  Te104  1  0.07872094  0.58991561  0.92040601  1
  Te  Te105  1  0.11861262  0.87119424  0.29586133  1
  Te  Te106  1  0.09245677  0.92079901  0.56382604  1
  Te  Te107  1  0.08416897  0.91012422  0.89300331  1
  Te  Te108  1  0.40537760  0.25089876  0.24898245  1
  Te  Te109  1  0.42110496  0.23517392  0.58410235  1
  Te  Te110  1  0.41121607  0.25861080  0.92115712  1
  Te  Te111  1  0.41648629  0.60415707  0.27885364  1
  Te  Te112  1  0.43636596  0.57596855  0.57455269  1
  Te  Te113  1  0.40716777  0.57697407  0.90725358  1
  Te  Te114  1  0.38279604  0.89148392  0.25559024  1
  Te  Te115  1  0.41749088  0.91342418  0.58408848  1
  Te  Te116  1  0.40588375  0.90498652  0.93011561  1
  Te  Te117  1  0.73286079  0.24104227  0.24276944  1
  Te  Te118  1  0.79762917  0.27531938  0.60350272  1
  Te  Te119  1  0.75645841  0.25346752  0.91909807  1
  Te  Te120  1  0.73840317  0.56526412  0.24545975  1
  Te  Te121  1  0.73589401  0.57467703  0.56456243  1
  Te  Te122  1  0.75985088  0.58576349  0.90089465  1
  Te  Te123  1  0.76569720  0.91670952  0.25362068  1
  Te  Te124  1  0.74493013  0.92699203  0.58078831  1
  Te  Te125  1  0.76683105  0.90153338  0.92396817  1
  Te  Te126  1  0.25336343  0.27172543  0.06303337  1
  Te  Te127  1  0.23594508  0.26307114  0.43101220  1
  Te  Te128  1  0.24120319  0.24246233  0.73519237  1
  Te  Te129  1  0.24400246  0.58358691  0.09787337  1
  Te  Te130  1  0.24902176  0.59368239  0.39525150  1
  Te  Te131  1  0.25557282  0.56035507  0.74789546  1
  Te  Te132  1  0.26627585  0.89064756  0.09942622  1
  Te  Te133  1  0.24252444  0.91450303  0.38413134  1
  Te  Te134  1  0.24293789  0.91998429  0.74798730  1
  Te  Te135  1  0.58001950  0.24934996  0.09119158  1
  Te  Te136  1  0.58088869  0.24295072  0.42534492  1
  Te  Te137  1  0.58889405  0.26506601  0.72160655  1
  Te  Te138  1  0.57863454  0.58710453  0.10005353  1
  Te  Te139  1  0.53482209  0.62799974  0.37268384  1
  Te  Te140  1  0.58679031  0.58296616  0.76482495  1
  Te  Te141  1  0.57262316  0.92534042  0.10825274  1
  Te  Te142  1  0.57631328  0.89888261  0.42184607  1
  Te  Te143  1  0.60081556  0.92562276  0.73781511  1
  Te  Te144  1  0.88240562  0.24979980  0.10662337  1
  Te  Te145  1  0.90940685  0.28429090  0.42861746  1
  Te  Te146  1  0.88424268  0.23995267  0.73227262  1
  Te  Te147  1  0.92862431  0.58413279  0.07831000  1
  Te  Te148  1  0.92837834  0.58117167  0.41423321  1
  Te  Te149  1  0.91749181  0.60580116  0.73221291  1
  Te  Te150  1  0.91546590  0.89974773  0.07490470  1
  Te  Te151  1  0.93965338  0.88086771  0.43533403  1
  Te  Te152  1  0.92306813  0.91634217  0.76207284  1
  Te  Te153  1  0.24689683  0.07520556  0.25484797  1
  Te  Te154  1  0.23570023  0.07619275  0.56970261  1
  Te  Te155  1  0.22872473  0.06714286  0.90270544  1
  Te  Te156  1  0.23849623  0.43584442  0.26324651  1
  Te  Te157  1  0.23649361  0.42031333  0.56350520  1
  Te  Te158  1  0.27218153  0.42232964  0.90629374  1
  Te  Te159  1  0.28735554  0.77751055  0.28106505  1
  Te  Te160  1  0.25673916  0.75629908  0.58731904  1
  Te  Te161  1  0.24261316  0.74822539  0.92498600  1
  Te  Te162  1  0.58384240  0.08658798  0.23800343  1
  Te  Te163  1  0.60303037  0.09797784  0.59538069  1
  Te  Te164  1  0.58147532  0.07289744  0.90553249  1
  Te  Te165  1  0.59007422  0.45083899  0.25894247  1
  Te  Te166  1  0.61035607  0.41743579  0.56761771  1
  Te  Te167  1  0.59569663  0.43241528  0.90683042  1
  Te  Te168  1  0.60380162  0.72830751  0.26106646  1
  Te  Te169  1  0.57823391  0.73480190  0.56616978  1
  Te  Te170  1  0.57035826  0.73690688  0.91591261  1
  Te  Te171  1  0.92195198  0.08599150  0.26183249  1
  Te  Te172  1  0.90854009  0.08646587  0.58230689  1
  Te  Te173  1  0.90644347  0.10195413  0.93575523  1
  Te  Te174  1  0.89649509  0.41250978  0.23308386  1
  Te  Te175  1  0.90651428  0.41044764  0.57861927  1
  Te  Te176  1  0.93104097  0.41126599  0.91839705  1
  Te  Te177  1  0.93378428  0.72957725  0.25515449  1
  Te  Te178  1  0.94331361  0.74699919  0.59066456  1
  Te  Te179  1  0.89818722  0.79112264  0.88737602  1
