# generated using pymatgen
data_In2Te3
_symmetry_space_group_name_H-M   'P 1'
_cell_length_a   18.79124726
_cell_length_b   18.77121230
_cell_length_c   18.77909475
_cell_angle_alpha   90.03090937
_cell_angle_beta   90.00187098
_cell_angle_gamma   90.04808698
_symmetry_Int_Tables_number   1
_chemical_formula_structural   In2Te3
_chemical_formula_sum   'In72 Te108'
_cell_volume   6624.03113988
_cell_formula_units_Z   36
loop_
 _symmetry_equiv_pos_site_id
 _symmetry_equiv_pos_as_xyz
  1  'x, y, z'
loop_
 _atom_site_type_symbol
 _atom_site_label
 _atom_site_symmetry_multiplicity
 _atom_site_fract_x
 _atom_site_fract_y
 _atom_site_fract_z
 _atom_site_occupancy
  In  In0  1  0.53012978  -0.02451099  0.80515342  1
  In  In1  1  0.00472036  0.84903566  0.16712934  1
  In  In2  1  0.34594445  0.30609568  0.64305265  1
  In  In3  1  0.50898510  0.67758088  0.18905667  1
  In  In4  1  0.17572833  -0.00792476  0.83260731  1
  In  In5  1  0.32665302  0.35150503  0.03204073  1
  In  In6  1  0.32726124  0.52553975  0.83508812  1
  In  In7  1  0.82278707  0.02821263  0.46242556  1
  In  In8  1  0.66624654  0.33297511  0.62503167  1
  In  In9  1  0.81480331  0.67822863  0.50979080  1
  In  In10  1  0.33107310  -0.00012575  0.02333694  1
  In  In11  1  0.51642446  0.48164643  0.65363634  1
  In  In12  1  0.34033194  0.16235612  0.17412450  1
  In  In13  1  0.33755838  0.48921181  0.18342116  1
  In  In14  1  0.51800362  0.83959562  0.33565450  1
  In  In15  1  0.50568476  0.50803408  0.34092506  1
  In  In16  1  0.49495334  0.30883288  0.18947078  1
  In  In17  1  0.47767673  0.68149678  0.82634750  1
  In  In18  1  0.00527219  0.35458896  0.66361525  1
  In  In19  1  0.34798040  0.86096784  0.50162159  1
  In  In20  1  0.16508727  0.49563739  -0.00005014  1
  In  In21  1  0.15679270  0.66933407  0.18256151  1
  In  In22  1  0.78652249  -0.02976127  0.85903090  1
  In  In23  1  0.52145739  0.14407847  0.61821419  1
  In  In24  1  0.00534111  0.00118524  0.32495067  1
  In  In25  1  0.17080363  0.33643905  0.17199610  1
  In  In26  1  0.83393847  0.50264021  0.63099701  1
  In  In27  1  0.33878210  0.66706664  0.67611690  1
  In  In28  1  0.01225991  0.17341461  0.84457904  1
  In  In29  1  0.50422096  0.14550674  -0.01676660  1
  In  In30  1  0.64834958  0.15830940  0.83736281  1
  In  In31  1  0.01176996  0.48649273  0.83694610  1
  In  In32  1  -0.00815396  0.15595875  0.18588356  1
  In  In33  1  0.00976669  0.63528698  0.65654653  1
  In  In34  1  0.51531104  0.86142988  0.02345875  1
  In  In35  1  0.16404684  0.83452349  0.65708581  1
  In  In36  1  0.65533043  0.49557647  0.18479506  1
  In  In37  1  -0.01450933  0.65393088  0.00848616  1
  In  In38  1  0.00741182  0.48829087  0.50358236  1
  In  In39  1  0.68464541  0.16989336  0.21717083  1
  In  In40  1  0.81628203  0.51804508  0.02766870  1
  In  In41  1  -0.00468840  0.82926458  0.83834621  1
  In  In42  1  0.31542043  0.84019789  0.18203388  1
  In  In43  1  0.18216062  0.16068067  0.32935462  1
  In  In44  1  0.80838285  0.87068509  0.31132013  1
  In  In45  1  0.33186421  0.68069675  -0.01890597  1
  In  In46  1  -0.00696179  0.00690154  0.01783906  1
  In  In47  1  0.33232467  0.15221036  0.81887698  1
  In  In48  1  0.52150512  0.67737424  0.49670297  1
  In  In49  1  0.83405320  0.47286334  0.33538787  1
  In  In50  1  0.31350722  0.33066749  0.33419172  1
  In  In51  1  0.79437694  0.17051958  0.65056045  1
  In  In52  1  0.00883719  0.66745786  0.33686433  1
  In  In53  1  0.81397889  0.67613736  0.16092286  1
  In  In54  1  0.02987331  0.82433169  0.48407440  1
  In  In55  1  0.83871298  0.70481728  0.81836435  1
  In  In56  1  0.82896917  0.13536855  0.02826033  1
  In  In57  1  0.85112537  0.33758274  0.83479647  1
  In  In58  1  0.66446694  0.51047241  0.81965364  1
  In  In59  1  -0.02645779  0.19287310  0.46790136  1
  In  In60  1  0.66305978  0.69195926  0.01029883  1
  In  In61  1  0.19625796  0.14108751  0.63349006  1
  In  In62  1  0.16342864  0.33733611  0.49548999  1
  In  In63  1  0.32943906  0.83271496  0.83004209  1
  In  In64  1  0.66806697  0.85043325  0.49158755  1
  In  In65  1  0.35337973  0.00551536  0.35046677  1
  In  In66  1  0.50313700  0.33625777  0.83807341  1
  In  In67  1  0.67832970  0.33450444  0.01049139  1
  In  In68  1  0.31274423  0.51587220  0.47240056  1
  In  In69  1  0.00819044  0.29825083  0.01836989  1
  In  In70  1  0.00099956  -0.01684480  0.64729992  1
  In  In71  1  0.81573411  0.83166901  0.65911567  1
  Te  Te72  1  0.08576230  0.09687697  0.08795701  1
  Te  Te73  1  0.07983395  0.09190412  0.42271727  1
  Te  Te74  1  0.08408971  0.07771077  0.74078679  1
  Te  Te75  1  0.07050677  0.41865679  0.09135171  1
  Te  Te76  1  0.07342844  0.40553444  0.39991190  1
  Te  Te77  1  0.10694279  0.41918050  0.74734188  1
  Te  Te78  1  0.08219801  0.75113457  0.07801178  1
  Te  Te79  1  0.12017373  0.71795260  0.42826799  1
  Te  Te80  1  0.07977597  0.74317324  0.74618856  1
  Te  Te81  1  0.44117941  0.07267282  0.10161250  1
  Te  Te82  1  0.44652765  0.10998576  0.40312231  1
  Te  Te83  1  0.44180851  0.08518389  0.74074593  1
  Te  Te84  1  0.44402293  0.42227345  0.09599213  1
  Te  Te85  1  0.41184861  0.41318487  0.41805013  1
  Te  Te86  1  0.40998875  0.41752502  0.74766643  1
  Te  Te87  1  0.41908964  0.75489233  0.08470481  1
  Te  Te88  1  0.41925644  0.75210581  0.41331228  1
  Te  Te89  1  0.42649547  0.78313094  0.72374619  1
  Te  Te90  1  0.71819591  0.07291621  0.10242702  1
  Te  Te91  1  0.71821929  0.09223792  0.37588055  1
  Te  Te92  1  0.73505609  0.07045935  0.74726994  1
  Te  Te93  1  0.76020474  0.40676379  0.11624818  1
  Te  Te94  1  0.74878519  0.38116100  0.41611218  1
  Te  Te95  1  0.74819119  0.40535200  0.74372305  1
  Te  Te96  1  0.74881342  0.79028345  0.08635074  1
  Te  Te97  1  0.74662295  0.75756119  0.40016874  1
  Te  Te98  1  0.71843577  0.76046919  0.74873330  1
  Te  Te99  1  0.08150296  0.25450509  0.26432971  1
  Te  Te100  1  0.07904909  0.23918511  0.58333080  1
  Te  Te101  1  0.10223331  0.26967579  0.90923103  1
  Te  Te102  1  0.07236404  0.56702044  0.24816374  1
  Te  Te103  1  0.11080973  0.56927932  0.57336544  1
  Te  Te104  1  0.08892256  0.59540440  0.91226391  1
  Te  Te105  1  0.09781291  0.90018353  0.27065852  1
  Te  Te106  1  0.11078222  0.93515893  0.55272150  1
  Te  Te107  1  0.08157720  0.91843356  0.92689471  1
  Te  Te108  1  0.41816274  0.22275662  0.29347819  1
  Te  Te109  1  0.44193215  0.24703366  0.54838143  1
  Te  Te110  1  0.40890512  0.25096929  0.92435986  1
  Te  Te111  1  0.40573819  0.59655915  0.26810110  1
  Te  Te112  1  0.41788497  0.57979379  0.57552130  1
  Te  Te113  1  0.43342206  0.57707146  0.93046327  1
  Te  Te114  1  0.42792253  0.92204668  0.24322221  1
  Te  Te115  1  0.42195754  0.96954467  0.57353216  1
  Te  Te116  1  0.41653324  0.92902925  0.91390115  1
  Te  Te117  1  0.75328921  0.28473707  0.29434874  1
  Te  Te118  1  0.74123052  0.24245093  0.53247484  1
  Te  Te119  1  0.75493319  0.24336235  0.91206693  1
  Te  Te120  1  0.74906701  0.58452736  0.26455854  1
  Te  Te121  1  0.72407273  0.58781631  0.58430984  1
  Te  Te122  1  0.75143500  0.59799525  0.91432037  1
  Te  Te123  1  0.69056282  0.93973122  0.25400675  1
  Te  Te124  1  0.75598199  0.94562127  0.57699981  1
  Te  Te125  1  0.73065211  0.86940724  0.94859851  1
  Te  Te126  1  0.24163375  0.23565623  0.08221053  1
  Te  Te127  1  0.25960629  0.23226760  0.43899123  1
  Te  Te128  1  0.24170735  0.24417777  0.73802547  1
  Te  Te129  1  0.26066650  0.58180232  0.08491383  1
  Te  Te130  1  0.22518465  0.60409703  0.39454611  1
  Te  Te131  1  0.23202270  0.59423445  0.74769295  1
  Te  Te132  1  0.23302527  0.90558706  0.07889305  1
  Te  Te133  1  0.24806455  0.91718323  0.40622313  1
  Te  Te134  1  0.26404301  0.92819422  0.72800396  1
  Te  Te135  1  0.58244139  0.23970826  0.08346906  1
  Te  Te136  1  0.60373726  0.19917076  0.37897781  1
  Te  Te137  1  0.58297532  0.25414314  0.73685589  1
  Te  Te138  1  0.58133966  0.58754134  0.08726075  1
  Te  Te139  1  0.60587067  0.58721539  0.41537642  1
  Te  Te140  1  0.57297216  0.59863532  0.73670287  1
  Te  Te141  1  0.60083697  0.92503600  0.12577623  1
  Te  Te142  1  0.55597804  0.94268209  0.44344395  1
  Te  Te143  1  0.60968545  0.88411107  0.72203470  1
  Te  Te144  1  0.89328618  0.24966270  0.10390231  1
  Te  Te145  1  0.89699340  0.25795184  0.35597191  1
  Te  Te146  1  0.91547281  0.23929557  0.73718147  1
  Te  Te147  1  0.92293981  0.57402122  0.12198690  1
  Te  Te148  1  0.90964994  0.58699992  0.42969210  1
  Te  Te149  1  0.90324390  0.57320917  0.75576862  1
  Te  Te150  1  0.90014099  0.93572901  0.10790234  1
  Te  Te151  1  0.91332186  0.90443266  0.42697325  1
  Te  Te152  1  0.90759016  0.92375750  0.75465328  1
  Te  Te153  1  0.24970277  0.05987451  0.24041604  1
  Te  Te154  1  0.29391709  0.05520743  0.56493762  1
  Te  Te155  1  0.24636737  0.08845981  0.92731568  1
  Te  Te156  1  0.22531188  0.43845160  0.27328969  1
  Te  Te157  1  0.25985539  0.41771183  0.58198368  1
  Te  Te158  1  0.25578186  0.41087190  0.91101008  1
  Te  Te159  1  0.25902414  0.73370674  0.27008449  1
  Te  Te160  1  0.26180235  0.75191105  0.57514795  1
  Te  Te161  1  0.23047524  0.75927739  0.90998359  1
  Te  Te162  1  0.56936759  0.09229587  0.28094320  1
  Te  Te163  1  0.60541377  0.04028082  0.55628323  1
  Te  Te164  1  0.60142503  0.04304462  0.92564381  1
  Te  Te165  1  0.58670089  0.39476651  0.27666049  1
  Te  Te166  1  0.57639579  0.41156053  0.53835609  1
  Te  Te167  1  0.58995731  0.42658181  0.92573837  1
  Te  Te168  1  0.61339599  0.76362746  0.24823144  1
  Te  Te169  1  0.57858378  0.78022685  0.59066418  1
  Te  Te170  1  0.57063203  0.76716594  0.91459542  1
  Te  Te171  1  0.89387507  0.07092212  0.25817823  1
  Te  Te172  1  0.91534892  0.08945607  0.57730730  1
  Te  Te173  1  0.90357378  0.08154003  0.90464948  1
  Te  Te174  1  0.93029080  0.38307989  0.26843845  1
  Te  Te175  1  0.89865731  0.38693478  0.55998855  1
  Te  Te176  1  0.91268850  0.42693526  0.94136690  1
  Te  Te177  1  0.90964415  0.75702125  0.25880665  1
  Te  Te178  1  0.93132386  0.75433810  0.59039935  1
  Te  Te179  1  0.90397348  0.76551773  0.94299301  1
