# generated using pymatgen
data_In2Te3
_symmetry_space_group_name_H-M   'P 1'
_cell_length_a   19.00994022
_cell_length_b   18.96245234
_cell_length_c   19.01649828
_cell_angle_alpha   89.84916004
_cell_angle_beta   89.85219645
_cell_angle_gamma   89.86727179
_symmetry_Int_Tables_number   1
_chemical_formula_structural   In2Te3
_chemical_formula_sum   'In72 Te108'
_cell_volume   6854.90899338
_cell_formula_units_Z   36
loop_
 _symmetry_equiv_pos_site_id
 _symmetry_equiv_pos_as_xyz
  1  'x, y, z'
loop_
 _atom_site_type_symbol
 _atom_site_label
 _atom_site_symmetry_multiplicity
 _atom_site_fract_x
 _atom_site_fract_y
 _atom_site_fract_z
 _atom_site_occupancy
  In  In0  1  0.14188028  0.36129732  0.20216017  1
  In  In1  1  0.82768364  0.35935541  0.18851277  1
  In  In2  1  0.67086986  0.81415536  0.84681108  1
  In  In3  1  0.69996531  0.16956343  0.83916217  1
  In  In4  1  0.36852883  0.00912299  0.31610936  1
  In  In5  1  0.02986149  -0.00000277  0.69208328  1
  In  In6  1  0.15355669  0.33364946  0.84241216  1
  In  In7  1  -0.01695912  0.63796266  0.00100741  1
  In  In8  1  0.14989126  0.18816722  0.00705125  1
  In  In9  1  0.48172445  -0.02224337  0.14757346  1
  In  In10  1  0.17454892  0.81489621  0.34442380  1
  In  In11  1  0.52029086  0.31445375  0.85130217  1
  In  In12  1  0.15892466  0.66142642  0.85485945  1
  In  In13  1  0.49532487  0.83813514  0.67162262  1
  In  In14  1  0.52317201  0.50310298  0.68012663  1
  In  In15  1  0.81468571  0.36906005  0.46422696  1
  In  In16  1  -0.00880522  0.23103292  0.49443606  1
  In  In17  1  0.74051330  0.56705675  0.01583361  1
  In  In18  1  0.30329665  0.75099228  0.15252772  1
  In  In19  1  0.67103688  0.19256510  0.14986687  1
  In  In20  1  -0.02462835  0.64548209  0.65650419  1
  In  In21  1  0.32302097  0.56991887  0.30050375  1
  In  In22  1  0.47146259  0.18022233  0.65599847  1
  In  In23  1  -0.00564731  0.35485030  0.66649201  1
  In  In24  1  0.66940311  0.34696970  0.66305278  1
  In  In25  1  0.67615749  0.85035846  0.46820099  1
  In  In26  1  0.00069318  0.01940382  -0.00826633  1
  In  In27  1  0.85114912  0.80987534  0.34960895  1
  In  In28  1  0.80903510  0.50529924  0.67183366  1
  In  In29  1  0.66551897  0.00661721  0.00153636  1
  In  In30  1  0.48297138  -0.00970916  0.52479291  1
  In  In31  1  0.31991554  0.68562810  0.66843131  1
  In  In32  1  0.51221177  0.65930368  0.83702984  1
  In  In33  1  0.19289258  0.01531726  0.48894374  1
  In  In34  1  0.65124839  0.66566107  0.32194980  1
  In  In35  1  0.31700193  0.35366377  0.64915794  1
  In  In36  1  0.01389438  0.00122572  0.33510226  1
  In  In37  1  0.50833339  0.48529872  -0.01507692  1
  In  In38  1  0.15233739  0.64004178  0.47372896  1
  In  In39  1  0.47909716  0.82548486  0.01406718  1
  In  In40  1  -0.00886939  0.84662766  0.84012059  1
  In  In41  1  0.32027891  0.19222159  0.51496282  1
  In  In42  1  0.81861305  0.83564632  0.01165621  1
  In  In43  1  0.34524239  0.16449958  0.84563858  1
  In  In44  1  0.83514180  0.17289506  0.00455487  1
  In  In45  1  0.34233769  0.36178220  0.29730439  1
  In  In46  1  0.84364235  0.62431318  0.16511328  1
  In  In47  1  0.66793231  0.00667502  0.31120117  1
  In  In48  1  0.31263666  0.16961344  0.16784298  1
  In  In49  1  0.67587521  0.19671650  0.47480764  1
  In  In50  1  0.16591331  0.81724439  0.00283055  1
  In  In51  1  0.50647987  0.65455610  0.49561914  1
  In  In52  1  0.31818578  0.48677724  0.80901301  1
  In  In53  1  0.53025157  0.40548141  0.18169851  1
  In  In54  1  0.00026971  0.81163947  0.52877618  1
  In  In55  1  0.83906237  0.01688662  0.52431168  1
  In  In56  1  0.50483253  0.79448663  0.33585187  1
  In  In57  1  0.01927561  0.47926962  0.45529059  1
  In  In58  1  0.50579517  0.17897650  0.01543985  1
  In  In59  1  0.64800916  0.01133160  0.67031533  1
  In  In60  1  0.30768844  -0.02718280  -0.01728392  1
  In  In61  1  0.13451207  0.19226375  0.67821764  1
  In  In62  1  0.17453934  0.18546040  0.32443726  1
  In  In63  1  0.67036394  0.80917398  0.20671513  1
  In  In64  1  -0.00531421  0.82679137  0.15440667  1
  In  In65  1  0.35286976  0.82443931  0.51793167  1
  In  In66  1  0.18012221  0.51750787  0.01278052  1
  In  In67  1  0.66068505  0.66822101  0.67434485  1
  In  In68  1  0.52006005  0.18158991  0.33701218  1
  In  In69  1  0.16259956  0.83396047  0.68579211  1
  In  In70  1  -0.02423940  0.15318566  0.15578438  1
  In  In71  1  0.86465419  0.18706591  0.67945444  1
  Te  Te72  1  0.09312997  0.07767223  0.09561958  1
  Te  Te73  1  0.08920625  0.10761640  0.42534994  1
  Te  Te74  1  0.07442938  0.10654203  0.78002678  1
  Te  Te75  1  0.07954662  0.43419082  0.08621870  1
  Te  Te76  1  0.10228760  0.39481782  0.36114470  1
  Te  Te77  1  0.10177265  0.42270607  0.73841107  1
  Te  Te78  1  0.07915349  0.72346005  0.08385823  1
  Te  Te79  1  0.05827606  0.73976239  0.40845430  1
  Te  Te80  1  0.06438299  0.73913751  0.74977298  1
  Te  Te81  1  0.39766373  0.08198181  0.07398506  1
  Te  Te82  1  0.41301616  0.10232054  0.42629683  1
  Te  Te83  1  0.42812048  0.08381934  0.75512363  1
  Te  Te84  1  0.42041066  0.42947683  0.09022273  1
  Te  Te85  1  0.42157620  0.46359140  0.37500852  1
  Te  Te86  1  0.43565889  0.40039631  0.75146206  1
  Te  Te87  1  0.40800113  0.70332391  0.05823841  1
  Te  Te88  1  0.39632329  0.72274392  0.41421386  1
  Te  Te89  1  0.41484471  0.75267243  0.76608198  1
  Te  Te90  1  0.75579639  0.07921670  0.09729713  1
  Te  Te91  1  0.75167215  0.07916709  0.41445755  1
  Te  Te92  1  0.76528732  0.08185708  0.73457972  1
  Te  Te93  1  0.73989563  0.43149352  0.09096541  1
  Te  Te94  1  0.73764777  0.45214937  0.36734242  1
  Te  Te95  1  0.77344249  0.38907260  0.75824149  1
  Te  Te96  1  0.75201108  0.73454093  0.10153640  1
  Te  Te97  1  0.74852713  0.72552320  0.42263157  1
  Te  Te98  1  0.75627494  0.74672061  0.74992002  1
  Te  Te99  1  0.05838343  0.24266020  0.24920838  1
  Te  Te100  1  0.10251399  0.29376109  0.57007404  1
  Te  Te101  1  0.05753095  0.27537337  0.93534658  1
  Te  Te102  1  0.06083782  0.53231234  0.31204887  1
  Te  Te103  1  0.07213367  0.56327475  0.57557489  1
  Te  Te104  1  0.06990935  0.55296749  0.91028708  1
  Te  Te105  1  0.08873404  0.89912170  0.25136529  1
  Te  Te106  1  0.09678510  0.92582378  0.56666987  1
  Te  Te107  1  0.09309176  0.92177040  0.91862834  1
  Te  Te108  1  0.42249818  0.24596830  0.23858893  1
  Te  Te109  1  0.42654512  0.28955120  0.56219215  1
  Te  Te110  1  0.40644690  0.26544409  0.93956934  1
  Te  Te111  1  0.46648201  0.55825288  0.25750807  1
  Te  Te112  1  0.42401903  0.59135021  0.60593542  1
  Te  Te113  1  0.40807923  0.56844283  0.89775472  1
  Te  Te114  1  0.41367148  0.88305545  0.24436198  1
  Te  Te115  1  0.37533557  0.93289711  0.62497912  1
  Te  Te116  1  0.43025888  0.92496731  0.92037425  1
  Te  Te117  1  0.74571958  0.25339109  0.26104022  1
  Te  Te118  1  0.76850645  0.25571047  0.57826896  1
  Te  Te119  1  0.74083928  0.26511979  0.93891278  1
  Te  Te120  1  0.73788453  0.56399923  0.25250755  1
  Te  Te121  1  0.71538689  0.57120310  0.57649185  1
  Te  Te122  1  0.80361378  0.58323434  0.88209241  1
  Te  Te123  1  0.77183350  0.90665306  0.26171354  1
  Te  Te124  1  0.73958215  0.91961187  0.58556843  1
  Te  Te125  1  0.75493200  0.92704993  0.90923223  1
  Te  Te126  1  0.23029319  0.27384689  0.10167221  1
  Te  Te127  1  0.26588053  0.27613836  0.40185017  1
  Te  Te128  1  0.26268373  0.25368439  0.74994708  1
  Te  Te129  1  0.26386543  0.62642646  0.06825918  1
  Te  Te130  1  0.25535257  0.53865211  0.43557775  1
  Te  Te131  1  0.22922616  0.58784325  0.74053724  1
  Te  Te132  1  0.25787549  0.89048433  0.09806622  1
  Te  Te133  1  0.27682621  0.91412347  0.41166002  1
  Te  Te134  1  0.26071865  0.92556387  0.73283052  1
  Te  Te135  1  0.57836491  0.28997681  0.08477288  1
  Te  Te136  1  0.57386079  0.29061502  0.42135782  1
  Te  Te137  1  0.59429356  0.23497143  0.73667965  1
  Te  Te138  1  0.60675582  0.54783332  0.07936946  1
  Te  Te139  1  0.56315585  0.56330941  0.39211835  1
  Te  Te140  1  0.61674860  0.56633750  0.77992411  1
  Te  Te141  1  0.60516213  0.90391716  0.09813292  1
  Te  Te142  1  0.56335896  0.92757446  0.39876874  1
  Te  Te143  1  0.58300341  0.91457000  0.76652457  1
  Te  Te144  1  0.91026545  0.27308922  0.09060134  1
  Te  Te145  1  0.89396532  0.26658712  0.39356054  1
  Te  Te146  1  0.91286988  0.28993245  0.77275934  1
  Te  Te147  1  0.95420679  0.53684011  0.11123522  1
  Te  Te148  1  0.91420776  0.55115871  0.37389044  1
  Te  Te149  1  0.91312494  0.56301661  0.76331809  1
  Te  Te150  1  0.91295910  0.92963463  0.08230443  1
  Te  Te151  1  0.91856590  0.91848752  0.43604489  1
  Te  Te152  1  0.92044771  0.91359175  0.73140610  1
  Te  Te153  1  0.24398593  0.06591223  0.25487741  1
  Te  Te154  1  0.23810538  0.10257303  0.60292022  1
  Te  Te155  1  0.23703809  0.09098762  0.92094709  1
  Te  Te156  1  0.25920643  0.45857240  0.21750233  1
  Te  Te157  1  0.25933884  0.45605605  0.56700279  1
  Te  Te158  1  0.25219550  0.41560311  0.92444530  1
  Te  Te159  1  0.22903116  0.69506071  0.27056041  1
  Te  Te160  1  0.22553107  0.74632511  0.56335878  1
  Te  Te161  1  0.25173783  0.76452746  0.89679936  1
  Te  Te162  1  0.56821604  0.08312167  0.22481630  1
  Te  Te163  1  0.58458537  0.09932599  0.56290745  1
  Te  Te164  1  0.58345700  0.09803840  0.91456038  1
  Te  Te165  1  0.62998492  0.37265064  0.28649673  1
  Te  Te166  1  0.60282629  0.44184470  0.57076913  1
  Te  Te167  1  0.60925341  0.41891823  0.89861370  1
  Te  Te168  1  0.54982031  0.71681688  0.21413117  1
  Te  Te169  1  0.57905262  0.77238968  0.56463930  1
  Te  Te170  1  0.58561873  0.73677729  0.94386560  1
  Te  Te171  1  0.91140291  0.07200856  0.26087978  1
  Te  Te172  1  0.94845256  0.10580196  0.58145577  1
  Te  Te173  1  0.90903858  0.09261501  0.90600210  1
  Te  Te174  1  0.92779665  0.44186966  0.26650395  1
  Te  Te175  1  0.90360277  0.43446372  0.56734898  1
  Te  Te176  1  0.84988007  0.46959513  0.97046347  1
  Te  Te177  1  0.92380245  0.72873583  0.24529715  1
  Te  Te178  1  0.88917958  0.72931522  0.57313229  1
  Te  Te179  1  0.91107033  0.75150091  0.92613436  1
