# generated using pymatgen
data_In2Te3
_symmetry_space_group_name_H-M   'P 1'
_cell_length_a   18.89516660
_cell_length_b   18.89924181
_cell_length_c   18.88670439
_cell_angle_alpha   89.99941709
_cell_angle_beta   90.12940882
_cell_angle_gamma   89.97097586
_symmetry_Int_Tables_number   1
_chemical_formula_structural   In2Te3
_chemical_formula_sum   'In72 Te108'
_cell_volume   6744.50571219
_cell_formula_units_Z   36
loop_
 _symmetry_equiv_pos_site_id
 _symmetry_equiv_pos_as_xyz
  1  'x, y, z'
loop_
 _atom_site_type_symbol
 _atom_site_label
 _atom_site_symmetry_multiplicity
 _atom_site_fract_x
 _atom_site_fract_y
 _atom_site_fract_z
 _atom_site_occupancy
  In  In0  1  0.15911918  0.49951416  0.35988445  1
  In  In1  1  0.18022553  0.67123954  0.51413420  1
  In  In2  1  0.64097340  0.47530669  0.82780071  1
  In  In3  1  0.17356943  0.68175422  0.16391939  1
  In  In4  1  0.82075920  0.49209385  0.68365144  1
  In  In5  1  0.13081543  0.20104920  0.29236070  1
  In  In6  1  0.48716976  0.64146929  0.15203873  1
  In  In7  1  0.00772499  0.66878855  0.33691014  1
  In  In8  1  0.65888695  0.35200220  0.00002611  1
  In  In9  1  0.49242816  0.49291487  -0.02415452  1
  In  In10  1  0.83060245  0.48688593  0.30288543  1
  In  In11  1  0.14360677  0.02000214  0.82212779  1
  In  In12  1  0.68639429  0.01704489  0.30575672  1
  In  In13  1  0.34014644  0.34829806  0.67775527  1
  In  In14  1  -0.01995392  0.67914260  -0.02659482  1
  In  In15  1  0.20112213  0.49053982  -0.01283882  1
  In  In16  1  0.31870139  -0.02951896  0.33418740  1
  In  In17  1  0.00809659  0.69113007  0.69818375  1
  In  In18  1  0.49566298  0.83012777  0.32937064  1
  In  In19  1  0.33958979  0.81976298  0.17273447  1
  In  In20  1  0.51343674  0.31901668  0.15559607  1
  In  In21  1  0.84320656  0.14782148  -0.02333977  1
  In  In22  1  0.52168980  0.65969657  0.84495479  1
  In  In23  1  0.16938017  0.00002860  0.50807270  1
  In  In24  1  0.33943904  0.49533672  0.19298336  1
  In  In25  1  0.50261746  -0.00058260  0.82235430  1
  In  In26  1  0.35664253  -0.00124160  0.68486171  1
  In  In27  1  0.01194201  0.81660105  0.54161160  1
  In  In28  1  0.01360013  -0.01477429  0.33634245  1
  In  In29  1  0.33603513  0.02751449  0.00393870  1
  In  In30  1  0.49107854  0.49248719  0.34629678  1
  In  In31  1  0.85047734  0.03066775  0.51544690  1
  In  In32  1  0.85079497  0.18018791  0.32908353  1
  In  In33  1  0.66453513  0.68173883  0.32728910  1
  In  In34  1  0.53185107  0.18009669  0.35500845  1
  In  In35  1  0.67009577  0.83736191  0.50239994  1
  In  In36  1  0.15523849  0.85777811  -0.02758772  1
  In  In37  1  -0.00101010  0.86676656  0.16467261  1
  In  In38  1  0.32919762  0.15477408  0.49046277  1
  In  In39  1  0.69631728  0.69226187  0.00833173  1
  In  In40  1  0.34166951  0.17223605  0.15790679  1
  In  In41  1  0.78048654  0.69312820  0.80762674  1
  In  In42  1  0.35147566  0.28245917  -0.01865690  1
  In  In43  1  0.68901527  0.32753761  0.34545930  1
  In  In44  1  0.81729076  -0.00566202  0.16243880  1
  In  In45  1  -0.01962024  0.48386209  0.15453736  1
  In  In46  1  0.64869228  0.46164856  0.53901659  1
  In  In47  1  0.34441664  0.65781355  0.66250075  1
  In  In48  1  0.65652642  0.00180794  0.66621209  1
  In  In49  1  0.84259728  0.64115529  0.52034158  1
  In  In50  1  0.49409578  -0.01477043  0.51493781  1
  In  In51  1  0.00068183  0.31282148  0.67487120  1
  In  In52  1  -0.00502210  0.16855805  0.51745292  1
  In  In53  1  0.16938095  0.33739627  0.83822959  1
  In  In54  1  0.50354885  0.66954373  0.49898166  1
  In  In55  1  0.15662610  0.01210535  0.16381946  1
  In  In56  1  0.33757706  0.82151538  0.83686294  1
  In  In57  1  0.80109294  0.19116083  0.64306023  1
  In  In58  1  0.17518480  0.69701483  0.78198629  1
  In  In59  1  0.32742344  0.34999553  0.35283084  1
  In  In60  1  0.63578286  0.16783710  0.84280930  1
  In  In61  1  0.14602474  0.17668770  0.01052769  1
  In  In62  1  0.50288785  0.15911878  0.66682769  1
  In  In63  1  -0.00080532  0.50053795  0.85390968  1
  In  In64  1  0.68934262  0.50012603  0.16379679  1
  In  In65  1  0.82628118  -0.03253532  0.82279665  1
  In  In66  1  0.01283525  0.47013219  0.51066160  1
  In  In67  1  0.18555493  0.50905274  0.64908522  1
  In  In68  1  0.83148081  0.48955900  -0.00603825  1
  In  In69  1  0.52115355  0.85554386  0.03667601  1
  In  In70  1  0.83844452  0.85521945  0.32524445  1
  In  In71  1  -0.00840507  0.32092729  -0.00875778  1
  Te  Te72  1  0.05833134  0.07618432  0.07635759  1
  Te  Te73  1  0.09046760  0.09147422  0.41058223  1
  Te  Te74  1  0.06350862  0.06845119  0.70815447  1
  Te  Te75  1  0.08171265  0.42352146  0.05888354  1
  Te  Te76  1  0.08158535  0.38652587  0.41296070  1
  Te  Te77  1  0.08416371  0.43507169  0.74649903  1
  Te  Te78  1  0.07247179  0.76107021  0.07308466  1
  Te  Te79  1  0.09164117  0.75943996  0.42374320  1
  Te  Te80  1  0.06316926  0.79972947  0.78661135  1
  Te  Te81  1  0.44081335  0.10057345  0.07675580  1
  Te  Te82  1  0.42321082  0.07193061  0.40199732  1
  Te  Te83  1  0.40802444  0.11276842  0.78014362  1
  Te  Te84  1  0.41573237  0.41398654  0.08802067  1
  Te  Te85  1  0.42506575  0.40908495  0.44643095  1
  Te  Te86  1  0.44157530  0.45042514  0.72319753  1
  Te  Te87  1  0.41812692  0.74671333  0.06544343  1
  Te  Te88  1  0.41379993  0.76784991  0.43315897  1
  Te  Te89  1  0.43396587  0.74658726  0.74932163  1
  Te  Te90  1  0.74139990  0.07845498  0.06485493  1
  Te  Te91  1  0.75558575  0.09539660  0.41693996  1
  Te  Te92  1  0.74189208  0.08710097  0.75807535  1
  Te  Te93  1  0.77338694  0.39462058  0.09666038  1
  Te  Te94  1  0.75486610  0.43768317  0.42494356  1
  Te  Te95  1  0.73491717  0.39169501  0.75015337  1
  Te  Te96  1  0.79252913  0.79216940  0.06004738  1
  Te  Te97  1  0.77383062  0.74354143  0.41983275  1
  Te  Te98  1  0.69039784  0.77841228  0.73173216  1
  Te  Te99  1  0.03075839  0.25716886  0.20187686  1
  Te  Te100  1  0.09781419  0.24789334  0.58746707  1
  Te  Te101  1  0.06850402  0.23645856  0.89141382  1
  Te  Te102  1  0.07983219  0.57678498  0.23828393  1
  Te  Te103  1  0.05985868  0.59373600  0.58464001  1
  Te  Te104  1  0.09788109  0.58978165  0.92628616  1
  Te  Te105  1  0.11286392  0.90092131  0.25993024  1
  Te  Te106  1  0.07291819  0.93693195  0.60476139  1
  Te  Te107  1  0.05939570  0.96499129  0.93306834  1
  Te  Te108  1  0.42166663  0.25771034  0.26665606  1
  Te  Te109  1  0.41178556  0.24375160  0.57991084  1
  Te  Te110  1  0.45498389  0.22801413  0.89536533  1
  Te  Te111  1  0.40922999  0.60093762  0.27706384  1
  Te  Te112  1  0.41327489  0.57176007  0.56412793  1
  Te  Te113  1  0.40979578  0.59797730  0.91822257  1
  Te  Te114  1  0.42647544  0.92913035  0.23405831  1
  Te  Te115  1  0.41870862  0.89524628  0.60123241  1
  Te  Te116  1  0.41704224  0.91776252  0.92686553  1
  Te  Te117  1  0.73979873  0.23446648  0.24522340  1
  Te  Te118  1  0.72150809  0.26094327  0.54211178  1
  Te  Te119  1  0.73972398  0.24924290  0.92011052  1
  Te  Te120  1  0.76595733  0.60917943  0.23549949  1
  Te  Te121  1  0.72854904  0.58039797  0.60005425  1
  Te  Te122  1  0.74018208  0.57530975  0.90618631  1
  Te  Te123  1  0.72462684  0.88869689  0.23288473  1
  Te  Te124  1  0.76230052  0.92610418  0.58557912  1
  Te  Te125  1  0.77111497  0.88112654  0.93510605  1
  Te  Te126  1  0.24425424  0.26520109  0.08794097  1
  Te  Te127  1  0.23791987  0.23861113  0.40291722  1
  Te  Te128  1  0.24796074  0.25525209  0.74639550  1
  Te  Te129  1  0.26434973  0.58253772  0.09118231  1
  Te  Te130  1  0.25888114  0.57478479  0.43649713  1
  Te  Te131  1  0.26261656  0.57381795  0.76204048  1
  Te  Te132  1  0.24901897  0.91590648  0.07981379  1
  Te  Te133  1  0.26379503  0.90141078  0.45022395  1
  Te  Te134  1  0.25103493  0.92465407  0.76652851  1
  Te  Te135  1  0.59075702  0.23711734  0.06327799  1
  Te  Te136  1  0.59362633  0.27910882  0.45199194  1
  Te  Te137  1  0.60414413  0.25542882  0.72316865  1
  Te  Te138  1  0.59824567  0.57472135  0.06538633  1
  Te  Te139  1  0.60281643  0.57498774  0.41513850  1
  Te  Te140  1  0.56309882  0.56554125  0.73521882  1
  Te  Te141  1  0.61875804  0.96243178  0.06135449  1
  Te  Te142  1  0.59570775  0.92650295  0.40338427  1
  Te  Te143  1  0.58734926  0.89822329  0.74954776  1
  Te  Te144  1  0.92051369  0.22774061  0.08340846  1
  Te  Te145  1  0.91479287  0.26053394  0.43476632  1
  Te  Te146  1  0.88651343  0.25439836  0.74614179  1
  Te  Te147  1  0.90621014  0.59404358  0.07617280  1
  Te  Te148  1  0.92173920  0.56748109  0.40995450  1
  Te  Te149  1  0.90997310  0.58864513  0.76595002  1
  Te  Te150  1  0.90301522  0.92014806  0.06364665  1
  Te  Te151  1  0.92695547  0.91239478  0.43915310  1
  Te  Te152  1  0.92816105  0.87536360  0.76093281  1
  Te  Te153  1  0.25362162  0.08983875  0.25217080  1
  Te  Te154  1  0.25783957  0.08228762  0.60242258  1
  Te  Te155  1  0.23882411  0.09990367  0.91617098  1
  Te  Te156  1  0.23066041  0.40981500  0.25095058  1
  Te  Te157  1  0.24875280  0.40301440  0.57352881  1
  Te  Te158  1  0.29289707  0.40104916  0.90501258  1
  Te  Te159  1  0.25617391  0.74514549  0.26673282  1
  Te  Te160  1  0.22343141  0.74614881  0.63626784  1
  Te  Te161  1  0.23896028  0.74255185  0.92032333  1
  Te  Te162  1  0.59245685  0.11046466  0.24172908  1
  Te  Te163  1  0.59139008  0.09064796  0.56164529  1
  Te  Te164  1  0.60816884  0.04106862  0.92000893  1
  Te  Te165  1  0.58845734  0.42366099  0.24758697  1
  Te  Te166  1  0.56090198  0.39496420  0.64839150  1
  Te  Te167  1  0.54247711  0.37578180  0.89413835  1
  Te  Te168  1  0.57183010  0.74642969  0.22495773  1
  Te  Te169  1  0.59635403  0.74496288  0.59064569  1
  Te  Te170  1  0.59053003  0.76750947  0.93190903  1
  Te  Te171  1  0.92096214  0.06755857  0.25126162  1
  Te  Te172  1  0.92393494  0.08692255  0.63695515  1
  Te  Te173  1  0.92350066  0.06705836  0.88086884  1
  Te  Te174  1  0.92942790  0.38505463  0.25280633  1
  Te  Te175  1  0.90405934  0.40421909  0.59115579  1
  Te  Te176  1  0.89928084  0.39499788  0.89623124  1
  Te  Te177  1  0.92462071  0.75834724  0.24552849  1
  Te  Te178  1  0.89197664  0.75310277  0.61046204  1
  Te  Te179  1  0.88765340  0.76766390  0.88922214  1
