# generated using pymatgen
data_In2Te3
_symmetry_space_group_name_H-M   'P 1'
_cell_length_a   18.89171972
_cell_length_b   18.90013383
_cell_length_c   18.90455144
_cell_angle_alpha   90.04703373
_cell_angle_beta   90.03044220
_cell_angle_gamma   89.96284336
_symmetry_Int_Tables_number   1
_chemical_formula_structural   In2Te3
_chemical_formula_sum   'In72 Te108'
_cell_volume   6749.97946063
_cell_formula_units_Z   36
loop_
 _symmetry_equiv_pos_site_id
 _symmetry_equiv_pos_as_xyz
  1  'x, y, z'
loop_
 _atom_site_type_symbol
 _atom_site_label
 _atom_site_symmetry_multiplicity
 _atom_site_fract_x
 _atom_site_fract_y
 _atom_site_fract_z
 _atom_site_occupancy
  In  In0  1  0.17742959  0.80627007  0.00187991  1
  In  In1  1  0.30389928  0.85365693  0.46435666  1
  In  In2  1  0.13699091  0.33191538  0.52585038  1
  In  In3  1  0.17196244  0.50105019  0.01708668  1
  In  In4  1  0.00654552  0.48976528  0.83823550  1
  In  In5  1  0.02814084  0.67935160  0.34977382  1
  In  In6  1  0.16251053  0.49577200  0.69364694  1
  In  In7  1  0.83405102  0.66984634  0.16204702  1
  In  In8  1  0.18066259  0.16282021  0.66119625  1
  In  In9  1  0.65504748  0.02471108  0.67171056  1
  In  In10  1  0.15849892  0.17144105  0.01801197  1
  In  In11  1  0.67685721  0.31728555  0.65833228  1
  In  In12  1  0.85327950  0.15185912  0.33572845  1
  In  In13  1  0.49871185  0.50833504  0.31898830  1
  In  In14  1  -0.00523714  0.01432506  0.67093747  1
  In  In15  1  0.84368040  0.67744564  0.53958077  1
  In  In16  1  0.83596920  0.50725480  0.00094720  1
  In  In17  1  0.66290307  0.66646133  0.01397824  1
  In  In18  1  0.16775868  -0.02918859  0.85239453  1
  In  In19  1  0.30388767  0.80102404  0.20245564  1
  In  In20  1  0.65786363  0.15360404  0.83217773  1
  In  In21  1  0.81256003  0.13998741  -0.00962717  1
  In  In22  1  0.48735325  0.47009346  0.67816799  1
  In  In23  1  -0.01728402  0.85697514  0.14756799  1
  In  In24  1  0.32298344  0.64811655  0.68342067  1
  In  In25  1  0.49446963  0.66978811  0.15719664  1
  In  In26  1  0.83266996  0.30822566  0.47200584  1
  In  In27  1  0.83402625  0.49387924  0.31494920  1
  In  In28  1  0.01204896  0.34742069  0.00235888  1
  In  In29  1  0.83141409  0.49036035  0.66207464  1
  In  In30  1  -0.00222585  0.15907645  0.17730499  1
  In  In31  1  0.65142674  0.67483630  0.33144159  1
  In  In32  1  0.68255998  0.15883191  0.15975172  1
  In  In33  1  0.48232023  0.82550938  0.66447760  1
  In  In34  1  -0.02973851  0.68790777  -0.01175948  1
  In  In35  1  0.33806898  -0.01156125  0.00479019  1
  In  In36  1  0.50610210  0.84461604  -0.00437184  1
  In  In37  1  0.50696599  0.01760454  0.83984238  1
  In  In38  1  0.50130417  -0.00146906  0.49995601  1
  In  In39  1  0.16154211  0.01940749  0.18151067  1
  In  In40  1  0.67694235  0.33522729  -0.00669802  1
  In  In41  1  0.34227141  0.16862165  0.81968035  1
  In  In42  1  0.66484680  0.84365455  0.51105835  1
  In  In43  1  0.34377257  0.65358103  -0.02851086  1
  In  In44  1  0.48579850  0.81748834  0.31530385  1
  In  In45  1  0.31080951  0.32762348  0.32165318  1
  In  In46  1  0.31880610  0.13262944  0.49221337  1
  In  In47  1  0.49900895  0.34635184  0.83096642  1
  In  In48  1  0.65795626  0.68819921  0.67089518  1
  In  In49  1  -0.02023895  0.48921020  0.49537527  1
  In  In50  1  0.49214786  0.31931504  0.50021418  1
  In  In51  1  0.31254508  0.51785579  0.48499785  1
  In  In52  1  0.68665047  0.00176336  0.31214052  1
  In  In53  1  0.65549389  0.51455753  0.84466372  1
  In  In54  1  0.35636824  0.34072556  0.67787266  1
  In  In55  1  0.85646712  0.82594049  0.67038530  1
  In  In56  1  0.84315172  0.85677506  0.34822004  1
  In  In57  1  0.33125356  0.34147809  -0.01360849  1
  In  In58  1  0.16399347  0.84181939  0.67857594  1
  In  In59  1  0.18524688  0.50541574  0.34394296  1
  In  In60  1  -0.01503894  0.18838496  0.81414052  1
  In  In61  1  0.67776815  0.83775218  0.85694366  1
  In  In62  1  0.13058785  0.15376545  0.35099947  1
  In  In63  1  0.34495817  0.16662580  0.16806782  1
  In  In64  1  0.82761724  -0.01179003  0.82207639  1
  In  In65  1  0.84603754  0.33711496  0.15833473  1
  In  In66  1  0.66034670  0.33724435  0.35276463  1
  In  In67  1  0.49845476  -0.01987725  0.16796042  1
  In  In68  1  0.00637137  0.67688735  0.67149084  1
  In  In69  1  0.48781008  0.33720167  0.14980284  1
  In  In70  1  0.85917019  0.01302802  0.50575468  1
  In  In71  1  0.16413439  0.66859198  0.48812798  1
  Te  Te72  1  0.06479517  0.06734144  0.07261044  1
  Te  Te73  1  0.09961935  0.03363087  0.42928538  1
  Te  Te74  1  0.09432801  0.08417770  0.77003116  1
  Te  Te75  1  0.08505729  0.41933120  0.10569888  1
  Te  Te76  1  0.07974224  0.41419700  0.40948369  1
  Te  Te77  1  0.06340183  0.39181040  0.73585503  1
  Te  Te78  1  0.06833860  0.74516594  0.08945059  1
  Te  Te79  1  0.09817988  0.78759016  0.42571008  1
  Te  Te80  1  0.09619626  0.74208456  0.76909396  1
  Te  Te81  1  0.43197627  0.08467407  0.07467159  1
  Te  Te82  1  0.41247885  0.06443534  0.40228514  1
  Te  Te83  1  0.42581849  0.08162437  0.73699298  1
  Te  Te84  1  0.40144501  0.43167642  0.07958020  1
  Te  Te85  1  0.40534250  0.41611623  0.41745128  1
  Te  Te86  1  0.38423259  0.45117240  0.79329372  1
  Te  Te87  1  0.40677129  0.77350823  0.08691827  1
  Te  Te88  1  0.40684928  0.75422625  0.42133170  1
  Te  Te89  1  0.41753664  0.73385344  0.75782410  1
  Te  Te90  1  0.79149686  0.06511686  0.11728010  1
  Te  Te91  1  0.74986460  0.08202627  0.42364561  1
  Te  Te92  1  0.76790129  0.10033231  0.73921276  1
  Te  Te93  1  0.74339125  0.42839538  0.09250031  1
  Te  Te94  1  0.75315883  0.43177822  0.42724325  1
  Te  Te95  1  0.73611227  0.41900672  0.75677271  1
  Te  Te96  1  0.77366526  0.75498401  0.05719679  1
  Te  Te97  1  0.75664695  0.74949314  0.43169227  1
  Te  Te98  1  0.76211709  0.75012001  0.76199451  1
  Te  Te99  1  0.09952511  0.24418055  0.24046635  1
  Te  Te100  1  0.06909067  0.20923056  0.57332049  1
  Te  Te101  1  0.08818227  0.25299939  0.91188150  1
  Te  Te102  1  0.09805528  0.59036440  0.25257232  1
  Te  Te103  1  0.08039405  0.56943666  0.57722804  1
  Te  Te104  1  0.07125129  0.58802468  0.93181236  1
  Te  Te105  1  0.08791587  0.90609569  0.24300891  1
  Te  Te106  1  0.09672066  0.94222344  0.58916114  1
  Te  Te107  1  0.07848188  0.90404813  0.94773568  1
  Te  Te108  1  0.42867961  0.25199353  0.26290169  1
  Te  Te109  1  0.40197115  0.23119946  0.58456459  1
  Te  Te110  1  0.43038742  0.24254724  0.91845294  1
  Te  Te111  1  0.40397829  0.59376895  0.24597166  1
  Te  Te112  1  0.41280587  0.57026021  0.58603063  1
  Te  Te113  1  0.42648956  0.56125333  0.89565225  1
  Te  Te114  1  0.38954184  0.91805780  0.25525356  1
  Te  Te115  1  0.39982813  0.91041813  0.57085463  1
  Te  Te116  1  0.41294816  0.91282677  0.89644533  1
  Te  Te117  1  0.75695842  0.25532593  0.25456777  1
  Te  Te118  1  0.75151312  0.22928545  0.56709132  1
  Te  Te119  1  0.75684842  0.24957806  0.89810313  1
  Te  Te120  1  0.73640325  0.58419397  0.24133681  1
  Te  Te121  1  0.73546478  0.58410078  0.58780223  1
  Te  Te122  1  0.76082201  0.60127137  0.90918486  1
  Te  Te123  1  0.74703801  0.88813953  0.24260177  1
  Te  Te124  1  0.76376713  0.92261503  0.59544148  1
  Te  Te125  1  0.77981882  0.90998151  0.94284499  1
  Te  Te126  1  0.25202006  0.26106394  0.09474241  1
  Te  Te127  1  0.23917644  0.25635965  0.43553806  1
  Te  Te128  1  0.24706130  0.26629006  0.75310884  1
  Te  Te129  1  0.26230985  0.59973755  0.07988754  1
  Te  Te130  1  0.27538121  0.63043590  0.38729995  1
  Te  Te131  1  0.21158648  0.60805362  0.77462683  1
  Te  Te132  1  0.24598313  0.91506546  0.09969303  1
  Te  Te133  1  0.19761815  0.92092142  0.38227185  1
  Te  Te134  1  0.26339749  0.92094641  0.75431133  1
  Te  Te135  1  0.58863974  0.24367401  0.07553858  1
  Te  Te136  1  0.57834967  0.23455201  0.41626358  1
  Te  Te137  1  0.57288262  0.24474881  0.74470471  1
  Te  Te138  1  0.57948852  0.57192517  0.08673633  1
  Te  Te139  1  0.57517334  0.58581858  0.41801956  1
  Te  Te140  1  0.57146003  0.58541015  0.74040586  1
  Te  Te141  1  0.59731361  0.93911132  0.06500236  1
  Te  Te142  1  0.58701821  0.90841103  0.39786550  1
  Te  Te143  1  0.59401633  0.90592489  0.74417262  1
  Te  Te144  1  0.91295856  0.23816197  0.06425337  1
  Te  Te145  1  0.94521679  0.24709999  0.39934397  1
  Te  Te146  1  0.93241865  0.30008529  0.73474633  1
  Te  Te147  1  0.93120603  0.57607503  0.09396840  1
  Te  Te148  1  0.90711771  0.59813269  0.41726039  1
  Te  Te149  1  0.91915623  0.57957721  0.74889549  1
  Te  Te150  1  0.88136331  0.92227603  0.06281032  1
  Te  Te151  1  0.94813045  0.93991389  0.41171995  1
  Te  Te152  1  0.94761721  0.89779466  0.77254400  1
  Te  Te153  1  0.25338662  0.10210392  0.26947833  1
  Te  Te154  1  0.24061724  0.04896991  0.58674740  1
  Te  Te155  1  0.25521121  0.09204620  0.92782490  1
  Te  Te156  1  0.27165658  0.44334687  0.24100306  1
  Te  Te157  1  0.25236300  0.41933953  0.58833456  1
  Te  Te158  1  0.22233470  0.40809558  0.91327535  1
  Te  Te159  1  0.19881639  0.71916421  0.26580113  1
  Te  Te160  1  0.25309085  0.74877455  0.58366393  1
  Te  Te161  1  0.26879843  0.75798183  0.89850527  1
  Te  Te162  1  0.57952314  0.08519858  0.24585512  1
  Te  Te163  1  0.58182227  0.09964535  0.57075994  1
  Te  Te164  1  0.61315806  0.05676074  0.93575815  1
  Te  Te165  1  0.58712150  0.41162951  0.24324700  1
  Te  Te166  1  0.58606084  0.41070298  0.57820533  1
  Te  Te167  1  0.57097105  0.42974303  0.93706508  1
  Te  Te168  1  0.59509044  0.76462729  0.22272620  1
  Te  Te169  1  0.56545006  0.74324190  0.56342426  1
  Te  Te170  1  0.57528985  0.73949059  0.91099270  1
  Te  Te171  1  0.93477208  0.05452590  0.26076076  1
  Te  Te172  1  0.92441026  0.11715571  0.58901988  1
  Te  Te173  1  0.91992945  0.07996273  0.90283133  1
  Te  Te174  1  0.93547414  0.41631368  0.24400196  1
  Te  Te175  1  0.91262906  0.38627660  0.58572130  1
  Te  Te176  1  0.90319642  0.40525048  0.91168764  1
  Te  Te177  1  0.91937973  0.74995923  0.26044854  1
  Te  Te178  1  0.95560809  0.77593512  0.56634088  1
  Te  Te179  1  0.94694235  0.78046028  0.87721336  1
