# generated using pymatgen
data_In2Te3
_symmetry_space_group_name_H-M   'P 1'
_cell_length_a   18.84708797
_cell_length_b   18.83941544
_cell_length_c   18.83778511
_cell_angle_alpha   90.01851693
_cell_angle_beta   89.98744917
_cell_angle_gamma   89.94200879
_symmetry_Int_Tables_number   1
_chemical_formula_structural   In2Te3
_chemical_formula_sum   'In72 Te108'
_cell_volume   6688.69300846
_cell_formula_units_Z   36
loop_
 _symmetry_equiv_pos_site_id
 _symmetry_equiv_pos_as_xyz
  1  'x, y, z'
loop_
 _atom_site_type_symbol
 _atom_site_label
 _atom_site_symmetry_multiplicity
 _atom_site_fract_x
 _atom_site_fract_y
 _atom_site_fract_z
 _atom_site_occupancy
  In  In0  1  0.00140590  0.34197563  0.32303553  1
  In  In1  1  0.65062387  0.65442094  0.35214397  1
  In  In2  1  0.17586519  0.35509702  0.50141545  1
  In  In3  1  0.65334352  0.81697428  0.52392536  1
  In  In4  1  0.18710607  -0.01180975  0.14331630  1
  In  In5  1  0.16882575  -0.03778723  0.50823224  1
  In  In6  1  0.68974653  0.52104052  0.54465830  1
  In  In7  1  0.18249184  0.68329378  0.52903961  1
  In  In8  1  0.85758630  -0.00713131  0.82384141  1
  In  In9  1  0.48358939  -0.02089877  0.84179281  1
  In  In10  1  0.64575951  0.49401591  0.17360426  1
  In  In11  1  0.00824873  0.65138328  0.00277663  1
  In  In12  1  -0.01419153  0.16179237  0.52582057  1
  In  In13  1  0.35656234  0.51257168  0.51102440  1
  In  In14  1  0.18381814  0.83949978  0.33672887  1
  In  In15  1  0.65614061  0.00434133  0.63874887  1
  In  In16  1  0.17851666  0.53319583  0.69166145  1
  In  In17  1  0.47895803  0.81840473  0.67633191  1
  In  In18  1  0.47247434  0.52065639  -0.02828373  1
  In  In19  1  0.49162497  0.34440797  0.16108646  1
  In  In20  1  0.17645606  0.13982970  0.31666032  1
  In  In21  1  0.16827578  0.14798551  0.69879499  1
  In  In22  1  0.34015056  0.67860949  0.33699705  1
  In  In23  1  0.18551603  0.32265952  0.83481485  1
  In  In24  1  0.67018267  0.80704011  0.83416011  1
  In  In25  1  0.33291163  0.83850949  0.50666988  1
  In  In26  1  0.49430846  0.66773624  0.15411002  1
  In  In27  1  0.68884123  0.17769507  0.18340491  1
  In  In28  1  0.65694223  0.00767079  0.01780404  1
  In  In29  1  -0.00553992  0.81661282  0.50101856  1
  In  In30  1  0.16366783  0.32668109  0.12143678  1
  In  In31  1  0.01344753  0.83875213  0.82287742  1
  In  In32  1  0.82464811  0.01131221  0.17955435  1
  In  In33  1  0.82388007  0.33005621  0.51698315  1
  In  In34  1  0.67776807  0.34890193  0.67253590  1
  In  In35  1  0.17012381  0.50569590  -0.02772027  1
  In  In36  1  0.67061677  0.19138738  0.83716254  1
  In  In37  1  -0.00814084  0.34625241  0.65389242  1
  In  In38  1  0.35221365  0.16518121  0.50836460  1
  In  In39  1  0.32912992  -0.02771877  0.69225616  1
  In  In40  1  0.82498503  0.66162700  0.83195344  1
  In  In41  1  0.67064485  0.35376278  -0.00727931  1
  In  In42  1  0.52315609  0.48724568  0.34849981  1
  In  In43  1  -0.03241078  0.19610889  0.14693754  1
  In  In44  1  0.83717825  0.16569013  0.66080796  1
  In  In45  1  -0.02006326  0.64610326  0.33269659  1
  In  In46  1  0.14319478  0.49809188  0.33669432  1
  In  In47  1  0.67648879  0.52095619  0.81670299  1
  In  In48  1  0.83545259  0.83610969  0.33336218  1
  In  In49  1  0.47506789  0.81515969  -0.03476357  1
  In  In50  1  0.34640451  0.32462678  0.31950347  1
  In  In51  1  -0.00323267  0.66675235  0.68341372  1
  In  In52  1  0.83465705  0.67223607  0.15007814  1
  In  In53  1  0.00607029  -0.01120790  0.33561555  1
  In  In54  1  0.47630849  0.50188501  0.70958571  1
  In  In55  1  0.48693941  0.83559478  0.32913568  1
  In  In56  1  0.52922660  0.18491898  0.35196220  1
  In  In57  1  0.15587936  0.66855304  0.17011544  1
  In  In58  1  0.52099219  0.17790484  0.64897920  1
  In  In59  1  0.67859604  -0.00574762  0.34676087  1
  In  In60  1  0.00804902  0.17703619  0.82559303  1
  In  In61  1  0.47752404  0.17963007  -0.00206159  1
  In  In62  1  0.49103945  -0.00241794  0.14540971  1
  In  In63  1  0.18054039  0.15800051  -0.00937597  1
  In  In64  1  0.18175095  0.79898279  -0.03130559  1
  In  In65  1  0.82135639  0.83187844  0.00633203  1
  In  In66  1  0.31654869  0.51481942  0.15540448  1
  In  In67  1  0.78785524  0.17888902  0.34169707  1
  In  In68  1  0.33529958  0.17346860  0.83549335  1
  In  In69  1  0.00156108  -0.00344345  0.00133007  1
  In  In70  1  -0.00088249  0.48663922  0.86308822  1
  In  In71  1  0.82787168  0.48116888  0.34693005  1
  Te  Te72  1  0.07584480  0.09333069  0.09500482  1
  Te  Te73  1  0.08516061  0.08207355  0.43267345  1
  Te  Te74  1  0.05580081  0.06238177  0.74164453  1
  Te  Te75  1  0.08347547  0.43764708  0.07178068  1
  Te  Te76  1  0.05605160  0.42594257  0.43911648  1
  Te  Te77  1  0.09254942  0.41416725  0.75031181  1
  Te  Te78  1  0.07875831  0.76284682  0.07823653  1
  Te  Te79  1  0.09094930  0.73893868  0.40406671  1
  Te  Te80  1  0.10537766  0.74535616  0.74986278  1
  Te  Te81  1  0.39843174  0.06942499  0.05365044  1
  Te  Te82  1  0.42930479  0.09217214  0.40693002  1
  Te  Te83  1  0.42961199  0.08610423  0.74224319  1
  Te  Te84  1  0.40050140  0.42177186  0.06799778  1
  Te  Te85  1  0.42357076  0.40096094  0.42648802  1
  Te  Te86  1  0.39340314  0.41202655  0.79506099  1
  Te  Te87  1  0.39956869  0.74149493  0.07215408  1
  Te  Te88  1  0.42966307  0.74028713  0.44077204  1
  Te  Te89  1  0.42014704  0.76689571  0.80552298  1
  Te  Te90  1  0.76424560  0.10087455  0.07214426  1
  Te  Te91  1  0.76299177  0.07317560  0.43865121  1
  Te  Te92  1  0.74341181  0.08339241  0.75406218  1
  Te  Te93  1  0.75006803  0.42311348  0.09660714  1
  Te  Te94  1  0.72145914  0.40927432  0.43221595  1
  Te  Te95  1  0.77324273  0.42783349  0.75166524  1
  Te  Te96  1  0.72859648  0.74420525  0.07750369  1
  Te  Te97  1  0.74888078  0.74704422  0.42161641  1
  Te  Te98  1  0.74940846  0.73734429  0.72452884  1
  Te  Te99  1  0.09359863  0.24800059  0.24395949  1
  Te  Te100  1  0.09745681  0.24839999  0.58868188  1
  Te  Te101  1  0.08344089  0.26034460  0.92860499  1
  Te  Te102  1  0.05931377  0.56600184  0.22828237  1
  Te  Te103  1  0.08427286  0.58129176  0.58225657  1
  Te  Te104  1  0.09390641  0.60532234  0.88556706  1
  Te  Te105  1  0.09055317  0.91049087  0.23901300  1
  Te  Te106  1  0.07880031  0.89104453  0.59872710  1
  Te  Te107  1  0.10097717  0.92241390  0.91546022  1
  Te  Te108  1  0.42813936  0.22882925  0.23708586  1
  Te  Te109  1  0.42595129  0.26892109  0.58059127  1
  Te  Te110  1  0.42148271  0.27717768  0.90021106  1
  Te  Te111  1  0.42058510  0.56367534  0.26309233  1
  Te  Te112  1  0.39245399  0.60112313  0.62661811  1
  Te  Te113  1  0.39883005  0.61560852  0.88028970  1
  Te  Te114  1  0.40681370  0.91308216  0.23357122  1
  Te  Te115  1  0.42835648  0.92926064  0.58458200  1
  Te  Te116  1  0.37445574  0.92546631  0.92674291  1
  Te  Te117  1  0.78390681  0.28013948  0.23526891  1
  Te  Te118  1  0.72623059  0.23402418  0.58310223  1
  Te  Te119  1  0.76767802  0.26915909  0.91605198  1
  Te  Te120  1  0.74562134  0.58439957  0.25461343  1
  Te  Te121  1  0.76736798  0.62681624  0.61370292  1
  Te  Te122  1  0.76130220  0.57145456  0.93068798  1
  Te  Te123  1  0.73633105  0.90236054  0.23771262  1
  Te  Te124  1  0.75210682  0.90490358  0.59011625  1
  Te  Te125  1  0.73965780  0.92770445  0.91194145  1
  Te  Te126  1  0.27189454  0.24553398  0.06767290  1
  Te  Te127  1  0.24537626  0.25025833  0.41368486  1
  Te  Te128  1  0.26906907  0.25766004  0.72402651  1
  Te  Te129  1  0.24585249  0.60729694  0.06071371  1
  Te  Te130  1  0.24778848  0.58225718  0.41611350  1
  Te  Te131  1  0.29894131  0.59025841  0.75847702  1
  Te  Te132  1  0.26188217  0.89721722  0.05150915  1
  Te  Te133  1  0.27816297  0.93760463  0.40322645  1
  Te  Te134  1  0.22461008  0.87262569  0.72170411  1
  Te  Te135  1  0.58801028  0.24706136  0.08081605  1
  Te  Te136  1  0.62532646  0.27710663  0.41050147  1
  Te  Te137  1  0.57364787  0.27431041  0.75698492  1
  Te  Te138  1  0.58028358  0.57956988  0.06596993  1
  Te  Te139  1  0.57191719  0.58072474  0.45787750  1
  Te  Te140  1  0.58296508  0.60541801  0.73422837  1
  Te  Te141  1  0.57012612  0.89489337  0.06471186  1
  Te  Te142  1  0.57888807  0.90974697  0.42482616  1
  Te  Te143  1  0.58591504  0.91214915  0.74903012  1
  Te  Te144  1  0.89588120  0.28798324  0.05832833  1
  Te  Te145  1  0.91774724  0.25139709  0.42158005  1
  Te  Te146  1  0.90772078  0.26505547  0.75139575  1
  Te  Te147  1  0.89038097  0.57491419  0.05084172  1
  Te  Te148  1  0.90392100  0.57285842  0.43389976  1
  Te  Te149  1  0.91621795  0.56152226  0.75968343  1
  Te  Te150  1  0.91191661  0.91718546  0.09508896  1
  Te  Te151  1  0.90880375  0.92548279  0.43316153  1
  Te  Te152  1  0.89767567  0.88021832  0.73984066  1
  Te  Te153  1  0.27287224  0.07109920  0.23150161  1
  Te  Te154  1  0.24895003  0.06874939  0.59179043  1
  Te  Te155  1  0.23015512  0.07754479  0.87661908  1
  Te  Te156  1  0.24168756  0.41613924  0.25076322  1
  Te  Te157  1  0.25828690  0.43446399  0.59884784  1
  Te  Te158  1  0.27514990  0.42588113  0.89873647  1
  Te  Te159  1  0.26307139  0.75805961  0.23373605  1
  Te  Te160  1  0.27147891  0.76109322  0.62220951  1
  Te  Te161  1  0.28649443  0.73287656  0.88189706  1
  Te  Te162  1  0.59399301  0.07400303  0.24501523  1
  Te  Te163  1  0.57791235  0.08789688  0.54587374  1
  Te  Te164  1  0.57662182  0.08609902  0.91219896  1
  Te  Te165  1  0.59639611  0.38097156  0.26587339  1
  Te  Te166  1  0.57560776  0.43803646  0.60421875  1
  Te  Te167  1  0.57923930  0.43537364  0.90251239  1
  Te  Te168  1  0.58258458  0.74553326  0.25027408  1
  Te  Te169  1  0.57881335  0.72403422  0.61693356  1
  Te  Te170  1  0.57208203  0.71848039  0.89957569  1
  Te  Te171  1  0.92226749  0.09427173  0.26227647  1
  Te  Te172  1  0.93332344  0.05914760  0.61874564  1
  Te  Te173  1  0.91688241  0.09388850  0.92043953  1
  Te  Te174  1  0.90996265  0.42061941  0.23856968  1
  Te  Te175  1  0.89293983  0.43655052  0.59244302  1
  Te  Te176  1  0.92830109  0.38310822  0.93854697  1
  Te  Te177  1  0.92647048  0.75555658  0.24121672  1
  Te  Te178  1  0.90595112  0.72303024  0.57805318  1
  Te  Te179  1  0.92023738  0.75436650  0.91754784  1
