# generated using pymatgen
data_In2Te3
_symmetry_space_group_name_H-M   'P 1'
_cell_length_a   18.95454691
_cell_length_b   18.96061389
_cell_length_c   18.94717015
_cell_angle_alpha   89.90086934
_cell_angle_beta   90.09744311
_cell_angle_gamma   90.29093550
_symmetry_Int_Tables_number   1
_chemical_formula_structural   In2Te3
_chemical_formula_sum   'In72 Te108'
_cell_volume   6809.31282940
_cell_formula_units_Z   36
loop_
 _symmetry_equiv_pos_site_id
 _symmetry_equiv_pos_as_xyz
  1  'x, y, z'
loop_
 _atom_site_type_symbol
 _atom_site_label
 _atom_site_symmetry_multiplicity
 _atom_site_fract_x
 _atom_site_fract_y
 _atom_site_fract_z
 _atom_site_occupancy
  In  In0  1  0.51129192  0.66596028  0.82686821  1
  In  In1  1  -0.00944587  0.16452646  0.16514976  1
  In  In2  1  0.51181017  0.81032666  0.66213931  1
  In  In3  1  0.34076901  0.67816070  0.34687402  1
  In  In4  1  0.32785144  0.16038086  0.15410742  1
  In  In5  1  0.19886853  0.03287328  0.87042043  1
  In  In6  1  0.66588754  0.51135422  0.82250827  1
  In  In7  1  0.49691002  0.00023127  0.83186434  1
  In  In8  1  0.67304665  0.18259927  0.47870335  1
  In  In9  1  0.67268618  0.66211037  0.35038303  1
  In  In10  1  0.31616662  0.33427652  -0.03521793  1
  In  In11  1  0.66123073  0.53799563  0.52521441  1
  In  In12  1  0.81565956  0.36497482  0.13688142  1
  In  In13  1  0.66401035  0.01253455  0.67345608  1
  In  In14  1  0.17712195  0.68996441  0.48374178  1
  In  In15  1  0.65438300  0.34569305  0.68281411  1
  In  In16  1  -0.00428185  0.50206814  0.50609607  1
  In  In17  1  0.00445676  0.16888683  0.83465953  1
  In  In18  1  0.85881702  0.14368071  0.65345064  1
  In  In19  1  0.14783373  0.34272586  0.17578841  1
  In  In20  1  0.83658087  -0.01559740  0.80830866  1
  In  In21  1  0.84524141  0.81957718  -0.00845545  1
  In  In22  1  0.66608982  0.82646004  0.51975361  1
  In  In23  1  0.47258918  0.15343223  0.33214184  1
  In  In24  1  0.48768446  0.01423745  0.16355780  1
  In  In25  1  0.31630861  -0.00639134  0.34834085  1
  In  In26  1  -0.00725657  0.50217125  0.13058934  1
  In  In27  1  0.46965823  0.49696497  0.61802892  1
  In  In28  1  0.67936097  0.83573163  0.19035986  1
  In  In29  1  0.85797014  0.13041477  0.34770912  1
  In  In30  1  -0.00174271  0.66672508  0.66785963  1
  In  In31  1  0.34206526  0.83203435  0.19472824  1
  In  In32  1  0.46875752  0.46320398  0.34691180  1
  In  In33  1  0.82276496  0.17564065  -0.01880519  1
  In  In34  1  0.67890029  0.66513436  -0.03654710  1
  In  In35  1  0.48550651  -0.00520178  0.48909214  1
  In  In36  1  0.18488699  0.67857107  0.16025437  1
  In  In37  1  0.01136590  -0.00128346  0.02057681  1
  In  In38  1  0.68942135  0.19153662  0.14608576  1
  In  In39  1  0.15936228  0.00577472  0.17073527  1
  In  In40  1  0.14663300  0.63438053  0.84351577  1
  In  In41  1  0.29522029  0.31717747  0.66651586  1
  In  In42  1  0.18076793  0.26442205  0.49577121  1
  In  In43  1  -0.00791729  0.31104041  0.35804024  1
  In  In44  1  -0.00397173  0.65037752  0.34923919  1
  In  In45  1  0.18628815  0.84290906  0.01592751  1
  In  In46  1  0.15386632  0.48605767  0.68652351  1
  In  In47  1  0.84370259  0.64202022  0.16222819  1
  In  In48  1  0.13106425  0.84657221  0.64268222  1
  In  In49  1  0.33785949  0.85605892  0.82634924  1
  In  In50  1  0.33216505  0.65585865  0.00547500  1
  In  In51  1  0.66072949  0.01325059  0.00433390  1
  In  In52  1  0.51314726  0.32029751  0.14500274  1
  In  In53  1  0.50163223  0.66478451  0.17380054  1
  In  In54  1  0.69731139  0.78980798  0.82153012  1
  In  In55  1  0.32246555  0.84178658  0.50162989  1
  In  In56  1  0.67261411  0.00860543  0.32819348  1
  In  In57  1  0.01175705  0.82210370  0.18435894  1
  In  In58  1  0.30533407  0.49790044  0.14271667  1
  In  In59  1  0.29246502  0.01757990  0.64193931  1
  In  In60  1  0.86536856  0.86751390  0.38048823  1
  In  In61  1  0.83211088  0.35076930  0.51770515  1
  In  In62  1  0.51691863  0.50083309  -0.01310357  1
  In  In63  1  0.18436964  0.52775043  0.34509998  1
  In  In64  1  0.46653357  0.32560910  0.80350828  1
  In  In65  1  0.46909378  0.16890607  0.65760423  1
  In  In66  1  0.84089184  0.65247977  0.82578111  1
  In  In67  1  0.84235180  0.49238377  0.33516100  1
  In  In68  1  0.65675886  0.32836993  0.30756484  1
  In  In69  1  0.85526291  0.35964018  0.85193357  1
  In  In70  1  0.86433591  0.82414746  0.66493438  1
  In  In71  1  0.14884323  0.32795062  0.83415287  1
  Te  Te72  1  0.10083955  0.10853022  0.07462541  1
  Te  Te73  1  0.10174901  0.13918439  0.45932479  1
  Te  Te74  1  0.11692169  0.09978045  0.76385814  1
  Te  Te75  1  0.07611590  0.40246237  0.05921249  1
  Te  Te76  1  0.07406466  0.43239383  0.39753499  1
  Te  Te77  1  0.05817819  0.38020417  0.72658415  1
  Te  Te78  1  0.08109022  0.74827546  0.07157528  1
  Te  Te79  1  0.05855738  0.75933349  0.43024793  1
  Te  Te80  1  0.09391323  0.74515156  0.75527796  1
  Te  Te81  1  0.42508999  0.09880299  0.05816645  1
  Te  Te82  1  0.38588073  0.09765647  0.44141426  1
  Te  Te83  1  0.39201372  0.07506090  0.74389211  1
  Te  Te84  1  0.41403252  0.42053481  0.07089761  1
  Te  Te85  1  0.39310507  0.38211246  0.44786937  1
  Te  Te86  1  0.38771578  0.42698515  0.72590430  1
  Te  Te87  1  0.41622923  0.75466982  0.08658465  1
  Te  Te88  1  0.42508557  0.75720623  0.43758584  1
  Te  Te89  1  0.40680615  0.74334194  0.74844486  1
  Te  Te90  1  0.76862950  0.07604152  0.09096846  1
  Te  Te91  1  0.75752891  0.06363917  0.44259553  1
  Te  Te92  1  0.75272308  0.09952154  0.76005364  1
  Te  Te93  1  0.74334666  0.44932777  0.04672771  1
  Te  Te94  1  0.73996992  0.40894833  0.41189832  1
  Te  Te95  1  0.76408333  0.42957101  0.74206987  1
  Te  Te96  1  0.74431019  0.74539488  0.08646375  1
  Te  Te97  1  0.76377189  0.76128064  0.42421361  1
  Te  Te98  1  0.74626361  0.69511481  0.71179598  1
  Te  Te99  1  0.08420644  0.23710271  0.26437928  1
  Te  Te100  1  0.07849687  0.20360723  0.59040492  1
  Te  Te101  1  0.08618738  0.23765964  0.93467585  1
  Te  Te102  1  0.08298908  0.58733339  0.24012700  1
  Te  Te103  1  0.09968401  0.59189986  0.57475481  1
  Te  Te104  1  0.03862191  0.53663487  0.87362575  1
  Te  Te105  1  0.08314658  0.92217338  0.26478356  1
  Te  Te106  1  0.07881666  0.96257062  0.56890468  1
  Te  Te107  1  0.10145963  0.92717722  0.92241146  1
  Te  Te108  1  0.41256976  0.25616716  0.23840997  1
  Te  Te109  1  0.40556178  0.27237281  0.57467614  1
  Te  Te110  1  0.39865708  0.23142768  0.89780131  1
  Te  Te111  1  0.39483682  0.57928780  0.24281069  1
  Te  Te112  1  0.40518256  0.60562829  0.54445119  1
  Te  Te113  1  0.41459484  0.57721425  0.90614110  1
  Te  Te114  1  0.43104736  0.92603907  0.27442604  1
  Te  Te115  1  0.41768468  0.92427068  0.60496393  1
  Te  Te116  1  0.41660548  0.92392525  0.92871223  1
  Te  Te117  1  0.76964048  0.23502025  0.27012758  1
  Te  Te118  1  0.74343668  0.24721663  0.59737874  1
  Te  Te119  1  0.74711230  0.28592445  0.92105444  1
  Te  Te120  1  0.74261932  0.57056822  0.25127466  1
  Te  Te121  1  0.77185863  0.58732419  0.60287265  1
  Te  Te122  1  0.77584794  0.55152323  0.93275216  1
  Te  Te123  1  0.77972560  0.92226116  0.26486825  1
  Te  Te124  1  0.75741450  0.91326601  0.60427181  1
  Te  Te125  1  0.74880319  0.90983414  0.91579709  1
  Te  Te126  1  0.24868180  0.27029032  0.08563549  1
  Te  Te127  1  0.27784659  0.30264769  0.39031834  1
  Te  Te128  1  0.22887093  0.22378201  0.76041926  1
  Te  Te129  1  0.21160629  0.57341120  0.05234854  1
  Te  Te130  1  0.28365348  0.57336315  0.45336083  1
  Te  Te131  1  0.24757699  0.57701913  0.75554210  1
  Te  Te132  1  0.27315538  0.93124274  0.10233856  1
  Te  Te133  1  0.22299565  0.93255875  0.44427262  1
  Te  Te134  1  0.22741212  0.92277790  0.74439257  1
  Te  Te135  1  0.59740105  0.25072030  0.04891679  1
  Te  Te136  1  0.56400194  0.25466752  0.40455938  1
  Te  Te137  1  0.57455399  0.23350778  0.74748905  1
  Te  Te138  1  0.59276131  0.59679851  0.07554609  1
  Te  Te139  1  0.56678816  0.56578595  0.40568823  1
  Te  Te140  1  0.56081452  0.56440100  0.72848912  1
  Te  Te141  1  0.58741852  0.91887710  0.10004981  1
  Te  Te142  1  0.59200729  0.91584742  0.41863683  1
  Te  Te143  1  0.59949062  0.89819275  0.75230626  1
  Te  Te144  1  0.90509911  0.25692938  0.08006540  1
  Te  Te145  1  0.90632737  0.23211666  0.45252331  1
  Te  Te146  1  0.90295909  0.24686259  0.75536761  1
  Te  Te147  1  0.93587020  0.61226206  0.05317307  1
  Te  Te148  1  0.88976274  0.58865807  0.44101684  1
  Te  Te149  1  0.93692076  0.56144822  0.75504055  1
  Te  Te150  1  0.91818466  0.90399961  0.09423182  1
  Te  Te151  1  0.94485092  0.95847642  0.46446021  1
  Te  Te152  1  0.94633951  0.89859928  0.76326876  1
  Te  Te153  1  0.24315866  0.09523436  0.26252888  1
  Te  Te154  1  0.22888018  0.13216188  0.56800046  1
  Te  Te155  1  0.30626874  0.09623119  0.94658628  1
  Te  Te156  1  0.25235111  0.41865828  0.26178133  1
  Te  Te157  1  0.20953182  0.40020585  0.57622725  1
  Te  Te158  1  0.23789139  0.43289212  0.89200258  1
  Te  Te159  1  0.23464322  0.76224993  0.27679168  1
  Te  Te160  1  0.24661817  0.75625663  0.60092583  1
  Te  Te161  1  0.25463152  0.75153411  0.91592221  1
  Te  Te162  1  0.59122101  0.10510568  0.24235120  1
  Te  Te163  1  0.58000291  0.08991312  0.57226701  1
  Te  Te164  1  0.59001274  0.09035517  0.90278460  1
  Te  Te165  1  0.57013653  0.42914573  0.23457083  1
  Te  Te166  1  0.58632088  0.41143930  0.56538404  1
  Te  Te167  1  0.57166219  0.40724930  0.88417066  1
  Te  Te168  1  0.57973287  0.75274571  0.26985935  1
  Te  Te169  1  0.58181618  0.71773817  0.57317672  1
  Te  Te170  1  0.57731022  0.76591037  0.91947532  1
  Te  Te171  1  0.95557331  0.05968250  0.26391057  1
  Te  Te172  1  0.94395053  0.03581428  0.60201356  1
  Te  Te173  1  0.91567232  0.06478873  0.92059853  1
  Te  Te174  1  0.92453313  0.40693100  0.24215248  1
  Te  Te175  1  0.94515646  0.39973143  0.60066176  1
  Te  Te176  1  0.96279426  0.41546080  0.93702545  1
  Te  Te177  1  0.90555902  0.73913764  0.26249326  1
  Te  Te178  1  0.94894447  0.76112586  0.56163230  1
  Te  Te179  1  0.92422249  0.76129556  0.88220450  1
