# generated using pymatgen
data_In2Te3
_symmetry_space_group_name_H-M   'P 1'
_cell_length_a   18.95353757
_cell_length_b   18.97091958
_cell_length_c   18.95090493
_cell_angle_alpha   90.18212588
_cell_angle_beta   90.05062130
_cell_angle_gamma   89.97199032
_symmetry_Int_Tables_number   1
_chemical_formula_structural   In2Te3
_chemical_formula_sum   'In72 Te108'
_cell_volume   6814.06389525
_cell_formula_units_Z   36
loop_
 _symmetry_equiv_pos_site_id
 _symmetry_equiv_pos_as_xyz
  1  'x, y, z'
loop_
 _atom_site_type_symbol
 _atom_site_label
 _atom_site_symmetry_multiplicity
 _atom_site_fract_x
 _atom_site_fract_y
 _atom_site_fract_z
 _atom_site_occupancy
  In  In0  1  -0.01176051  0.82709862  0.47276034  1
  In  In1  1  0.65075768  0.51693847  0.49972733  1
  In  In2  1  0.02175284  0.32440609  0.70136199  1
  In  In3  1  0.34674063  0.68189272  0.66098307  1
  In  In4  1  0.64759988  0.31265331  -0.00325032  1
  In  In5  1  0.32728959  0.84402637  0.49909072  1
  In  In6  1  0.16281797  0.68421277  0.84342379  1
  In  In7  1  0.34419662  0.16548217  0.45121718  1
  In  In8  1  0.84722228  0.32339558  0.50427838  1
  In  In9  1  0.00131415  0.66459293  0.03074619  1
  In  In10  1  0.00200142  0.14339117  0.84017303  1
  In  In11  1  0.33669488  0.49299121  0.16632237  1
  In  In12  1  0.34672068  0.84868234  0.16295356  1
  In  In13  1  0.78309843  0.70047842  0.21123876  1
  In  In14  1  0.16872948  0.83129401  0.34573976  1
  In  In15  1  0.64978957  0.49152181  0.16995667  1
  In  In16  1  0.19652547  0.64097468  0.46661099  1
  In  In17  1  0.84745739  0.32365097  0.16757185  1
  In  In18  1  -0.00594269  0.01321899  0.33537600  1
  In  In19  1  0.00023829  0.13646515  0.51287780  1
  In  In20  1  0.67775901  0.33885694  0.68841977  1
  In  In21  1  0.67090363  0.15998962  0.17714797  1
  In  In22  1  0.15248015  0.50877526  0.67843482  1
  In  In23  1  0.34579748  0.68204088  0.01707118  1
  In  In24  1  0.03326925  0.15245522  0.18373762  1
  In  In25  1  0.65010926  -0.02305970  0.01095947  1
  In  In26  1  0.33575456  0.17812711  0.82310138  1
  In  In27  1  -0.01063184  0.52871484  0.84692315  1
  In  In28  1  0.69435445  -0.04451996  0.66226953  1
  In  In29  1  0.14860577  -0.00214791  0.50059170  1
  In  In30  1  0.65722252  0.15045689  0.81035487  1
  In  In31  1  0.19083349  0.01368130  0.17318699  1
  In  In32  1  0.51805515  0.53355274  0.66286397  1
  In  In33  1  0.81625858  0.14410593  -0.03454908  1
  In  In34  1  0.51811702  0.68641751  0.49249897  1
  In  In35  1  0.16325090  0.35413210  0.50711228  1
  In  In36  1  -0.01273965  0.81517536  0.18585387  1
  In  In37  1  0.84328796  0.34600965  0.79728997  1
  In  In38  1  0.70027580  -0.00563463  0.31306875  1
  In  In39  1  0.48268744  0.68369518  0.18517129  1
  In  In40  1  0.65590650  0.83142381  0.84126282  1
  In  In41  1  0.81227352  0.80709225  0.02720068  1
  In  In42  1  0.80433477  0.49053964  0.64218228  1
  In  In43  1  0.82696822  0.12389188  0.63439950  1
  In  In44  1  0.33391457  0.34223907  0.31116897  1
  In  In45  1  -0.03332813  0.51866853  0.49107612  1
  In  In46  1  0.82352107  0.66588813  0.84038578  1
  In  In47  1  0.18901341  0.16267160  0.68742936  1
  In  In48  1  0.48104470  0.14797084  0.65618684  1
  In  In49  1  0.31575869  0.49012013  0.86897782  1
  In  In50  1  -0.02130573  0.85397881  0.80308179  1
  In  In51  1  0.51596698  -0.01216568  0.49542470  1
  In  In52  1  0.50103029  0.15992716  0.03838931  1
  In  In53  1  0.49750119  0.84448072  0.32806913  1
  In  In54  1  0.34638498  0.33979998  0.64884094  1
  In  In55  1  0.00921818  0.32318048  0.32838137  1
  In  In56  1  0.66675506  0.69443042  0.68182428  1
  In  In57  1  0.67273438  0.35116893  0.32421890  1
  In  In58  1  0.32212579  -0.01160166  0.66822158  1
  In  In59  1  0.51665506  0.35805286  0.44897389  1
  In  In60  1  0.64547069  0.15743270  0.46432951  1
  In  In61  1  0.18641529  0.17308151  0.02457125  1
  In  In62  1  -0.00438258  0.47971457  0.17015708  1
  In  In63  1  0.15622909  -0.02090506  0.84119059  1
  In  In64  1  0.47582631  0.50634185  0.01580620  1
  In  In65  1  0.02485375  0.31142305  0.02401875  1
  In  In66  1  0.48855805  0.35535643  0.85202759  1
  In  In67  1  -0.03222469  0.68733108  0.63609042  1
  In  In68  1  0.35606490  0.00766644  0.00411769  1
  In  In69  1  0.16326153  0.65507938  0.18906764  1
  In  In70  1  0.35320703  0.84407015  0.83577601  1
  In  In71  1  0.81747281  0.50053085  -0.02678918  1
  Te  Te72  1  0.08686843  0.06797764  0.07150782  1
  Te  Te73  1  0.09991738  0.10154484  0.40225511  1
  Te  Te74  1  0.08496642  0.06698779  0.73605022  1
  Te  Te75  1  0.09574071  0.42614383  0.07718091  1
  Te  Te76  1  0.06977180  0.43210565  0.41770510  1
  Te  Te77  1  0.09140228  0.42605450  0.78929908  1
  Te  Te78  1  0.09765375  0.76050785  0.09669416  1
  Te  Te79  1  0.08390066  0.72325828  0.40726908  1
  Te  Te80  1  0.06352641  0.74136392  0.74350849  1
  Te  Te81  1  0.39117209  0.09815749  0.12080391  1
  Te  Te82  1  0.43397150  0.06258152  0.39716874  1
  Te  Te83  1  0.41688365  0.06332149  0.76246849  1
  Te  Te84  1  0.40358656  0.38977840  0.07743700  1
  Te  Te85  1  0.39274697  0.42645734  0.42003020  1
  Te  Te86  1  0.41631300  0.43770555  0.74645888  1
  Te  Te87  1  0.44742285  0.78039117  0.07163643  1
  Te  Te88  1  0.40747228  0.75253199  0.41057576  1
  Te  Te89  1  0.43495094  0.75989196  0.74623648  1
  Te  Te90  1  0.74835373  0.07309505  0.08035117  1
  Te  Te91  1  0.75705442  0.07462451  0.42443261  1
  Te  Te92  1  0.76435680  0.05989449  0.75702121  1
  Te  Te93  1  0.75282601  0.39915161  0.07395168  1
  Te  Te94  1  0.75197840  0.41851995  0.43579487  1
  Te  Te95  1  0.73475679  0.45187284  0.77180314  1
  Te  Te96  1  0.69193990  0.78725572  0.11801182  1
  Te  Te97  1  0.80096093  0.72423304  0.36144800  1
  Te  Te98  1  0.77360099  0.77510248  0.75271190  1
  Te  Te99  1  0.09957628  0.27584909  0.22252712  1
  Te  Te100  1  0.08996825  0.24298848  0.58686881  1
  Te  Te101  1  0.09594994  0.23742995  0.91307852  1
  Te  Te102  1  0.05401556  0.58399002  0.26072611  1
  Te  Te103  1  0.07757690  0.59127063  0.57620317  1
  Te  Te104  1  0.09610556  0.58627555  0.93749906  1
  Te  Te105  1  0.08897455  0.92058187  0.24951636  1
  Te  Te106  1  0.08578426  0.88654862  0.56791722  1
  Te  Te107  1  0.05891672  0.90135441  0.91709086  1
  Te  Te108  1  0.38696665  0.22232952  0.24000360  1
  Te  Te109  1  0.42766314  0.24884152  0.55649057  1
  Te  Te110  1  0.42808381  0.23880341  0.92610894  1
  Te  Te111  1  0.39130512  0.59483495  0.26152136  1
  Te  Te112  1  0.42032712  0.59058121  0.56417727  1
  Te  Te113  1  0.41387022  0.59651428  0.91009309  1
  Te  Te114  1  0.40531617  0.93996750  0.26289794  1
  Te  Te115  1  0.42726046  0.90955385  0.59206694  1
  Te  Te116  1  0.44308370  0.91887163  0.92734945  1
  Te  Te117  1  0.76277670  0.24349980  0.26468426  1
  Te  Te118  1  0.74219986  0.24759520  0.58513014  1
  Te  Te119  1  0.74440968  0.26003993  0.88800719  1
  Te  Te120  1  0.74838555  0.56194686  0.25177482  1
  Te  Te121  1  0.74556764  0.61152113  0.57399125  1
  Te  Te122  1  0.72917324  0.62019893  0.94820666  1
  Te  Te123  1  0.80483110  0.90607880  0.25205508  1
  Te  Te124  1  0.74530557  0.86918761  0.55547438  1
  Te  Te125  1  0.75642090  0.90777009  0.92782363  1
  Te  Te126  1  0.26955677  0.28177173  0.07928301  1
  Te  Te127  1  0.23851023  0.26662546  0.40997252  1
  Te  Te128  1  0.25119619  0.28398960  0.75425364  1
  Te  Te129  1  0.24987211  0.58628286  0.08247487  1
  Te  Te130  1  0.26001891  0.55477354  0.36544320  1
  Te  Te131  1  0.25299711  0.59351221  0.75746310  1
  Te  Te132  1  0.25063669  0.92065454  0.06951928  1
  Te  Te133  1  0.25434204  0.94078910  0.40782967  1
  Te  Te134  1  0.23615646  0.89272453  0.74470060  1
  Te  Te135  1  0.57578213  0.26424455  0.12060411  1
  Te  Te136  1  0.56707860  0.24148641  0.36884270  1
  Te  Te137  1  0.55992551  0.25265710  0.74786260  1
  Te  Te138  1  0.56941393  0.59468113  0.09476678  1
  Te  Te139  1  0.58302697  0.59424497  0.39736307  1
  Te  Te140  1  0.58599803  0.60720680  0.77209922  1
  Te  Te141  1  0.60928433  0.91994428  0.14267053  1
  Te  Te142  1  0.61095441  0.91047326  0.40704044  1
  Te  Te143  1  0.58631861  0.92702431  0.75496234  1
  Te  Te144  1  0.90476014  0.22967740  0.06252769  1
  Te  Te145  1  0.92564021  0.22985905  0.41769188  1
  Te  Te146  1  0.91141000  0.22097706  0.72915517  1
  Te  Te147  1  0.90096374  0.56419298  0.08191413  1
  Te  Te148  1  0.87037173  0.62205415  0.45509334  1
  Te  Te149  1  0.90543346  0.57883131  0.73089650  1
  Te  Te150  1  0.88984966  0.90309179  0.11426572  1
  Te  Te151  1  0.89998418  0.90273541  0.37597692  1
  Te  Te152  1  0.91913327  0.94770559  0.70968376  1
  Te  Te153  1  0.26615357  0.12504830  0.23218468  1
  Te  Te154  1  0.26767783  0.09637968  0.57544414  1
  Te  Te155  1  0.25135588  0.08299470  0.90842061  1
  Te  Te156  1  0.23008218  0.44153991  0.26077479  1
  Te  Te157  1  0.25526443  0.44511584  0.58506467  1
  Te  Te158  1  0.28100843  0.38343012  0.96180285  1
  Te  Te159  1  0.25904500  0.75736055  0.24975051  1
  Te  Te160  1  0.24015720  0.74347865  0.57210299  1
  Te  Te161  1  0.25714490  0.76688035  0.92718857  1
  Te  Te162  1  0.58557392  0.04885985  0.23004434  1
  Te  Te163  1  0.59950003  0.07960891  0.59145695  1
  Te  Te164  1  0.58668015  0.09125959  0.93017202  1
  Te  Te165  1  0.55958107  0.42608850  0.26661692  1
  Te  Te166  1  0.57847393  0.40894637  0.58974154  1
  Te  Te167  1  0.58729213  0.43594559  0.93200009  1
  Te  Te168  1  0.59241059  0.75190841  0.25941287  1
  Te  Te169  1  0.60304751  0.77672612  0.57493629  1
  Te  Te170  1  0.60754153  0.70917349  0.90491696  1
  Te  Te171  1  0.91483487  0.09094923  0.23981465  1
  Te  Te172  1  0.92089663  0.02371531  0.57305318  1
  Te  Te173  1  0.92267030  0.05324606  0.92262166  1
  Te  Te174  1  0.90193525  0.41674902  0.27433494  1
  Te  Te175  1  0.93549316  0.40751568  0.60224415  1
  Te  Te176  1  0.92248002  0.40384805  0.91567552  1
  Te  Te177  1  0.93055487  0.69677626  0.25627560  1
  Te  Te178  1  0.88009316  0.79158168  0.57510587  1
  Te  Te179  1  0.92107182  0.74398725  0.92866219  1
