# generated using pymatgen
data_In2Te3
_symmetry_space_group_name_H-M   'P 1'
_cell_length_a   18.89930588
_cell_length_b   18.89405581
_cell_length_c   18.90588410
_cell_angle_alpha   90.19541995
_cell_angle_beta   90.06512097
_cell_angle_gamma   89.99897666
_symmetry_Int_Tables_number   1
_chemical_formula_structural   In2Te3
_chemical_formula_sum   'In72 Te108'
_cell_volume   6750.95529952
_cell_formula_units_Z   36
loop_
 _symmetry_equiv_pos_site_id
 _symmetry_equiv_pos_as_xyz
  1  'x, y, z'
loop_
 _atom_site_type_symbol
 _atom_site_label
 _atom_site_symmetry_multiplicity
 _atom_site_fract_x
 _atom_site_fract_y
 _atom_site_fract_z
 _atom_site_occupancy
  In  In0  1  0.69021015  0.37716395  0.35437411  1
  In  In1  1  0.67197533  -0.03591692  0.68422845  1
  In  In2  1  0.66640084  0.67007460  0.35609319  1
  In  In3  1  0.51169221  0.68255265  0.84423277  1
  In  In4  1  0.34544503  0.32535377  0.31238590  1
  In  In5  1  -0.01733385  0.00206360  0.30488292  1
  In  In6  1  0.48887932  0.51994453  0.02262635  1
  In  In7  1  0.68067317  0.84200896  0.50893694  1
  In  In8  1  0.64732743  0.51816652  0.16260304  1
  In  In9  1  0.49790198  0.13536289  0.67169870  1
  In  In10  1  0.83235877  0.32121306  0.84451748  1
  In  In11  1  -0.00873909  0.52297921  0.52117654  1
  In  In12  1  0.17406398  0.34296693  0.81164190  1
  In  In13  1  0.31628027  0.51065904  0.79845958  1
  In  In14  1  0.81059501  0.68452126  0.15956928  1
  In  In15  1  0.82681953  0.14345982  0.02920469  1
  In  In16  1  0.83469789  0.53694672  0.65098620  1
  In  In17  1  0.49077712  0.34406151  0.48721232  1
  In  In18  1  0.17132506  0.15449210  0.01545576  1
  In  In19  1  0.48180576  0.48921108  0.32706922  1
  In  In20  1  0.66021709  0.19138747  0.51499991  1
  In  In21  1  0.17514273  0.51881465  0.33065363  1
  In  In22  1  0.85296438  0.17685283  0.31981957  1
  In  In23  1  0.35560360  -0.00199257  0.31995724  1
  In  In24  1  0.51562864  0.31051886  0.83943494  1
  In  In25  1  0.50474073  0.68580098  0.50907216  1
  In  In26  1  0.48921600  0.52043857  0.68194046  1
  In  In27  1  0.00278280  0.32602779  0.31772800  1
  In  In28  1  0.18995447  0.14511353  0.30958058  1
  In  In29  1  0.82132030  0.00640995  0.49229644  1
  In  In30  1  0.16694654  -0.01869867  0.51124084  1
  In  In31  1  0.83126638  -0.05703629  0.83221980  1
  In  In32  1  0.65491818  0.52101392  0.83916666  1
  In  In33  1  0.81511083  0.69214733  0.82377537  1
  In  In34  1  0.32665798  0.35775435  0.02375123  1
  In  In35  1  0.00611539  0.19147120  0.47453737  1
  In  In36  1  0.49666992  0.69677552  0.17497473  1
  In  In37  1  0.30322462  0.80431303  0.84163755  1
  In  In38  1  0.00488045  0.16129269  0.85669242  1
  In  In39  1  0.64864803  0.01848511  0.30579273  1
  In  In40  1  0.51398977  0.84450033  -0.00469067  1
  In  In41  1  0.84632840  0.33256564  0.14747040  1
  In  In42  1  -0.02586441  -0.01181739  0.68805306  1
  In  In43  1  0.01083582  0.67844336  0.00774065  1
  In  In44  1  0.65838181  0.16138626  0.16017338  1
  In  In45  1  0.82062675  0.83695077  0.34465433  1
  In  In46  1  0.01738826  0.49287307  0.18276985  1
  In  In47  1  0.68064309  0.85163931  0.14644554  1
  In  In48  1  0.17086608  0.15683473  0.64407314  1
  In  In49  1  0.32359584  -0.01718333  0.01278503  1
  In  In50  1  0.01789299  0.75985454  0.56326417  1
  In  In51  1  0.85518153  0.52087548  -0.02613643  1
  In  In52  1  0.68733389  0.32157020  0.00362338  1
  In  In53  1  0.32389366  0.83564462  0.16971257  1
  In  In54  1  0.00379070  0.83610359  0.15810499  1
  In  In55  1  0.34185079  0.82579406  0.49692093  1
  In  In56  1  0.00390565  0.66113465  0.36402381  1
  In  In57  1  0.16815211  0.36688515  0.51429600  1
  In  In58  1  0.30912890  0.62937386  0.02343844  1
  In  In59  1  0.30772172  0.66622769  0.67792140  1
  In  In60  1  0.01444046  -0.02382667  -0.00678268  1
  In  In61  1  0.82952480  0.16906986  0.66827417  1
  In  In62  1  0.37430318  0.14349998  0.81704560  1
  In  In63  1  0.16022747  0.32492363  0.17970513  1
  In  In64  1  0.32817420  0.67164143  0.34042852  1
  In  In65  1  0.00756127  0.49723912  0.83158670  1
  In  In66  1  0.65337002  0.34700503  0.68033908  1
  In  In67  1  0.30319821  0.17878068  0.49697981  1
  In  In68  1  0.17257790  -0.02647183  0.83775419  1
  In  In69  1  0.49247359  -0.00902186  0.48900349  1
  In  In70  1  0.50384752  0.13663864  -0.01873117  1
  In  In71  1  0.31517275  0.34452387  0.63609752  1
  Te  Te72  1  0.09087624  0.05796232  0.08892002  1
  Te  Te73  1  0.09629669  0.08272302  0.41917744  1
  Te  Te74  1  0.08558122  0.08137996  0.74594403  1
  Te  Te75  1  0.09509927  0.41696376  0.08380211  1
  Te  Te76  1  0.07368001  0.42718310  0.40778793  1
  Te  Te77  1  0.08919127  0.42830483  0.72714487  1
  Te  Te78  1  0.10999849  0.76485037  0.07942017  1
  Te  Te79  1  0.08744723  0.75758394  0.43277444  1
  Te  Te80  1  0.12594150  0.72650358  0.70901167  1
  Te  Te81  1  0.41080284  0.07992271  0.07956539  1
  Te  Te82  1  0.41334195  0.10401098  0.42307706  1
  Te  Te83  1  0.42808096  0.02592086  0.74390310  1
  Te  Te84  1  0.43934259  0.40879625  0.10337593  1
  Te  Te85  1  0.38107524  0.42584721  0.42338885  1
  Te  Te86  1  0.42088541  0.39960168  0.74999362  1
  Te  Te87  1  0.40996577  0.74290634  0.05731657  1
  Te  Te88  1  0.43760682  0.76190819  0.39649453  1
  Te  Te89  1  0.41507327  0.74962758  0.75055265  1
  Te  Te90  1  0.71030493  0.05896656  0.06439213  1
  Te  Te91  1  0.74248135  0.10404242  0.40626741  1
  Te  Te92  1  0.76647536  0.06298960  0.75413260  1
  Te  Te93  1  0.75219595  0.44037735  0.07449806  1
  Te  Te94  1  0.74746503  0.46979657  0.45273714  1
  Te  Te95  1  0.75309551  0.42758182  0.76739523  1
  Te  Te96  1  0.78003921  0.78653883  0.05292232  1
  Te  Te97  1  0.77061571  0.73521780  0.44628110  1
  Te  Te98  1  0.75618961  0.77299784  0.71413706  1
  Te  Te99  1  0.07158385  0.21683458  0.23974139  1
  Te  Te100  1  0.08032220  0.26417385  0.58601874  1
  Te  Te101  1  0.10739850  0.25482660  0.91843254  1
  Te  Te102  1  0.08858213  0.61081578  0.24512774  1
  Te  Te103  1  0.07339365  0.62109056  0.59924281  1
  Te  Te104  1  0.08455199  0.57255119  0.93390778  1
  Te  Te105  1  0.08521045  0.91226725  0.25529396  1
  Te  Te106  1  0.05976171  0.90913042  0.59095703  1
  Te  Te107  1  0.07542263  0.87814474  0.89654124  1
  Te  Te108  1  0.42478716  0.21177505  0.27093884  1
  Te  Te109  1  0.42793017  0.24410707  0.58631944  1
  Te  Te110  1  0.39898134  0.25593125  0.92032552  1
  Te  Te111  1  0.41201369  0.58868262  0.23668195  1
  Te  Te112  1  0.40556412  0.59520296  0.58072111  1
  Te  Te113  1  0.41758820  0.57480222  0.89940499  1
  Te  Te114  1  0.43411483  0.90369339  0.23881278  1
  Te  Te115  1  0.44210323  0.89229511  0.58536358  1
  Te  Te116  1  0.40039568  0.90221158  0.91153699  1
  Te  Te117  1  0.74697165  0.26072895  0.23952171  1
  Te  Te118  1  0.75788439  0.27930008  0.58989949  1
  Te  Te119  1  0.74731366  0.21735490  0.91378757  1
  Te  Te120  1  0.74577787  0.58566091  0.25672946  1
  Te  Te121  1  0.71801036  0.56705511  0.56926641  1
  Te  Te122  1  0.73986475  0.60812371  0.92997679  1
  Te  Te123  1  0.76267149  0.93680639  0.24617768  1
  Te  Te124  1  0.79440655  0.90276990  0.60361165  1
  Te  Te125  1  0.73321784  0.88088610  0.92213692  1
  Te  Te126  1  0.26253521  0.24324988  0.10135962  1
  Te  Te127  1  0.22451637  0.26982750  0.40316044  1
  Te  Te128  1  0.26630760  0.23744627  0.73603223  1
  Te  Te129  1  0.24255013  0.52898240  0.10586323  1
  Te  Te130  1  0.24569908  0.59397109  0.43451667  1
  Te  Te131  1  0.20213582  0.61216047  0.77609317  1
  Te  Te132  1  0.22643364  0.88462889  0.06626893  1
  Te  Te133  1  0.25734408  0.91697200  0.40869647  1
  Te  Te134  1  0.23972694  0.88987431  0.73615320  1
  Te  Te135  1  0.57347127  0.24899305  0.06857036  1
  Te  Te136  1  0.59154903  0.26706298  0.40467872  1
  Te  Te137  1  0.59987896  0.22176739  0.74985123  1
  Te  Te138  1  0.58767865  0.62451344  0.07214777  1
  Te  Te139  1  0.56619083  0.57567693  0.41998222  1
  Te  Te140  1  0.59737885  0.61322046  0.73437980  1
  Te  Te141  1  0.58232148  0.94395823  0.08249266  1
  Te  Te142  1  0.59615912  0.91670312  0.40578618  1
  Te  Te143  1  0.58010619  0.92496419  0.79134568  1
  Te  Te144  1  0.92896276  0.24083944  0.06891913  1
  Te  Te145  1  0.89602752  0.28150201  0.42254305  1
  Te  Te146  1  0.93011186  0.24670991  0.75468369  1
  Te  Te147  1  0.91472600  0.58640117  0.09890641  1
  Te  Te148  1  0.89799398  0.57347083  0.41763239  1
  Te  Te149  1  0.92162152  0.60042691  0.75936905  1
  Te  Te150  1  0.90749995  0.90391138  0.06811915  1
  Te  Te151  1  0.92363044  0.92128991  0.41920054  1
  Te  Te152  1  0.95467217  0.87238093  0.78141853  1
  Te  Te153  1  0.26368498  0.05723857  0.21978061  1
  Te  Te154  1  0.27339997  0.05940812  0.58878285  1
  Te  Te155  1  0.25563437  0.08504599  0.90056001  1
  Te  Te156  1  0.25838971  0.43563517  0.23160085  1
  Te  Te157  1  0.22860864  0.46129191  0.61153503  1
  Te  Te158  1  0.25214988  0.42973271  0.90943117  1
  Te  Te159  1  0.24058251  0.74351001  0.24695661  1
  Te  Te160  1  0.24063751  0.77385412  0.59630002  1
  Te  Te161  1  0.22692821  0.70374175  0.92291913  1
  Te  Te162  1  0.54508420  0.10980562  0.24769015  1
  Te  Te163  1  0.60631042  0.06385438  0.57861372  1
  Te  Te164  1  0.55821536  0.05681990  0.87143218  1
  Te  Te165  1  0.58475086  0.40951977  0.24801366  1
  Te  Te166  1  0.56908798  0.43053303  0.58583259  1
  Te  Te167  1  0.58330476  0.41775999  0.92587525  1
  Te  Te168  1  0.60899591  0.76543573  0.25069201  1
  Te  Te169  1  0.58158632  0.77745536  0.59780899  1
  Te  Te170  1  0.61353999  0.78211590  0.89638409  1
  Te  Te171  1  0.89809060  0.08307254  0.21623242  1
  Te  Te172  1  0.92398681  0.09677675  0.57063813  1
  Te  Te173  1  0.90614035  0.06146492  0.91204314  1
  Te  Te174  1  0.90355140  0.42356330  0.25569916  1
  Te  Te175  1  0.92645813  0.42784579  0.61273513  1
  Te  Te176  1  0.93154045  0.39912353  0.92929461  1
  Te  Te177  1  0.90917075  0.74925073  0.25696418  1
  Te  Te178  1  0.87817645  0.75545448  0.62484408  1
  Te  Te179  1  0.93077750  0.74755644  0.90264212  1
