# generated using pymatgen
data_In2Te3
_symmetry_space_group_name_H-M   'P 1'
_cell_length_a   18.93783980
_cell_length_b   18.94608599
_cell_length_c   18.93665134
_cell_angle_alpha   90.08481244
_cell_angle_beta   90.02998215
_cell_angle_gamma   89.89484021
_symmetry_Int_Tables_number   1
_chemical_formula_structural   In2Te3
_chemical_formula_sum   'In72 Te108'
_cell_volume   6794.41170669
_cell_formula_units_Z   36
loop_
 _symmetry_equiv_pos_site_id
 _symmetry_equiv_pos_as_xyz
  1  'x, y, z'
loop_
 _atom_site_type_symbol
 _atom_site_label
 _atom_site_symmetry_multiplicity
 _atom_site_fract_x
 _atom_site_fract_y
 _atom_site_fract_z
 _atom_site_occupancy
  In  In0  1  0.30528884  0.87280712  0.80380054  1
  In  In1  1  0.66448988  -0.01455040  -0.00128885  1
  In  In2  1  0.82851339  0.81801481  0.33914103  1
  In  In3  1  0.16668432  0.66263420  0.48968696  1
  In  In4  1  0.85093625  0.32844644  0.81237986  1
  In  In5  1  0.00695488  0.02840684  -0.01789349  1
  In  In6  1  0.16640323  0.83547144  0.31707520  1
  In  In7  1  -0.01674978  0.67228205  0.68882261  1
  In  In8  1  0.81854958  0.84433982  0.00330226  1
  In  In9  1  0.16138289  0.16938023  0.66252670  1
  In  In10  1  0.19364883  0.84100289  0.01449955  1
  In  In11  1  0.67954446  0.35831098  -0.00415575  1
  In  In12  1  0.83605905  0.16854431  0.66973388  1
  In  In13  1  0.80450491  0.66629303  0.49542263  1
  In  In14  1  0.02765779  0.50766242  0.84777127  1
  In  In15  1  0.33280896  0.66855015  0.65772945  1
  In  In16  1  0.49061888  -0.01222662  0.19398097  1
  In  In17  1  0.83115952  0.16004865  0.00124424  1
  In  In18  1  0.29732649  0.31962652  0.34682800  1
  In  In19  1  0.64423940  0.15515043  0.83389597  1
  In  In20  1  0.66644218  0.48949140  0.50530484  1
  In  In21  1  0.66300768  0.14211327  0.51121238  1
  In  In22  1  0.49318154  0.66517030  0.50609892  1
  In  In23  1  0.32723076  0.16780579  0.20092252  1
  In  In24  1  0.65069798  -0.02298623  0.65417900  1
  In  In25  1  0.17074511  0.50282644  0.66650128  1
  In  In26  1  0.80497234  0.83212261  0.67867204  1
  In  In27  1  0.01531599  0.85325033  0.51678194  1
  In  In28  1  0.00060395  0.03535543  0.67935516  1
  In  In29  1  0.51263577  0.66181944  0.89724993  1
  In  In30  1  0.50153119  0.16954861  -0.00699834  1
  In  In31  1  0.81430709  0.67167053  0.82015376  1
  In  In32  1  0.49072359  0.33185194  0.13956068  1
  In  In33  1  0.83026627  0.50365966  -0.01595163  1
  In  In34  1  -0.01504452  0.45353075  0.51279131  1
  In  In35  1  0.48610478  0.48746868  0.32151644  1
  In  In36  1  0.50938062  0.34898458  0.84574254  1
  In  In37  1  0.01063292  0.16185090  0.50929022  1
  In  In38  1  0.00942468  0.16458347  0.14860028  1
  In  In39  1  0.33265004  0.65479579  0.02084009  1
  In  In40  1  0.64904135  0.50882147  0.85021639  1
  In  In41  1  0.01812933  0.61980732  0.31439462  1
  In  In42  1  0.64941812  0.83869589  0.17918309  1
  In  In43  1  0.67031557  0.31442661  0.68174571  1
  In  In44  1  0.66101743  -0.01483851  0.33306528  1
  In  In45  1  0.34424048  0.51122608  0.49599795  1
  In  In46  1  -0.00853963  0.84397174  0.15178967  1
  In  In47  1  0.31288746  0.36385910  -0.01112949  1
  In  In48  1  0.67731245  0.34391059  0.31664479  1
  In  In49  1  0.16629565  0.64625601  0.85614619  1
  In  In50  1  0.34898983  0.32918720  0.67217682  1
  In  In51  1  0.50183594  0.14504305  0.33590384  1
  In  In52  1  0.49914015  0.83254133  0.65549965  1
  In  In53  1  0.48279121  0.01228358  0.49144797  1
  In  In54  1  0.17832888  0.34139387  0.16321243  1
  In  In55  1  0.15724290  0.01166415  0.51661051  1
  In  In56  1  0.34700720  0.11937058  0.81149851  1
  In  In57  1  0.03377098  0.21753697  0.84624965  1
  In  In58  1  0.51561200  0.65806339  0.13109854  1
  In  In59  1  0.00959762  -0.01208736  0.33367481  1
  In  In60  1  0.01265067  0.83917254  0.82737323  1
  In  In61  1  0.84045521  0.17553121  0.32843008  1
  In  In62  1  0.33106313  0.68059925  0.32092655  1
  In  In63  1  0.81520459  -0.00769628  0.86428307  1
  In  In64  1  0.01137832  0.49516543  0.16269907  1
  In  In65  1  0.34301738  0.82884418  0.50223013  1
  In  In66  1  0.01711116  0.33291205  0.33240006  1
  In  In67  1  0.02295917  0.65644694  -0.03450646  1
  In  In68  1  0.50582079  0.30500699  0.52480568  1
  In  In69  1  0.34249293  -0.00018502  -0.00320867  1
  In  In70  1  0.82529793  0.65798307  0.17291564  1
  In  In71  1  0.83259104  0.51061793  0.33306134  1
  Te  Te72  1  0.10791718  0.10240762  0.05720759  1
  Te  Te73  1  0.09571285  0.09105055  0.40283515  1
  Te  Te74  1  0.09627015  0.09486698  0.78084948  1
  Te  Te75  1  0.06688195  0.38769416  0.07450863  1
  Te  Te76  1  0.08549724  0.43979019  0.40865001  1
  Te  Te77  1  0.09933713  0.41053022  0.75922691  1
  Te  Te78  1  0.08202844  0.75439304  0.07016443  1
  Te  Te79  1  0.07225505  0.75413089  0.41294246  1
  Te  Te80  1  0.10122859  0.74190151  0.75309415  1
  Te  Te81  1  0.42675312  0.09715007  0.10172208  1
  Te  Te82  1  0.38929989  0.10180603  0.41914111  1
  Te  Te83  1  0.45531964  0.07020475  0.72750979  1
  Te  Te84  1  0.38548202  0.42898849  0.10093602  1
  Te  Te85  1  0.42059018  0.39738912  0.42756149  1
  Te  Te86  1  0.41977635  0.42519010  0.75908246  1
  Te  Te87  1  0.42028389  0.75807358  0.07729158  1
  Te  Te88  1  0.43216155  0.75930839  0.40294651  1
  Te  Te89  1  0.40379327  0.76187230  0.75107086  1
  Te  Te90  1  0.74806359  0.07102879  0.08203634  1
  Te  Te91  1  0.75413628  0.07700306  0.41080090  1
  Te  Te92  1  0.74249534  0.07615723  0.74756617  1
  Te  Te93  1  0.76138653  0.43295815  0.09155942  1
  Te  Te94  1  0.76507574  0.40827092  0.42288941  1
  Te  Te95  1  0.74142502  0.42105924  0.76284233  1
  Te  Te96  1  0.73853512  0.75076569  0.08954807  1
  Te  Te97  1  0.72132832  0.74094912  0.40148856  1
  Te  Te98  1  0.72155332  0.71516569  0.71338278  1
  Te  Te99  1  0.09986711  0.24011374  0.24635407  1
  Te  Te100  1  0.11039514  0.26463151  0.55761871  1
  Te  Te101  1  0.11614909  0.29255039  0.94457485  1
  Te  Te102  1  0.11981529  0.58653108  0.21079308  1
  Te  Te103  1  0.07468242  0.59314725  0.58997349  1
  Te  Te104  1  0.13333979  0.54468392  0.97082695  1
  Te  Te105  1  0.09370911  0.93162431  0.22086638  1
  Te  Te106  1  0.09412439  0.92121847  0.63001173  1
  Te  Te107  1  0.09611482  0.91910523  0.92243716  1
  Te  Te108  1  0.43206078  0.26227625  0.26386472  1
  Te  Te109  1  0.38851533  0.23045967  0.56807077  1
  Te  Te110  1  0.40834767  0.25974892  0.91737326  1
  Te  Te111  1  0.41772583  0.58985785  0.23593439  1
  Te  Te112  1  0.43273755  0.56736468  0.60498369  1
  Te  Te113  1  0.39783804  0.57426225  0.91646270  1
  Te  Te114  1  0.37938946  0.95527088  0.28374547  1
  Te  Te115  1  0.40213862  0.93224635  0.59386800  1
  Te  Te116  1  0.41084054  0.91962795  0.89344190  1
  Te  Te117  1  0.75555060  0.25077989  0.23595769  1
  Te  Te118  1  0.75278489  0.24984509  0.57237227  1
  Te  Te119  1  0.74235963  0.25208122  0.89715015  1
  Te  Te120  1  0.73303729  0.59683672  0.26777469  1
  Te  Te121  1  0.76056145  0.56526256  0.59015998  1
  Te  Te122  1  0.73370199  0.60827374  0.93189184  1
  Te  Te123  1  0.76441383  0.91576782  0.24290075  1
  Te  Te124  1  0.75040032  0.91237446  0.56944138  1
  Te  Te125  1  0.71707155  0.87255818  0.88803369  1
  Te  Te126  1  0.27178781  0.24849354  0.08661279  1
  Te  Te127  1  0.20283102  0.25117127  0.43119041  1
  Te  Te128  1  0.26262649  0.23518549  0.75573742  1
  Te  Te129  1  0.22966213  0.57178214  0.08540099  1
  Te  Te130  1  0.24938617  0.57640219  0.39759751  1
  Te  Te131  1  0.26340372  0.57840036  0.75858627  1
  Te  Te132  1  0.28730099  0.91252095  0.10313157  1
  Te  Te133  1  0.23332950  0.90916901  0.43265081  1
  Te  Te134  1  0.22375575  0.96219874  0.72091654  1
  Te  Te135  1  0.60117755  0.25038729  0.07268203  1
  Te  Te136  1  0.59709930  0.24644662  0.41609718  1
  Te  Te137  1  0.55491317  0.24114387  0.74760956  1
  Te  Te138  1  0.59829836  0.56498074  0.05321528  1
  Te  Te139  1  0.57238242  0.56909234  0.41696648  1
  Te  Te140  1  0.56843118  0.60238538  0.77270651  1
  Te  Te141  1  0.55987214  0.91193089  0.08040442  1
  Te  Te142  1  0.56858712  0.91612552  0.42196401  1
  Te  Te143  1  0.58017310  0.90307665  0.75832254  1
  Te  Te144  1  0.91612872  0.25207413  0.07511552  1
  Te  Te145  1  0.92483487  0.25570365  0.42630365  1
  Te  Te146  1  0.94961375  0.26304921  0.71194185  1
  Te  Te147  1  0.92564374  0.59696765  0.07326976  1
  Te  Te148  1  0.92420091  0.58621240  0.43116776  1
  Te  Te149  1  0.91006412  0.56660696  0.76580018  1
  Te  Te150  1  0.91324065  0.94351634  0.06872778  1
  Te  Te151  1  0.91246451  0.91549608  0.42315008  1
  Te  Te152  1  0.91085183  0.92679496  0.75541601  1
  Te  Te153  1  0.26541762  0.04348750  0.24814215  1
  Te  Te154  1  0.26082330  0.07835438  0.59869534  1
  Te  Te155  1  0.25433108  0.09093359  0.92160014  1
  Te  Te156  1  0.27405537  0.42073007  0.24457336  1
  Te  Te157  1  0.25866389  0.41796529  0.57810195  1
  Te  Te158  1  0.21493947  0.38997492  0.87973912  1
  Te  Te159  1  0.24815040  0.75625536  0.22585167  1
  Te  Te160  1  0.23597121  0.75865641  0.58438672  1
  Te  Te161  1  0.25909457  0.75669619  0.90725435  1
  Te  Te162  1  0.59912963  0.08502371  0.23627591  1
  Te  Te163  1  0.55456829  0.09490246  0.60968642  1
  Te  Te164  1  0.56121424  0.05644149  0.91121368  1
  Te  Te165  1  0.58407258  0.42178985  0.22613390  1
  Te  Te166  1  0.58062108  0.41025581  0.60337934  1
  Te  Te167  1  0.55533450  0.44524675  0.96287712  1
  Te  Te168  1  0.55885075  0.74492496  0.24375396  1
  Te  Te169  1  0.59117156  0.74523408  0.57967920  1
  Te  Te170  1  0.60336758  0.77184239  0.92356902  1
  Te  Te171  1  0.92655979  0.08001699  0.24641920  1
  Te  Te172  1  0.90263431  0.07284247  0.57098736  1
  Te  Te173  1  0.91673304  0.11145122  0.88467638  1
  Te  Te174  1  0.91699198  0.41522919  0.25003437  1
  Te  Te175  1  0.92372352  0.39346132  0.62768338  1
  Te  Te176  1  0.92715058  0.41014213  0.91407937  1
  Te  Te177  1  0.93484141  0.74269506  0.25115140  1
  Te  Te178  1  0.91493768  0.76011209  0.58510601  1
  Te  Te179  1  0.91302027  0.75877333  0.91002943  1
