# generated using pymatgen
data_In2Te3
_symmetry_space_group_name_H-M   'P 1'
_cell_length_a   19.02388170
_cell_length_b   19.02484715
_cell_length_c   19.01463028
_cell_angle_alpha   89.82558433
_cell_angle_beta   90.14268539
_cell_angle_gamma   90.07395907
_symmetry_Int_Tables_number   1
_chemical_formula_structural   In2Te3
_chemical_formula_sum   'In72 Te108'
_cell_volume   6881.83858239
_cell_formula_units_Z   36
loop_
 _symmetry_equiv_pos_site_id
 _symmetry_equiv_pos_as_xyz
  1  'x, y, z'
loop_
 _atom_site_type_symbol
 _atom_site_label
 _atom_site_symmetry_multiplicity
 _atom_site_fract_x
 _atom_site_fract_y
 _atom_site_fract_z
 _atom_site_occupancy
  In  In0  1  0.83116344  -0.00064356  0.82614204  1
  In  In1  1  0.65974281  0.17313912  0.48723809  1
  In  In2  1  0.32464367  0.82257706  0.49877574  1
  In  In3  1  0.66396564  0.67493718  0.67694729  1
  In  In4  1  0.01620727  0.84756539  0.81765826  1
  In  In5  1  0.81709207  0.67739027  0.46764145  1
  In  In6  1  0.70052534  0.38184504  0.03812281  1
  In  In7  1  0.83153910  0.67186660  0.17910498  1
  In  In8  1  0.51243833  0.00009599  0.84859405  1
  In  In9  1  0.50240119  -0.00011878  0.17028683  1
  In  In10  1  0.50316816  0.82744890  0.00262237  1
  In  In11  1  0.01703894  0.62002004  0.02261634  1
  In  In12  1  0.32782849  0.16926212  0.50218844  1
  In  In13  1  0.46486013  0.84085739  0.65894523  1
  In  In14  1  0.52176006  0.82139645  0.30453657  1
  In  In15  1  0.66173791  0.84270355  0.51618013  1
  In  In16  1  0.48990916  0.36641922  0.47915215  1
  In  In17  1  0.82176416  0.48801006  0.28938829  1
  In  In18  1  0.00206097  -0.03202516  0.00684331  1
  In  In19  1  0.00814989  0.68493452  0.67256984  1
  In  In20  1  0.31969298  0.16876174  0.15964966  1
  In  In21  1  0.32436654  0.51237747  0.16350643  1
  In  In22  1  0.18064332  -0.03067908  0.16573145  1
  In  In23  1  0.82525720  0.16122036  0.01801972  1
  In  In24  1  0.15038747  0.51365507  0.33081804  1
  In  In25  1  0.32019216  0.64871328  0.31996313  1
  In  In26  1  -0.00001152  0.82817887  0.49714141  1
  In  In27  1  0.33669839  0.34119969  0.66276555  1
  In  In28  1  0.68419245  0.00887010  0.66463046  1
  In  In29  1  0.50487471  0.64650864  0.47116990  1
  In  In30  1  0.84693594  0.31757207  0.48373794  1
  In  In31  1  0.67293034  0.84828479  0.84458155  1
  In  In32  1  0.82208136  0.51379526  0.64471264  1
  In  In33  1  0.15730861  0.15397963  -0.01350171  1
  In  In34  1  0.66888077  0.16014778  0.18524117  1
  In  In35  1  0.83700162  0.18338942  0.35810478  1
  In  In36  1  -0.00717694  0.17417717  0.18193572  1
  In  In37  1  0.67400679  0.34629914  0.31215626  1
  In  In38  1  -0.02008838  0.33261149  0.33968449  1
  In  In39  1  0.00403936  0.80464241  0.18234650  1
  In  In40  1  0.34261992  0.67005362  0.67373490  1
  In  In41  1  0.13804027  0.12431785  0.59027887  1
  In  In42  1  0.01313774  0.37196457  0.01388972  1
  In  In43  1  -0.01651781  0.50122777  0.50091234  1
  In  In44  1  0.34573746  0.80537359  0.14209972  1
  In  In45  1  0.49248002  0.49533419  0.00228104  1
  In  In46  1  0.49735078  0.34052445  0.18496688  1
  In  In47  1  0.21057495  -0.01597778  0.79751681  1
  In  In48  1  0.51775891  0.15511772  0.01808060  1
  In  In49  1  0.64685291  0.49956713  0.83289503  1
  In  In50  1  0.64620568  0.33368180  0.66250386  1
  In  In51  1  0.31711134  0.33485147  0.34370481  1
  In  In52  1  0.01575945  0.50405811  0.83939041  1
  In  In53  1  0.84512957  0.32252177  0.83449408  1
  In  In54  1  0.35412469  0.16808925  0.81716179  1
  In  In55  1  0.65530159  -0.00409339  0.32547311  1
  In  In56  1  0.82491712  0.67665469  0.84035008  1
  In  In57  1  0.20262143  0.79899393  -0.03360941  1
  In  In58  1  0.16537162  0.64772101  0.16341208  1
  In  In59  1  0.64648635  0.64334887  0.01282946  1
  In  In60  1  0.00032081  0.15756936  0.81757318  1
  In  In61  1  0.17250824  0.35526475  0.83601138  1
  In  In62  1  0.47924823  0.50209360  0.66157819  1
  In  In63  1  0.16984889  0.47566700  0.65703979  1
  In  In64  1  0.31303213  0.30909777  -0.01599778  1
  In  In65  1  0.84806380  0.82159045  0.02439795  1
  In  In66  1  0.00525366  0.01603121  0.39373022  1
  In  In67  1  0.34262835  0.49503531  0.84311047  1
  In  In68  1  0.16041175  0.83237375  0.35869496  1
  In  In69  1  0.33110834  0.00906237  0.34663807  1
  In  In70  1  0.51723178  0.16190394  0.67290574  1
  In  In71  1  -0.01017622  0.00986609  0.62488664  1
  Te  Te72  1  0.08387528  0.07137871  0.09199989  1
  Te  Te73  1  0.10545521  0.11234532  0.44117052  1
  Te  Te74  1  0.09504914  0.06980697  0.74284647  1
  Te  Te75  1  0.08010136  0.48998571  0.06634529  1
  Te  Te76  1  0.07665998  0.41250308  0.42284705  1
  Te  Te77  1  0.06578100  0.40199747  0.74058444  1
  Te  Te78  1  0.08953128  0.76025646  0.06729102  1
  Te  Te79  1  0.08409767  0.72798011  0.42648776  1
  Te  Te80  1  0.10517157  0.74284659  0.76619356  1
  Te  Te81  1  0.40510487  0.07455256  0.07873879  1
  Te  Te82  1  0.42275208  0.09559236  0.41885229  1
  Te  Te83  1  0.42473406  0.06138879  0.73929258  1
  Te  Te84  1  0.39856134  0.39541157  0.08244826  1
  Te  Te85  1  0.39695373  0.44466643  0.39928657  1
  Te  Te86  1  0.43137972  0.40204672  0.76502424  1
  Te  Te87  1  0.46065114  0.72384487  0.10180234  1
  Te  Te88  1  0.41614362  0.75044752  0.39683542  1
  Te  Te89  1  0.39891058  0.77011982  0.77776608  1
  Te  Te90  1  0.75475206  0.06882384  0.10883649  1
  Te  Te91  1  0.74911662  0.07363792  0.41621269  1
  Te  Te92  1  0.74594589  0.09867079  0.76279302  1
  Te  Te93  1  0.79485542  0.44556690  0.13450579  1
  Te  Te94  1  0.75866902  0.41794180  0.41426126  1
  Te  Te95  1  0.74750131  0.42327642  0.74852327  1
  Te  Te96  1  0.73357849  0.74486714  0.08477934  1
  Te  Te97  1  0.72827020  0.77582780  0.40435092  1
  Te  Te98  1  0.75840596  0.77169675  0.74370993  1
  Te  Te99  1  0.07921733  0.25560353  0.26527140  1
  Te  Te100  1  0.07562503  0.25479639  0.58132416  1
  Te  Te101  1  0.07476338  0.26082000  0.91268791  1
  Te  Te102  1  0.06019645  0.59428217  0.24721752  1
  Te  Te103  1  0.07782534  0.57840346  0.59119621  1
  Te  Te104  1  0.09724599  0.60780005  0.89986151  1
  Te  Te105  1  0.07793478  0.91882147  0.26406810  1
  Te  Te106  1  0.08589615  0.90903325  0.58470834  1
  Te  Te107  1  0.11063202  0.92410963  0.91044006  1
  Te  Te108  1  0.40564136  0.24530402  0.25710731  1
  Te  Te109  1  0.44068473  0.26142838  0.58453857  1
  Te  Te110  1  0.43203920  0.24233631  0.92263493  1
  Te  Te111  1  0.42227906  0.60628748  0.22296062  1
  Te  Te112  1  0.39982301  0.58379301  0.56210879  1
  Te  Te113  1  0.42089043  0.59538085  0.91923142  1
  Te  Te114  1  0.40344878  0.90966088  0.24653129  1
  Te  Te115  1  0.41246011  0.92650308  0.55389622  1
  Te  Te116  1  0.41912498  0.91538781  0.92118064  1
  Te  Te117  1  0.77306855  0.25491027  0.24321797  1
  Te  Te118  1  0.74444895  0.25370607  0.58096062  1
  Te  Te119  1  0.75299694  0.26961631  0.94230774  1
  Te  Te120  1  0.72706273  0.60461879  0.26662282  1
  Te  Te121  1  0.72620593  0.59630276  0.56429803  1
  Te  Te122  1  0.74574333  0.57580298  0.91894357  1
  Te  Te123  1  0.70095783  0.92709895  0.20595163  1
  Te  Te124  1  0.76604679  0.92262665  0.58039541  1
  Te  Te125  1  0.76643513  0.92033865  0.93769001  1
  Te  Te126  1  0.21651589  0.25302561  0.08611332  1
  Te  Te127  1  0.23114246  0.23753231  0.41421298  1
  Te  Te128  1  0.24806477  0.25599822  0.75207207  1
  Te  Te129  1  0.27078362  0.61234142  0.07006801  1
  Te  Te130  1  0.21792566  0.61283991  0.41868850  1
  Te  Te131  1  0.25464599  0.56782237  0.74428370  1
  Te  Te132  1  0.26537760  0.90518535  0.06048025  1
  Te  Te133  1  0.23665362  0.93451490  0.43841815  1
  Te  Te134  1  0.27249166  0.87082693  0.73025760  1
  Te  Te135  1  0.59863652  0.26615698  0.09818211  1
  Te  Te136  1  0.57945917  0.26906836  0.40327740  1
  Te  Te137  1  0.59460288  0.24389771  0.76478565  1
  Te  Te138  1  0.59992232  0.53165286  0.09760257  1
  Te  Te139  1  0.59646568  0.58266691  0.37690730  1
  Te  Te140  1  0.56066745  0.59420702  0.75242909  1
  Te  Te141  1  0.59236088  0.90880332  0.09573999  1
  Te  Te142  1  0.56708571  0.91279778  0.41459026  1
  Te  Te143  1  0.58353740  0.90729581  0.73679595  1
  Te  Te144  1  0.92752256  0.25747485  0.07459015  1
  Te  Te145  1  0.95642524  0.20794771  0.49988648  1
  Te  Te146  1  0.90029596  0.22759712  0.73867437  1
  Te  Te147  1  0.88397205  0.57887870  0.07639171  1
  Te  Te148  1  0.90021632  0.57218185  0.39892779  1
  Te  Te149  1  0.90750200  0.58401558  0.75021766  1
  Te  Te150  1  0.91608903  0.91812692  0.11892567  1
  Te  Te151  1  0.91541166  0.90165418  0.40019048  1
  Te  Te152  1  0.91828519  0.92263806  0.73208028  1
  Te  Te153  1  0.23633541  0.08105239  0.25088276  1
  Te  Te154  1  0.27703908  0.08539350  0.61125187  1
  Te  Te155  1  0.26165852  0.08375891  0.90427981  1
  Te  Te156  1  0.23569425  0.42294588  0.24518401  1
  Te  Te157  1  0.26077378  0.41392734  0.56215479  1
  Te  Te158  1  0.24188502  0.43601384  0.94119826  1
  Te  Te159  1  0.23805406  0.76155335  0.24363600  1
  Te  Te160  1  0.24414953  0.76361149  0.61017838  1
  Te  Te161  1  0.31377439  0.72910862  0.90263708  1
  Te  Te162  1  0.55879372  0.09938793  0.26778943  1
  Te  Te163  1  0.58322081  0.07314788  0.57046201  1
  Te  Te164  1  0.60427169  0.07656629  0.93239562  1
  Te  Te165  1  0.57414519  0.44199609  0.25938786  1
  Te  Te166  1  0.58454861  0.43981571  0.57320307  1
  Te  Te167  1  0.59023756  0.40219219  0.93228782  1
  Te  Te168  1  0.60206389  0.70094673  0.27459595  1
  Te  Te169  1  0.55824499  0.73927545  0.58495716  1
  Te  Te170  1  0.58860766  0.74325946  0.90951073  1
  Te  Te171  1  0.92058702  0.08596362  0.28102870  1
  Te  Te172  1  0.88808831  0.08096409  0.54868580  1
  Te  Te173  1  0.92846986  0.07719508  0.92991888  1
  Te  Te174  1  0.93392860  0.41434319  0.22549282  1
  Te  Te175  1  0.91137855  0.40593800  0.59343751  1
  Te  Te176  1  0.91015002  0.43031731  0.91934514  1
  Te  Te177  1  0.89486470  0.76725520  0.27238691  1
  Te  Te178  1  0.90504352  0.73930146  0.57917167  1
  Te  Te179  1  0.92714195  0.76176042  0.91106138  1
