# generated using pymatgen
data_In2Te3
_symmetry_space_group_name_H-M   'P 1'
_cell_length_a   19.04027501
_cell_length_b   18.99975463
_cell_length_c   19.04588378
_cell_angle_alpha   90.30511186
_cell_angle_beta   90.17181347
_cell_angle_gamma   90.03719819
_symmetry_Int_Tables_number   1
_chemical_formula_structural   In2Te3
_chemical_formula_sum   'In72 Te108'
_cell_volume   6889.91925500
_cell_formula_units_Z   36
loop_
 _symmetry_equiv_pos_site_id
 _symmetry_equiv_pos_as_xyz
  1  'x, y, z'
loop_
 _atom_site_type_symbol
 _atom_site_label
 _atom_site_symmetry_multiplicity
 _atom_site_fract_x
 _atom_site_fract_y
 _atom_site_fract_z
 _atom_site_occupancy
  In  In0  1  0.50714343  0.35536735  0.50380434  1
  In  In1  1  0.67686091  0.00769278  0.32702706  1
  In  In2  1  0.45329124  0.82669736  0.31042951  1
  In  In3  1  -0.01564728  0.15316779  0.18145462  1
  In  In4  1  0.28792507  0.00181317  0.29752237  1
  In  In5  1  0.45891422  0.16507528  0.01862814  1
  In  In6  1  0.33579965  0.17973871  0.48007555  1
  In  In7  1  0.01940580  0.84859412  0.82248461  1
  In  In8  1  0.30317323  0.65926518  0.00224925  1
  In  In9  1  0.27327122  0.02848965  0.09260344  1
  In  In10  1  0.33721652  0.81678711  0.81508343  1
  In  In11  1  0.53517551  0.85666733  0.65614419  1
  In  In12  1  0.34561816  0.35455572  0.65969836  1
  In  In13  1  0.13878088  0.47764321  0.66554120  1
  In  In14  1  0.01318570  0.34800063  0.00187031  1
  In  In15  1  0.51448832  0.17467062  0.35731123  1
  In  In16  1  0.68024213  0.79933271  0.86205441  1
  In  In17  1  0.83880336  0.65347486  0.84439676  1
  In  In18  1  0.15179113  0.17406595  0.01996700  1
  In  In19  1  0.82361019  0.16828576  0.33656716  1
  In  In20  1  0.32837162  0.51028982  0.49609894  1
  In  In21  1  0.18824246  0.00152243  0.49304108  1
  In  In22  1  0.48065852  0.32955489  0.17103521  1
  In  In23  1  0.48832648  0.50069172  -0.00995442  1
  In  In24  1  0.33134868  0.15143663  0.83139251  1
  In  In25  1  0.67471945  0.52278689  0.83372903  1
  In  In26  1  -0.01124173  0.48702574  0.49414479  1
  In  In27  1  0.67321531  0.03801442  0.65994125  1
  In  In28  1  0.66982258  0.67142440  0.34246456  1
  In  In29  1  0.82153502  0.12877442  0.01328014  1
  In  In30  1  -0.03426404  0.64379841  0.66253300  1
  In  In31  1  0.85446792  0.33048037  0.17274578  1
  In  In32  1  -0.00162637  0.65040336  0.33709948  1
  In  In33  1  0.48861312  0.50524848  0.31266220  1
  In  In34  1  0.35002432  -0.00708753  0.64947410  1
  In  In35  1  0.17682178  0.82427877  0.67245309  1
  In  In36  1  0.02361337  0.84397655  0.48295977  1
  In  In37  1  0.70080541  0.48922383  0.51716856  1
  In  In38  1  0.50274542  0.67775456  0.47947942  1
  In  In39  1  0.16363742  0.21090226  0.65805760  1
  In  In40  1  0.49463492  -0.00882317  0.48789626  1
  In  In41  1  0.16531099  0.50507271  0.31745958  1
  In  In42  1  0.67319608  0.18215477  0.83443967  1
  In  In43  1  0.00443156  0.06842325  0.62868564  1
  In  In44  1  0.85339302  0.83839994  0.68036998  1
  In  In45  1  0.52494479  0.34698392  0.82151776  1
  In  In46  1  -0.00320042  0.82890864  0.16568762  1
  In  In47  1  0.50265502  0.82989191  -0.02417786  1
  In  In48  1  0.15990597  0.63417477  0.83450857  1
  In  In49  1  0.84069469  0.48505667  0.67721092  1
  In  In50  1  0.64686469  -0.00084749  0.00893119  1
  In  In51  1  0.83566154  -0.01530712  0.84326044  1
  In  In52  1  0.67705682  0.86801879  0.49625884  1
  In  In53  1  0.00994559  0.31701742  0.31367544  1
  In  In54  1  0.82074943  0.49260623  0.34689740  1
  In  In55  1  0.68216588  0.78758201  0.14223168  1
  In  In56  1  0.70283188  0.30881209  0.64643050  1
  In  In57  1  0.01263608  0.18537895  0.82877772  1
  In  In58  1  0.50205340  -0.01633773  0.83242085  1
  In  In59  1  -0.00226321  -0.03729970  0.00175344  1
  In  In60  1  0.35002293  0.66821361  0.66429772  1
  In  In61  1  0.00612266  0.02653546  0.36049062  1
  In  In62  1  0.02264184  0.69513882  -0.00219330  1
  In  In63  1  0.67743403  0.47951741  0.16092857  1
  In  In64  1  0.29591993  0.32319165  0.31907582  1
  In  In65  1  0.17479984  0.81866553  0.27433069  1
  In  In66  1  0.32387945  0.32702075  0.00430391  1
  In  In67  1  0.32222036  0.47342803  0.84385626  1
  In  In68  1  0.46643550  0.65993469  0.15380552  1
  In  In69  1  0.85703559  0.32423865  0.85584690  1
  In  In70  1  0.84567922  0.85536574  0.33895577  1
  In  In71  1  -0.00319267  0.51733553  0.13538801  1
  Te  Te72  1  0.06782039  0.06736745  0.08700456  1
  Te  Te73  1  0.10451260  0.10737207  0.43590968  1
  Te  Te74  1  0.10337109  0.10079586  0.74212035  1
  Te  Te75  1  0.09272937  0.40590135  0.11296293  1
  Te  Te76  1  0.08569098  0.41096552  0.40726747  1
  Te  Te77  1  0.07004649  0.38831789  0.75749871  1
  Te  Te78  1  0.11229045  0.79102339  0.07479058  1
  Te  Te79  1  0.09758564  0.74664311  0.39756207  1
  Te  Te80  1  0.07296546  0.72975621  0.74151458  1
  Te  Te81  1  0.42040192  0.04585021  0.09257496  1
  Te  Te82  1  0.38636443  0.05792646  0.40566497  1
  Te  Te83  1  0.43334420  0.08150589  0.74055723  1
  Te  Te84  1  0.40080077  0.42883108  0.08960145  1
  Te  Te85  1  0.40158274  0.40986330  0.40117999  1
  Te  Te86  1  0.43509905  0.44175578  0.74620453  1
  Te  Te87  1  0.40012438  0.76042993  0.06388852  1
  Te  Te88  1  0.39224835  0.72995550  0.39997084  1
  Te  Te89  1  0.45079688  0.75668359  0.73817780  1
  Te  Te90  1  0.72010498  0.08281611  0.10527769  1
  Te  Te91  1  0.73626638  0.09390596  0.43137113  1
  Te  Te92  1  0.77143508  0.09491707  0.76013874  1
  Te  Te93  1  0.78774610  0.42448053  0.08078818  1
  Te  Te94  1  0.76026473  0.38898500  0.42922640  1
  Te  Te95  1  0.74853190  0.40144760  0.76688658  1
  Te  Te96  1  0.76825343  0.70389992  0.05944989  1
  Te  Te97  1  0.75953917  0.76255721  0.42416418  1
  Te  Te98  1  0.76015465  0.74036490  0.74650772  1
  Te  Te99  1  0.09848107  0.21583849  0.25155500  1
  Te  Te100  1  0.05290945  0.30770567  0.63240643  1
  Te  Te101  1  0.10814162  0.26880561  0.91169177  1
  Te  Te102  1  0.08678351  0.60593294  0.22169629  1
  Te  Te103  1  0.07550039  0.58273656  0.57862714  1
  Te  Te104  1  0.08600013  0.57296719  0.94287279  1
  Te  Te105  1  0.06619683  0.92468344  0.26246502  1
  Te  Te106  1  0.09648505  0.92819734  0.58884218  1
  Te  Te107  1  0.10383488  0.93066250  0.90764764  1
  Te  Te108  1  0.40959086  0.23655073  0.26555023  1
  Te  Te109  1  0.42367414  0.25287413  0.57927244  1
  Te  Te110  1  0.42401364  0.26335092  0.89870725  1
  Te  Te111  1  0.38037610  0.58354335  0.24816031  1
  Te  Te112  1  0.43712463  0.58070928  0.57619286  1
  Te  Te113  1  0.39884349  0.58932173  0.90661014  1
  Te  Te114  1  0.38419937  0.91859954  0.21859738  1
  Te  Te115  1  0.41601415  0.88725000  0.56565837  1
  Te  Te116  1  0.39499347  0.91873069  0.91360761  1
  Te  Te117  1  0.75332639  0.24781735  0.23465875  1
  Te  Te118  1  0.76507467  0.19491826  0.57347971  1
  Te  Te119  1  0.75685928  0.24610284  0.94156869  1
  Te  Te120  1  0.74985766  0.58336937  0.24942035  1
  Te  Te121  1  0.75944435  0.58611748  0.60858081  1
  Te  Te122  1  0.74910875  0.59200922  0.94615058  1
  Te  Te123  1  0.73537181  0.89392598  0.24351139  1
  Te  Te124  1  0.76560275  0.93563692  0.59864255  1
  Te  Te125  1  0.75148831  0.90909495  0.94102593  1
  Te  Te126  1  0.25960811  0.23671003  0.10143127  1
  Te  Te127  1  0.22081611  0.24689836  0.42079835  1
  Te  Te128  1  0.26689267  0.26697527  0.75570310  1
  Te  Te129  1  0.22523688  0.62950956  0.12451487  1
  Te  Te130  1  0.23601282  0.58887001  0.41571475  1
  Te  Te131  1  0.25308744  0.56808050  0.73453534  1
  Te  Te132  1  0.22259280  0.89104794  0.12167323  1
  Te  Te133  1  0.23614812  0.89894654  0.39447458  1
  Te  Te134  1  0.25712722  0.92806048  0.74883565  1
  Te  Te135  1  0.55981410  0.25125757  0.07614293  1
  Te  Te136  1  0.59805541  0.27358292  0.42411242  1
  Te  Te137  1  0.58830471  0.24644151  0.72814978  1
  Te  Te138  1  0.57374387  0.57167432  0.09431153  1
  Te  Te139  1  0.58944251  0.56224961  0.41364003  1
  Te  Te140  1  0.58780116  0.63038700  0.79134031  1
  Te  Te141  1  0.58117080  0.88959547  0.09080547  1
  Te  Te142  1  0.56840741  0.89783020  0.39389321  1
  Te  Te143  1  0.62030500  0.91465893  0.76922503  1
  Te  Te144  1  0.92781655  0.23592675  0.06779149  1
  Te  Te145  1  0.92740335  0.24449464  0.41298746  1
  Te  Te146  1  0.91062635  0.24694891  0.74396694  1
  Te  Te147  1  0.91505351  0.62899616  0.07963651  1
  Te  Te148  1  0.89798506  0.59184583  0.43303714  1
  Te  Te149  1  0.93297675  0.55427813  0.77755074  1
  Te  Te150  1  0.89763289  0.89719138  0.08257878  1
  Te  Te151  1  0.91395983  0.94085124  0.44484752  1
  Te  Te152  1  0.94079851  0.95067570  0.73400234  1
  Te  Te153  1  0.22695375  0.10850343  0.21584841  1
  Te  Te154  1  0.25908581  0.10204487  0.59646487  1
  Te  Te155  1  0.26009368  0.09168698  0.94711254  1
  Te  Te156  1  0.22569199  0.40910597  0.22169737  1
  Te  Te157  1  0.23895724  0.41286312  0.57147401  1
  Te  Te158  1  0.23741751  0.43528635  0.95478654  1
  Te  Te159  1  0.27760661  0.71463215  0.23643976  1
  Te  Te160  1  0.25928645  0.74703753  0.58176044  1
  Te  Te161  1  0.23326618  0.74976899  0.90081345  1
  Te  Te162  1  0.56970850  0.08044724  0.26086825  1
  Te  Te163  1  0.57500990  0.08608779  0.56436896  1
  Te  Te164  1  0.57575900  0.09361235  0.91161765  1
  Te  Te165  1  0.58522425  0.40467265  0.25413104  1
  Te  Te166  1  0.60133655  0.41864749  0.60469868  1
  Te  Te167  1  0.60069598  0.42183220  0.92762084  1
  Te  Te168  1  0.56867977  0.73230082  0.24788107  1
  Te  Te169  1  0.60226715  0.75379223  0.56738803  1
  Te  Te170  1  0.57806949  0.71028292  0.92413873  1
  Te  Te171  1  0.89782296  0.05910032  0.25762048  1
  Te  Te172  1  0.91144085  0.15138695  0.55041914  1
  Te  Te173  1  0.93089513  0.08460128  0.91217932  1
  Te  Te174  1  0.93217809  0.44027716  0.25718852  1
  Te  Te175  1  0.91075537  0.39733949  0.58049013  1
  Te  Te176  1  0.90765577  0.43205423  0.94324123  1
  Te  Te177  1  0.90919708  0.74422215  0.25857556  1
  Te  Te178  1  0.93083993  0.76238969  0.57545305  1
  Te  Te179  1  0.92436305  0.76526219  0.90318528  1
