# generated using pymatgen
data_In2Te3
_symmetry_space_group_name_H-M   'P 1'
_cell_length_a   18.97935505
_cell_length_b   18.95242005
_cell_length_c   18.97435880
_cell_angle_alpha   89.98620012
_cell_angle_beta   90.16831799
_cell_angle_gamma   90.02227121
_symmetry_Int_Tables_number   1
_chemical_formula_structural   In2Te3
_chemical_formula_sum   'In72 Te108'
_cell_volume   6825.13605215
_cell_formula_units_Z   36
loop_
 _symmetry_equiv_pos_site_id
 _symmetry_equiv_pos_as_xyz
  1  'x, y, z'
loop_
 _atom_site_type_symbol
 _atom_site_label
 _atom_site_symmetry_multiplicity
 _atom_site_fract_x
 _atom_site_fract_y
 _atom_site_fract_z
 _atom_site_occupancy
  In  In0  1  0.35712526  0.51281557  0.49950080  1
  In  In1  1  0.85001627  0.48981023  0.30469204  1
  In  In2  1  -0.02699298  0.32628218  0.65076393  1
  In  In3  1  0.00474567  0.81402358  0.49936927  1
  In  In4  1  -0.01508150  0.65307428  0.67242223  1
  In  In5  1  0.35548768  0.54411313  0.75519972  1
  In  In6  1  0.19907865  0.31601977  0.47398197  1
  In  In7  1  0.02459559  0.00278229  -0.00952852  1
  In  In8  1  0.18384209  0.73190113  0.11082747  1
  In  In9  1  0.33397007  0.87036061  0.16296525  1
  In  In10  1  0.81871537  0.01378537  0.51753088  1
  In  In11  1  0.20084491  -0.02179802  0.48050149  1
  In  In12  1  0.35403149  0.35351752  0.64752832  1
  In  In13  1  0.66310270  0.82405593  0.84830436  1
  In  In14  1  0.84604574  0.66896693  0.14737281  1
  In  In15  1  0.18332185  0.72699537  0.48331854  1
  In  In16  1  0.36366187  0.69128416  0.33204241  1
  In  In17  1  0.49836937  0.69498468  0.83343281  1
  In  In18  1  0.52389772  0.18622619  0.70087862  1
  In  In19  1  0.64285541  0.64972139  0.36000466  1
  In  In20  1  0.13256134  0.51350935  -0.01909925  1
  In  In21  1  -0.03286252  0.50222034  0.83768652  1
  In  In22  1  0.65789891  0.85376366  0.15220337  1
  In  In23  1  0.00240210  0.33465803  -0.02121658  1
  In  In24  1  0.80766946  0.64763069  0.51124123  1
  In  In25  1  0.84934706  0.82956387  -0.01487533  1
  In  In26  1  -0.01647055  0.15660273  0.48681611  1
  In  In27  1  0.52254837  0.32975943  0.17889099  1
  In  In28  1  -0.00109084  0.50325056  0.14640174  1
  In  In29  1  0.00981165  0.48147279  0.49845804  1
  In  In30  1  0.66630720  0.16866304  0.17418025  1
  In  In31  1  0.15836745  0.52612841  0.66616464  1
  In  In32  1  0.50462345  0.84152511  0.37470319  1
  In  In33  1  0.32532155  0.86582555  0.85065917  1
  In  In34  1  0.68076626  0.33465005  0.01370618  1
  In  In35  1  0.00911886  0.65530899  0.31984715  1
  In  In36  1  0.83654601  0.17278895  -0.00628781  1
  In  In37  1  0.32478150  0.16364661  0.83971330  1
  In  In38  1  0.67573866  0.01053135  0.68051417  1
  In  In39  1  0.33483071  0.69971263  -0.01538169  1
  In  In40  1  0.50758763  0.66201821  0.17667816  1
  In  In41  1  0.05612474  0.85708940  0.13258355  1
  In  In42  1  0.15984453  0.30062471  0.18850760  1
  In  In43  1  0.66252166  -0.00921313  0.33980932  1
  In  In44  1  0.15942484  0.50359926  0.34705058  1
  In  In45  1  0.67646394  0.32959411  0.33692116  1
  In  In46  1  0.48496779  0.12821686  0.32501841  1
  In  In47  1  -0.02380359  0.83779645  0.82289670  1
  In  In48  1  0.64414341  0.14465931  0.48910243  1
  In  In49  1  0.85023673  0.01649209  0.18719716  1
  In  In50  1  0.52478705  0.47448169  0.67761621  1
  In  In51  1  0.48980015  -0.00087549  0.83789678  1
  In  In52  1  0.65022973  -0.00335168  -0.01596881  1
  In  In53  1  0.14433489  0.15636013  0.66384918  1
  In  In54  1  0.49370080  0.51567625  0.01225133  1
  In  In55  1  0.68633504  0.49596615  0.16260232  1
  In  In56  1  0.46260959  0.86283758  0.64971358  1
  In  In57  1  0.31930049  0.33094313  -0.00314018  1
  In  In58  1  0.68199963  0.47548533  0.84338274  1
  In  In59  1  0.19129212  0.84263802  0.66937758  1
  In  In60  1  0.82461299  0.33529060  0.50414363  1
  In  In61  1  0.64480218  0.68677917  0.67556776  1
  In  In62  1  0.35266244  0.31983124  0.33385079  1
  In  In63  1  0.35095060  0.16522977  0.50168516  1
  In  In64  1  0.83404869  0.80345344  0.35571438  1
  In  In65  1  0.00722327  -0.00292468  0.32840508  1
  In  In66  1  0.00681601  -0.00194141  0.68162130  1
  In  In67  1  0.32830225  0.52506671  0.17308947  1
  In  In68  1  0.16766013  0.33829371  0.81804986  1
  In  In69  1  0.79532532  0.18934389  0.68124595  1
  In  In70  1  0.00418880  0.17469036  0.83962616  1
  In  In71  1  0.18876541  0.12121840  0.03696513  1
  Te  Te72  1  0.05313560  0.10369515  0.10169397  1
  Te  Te73  1  0.09468044  0.07814987  0.42480171  1
  Te  Te74  1  0.09886986  0.07019452  0.77860120  1
  Te  Te75  1  0.10600666  0.40025429  0.08263014  1
  Te  Te76  1  0.08219691  0.38633758  0.40303926  1
  Te  Te77  1  0.07019098  0.41834226  0.73401577  1
  Te  Te78  1  0.04919138  0.73295585  0.05484759  1
  Te  Te79  1  0.08215755  0.77591643  0.37605884  1
  Te  Te80  1  0.07476521  0.76608126  0.72621960  1
  Te  Te81  1  0.37550196  0.01963446  0.13932607  1
  Te  Te82  1  0.41583497  0.04840341  0.43178154  1
  Te  Te83  1  0.41283495  0.08928378  0.74177049  1
  Te  Te84  1  0.41234703  0.41717824  0.10122974  1
  Te  Te85  1  0.43066653  0.40108991  0.43241251  1
  Te  Te86  1  0.42124287  0.40699683  0.76971126  1
  Te  Te87  1  0.41703779  0.75399517  0.09931828  1
  Te  Te88  1  0.45442698  0.72064464  0.44581196  1
  Te  Te89  1  0.39822963  0.77128102  0.75424869  1
  Te  Te90  1  0.75092598  0.07020684  0.08515242  1
  Te  Te91  1  0.75702546  0.09249733  0.40309646  1
  Te  Te92  1  0.73051311  0.10339684  0.78102621  1
  Te  Te93  1  0.77258953  0.38450275  0.12042857  1
  Te  Te94  1  0.75647002  0.43540379  0.41035860  1
  Te  Te95  1  0.72573343  0.38972775  0.73306079  1
  Te  Te96  1  0.74804030  0.75870936  0.07419830  1
  Te  Te97  1  0.72055566  0.75253645  0.44175667  1
  Te  Te98  1  0.75122251  0.73788505  0.76538592  1
  Te  Te99  1  0.08064544  0.18546720  0.23212540  1
  Te  Te100  1  0.08559074  0.26192630  0.57167824  1
  Te  Te101  1  0.11593822  0.24020932  0.92109009  1
  Te  Te102  1  0.10379708  0.58162555  0.22915422  1
  Te  Te103  1  0.08415580  0.60164769  0.55723515  1
  Te  Te104  1  0.06814585  0.59954414  0.88297189  1
  Te  Te105  1  0.11573461  0.94167392  0.24158080  1
  Te  Te106  1  0.08273625  0.92592385  0.57041719  1
  Te  Te107  1  0.08304446  0.89427686  0.91063704  1
  Te  Te108  1  0.41984906  0.22988547  0.23280698  1
  Te  Te109  1  0.44408764  0.25274607  0.58361032  1
  Te  Te110  1  0.41151597  0.25277596  0.91572727  1
  Te  Te111  1  0.43419703  0.56942437  0.27261895  1
  Te  Te112  1  0.42087511  0.57569395  0.62333678  1
  Te  Te113  1  0.40472535  0.58563715  0.91086372  1
  Te  Te114  1  0.42319025  0.91869937  0.27739501  1
  Te  Te115  1  0.39331065  0.93352309  0.53795430  1
  Te  Te116  1  0.43471545  0.90898379  0.94192932  1
  Te  Te117  1  0.76214357  0.26162960  0.23680431  1
  Te  Te118  1  0.71564131  0.25395828  0.56987165  1
  Te  Te119  1  0.73797804  0.24468347  0.91167617  1
  Te  Te120  1  0.75546402  0.60710040  0.25826066  1
  Te  Te121  1  0.70562717  0.57547479  0.59163135  1
  Te  Te122  1  0.77696788  0.52300665  0.94642660  1
  Te  Te123  1  0.76463191  0.90271655  0.25824907  1
  Te  Te124  1  0.74646403  0.91360666  0.59490522  1
  Te  Te125  1  0.75953390  0.92514508  0.90824542  1
  Te  Te126  1  0.26653809  0.23390325  0.10169162  1
  Te  Te127  1  0.25986777  0.21090839  0.38501028  1
  Te  Te128  1  0.25207799  0.25627281  0.72166408  1
  Te  Te129  1  0.24674029  0.59028873  0.06342388  1
  Te  Te130  1  0.25953134  0.59925875  0.41101349  1
  Te  Te131  1  0.22461286  0.60829988  0.76737268  1
  Te  Te132  1  0.24126009  0.96088546  0.07152788  1
  Te  Te133  1  0.27621604  0.85120423  0.46043583  1
  Te  Te134  1  0.26322696  0.94549942  0.74287962  1
  Te  Te135  1  0.57472636  0.23578730  0.07471911  1
  Te  Te136  1  0.57074483  0.23537390  0.39374324  1
  Te  Te137  1  0.61086115  0.29642275  0.75399352  1
  Te  Te138  1  0.60374851  0.59440052  0.08090430  1
  Te  Te139  1  0.59852075  0.56251106  0.47153438  1
  Te  Te140  1  0.58336142  0.58095347  0.78005693  1
  Te  Te141  1  0.55575988  0.91680037  0.06643042  1
  Te  Te142  1  0.60005089  0.92229757  0.45171229  1
  Te  Te143  1  0.57816124  0.90556336  0.74858255  1
  Te  Te144  1  0.93781324  0.24372724  0.07391637  1
  Te  Te145  1  0.91133029  0.26005847  0.41395679  1
  Te  Te146  1  0.90399406  0.26275714  0.76714088  1
  Te  Te147  1  0.89914267  0.56597429  0.05427346  1
  Te  Te148  1  0.91891715  0.58482005  0.41790986  1
  Te  Te149  1  0.88486473  0.56640506  0.73473606  1
  Te  Te150  1  0.92171064  0.92497148  0.08878326  1
  Te  Te151  1  0.90909936  0.91839384  0.42777428  1
  Te  Te152  1  0.89475880  0.92010223  0.73062304  1
  Te  Te153  1  0.24567052  0.03516447  0.20972069  1
  Te  Te154  1  0.24758801  0.08438210  0.58041973  1
  Te  Te155  1  0.27289907  0.05909021  0.93219708  1
  Te  Te156  1  0.25460967  0.41433029  0.25988063  1
  Te  Te157  1  0.23868349  0.43025349  0.56975518  1
  Te  Te158  1  0.24401804  0.43002454  0.90990226  1
  Te  Te159  1  0.25731259  0.75554333  0.23884562  1
  Te  Te160  1  0.27007427  0.73882955  0.60006647  1
  Te  Te161  1  0.22728664  0.78210014  0.92675417  1
  Te  Te162  1  0.58037828  0.05733962  0.23159400  1
  Te  Te163  1  0.56685858  0.07933856  0.59987281  1
  Te  Te164  1  0.58015903  0.09666499  0.90204722  1
  Te  Te165  1  0.59101220  0.43436749  0.26356839  1
  Te  Te166  1  0.55749896  0.42792599  0.54087064  1
  Te  Te167  1  0.57383838  0.41426454  0.93673573  1
  Te  Te168  1  0.59144312  0.75973273  0.25798652  1
  Te  Te169  1  0.54428403  0.75255540  0.58789560  1
  Te  Te170  1  0.58139900  0.74523535  0.94158409  1
  Te  Te171  1  0.92651107  0.10896738  0.27253207  1
  Te  Te172  1  0.91169099  0.10495509  0.61028808  1
  Te  Te173  1  0.91720150  0.07241271  0.90893574  1
  Te  Te174  1  0.95241117  0.40594009  0.24485934  1
  Te  Te175  1  0.89533035  0.44094478  0.58970841  1
  Te  Te176  1  0.88399981  0.41123383  0.92393490  1
  Te  Te177  1  0.92488804  0.75836313  0.24146735  1
  Te  Te178  1  0.90006811  0.74483802  0.58363257  1
  Te  Te179  1  0.88503844  0.73357080  0.87920396  1
