# generated using pymatgen
data_In2Te3
_symmetry_space_group_name_H-M   'P 1'
_cell_length_a   18.95992278
_cell_length_b   18.98323663
_cell_length_c   18.95089655
_cell_angle_alpha   89.97977449
_cell_angle_beta   90.13166498
_cell_angle_gamma   89.69077887
_symmetry_Int_Tables_number   1
_chemical_formula_structural   In2Te3
_chemical_formula_sum   'In72 Te108'
_cell_volume   6820.70216478
_cell_formula_units_Z   36
loop_
 _symmetry_equiv_pos_site_id
 _symmetry_equiv_pos_as_xyz
  1  'x, y, z'
loop_
 _atom_site_type_symbol
 _atom_site_label
 _atom_site_symmetry_multiplicity
 _atom_site_fract_x
 _atom_site_fract_y
 _atom_site_fract_z
 _atom_site_occupancy
  In  In0  1  0.81429646  0.32739335  0.52057198  1
  In  In1  1  0.80751994  0.46495911  -0.02908452  1
  In  In2  1  -0.03200716  0.18544296  0.12051023  1
  In  In3  1  0.16672375  0.16513416  0.35272699  1
  In  In4  1  0.38429714  0.32165292  -0.04516089  1
  In  In5  1  0.02513481  0.85699840  0.50188658  1
  In  In6  1  0.67428501  0.17632449  0.15026460  1
  In  In7  1  0.65866902  0.03261293  0.67737227  1
  In  In8  1  0.32078668  0.01195265  0.35237388  1
  In  In9  1  0.01535610  0.01811082  0.32235250  1
  In  In10  1  0.01283056  0.51771299  0.83656582  1
  In  In11  1  0.17866874  0.65289867  0.18401916  1
  In  In12  1  0.62713123  0.34312428  0.69572258  1
  In  In13  1  0.81487671  0.62650013  0.81774561  1
  In  In14  1  0.83639775  0.79110192  0.37008229  1
  In  In15  1  0.47064615  0.85203100  0.66361417  1
  In  In16  1  0.50283066  0.32615136  0.12406523  1
  In  In17  1  0.67431863  0.50006424  0.16929926  1
  In  In18  1  0.30444794  0.31690798  0.33380839  1
  In  In19  1  0.80637062  -0.01187619  0.48542553  1
  In  In20  1  0.66476172  0.31604012  0.35672956  1
  In  In21  1  0.01584731  0.67269617  0.01983160  1
  In  In22  1  0.80735289  0.32945377  0.81705915  1
  In  In23  1  0.32854612  0.85983998  0.15402592  1
  In  In24  1  0.81226801  -0.03206657  0.16307158  1
  In  In25  1  0.16911838  0.49426980  0.64944800  1
  In  In26  1  0.01458278  0.01800965  0.65934962  1
  In  In27  1  0.51232281  0.84410990  -0.00414884  1
  In  In28  1  0.16597435  0.31514080  0.84124133  1
  In  In29  1  0.85809802  0.85638466  0.65235576  1
  In  In30  1  0.00437060  0.82450486  0.82221764  1
  In  In31  1  0.81481927  0.13392472  0.33584874  1
  In  In32  1  0.16425624  0.01817456  0.83866396  1
  In  In33  1  0.48472530  0.02652423  0.83265098  1
  In  In34  1  0.16407337  0.68321272  0.52166149  1
  In  In35  1  0.65753252  -0.01819841  -0.01335223  1
  In  In36  1  0.15699032  0.16778998  -0.00528223  1
  In  In37  1  0.33406033  0.46876805  0.14542173  1
  In  In38  1  0.63764232  0.83412340  0.19450430  1
  In  In39  1  0.00767252  0.18481546  0.52946327  1
  In  In40  1  0.83929029  0.81309924  0.00410193  1
  In  In41  1  0.31597217  0.02601270  0.65470328  1
  In  In42  1  0.33220370  0.31820397  0.69278639  1
  In  In43  1  0.21763610  0.83440016  -0.03865972  1
  In  In44  1  0.36396638  0.66595058  0.32748519  1
  In  In45  1  0.68566061  0.83468308  0.81952437  1
  In  In46  1  0.51466293  0.66648272  0.15612107  1
  In  In47  1  -0.01845110  0.33207640  0.33256048  1
  In  In48  1  0.17133717  0.29753967  0.15909676  1
  In  In49  1  0.36330970  0.68215054  0.68726352  1
  In  In50  1  0.82840965  0.63769746  0.15942943  1
  In  In51  1  -0.02431683  0.66704867  0.35305100  1
  In  In52  1  0.30275526  0.49849775  0.50007215  1
  In  In53  1  0.33689992  0.52964207  0.83207315  1
  In  In54  1  0.49889569  0.67681712  0.50568099  1
  In  In55  1  0.13135346  0.49971070  0.34992299  1
  In  In56  1  0.51801081  0.52198522  0.68792883  1
  In  In57  1  0.80759722  0.17485768  0.66742672  1
  In  In58  1  -0.01262142  0.02769788  -0.01964957  1
  In  In59  1  -0.01834573  0.46599320  0.48926038  1
  In  In60  1  0.63624610  0.00674101  0.33631621  1
  In  In61  1  0.46094621  0.15723531  0.33619082  1
  In  In62  1  0.35154859  0.14678612  0.13720038  1
  In  In63  1  0.70234362  0.65070642  -0.01419175  1
  In  In64  1  -0.01532253  0.46428671  0.15380642  1
  In  In65  1  0.52749220  0.49795712  0.34685167  1
  In  In66  1  0.45973168  0.34230028  0.51876658  1
  In  In67  1  0.82954532  0.64253985  0.55955203  1
  In  In68  1  0.19432273  0.83241951  0.71559706  1
  In  In69  1  0.16624145  0.49673648  0.00870252  1
  In  In70  1  0.48564780  0.85101132  0.34372859  1
  In  In71  1  0.02530436  0.84546525  0.19151299  1
  Te  Te72  1  0.07697024  0.08199086  0.09014546  1
  Te  Te73  1  0.08118771  0.07922598  0.44313859  1
  Te  Te74  1  0.07425763  0.10936743  0.75960038  1
  Te  Te75  1  0.08182510  0.38658528  0.06923945  1
  Te  Te76  1  0.09159579  0.37795223  0.42846148  1
  Te  Te77  1  0.09269551  0.41539507  0.75156451  1
  Te  Te78  1  0.11169536  0.76310437  0.09427362  1
  Te  Te79  1  0.08830841  0.75302944  0.40804010  1
  Te  Te80  1  0.08803987  0.73544636  0.74269201  1
  Te  Te81  1  0.43460101  0.07924780  0.04172300  1
  Te  Te82  1  0.42608870  0.06318727  0.44395037  1
  Te  Te83  1  0.43879099  0.09393124  0.70723358  1
  Te  Te84  1  0.43799276  0.43593527  0.03911181  1
  Te  Te85  1  0.39424625  0.43012029  0.39853359  1
  Te  Te86  1  0.42002250  0.42860394  0.75424692  1
  Te  Te87  1  0.42104707  0.75825372  0.08248713  1
  Te  Te88  1  0.39687108  0.76680833  0.43449054  1
  Te  Te89  1  0.42507216  0.77337032  0.78734967  1
  Te  Te90  1  0.75320480  0.07199140  0.07171495  1
  Te  Te91  1  0.70651429  0.10395485  0.44151677  1
  Te  Te92  1  0.76782949  0.07424430  0.76573831  1
  Te  Te93  1  0.74333444  0.39726245  0.08544830  1
  Te  Te94  1  0.74160813  0.41561603  0.42941933  1
  Te  Te95  1  0.74999419  0.42773844  0.71430771  1
  Te  Te96  1  0.73365218  0.75800624  0.09879477  1
  Te  Te97  1  0.75061992  0.73334587  0.47131535  1
  Te  Te98  1  0.78240052  0.75296000  0.73764532  1
  Te  Te99  1  0.06492287  0.23487938  0.24931805  1
  Te  Te100  1  0.11453507  0.20215460  0.62949363  1
  Te  Te101  1  0.05769783  0.24737196  0.91804290  1
  Te  Te102  1  0.05471901  0.58313161  0.24079192  1
  Te  Te103  1  0.07270780  0.57034515  0.56070644  1
  Te  Te104  1  0.10810359  0.60552056  0.91932816  1
  Te  Te105  1  0.12516356  0.92622922  0.27130538  1
  Te  Te106  1  0.11378456  0.91588961  0.60906347  1
  Te  Te107  1  0.08147855  0.91396370  0.91942266  1
  Te  Te108  1  0.40443820  0.26731749  0.23218345  1
  Te  Te109  1  0.43863113  0.23877597  0.62260695  1
  Te  Te110  1  0.46554536  0.24007583  0.86137940  1
  Te  Te111  1  0.42496123  0.56157562  0.23371107  1
  Te  Te112  1  0.40511196  0.57303081  0.58161176  1
  Te  Te113  1  0.42398283  0.63251694  0.88943475  1
  Te  Te114  1  0.41330316  0.94230267  0.24811121  1
  Te  Te115  1  0.39955018  0.93924340  0.56660797  1
  Te  Te116  1  0.41906019  0.95447246  0.95005174  1
  Te  Te117  1  0.75716171  0.24924127  0.25565001  1
  Te  Te118  1  0.70146815  0.25271356  0.59048473  1
  Te  Te119  1  0.80314404  0.24167094  0.94192009  1
  Te  Te120  1  0.73498644  0.59594190  0.26208843  1
  Te  Te121  1  0.72230515  0.56202865  0.62721631  1
  Te  Te122  1  0.70846363  0.53926619  0.88126710  1
  Te  Te123  1  0.74474973  0.90256479  0.28165826  1
  Te  Te124  1  0.73282952  0.91898576  0.59513202  1
  Te  Te125  1  0.77558029  0.91530501  0.91268784  1
  Te  Te126  1  0.27516277  0.26315091  0.05436908  1
  Te  Te127  1  0.26860682  0.22437524  0.44364931  1
  Te  Te128  1  0.26853451  0.22186479  0.78709710  1
  Te  Te129  1  0.26652491  0.58832263  0.07780711  1
  Te  Te130  1  0.23877027  0.59662238  0.40036538  1
  Te  Te131  1  0.24343848  0.59507583  0.73177637  1
  Te  Te132  1  0.24813503  0.93851394  0.05881715  1
  Te  Te133  1  0.20855448  0.93587833  0.40298778  1
  Te  Te134  1  0.28025158  0.94029348  0.77639790  1
  Te  Te135  1  0.58778835  0.23622900  0.04276412  1
  Te  Te136  1  0.53928989  0.25905691  0.41785312  1
  Te  Te137  1  0.61551014  0.22896310  0.79646118  1
  Te  Te138  1  0.59393374  0.57638085  0.06455714  1
  Te  Te139  1  0.59422539  0.58226481  0.44435845  1
  Te  Te140  1  0.60885280  0.63592492  0.70626662  1
  Te  Te141  1  0.57325447  0.93579411  0.10586844  1
  Te  Te142  1  0.59300657  0.90290331  0.42833277  1
  Te  Te143  1  0.57547762  0.92039700  0.75807492  1
  Te  Te144  1  0.87154654  0.28595202  0.07494184  1
  Te  Te145  1  0.90458069  0.22835604  0.41931129  1
  Te  Te146  1  0.90764027  0.26849543  0.72272439  1
  Te  Te147  1  0.91103917  0.56498336  0.05310178  1
  Te  Te148  1  0.89021456  0.57254902  0.43245373  1
  Te  Te149  1  0.92034204  0.57071937  0.73413791  1
  Te  Te150  1  0.93208104  0.90893316  0.07959626  1
  Te  Te151  1  0.92246579  0.92015884  0.39952708  1
  Te  Te152  1  0.92876132  0.93919235  0.75838211  1
  Te  Te153  1  0.25369322  0.10140880  0.24108265  1
  Te  Te154  1  0.23430113  0.12189980  0.57541100  1
  Te  Te155  1  0.26214780  0.10878085  0.90699211  1
  Te  Te156  1  0.22291144  0.42346616  0.24308377  1
  Te  Te157  1  0.24713444  0.38404507  0.58087929  1
  Te  Te158  1  0.25777840  0.42390491  0.91078113  1
  Te  Te159  1  0.26814004  0.75533916  0.25104422  1
  Te  Te160  1  0.26525630  0.76265630  0.59746212  1
  Te  Te161  1  0.30572587  0.73507971  0.90106813  1
  Te  Te162  1  0.57309580  0.10869732  0.24507377  1
  Te  Te163  1  0.60759509  0.10388370  0.56098301  1
  Te  Te164  1  0.60984019  0.08581073  0.89201600  1
  Te  Te165  1  0.57795823  0.39812131  0.24224290  1
  Te  Te166  1  0.56793404  0.42748373  0.57822928  1
  Te  Te167  1  0.58361100  0.33163463  0.89799899  1
  Te  Te168  1  0.56835385  0.73323211  0.28063558  1
  Te  Te169  1  0.57438327  0.75501693  0.60948304  1
  Te  Te170  1  0.60831516  0.75127698  0.91938549  1
  Te  Te171  1  0.90665999  0.07545398  0.22845807  1
  Te  Te172  1  0.89970781  0.07428239  0.56802940  1
  Te  Te173  1  0.92508899  0.14464550  0.91832533  1
  Te  Te174  1  0.89552472  0.42702673  0.26191820  1
  Te  Te175  1  0.92895516  0.38156603  0.59861997  1
  Te  Te176  1  0.92144878  0.40962027  0.89157475  1
  Te  Te177  1  0.91436663  0.74873981  0.23187488  1
  Te  Te178  1  0.93867350  0.75591998  0.57397498  1
  Te  Te179  1  0.91768864  0.72568461  0.90879697  1
