# generated using pymatgen
data_In2Te3
_symmetry_space_group_name_H-M   'P 1'
_cell_length_a   19.03213747
_cell_length_b   19.00719261
_cell_length_c   19.03401314
_cell_angle_alpha   89.97606873
_cell_angle_beta   89.94144447
_cell_angle_gamma   90.05323379
_symmetry_Int_Tables_number   1
_chemical_formula_structural   In2Te3
_chemical_formula_sum   'In72 Te108'
_cell_volume   6885.49954672
_cell_formula_units_Z   36
loop_
 _symmetry_equiv_pos_site_id
 _symmetry_equiv_pos_as_xyz
  1  'x, y, z'
loop_
 _atom_site_type_symbol
 _atom_site_label
 _atom_site_symmetry_multiplicity
 _atom_site_fract_x
 _atom_site_fract_y
 _atom_site_fract_z
 _atom_site_occupancy
  In  In0  1  -0.01900399  0.83291752  0.17788782  1
  In  In1  1  0.82825068  -0.02821632  0.51006621  1
  In  In2  1  0.47793090  0.17393517  0.00886106  1
  In  In3  1  0.30097841  0.00483168  -0.00941671  1
  In  In4  1  0.32445746  0.66476147  0.33030326  1
  In  In5  1  0.33896416  0.34481780  0.34097025  1
  In  In6  1  0.82083126  0.51137665  -0.01181461  1
  In  In7  1  0.66917779  0.00586284  0.66648576  1
  In  In8  1  0.67737461  0.35729725  0.32295847  1
  In  In9  1  0.18344033  0.18360660  0.65531229  1
  In  In10  1  0.67542819  0.51249966  0.49964301  1
  In  In11  1  0.21931624  0.49466843  0.66673898  1
  In  In12  1  0.15121104  0.16263618  0.00237845  1
  In  In13  1  0.64425654  0.61943935  0.68705916  1
  In  In14  1  0.69110812  0.18455851  0.53055359  1
  In  In15  1  0.35682878  -0.01748094  0.68327091  1
  In  In16  1  0.66272176  0.21569654  0.81141075  1
  In  In17  1  0.37068205  0.47477162  0.82335625  1
  In  In18  1  0.16255446  0.81980430  0.66136658  1
  In  In19  1  -0.00634160  0.51105293  0.21554680  1
  In  In20  1  0.14926828  0.02456758  0.49293014  1
  In  In21  1  0.53452145  0.21163692  0.68802019  1
  In  In22  1  0.66974148  0.36376980  0.69059144  1
  In  In23  1  0.49970197  0.78021128  0.69925347  1
  In  In24  1  0.51469827  0.33348404  0.48920619  1
  In  In25  1  0.49537911  0.01762529  0.84427730  1
  In  In26  1  0.02509988  0.34103992  0.00147434  1
  In  In27  1  0.83886299  0.16415486  -0.02310856  1
  In  In28  1  0.00346407  0.81235456  0.49248878  1
  In  In29  1  -0.02589749  0.67392475  0.01227018  1
  In  In30  1  0.15528197  -0.00055239  0.82577630  1
  In  In31  1  -0.01807137  0.16305092  0.52164068  1
  In  In32  1  0.85268242  0.50165015  0.37728621  1
  In  In33  1  0.69165726  0.83724686  0.16573317  1
  In  In34  1  0.16979250  0.50298091  0.32475799  1
  In  In35  1  0.50701792  0.80276409  0.35180781  1
  In  In36  1  0.83049219  0.81172725  0.35175001  1
  In  In37  1  -0.01517990  -0.01075169  0.69152150  1
  In  In38  1  0.85774743  0.00168134  0.18209375  1
  In  In39  1  0.66864856  0.82812102  0.83634514  1
  In  In40  1  0.18131203  0.33412078  0.82737564  1
  In  In41  1  0.28270288  0.17443318  0.17441130  1
  In  In42  1  0.51371058  -0.00372706  0.47211233  1
  In  In43  1  0.33831705  0.64357514  -0.01344872  1
  In  In44  1  0.48034433  0.82956882  0.00512883  1
  In  In45  1  0.83140261  0.35421336  0.14855913  1
  In  In46  1  0.62988195  -0.00126338  0.33792905  1
  In  In47  1  0.14816547  0.83884310  -0.00289860  1
  In  In48  1  0.34800843  0.35864370  -0.01094586  1
  In  In49  1  0.02218757  0.51825501  0.82078453  1
  In  In50  1  0.32374977  0.17823714  0.49134196  1
  In  In51  1  0.16466783  0.50066990  0.04133158  1
  In  In52  1  0.47880610  0.19030265  0.33373781  1
  In  In53  1  0.18019610  0.67030157  0.49197275  1
  In  In54  1  0.65866171  0.20110648  0.13076325  1
  In  In55  1  0.68287199  0.65290726  0.34906775  1
  In  In56  1  0.83765390  0.65560290  0.82299521  1
  In  In57  1  0.48685571  -0.00166056  0.19734536  1
  In  In58  1  0.00605762  0.67007610  0.64249889  1
  In  In59  1  0.82076899  -0.01461945  0.82922896  1
  In  In60  1  0.34344668  0.51138281  0.17075074  1
  In  In61  1  0.01146926  0.02117886  0.31634334  1
  In  In62  1  0.34008097  0.83111429  0.49858665  1
  In  In63  1  0.65525354  0.51893862  0.17404428  1
  In  In64  1  0.16830665  0.35176347  0.49281531  1
  In  In65  1  0.66758071  0.69813801  0.01711885  1
  In  In66  1  0.83573091  0.15751510  0.34451339  1
  In  In67  1  0.66783805  0.00264457  -0.00453000  1
  In  In68  1  0.84051104  0.33095993  0.83403558  1
  In  In69  1  0.16091172  0.00817219  0.15304446  1
  In  In70  1  0.17209949  0.67057207  0.83004145  1
  In  In71  1  0.30450750  -0.08752773  0.30979246  1
  Te  Te72  1  0.06519085  0.05144581  0.04986679  1
  Te  Te73  1  0.07739725  0.12289150  0.40535570  1
  Te  Te74  1  0.08505882  0.09667432  0.73240730  1
  Te  Te75  1  0.07463373  0.41362641  0.12402712  1
  Te  Te76  1  0.07281051  0.41934400  0.40331619  1
  Te  Te77  1  0.09781711  0.42148728  0.73522797  1
  Te  Te78  1  0.07628505  0.74741054  0.09440865  1
  Te  Te79  1  0.06646445  0.71355702  0.40151802  1
  Te  Te80  1  0.06837885  0.75235804  0.75840290  1
  Te  Te81  1  0.40748391  0.06474468  0.08695636  1
  Te  Te82  1  0.40574964  0.07835210  0.40572168  1
  Te  Te83  1  0.43059067  0.10119777  0.73859275  1
  Te  Te84  1  0.43228187  0.44912697  0.06833678  1
  Te  Te85  1  0.44209501  0.42729111  0.40318345  1
  Te  Te86  1  0.44091073  0.44112900  0.69617577  1
  Te  Te87  1  0.43102692  0.71372460  0.08131146  1
  Te  Te88  1  0.42156142  0.71835496  0.44095828  1
  Te  Te89  1  0.38313824  0.72530556  0.76100364  1
  Te  Te90  1  0.75595104  0.08238463  0.08928706  1
  Te  Te91  1  0.74119988  0.07320826  0.42974566  1
  Te  Te92  1  0.74358083  0.09718201  0.75775942  1
  Te  Te93  1  0.72652379  0.42611278  0.06999861  1
  Te  Te94  1  0.75434602  0.39730642  0.44234796  1
  Te  Te95  1  0.76427431  0.44624824  0.77460230  1
  Te  Te96  1  0.78039107  0.73616432  0.10601638  1
  Te  Te97  1  0.76633448  0.72350102  0.44786244  1
  Te  Te98  1  0.73468400  0.73393897  0.74205495  1
  Te  Te99  1  0.13185069  0.17969108  0.15609820  1
  Te  Te100  1  0.08074323  0.26550894  0.58147286  1
  Te  Te101  1  0.07566532  0.24912316  0.89456632  1
  Te  Te102  1  0.09399286  0.60918388  0.25679184  1
  Te  Te103  1  0.11250260  0.57735232  0.59024733  1
  Te  Te104  1  0.08831558  0.59171141  0.93653944  1
  Te  Te105  1  0.08778056  0.91162688  0.24967005  1
  Te  Te106  1  0.07644614  0.92371096  0.58554668  1
  Te  Te107  1  0.06508027  0.91971418  0.90802037  1
  Te  Te108  1  0.40214185  0.25692867  0.22681783  1
  Te  Te109  1  0.43174705  0.23974868  0.57470286  1
  Te  Te110  1  0.39460088  0.24319456  0.90770833  1
  Te  Te111  1  0.42718952  0.58672746  0.26422219  1
  Te  Te112  1  0.34845626  0.51938484  0.58768939  1
  Te  Te113  1  0.44189958  0.55215180  0.92872895  1
  Te  Te114  1  0.43111738  0.86544163  0.23706642  1
  Te  Te115  1  0.44097981  0.90986508  0.58055541  1
  Te  Te116  1  0.40218279  0.92066897  0.91199370  1
  Te  Te117  1  0.75332549  0.24824393  0.24011222  1
  Te  Te118  1  0.77084020  0.27030729  0.62366631  1
  Te  Te119  1  0.74187142  0.26956025  0.93062532  1
  Te  Te120  1  0.76722398  0.56256286  0.26365782  1
  Te  Te121  1  0.75623635  0.58167439  0.59888467  1
  Te  Te122  1  0.72658581  0.60214649  0.91559075  1
  Te  Te123  1  0.75411397  0.93158100  0.26903271  1
  Te  Te124  1  0.72716589  0.89848112  0.58657095  1
  Te  Te125  1  0.75650258  0.89684781  0.93803381  1
  Te  Te126  1  0.24762659  0.27158036  0.06125506  1
  Te  Te127  1  0.23425188  0.24962164  0.39610282  1
  Te  Te128  1  0.27323001  0.27117773  0.73037976  1
  Te  Te129  1  0.24565873  0.60831813  0.10489788  1
  Te  Te130  1  0.26076731  0.56032497  0.42897623  1
  Te  Te131  1  0.29006469  0.60070583  0.76615212  1
  Te  Te132  1  0.25195042  0.90244831  0.08855727  1
  Te  Te133  1  0.22013014  0.90150570  0.43815439  1
  Te  Te134  1  0.24999160  0.90356976  0.75412743  1
  Te  Te135  1  0.56294575  0.28227297  0.05839196  1
  Te  Te136  1  0.60369991  0.23463055  0.41012004  1
  Te  Te137  1  0.52785097  0.29328162  0.81780414  1
  Te  Te138  1  0.57398264  0.61528854  0.09591384  1
  Te  Te139  1  0.57870920  0.56250664  0.40150757  1
  Te  Te140  1  0.52601539  0.55029144  0.75658032  1
  Te  Te141  1  0.58101889  0.92152241  0.08979632  1
  Te  Te142  1  0.60633922  0.88164064  0.43351989  1
  Te  Te143  1  0.57387091  0.91913389  0.75752564  1
  Te  Te144  1  0.91836291  0.25808249  0.06986728  1
  Te  Te145  1  0.89742505  0.24986961  0.43899121  1
  Te  Te146  1  0.88926591  0.25528414  0.72140786  1
  Te  Te147  1  0.91296986  0.56397919  0.09415909  1
  Te  Te148  1  0.93901462  0.61337408  0.43330269  1
  Te  Te149  1  0.92095157  0.57288607  0.72448798  1
  Te  Te150  1  0.91196491  0.91611330  0.07899423  1
  Te  Te151  1  0.93327361  0.92674059  0.40657460  1
  Te  Te152  1  0.88815166  0.88991032  0.73841456  1
  Te  Te153  1  0.26129384  0.04946204  0.26098621  1
  Te  Te154  1  0.26445498  0.06440692  0.58588445  1
  Te  Te155  1  0.24398472  0.10150983  0.89247950  1
  Te  Te156  1  0.25132505  0.41081909  0.23777025  1
  Te  Te157  1  0.28464569  0.38096597  0.58350512  1
  Te  Te158  1  0.23758956  0.44482423  0.91686273  1
  Te  Te159  1  0.25366313  0.77945650  0.27481587  1
  Te  Te160  1  0.27013379  0.73785683  0.59607318  1
  Te  Te161  1  0.25280768  0.75640727  0.92438164  1
  Te  Te162  1  0.58273475  0.10898724  0.23501693  1
  Te  Te163  1  0.57877056  0.09089282  0.57788410  1
  Te  Te164  1  0.59452896  0.10606722  0.91545233  1
  Te  Te165  1  0.57400912  0.41577300  0.24140231  1
  Te  Te166  1  0.57686582  0.42750808  0.58904327  1
  Te  Te167  1  0.61899967  0.42391210  0.82295897  1
  Te  Te168  1  0.60841895  0.74642579  0.25351875  1
  Te  Te169  1  0.56281605  0.70346663  0.59510704  1
  Te  Te170  1  0.56517935  0.74789437  0.91044443  1
  Te  Te171  1  0.93394044  0.12121070  0.23450040  1
  Te  Te172  1  0.89299472  0.07173870  0.60287803  1
  Te  Te173  1  0.91561443  0.08237755  0.88544923  1
  Te  Te174  1  0.90618043  0.40034251  0.26945933  1
  Te  Te175  1  0.94754932  0.48092664  0.49647070  1
  Te  Te176  1  0.93659609  0.43284818  0.91675468  1
  Te  Te177  1  0.88819865  0.73553549  0.24130270  1
  Te  Te178  1  0.91199874  0.77547433  0.59973944  1
  Te  Te179  1  0.91336736  0.74901085  0.90460270  1
